2esj_lig
 OpenBabel11021811423D
libRbt.so/2013.1/901 2013/11/27
 52 56  0  0  0  0  0  0  0  0999 V2000
   16.9454   -6.4180   19.0740 C   0  0  2  0  0  0  0  0  0  0  0  0
   17.3305   -7.7690   19.3927 O   0  0  0  0  0  0  0  0  0  0  0  0
   18.9798  -11.0391   17.1850 C   0  0  2  0  0  0  0  0  0  0  0  0
   19.1904  -12.1828   16.2823 N   0  0  0  0  0  0  0  0  0  0  0  0
   19.1047   -6.6300   15.8391 C   0  0  1  0  0  0  0  0  0  0  0  0
   21.3668   -4.0591   13.3232 C   0  0  1  0  0  0  0  0  0  0  0  0
   26.6644   -4.0748   13.5482 C   0  0  1  0  0  0  0  0  0  0  0  0
   17.5084   -5.4938   20.1937 C   0  0  2  0  0  0  0  0  0  0  0  0
   18.9571   -5.6272   20.3450 N   0  0  0  0  0  0  0  0  0  0  0  0
   17.7879  -11.3367   18.1792 C   0  0  0  0  0  0  0  0  0  0  0  0
   18.4678   -5.5656   14.9447 C   0  0  2  0  0  0  0  0  0  0  0  0
   18.0608   -6.0944   13.6640 O   0  0  0  0  0  0  0  0  0  0  0  0
   22.5353   -4.9008   12.6397 C   0  0  2  0  0  0  0  0  0  0  0  0
   23.1691   -5.8261   13.6160 N   0  0  0  0  0  0  0  0  0  0  0  0
   26.7975   -5.1114   14.6579 C   0  0  1  0  0  0  0  0  0  0  0  0
   27.8453   -6.0403   14.3150 O   0  0  0  0  0  0  0  0  0  0  0  0
   16.8044   -5.7790   21.5582 C   0  0  0  0  0  0  0  0  0  0  0  0
   17.6155  -10.1229   19.1785 C   0  0  2  0  0  0  0  0  0  0  0  0
   16.5052  -10.3683   20.1048 N   0  0  0  0  0  0  0  0  0  0  0  0
   19.5847   -4.5650   14.8717 C   0  0  2  0  0  0  0  0  0  0  0  0
   20.5844   -5.0067   13.9886 O   0  0  0  0  0  0  0  0  0  0  0  0
   23.5376   -3.8991   11.9139 C   0  0  1  0  0  0  0  0  0  0  0  0
   22.7862   -3.0321   11.0581 O   0  0  0  0  0  0  0  0  0  0  0  0
   27.1016   -4.5488   16.0412 C   0  0  1  0  0  0  0  0  0  0  0  0
   27.4229   -5.6578   16.8880 O   0  0  0  0  0  0  0  0  0  0  0  0
   15.2640   -5.6537   21.3654 C   0  0  2  0  0  0  0  0  0  0  0  0
   14.5649   -5.8249   22.5853 O   0  0  0  0  0  0  0  0  0  0  0  0
   17.3836   -8.8052   18.3944 C   0  0  2  0  0  0  0  0  0  0  0  0
   20.2686   -4.5934   16.2542 C   0  0  2  0  0  0  0  0  0  0  0  0
   20.0500   -5.9342   16.6635 O   0  0  0  0  0  0  0  0  0  0  0  0
   24.2652   -2.9530   12.9555 C   0  0  2  0  0  0  0  0  0  0  0  0
   25.0290   -3.8457   13.7679 O   0  0  0  0  0  0  0  0  0  0  0  0
   28.2568   -3.5462   16.0588 C   0  0  2  0  0  0  0  0  0  0  0  0
   28.2154   -2.8850   17.3338 O   0  0  0  0  0  0  0  0  0  0  0  0
   14.8195   -6.6895   20.3031 C   0  0  2  0  0  0  0  0  0  0  0  0
   15.4999   -6.3534   19.0600 O   0  0  0  0  0  0  0  0  0  0  0  0
   18.4656   -8.5093   17.3070 C   0  0  2  0  0  0  0  0  0  0  0  0
   18.1110   -7.2968   16.5854 O   0  0  0  0  0  0  0  0  0  0  0  0
   19.7069   -3.6437   17.3115 C   0  0  0  0  0  0  0  0  0  0  0  0
   20.1381   -2.3171   16.9740 O   0  0  0  0  0  0  0  0  0  0  0  0
   23.1699   -2.4170   13.8573 C   0  0  1  0  0  0  0  0  0  0  0  0
   21.9368   -3.0336   14.2858 O   0  0  0  0  0  0  0  0  0  0  0  0
   28.1979   -2.6041   14.8615 C   0  0  2  0  0  0  0  0  0  0  0  0
   27.6721   -3.0359   13.5970 O   0  0  0  0  0  0  0  0  0  0  0  0
   13.3611   -6.6275   20.0006 C   0  0  0  0  0  0  0  0  0  0  0  0
   12.9256   -7.9422   19.7518 O   0  0  0  0  0  0  0  0  0  0  0  0
   18.6561   -9.7420   16.3603 C   0  0  1  0  0  0  0  0  0  0  0  0
   19.8017   -9.4603   15.5132 O   0  0  0  0  0  0  0  0  0  0  0  0
   23.6027   -1.3644   14.9238 C   0  0  0  0  0  0  0  0  0  0  0  0
   25.0040   -1.5208   15.3673 N   0  0  0  0  0  0  0  0  0  0  0  0
   29.2298   -1.5061   14.6139 C   0  0  0  0  0  0  0  0  0  0  0  0
   30.4424   -2.0813   14.0595 O   0  0  0  0  0  0  0  0  0  0  0  0
  1  2  1  1  0  0  0
  1  8  1  0  0  0  0
  1 36  1  0  0  0  0
  3  4  1  6  0  0  0
  3 10  1  0  0  0  0
  3 47  1  0  0  0  0
  5 11  1  0  0  0  0
  5 30  1  0  0  0  0
  5 38  1  1  0  0  0
  6 21  1  1  0  0  0
  6 42  1  0  0  0  0
  7 15  1  0  0  0  0
  7 44  1  0  0  0  0
  7 32  1  1  0  0  0
  8  9  1  1  0  0  0
  8 17  1  0  0  0  0
 11 12  1  6  0  0  0
 11 20  1  0  0  0  0
 13  6  1  0  0  0  0
 13 14  1  1  0  0  0
 15 16  1  6  0  0  0
 15 24  1  0  0  0  0
 17 26  1  0  0  0  0
 18 10  1  0  0  0  0
 18 19  1  1  0  0  0
 20 21  1  6  0  0  0
 20 29  1  0  0  0  0
 22 13  1  0  0  0  0
 22 23  1  6  0  0  0
 24 25  1  1  0  0  0
 24 33  1  0  0  0  0
 26 27  1  1  0  0  0
 26 35  1  0  0  0  0
 28  2  1  1  0  0  0
 28 18  1  0  0  0  0
 29 30  1  0  0  0  0
 29 39  1  1  0  0  0
 31 22  1  0  0  0  0
 31 32  1  1  0  0  0
 31 41  1  0  0  0  0
 33 34  1  1  0  0  0
 33 43  1  0  0  0  0
 35 36  1  0  0  0  0
 35 45  1  6  0  0  0
 37 28  1  0  0  0  0
 37 38  1  6  0  0  0
 39 40  1  0  0  0  0
 41 42  1  0  0  0  0
 41 49  1  1  0  0  0
 43 44  1  0  0  0  0
 43 51  1  6  0  0  0
 45 46  1  0  0  0  0
 47 37  1  0  0  0  0
 47 48  1  6  0  0  0
 49 50  1  0  0  0  0
 51 52  1  0  0  0  0
M  END
>  <CHROM.1>
-158.65441774,168.48488064,170.00222161,-178.60272002,151.76749232,-171.32294564
-74.45148185,100.56456573,-144.82579954,161.96122431,-28.84328886,78.02585450
21.11385778,-5.57895985,16.39511021,2.93167035,-0.53121556,-2.80513651

>  <Name>
2esj_lig

>  <RI>
0

>  <Rbt.Current_Directory>
/home/itssahil/PROJECTS/Mol_Feturizer/New_Systems/rnas/2esj

>  <Rbt.Executable>
rbdock ($Id: //depot/dev/client3/rdock/2013.1/src/exe/rbdock.cxx#4 $)

>  <Rbt.Library>
libRbt.so (2013.1, Build901 2013/11/27)

>  <Rbt.Parameter_File>
/export/apps/rDock/src/rDock_2013.1_src/data/scripts/dock_solv.prm

>  <Rbt.Receptor>
prm/pocket_docking_2.prm

>  <SCORE>
-22.3623

>  <SCORE.INTER>
-18.8077

>  <SCORE.INTER.CONST>
1

>  <SCORE.INTER.POLAR>
-1.61041

>  <SCORE.INTER.ROT>
12

>  <SCORE.INTER.SOLV>
17.7428

>  <SCORE.INTER.VDW>
-24.6847

>  <SCORE.INTER.norm>
-0.361687

>  <SCORE.INTRA>
-3.60117

>  <SCORE.INTRA.DIHEDRAL>
-10.226

>  <SCORE.INTRA.DIHEDRAL.0>
32.9766

>  <SCORE.INTRA.POLAR>
0

>  <SCORE.INTRA.POLAR.0>
0

>  <SCORE.INTRA.REPUL>
0

>  <SCORE.INTRA.REPUL.0>
0

>  <SCORE.INTRA.SOLV>
1.52553

>  <SCORE.INTRA.SOLV.lig_0>
-114.358

>  <SCORE.INTRA.VDW>
0.749088

>  <SCORE.INTRA.VDW.0>
-8.24257

>  <SCORE.INTRA.norm>
-0.0692532

>  <SCORE.RESTR>
0.046628

>  <SCORE.RESTR.CAVITY>
0.046628

>  <SCORE.RESTR.norm>
0.000896692

>  <SCORE.SYSTEM>
0

>  <SCORE.SYSTEM.CONST>
0

>  <SCORE.SYSTEM.DIHEDRAL>
0

>  <SCORE.SYSTEM.SOLV>
0

>  <SCORE.SYSTEM.norm>
0

>  <SCORE.heavy>
52

>  <SCORE.norm>
-0.430044

>  <RMSD>
0.801

$$$$
2esj_lig
 OpenBabel11021811423D
libRbt.so/2013.1/901 2013/11/27
 52 56  0  0  0  0  0  0  0  0999 V2000
   17.0139   -6.4224   18.9815 C   0  0  2  0  0  0  0  0  0  0  0  0
   17.5582   -7.7267   19.2595 O   0  0  0  0  0  0  0  0  0  0  0  0
   19.3227  -10.9126   17.0180 C   0  0  2  0  0  0  0  0  0  0  0  0
   19.5740  -12.0381   16.1029 N   0  0  0  0  0  0  0  0  0  0  0  0
   19.2569   -6.5650   15.6097 C   0  0  1  0  0  0  0  0  0  0  0  0
   21.3847   -4.1072   12.8917 C   0  0  1  0  0  0  0  0  0  0  0  0
   26.7158   -4.0026   13.3209 C   0  0  1  0  0  0  0  0  0  0  0  0
   17.4386   -5.4795   20.1458 C   0  0  2  0  0  0  0  0  0  0  0  0
   18.8898   -5.4389   20.3238 N   0  0  0  0  0  0  0  0  0  0  0  0
   18.1410  -11.2626   18.0072 C   0  0  0  0  0  0  0  0  0  0  0  0
   18.5543   -5.5278   14.7328 C   0  0  2  0  0  0  0  0  0  0  0  0
   18.0403   -6.0983   13.5098 O   0  0  0  0  0  0  0  0  0  0  0  0
   22.4411   -5.0029   12.1024 C   0  0  2  0  0  0  0  0  0  0  0  0
   23.0771   -5.9990   13.0047 N   0  0  0  0  0  0  0  0  0  0  0  0
   26.7786   -5.0678   14.4094 C   0  0  1  0  0  0  0  0  0  0  0  0
   28.0652   -5.7166   14.3634 O   0  0  0  0  0  0  0  0  0  0  0  0
   16.7521   -5.9018   21.4836 C   0  0  0  0  0  0  0  0  0  0  0  0
   17.9254  -10.0668   19.0197 C   0  0  2  0  0  0  0  0  0  0  0  0
   16.8235  -10.3611   19.9417 N   0  0  0  0  0  0  0  0  0  0  0  0
   19.6669   -4.5398   14.5322 C   0  0  2  0  0  0  0  0  0  0  0  0
   20.5879   -5.0211   13.5865 O   0  0  0  0  0  0  0  0  0  0  0  0
   23.4561   -4.0478   11.3327 C   0  0  1  0  0  0  0  0  0  0  0  0
   22.7075   -3.1057   10.5576 O   0  0  0  0  0  0  0  0  0  0  0  0
   26.5576   -4.5614   15.8296 C   0  0  1  0  0  0  0  0  0  0  0  0
   26.8843   -5.6358   16.7179 O   0  0  0  0  0  0  0  0  0  0  0  0
   15.2116   -5.9601   21.2619 C   0  0  2  0  0  0  0  0  0  0  0  0
   14.5184   -6.2632   22.4593 O   0  0  0  0  0  0  0  0  0  0  0  0
   17.6483   -8.7493   18.2499 C   0  0  2  0  0  0  0  0  0  0  0  0
   20.4622   -4.5248   15.8539 C   0  0  2  0  0  0  0  0  0  0  0  0
   20.2706   -5.8483   16.3281 O   0  0  0  0  0  0  0  0  0  0  0  0
   24.3191   -3.1861   12.3436 C   0  0  2  0  0  0  0  0  0  0  0  0
   25.0752   -4.1532   13.0739 O   0  0  0  0  0  0  0  0  0  0  0  0
   27.4007   -3.3355   16.1852 C   0  0  2  0  0  0  0  0  0  0  0  0
   26.8634   -2.7999   17.4055 O   0  0  0  0  0  0  0  0  0  0  0  0
   14.9174   -7.0011   20.1534 C   0  0  2  0  0  0  0  0  0  0  0  0
   15.5720   -6.5361   18.9384 O   0  0  0  0  0  0  0  0  0  0  0  0
   18.7204   -8.4037   17.1673 C   0  0  2  0  0  0  0  0  0  0  0  0
   18.3244   -7.1964   16.4588 O   0  0  0  0  0  0  0  0  0  0  0  0
   19.9946   -3.5334   16.9189 C   0  0  0  0  0  0  0  0  0  0  0  0
   18.6720   -3.9206   17.3192 O   0  0  0  0  0  0  0  0  0  0  0  0
   23.3300   -2.6070   13.3369 C   0  0  1  0  0  0  0  0  0  0  0  0
   22.0908   -3.1532   13.8374 O   0  0  0  0  0  0  0  0  0  0  0  0
   27.4528   -2.3391   15.0324 C   0  0  2  0  0  0  0  0  0  0  0  0
   27.4042   -2.7759   13.6654 O   0  0  0  0  0  0  0  0  0  0  0  0
   13.4679   -7.1080   19.8217 C   0  0  0  0  0  0  0  0  0  0  0  0
   13.1103   -5.9456   19.1139 O   0  0  0  0  0  0  0  0  0  0  0  0
   18.9547   -9.6185   16.2072 C   0  0  1  0  0  0  0  0  0  0  0  0
   20.0906   -9.2876   15.3649 O   0  0  0  0  0  0  0  0  0  0  0  0
   23.9088   -1.6202   14.3971 C   0  0  0  0  0  0  0  0  0  0  0  0
   23.4475   -1.9008   15.7730 N   0  0  0  0  0  0  0  0  0  0  0  0
   28.2305   -1.0267   15.1001 C   0  0  0  0  0  0  0  0  0  0  0  0
   29.6519   -1.2985   15.2209 O   0  0  0  0  0  0  0  0  0  0  0  0
  1  2  1  1  0  0  0
  1  8  1  0  0  0  0
  1 36  1  0  0  0  0
  3  4  1  6  0  0  0
  3 10  1  0  0  0  0
  3 47  1  0  0  0  0
  5 11  1  0  0  0  0
  5 30  1  0  0  0  0
  5 38  1  1  0  0  0
  6 21  1  1  0  0  0
  6 42  1  0  0  0  0
  7 15  1  0  0  0  0
  7 44  1  0  0  0  0
  7 32  1  1  0  0  0
  8  9  1  1  0  0  0
  8 17  1  0  0  0  0
 11 12  1  6  0  0  0
 11 20  1  0  0  0  0
 13  6  1  0  0  0  0
 13 14  1  1  0  0  0
 15 16  1  1  0  0  0
 15 24  1  0  0  0  0
 17 26  1  0  0  0  0
 18 10  1  0  0  0  0
 18 19  1  1  0  0  0
 20 21  1  6  0  0  0
 20 29  1  0  0  0  0
 22 13  1  0  0  0  0
 22 23  1  6  0  0  0
 24 25  1  1  0  0  0
 24 33  1  0  0  0  0
 26 27  1  1  0  0  0
 26 35  1  0  0  0  0
 28  2  1  1  0  0  0
 28 18  1  0  0  0  0
 29 30  1  0  0  0  0
 29 39  1  1  0  0  0
 31 22  1  0  0  0  0
 31 32  1  1  0  0  0
 31 41  1  0  0  0  0
 33 34  1  1  0  0  0
 33 43  1  0  0  0  0
 35 36  1  0  0  0  0
 35 45  1  6  0  0  0
 37 28  1  0  0  0  0
 37 38  1  6  0  0  0
 39 40  1  0  0  0  0
 41 42  1  0  0  0  0
 41 49  1  1  0  0  0
 43 44  1  0  0  0  0
 43 51  1  6  0  0  0
 45 46  1  0  0  0  0
 47 37  1  0  0  0  0
 47 48  1  6  0  0  0
 49 50  1  0  0  0  0
 51 52  1  0  0  0  0
M  END
>  <CHROM.1>
-164.19296717,167.02353221,171.28424550,165.74363025,156.17683905,-165.64023880
64.09024139,132.07328413,72.46206450,168.52358035,-133.33854922,64.59360832
21.03107428,-5.56385787,16.22345310,-3.07021038,-0.59162176,-2.30005005

>  <Name>
2esj_lig

>  <RI>
0

>  <Rbt.Current_Directory>
/home/itssahil/PROJECTS/Mol_Feturizer/New_Systems/rnas/2esj

>  <Rbt.Executable>
rbdock ($Id: //depot/dev/client3/rdock/2013.1/src/exe/rbdock.cxx#4 $)

>  <Rbt.Library>
libRbt.so (2013.1, Build901 2013/11/27)

>  <Rbt.Parameter_File>
/export/apps/rDock/src/rDock_2013.1_src/data/scripts/dock_solv.prm

>  <Rbt.Receptor>
prm/pocket_docking_2.prm

>  <SCORE>
-23.0958

>  <SCORE.INTER>
-17.3978

>  <SCORE.INTER.CONST>
1

>  <SCORE.INTER.POLAR>
-1.61721

>  <SCORE.INTER.ROT>
12

>  <SCORE.INTER.SOLV>
18.1659

>  <SCORE.INTER.VDW>
-23.8631

>  <SCORE.INTER.norm>
-0.334573

>  <SCORE.INTRA>
-5.69796

>  <SCORE.INTRA.DIHEDRAL>
-13.8701

>  <SCORE.INTRA.DIHEDRAL.0>
32.9766

>  <SCORE.INTRA.POLAR>
0

>  <SCORE.INTRA.POLAR.0>
0

>  <SCORE.INTRA.REPUL>
0

>  <SCORE.INTRA.REPUL.0>
0

>  <SCORE.INTRA.SOLV>
0.647406

>  <SCORE.INTRA.SOLV.lig_0>
-114.358

>  <SCORE.INTRA.VDW>
0.913374

>  <SCORE.INTRA.VDW.0>
-8.24257

>  <SCORE.INTRA.norm>
-0.109576

>  <SCORE.RESTR>
0

>  <SCORE.RESTR.CAVITY>
0

>  <SCORE.RESTR.norm>
0

>  <SCORE.SYSTEM>
0

>  <SCORE.SYSTEM.CONST>
0

>  <SCORE.SYSTEM.DIHEDRAL>
0

>  <SCORE.SYSTEM.SOLV>
0

>  <SCORE.SYSTEM.norm>
0

>  <SCORE.heavy>
52

>  <SCORE.norm>
-0.444149

>  <RMSD>
0.823

$$$$
2esj_lig
 OpenBabel11021811423D
libRbt.so/2013.1/901 2013/11/27
 52 56  0  0  0  0  0  0  0  0999 V2000
   16.8639   -6.3947   19.1999 C   0  0  2  0  0  0  0  0  0  0  0  0
   17.2250   -7.7451   19.5475 O   0  0  0  0  0  0  0  0  0  0  0  0
   18.9572  -11.0083   17.3937 C   0  0  2  0  0  0  0  0  0  0  0  0
   19.1978  -12.1590   16.5075 N   0  0  0  0  0  0  0  0  0  0  0  0
   18.9974   -6.6190   15.9857 C   0  0  1  0  0  0  0  0  0  0  0  0
   21.2749   -4.0498   13.5012 C   0  0  1  0  0  0  0  0  0  0  0  0
   26.4483   -4.3492   13.8544 C   0  0  1  0  0  0  0  0  0  0  0  0
   17.3125   -5.4731   20.3722 C   0  0  2  0  0  0  0  0  0  0  0  0
   18.7410   -5.5993   20.6599 N   0  0  0  0  0  0  0  0  0  0  0  0
   17.7653  -11.3179   18.3841 C   0  0  0  0  0  0  0  0  0  0  0  0
   18.3422   -5.5874   15.0664 C   0  0  2  0  0  0  0  0  0  0  0  0
   17.9555   -6.1507   13.7942 O   0  0  0  0  0  0  0  0  0  0  0  0
   22.4870   -4.8887   12.8946 C   0  0  2  0  0  0  0  0  0  0  0  0
   23.0564   -5.8152   13.9087 N   0  0  0  0  0  0  0  0  0  0  0  0
   26.5866   -5.1667   15.1335 C   0  0  1  0  0  0  0  0  0  0  0  0
   27.4497   -6.2942   14.8839 O   0  0  0  0  0  0  0  0  0  0  0  0
   16.4837   -5.7691   21.6624 C   0  0  0  0  0  0  0  0  0  0  0  0
   17.5607  -10.0951   19.3663 C   0  0  2  0  0  0  0  0  0  0  0  0
   16.4497  -10.3518   20.2885 N   0  0  0  0  0  0  0  0  0  0  0  0
   19.4366   -4.5633   14.9800 C   0  0  2  0  0  0  0  0  0  0  0  0
   20.4516   -4.9996   14.1118 O   0  0  0  0  0  0  0  0  0  0  0  0
   23.5336   -3.8843   12.2382 C   0  0  1  0  0  0  0  0  0  0  0  0
   22.8391   -3.0165   11.3365 O   0  0  0  0  0  0  0  0  0  0  0  0
   27.1386   -4.4083   16.3344 C   0  0  1  0  0  0  0  0  0  0  0  0
   27.4183   -5.3745   17.3534 O   0  0  0  0  0  0  0  0  0  0  0  0
   14.9679   -5.6513   21.3246 C   0  0  2  0  0  0  0  0  0  0  0  0
   14.1571   -5.8326   22.4717 O   0  0  0  0  0  0  0  0  0  0  0  0
   17.3065   -8.7929   18.5634 C   0  0  2  0  0  0  0  0  0  0  0  0
   20.1122   -4.5486   16.3667 C   0  0  2  0  0  0  0  0  0  0  0  0
   19.9214   -5.8856   16.8016 O   0  0  0  0  0  0  0  0  0  0  0  0
   24.1898   -2.9395   13.3273 C   0  0  2  0  0  0  0  0  0  0  0  0
   24.8996   -3.8329   14.1866 O   0  0  0  0  0  0  0  0  0  0  0  0
   28.4081   -3.6111   16.0297 C   0  0  2  0  0  0  0  0  0  0  0  0
   28.6197   -2.7238   17.1400 O   0  0  0  0  0  0  0  0  0  0  0  0
   14.6326   -6.6840   20.2201 C   0  0  2  0  0  0  0  0  0  0  0  0
   15.4259   -6.3379   19.0489 O   0  0  0  0  0  0  0  0  0  0  0  0
   18.3894   -8.4885   17.4791 C   0  0  2  0  0  0  0  0  0  0  0  0
   18.0142   -7.2932   16.7394 O   0  0  0  0  0  0  0  0  0  0  0  0
   19.5224   -3.5910   17.4015 C   0  0  0  0  0  0  0  0  0  0  0  0
   19.6238   -2.2624   16.8683 O   0  0  0  0  0  0  0  0  0  0  0  0
   23.0368   -2.4066   14.1560 C   0  0  1  0  0  0  0  0  0  0  0  0
   21.7789   -3.0255   14.5012 O   0  0  0  0  0  0  0  0  0  0  0  0
   28.3191   -2.9130   14.6772 C   0  0  2  0  0  0  0  0  0  0  0  0
   27.5817   -3.4881   13.5875 O   0  0  0  0  0  0  0  0  0  0  0  0
   13.2091   -6.6285   19.7807 C   0  0  0  0  0  0  0  0  0  0  0  0
   12.7220   -7.9485   19.7606 O   0  0  0  0  0  0  0  0  0  0  0  0
   18.6120   -9.7292   16.5500 C   0  0  1  0  0  0  0  0  0  0  0  0
   19.7571   -9.4345   15.7066 O   0  0  0  0  0  0  0  0  0  0  0  0
   23.3970   -1.3556   15.2508 C   0  0  0  0  0  0  0  0  0  0  0  0
   24.1752   -1.9210   16.3731 N   0  0  0  0  0  0  0  0  0  0  0  0
   29.4456   -2.0540   14.1073 C   0  0  0  0  0  0  0  0  0  0  0  0
   29.8277   -1.0357   15.0694 O   0  0  0  0  0  0  0  0  0  0  0  0
  1  2  1  1  0  0  0
  1  8  1  0  0  0  0
  1 36  1  0  0  0  0
  3  4  1  6  0  0  0
  3 10  1  0  0  0  0
  3 47  1  0  0  0  0
  5 11  1  0  0  0  0
  5 30  1  0  0  0  0
  5 38  1  1  0  0  0
  6 21  1  1  0  0  0
  6 42  1  0  0  0  0
  7 15  1  0  0  0  0
  7 44  1  0  0  0  0
  7 32  1  1  0  0  0
  8  9  1  1  0  0  0
  8 17  1  0  0  0  0
 11 12  1  6  0  0  0
 11 20  1  0  0  0  0
 13  6  1  0  0  0  0
 13 14  1  1  0  0  0
 15 16  1  6  0  0  0
 15 24  1  0  0  0  0
 17 26  1  0  0  0  0
 18 10  1  0  0  0  0
 18 19  1  1  0  0  0
 20 21  1  6  0  0  0
 20 29  1  0  0  0  0
 22 13  1  0  0  0  0
 22 23  1  6  0  0  0
 24 25  1  1  0  0  0
 24 33  1  0  0  0  0
 26 27  1  1  0  0  0
 26 35  1  0  0  0  0
 28  2  1  1  0  0  0
 28 18  1  0  0  0  0
 29 30  1  0  0  0  0
 29 39  1  1  0  0  0
 31 22  1  0  0  0  0
 31 32  1  1  0  0  0
 31 41  1  0  0  0  0
 33 34  1  1  0  0  0
 33 43  1  0  0  0  0
 35 36  1  0  0  0  0
 35 45  1  6  0  0  0
 37 28  1  0  0  0  0
 37 38  1  6  0  0  0
 39 40  1  0  0  0  0
 41 42  1  0  0  0  0
 41 49  1  1  0  0  0
 43 44  1  0  0  0  0
 43 51  1  6  0  0  0
 45 46  1  0  0  0  0
 47 37  1  0  0  0  0
 47 48  1  6  0  0  0
 49 50  1  0  0  0  0
 51 52  1  0  0  0  0
M  END
>  <CHROM.1>
-162.17346983,168.02483450,166.90851188,177.69778885,156.00430614,-173.77796310
-59.87273381,85.16904974,-132.51641874,162.25524832,-68.87741418,-53.52742018
20.98325696,-5.57910252,16.57542370,2.83356398,-0.46373761,-3.00972970

>  <Name>
2esj_lig

>  <RI>
0

>  <Rbt.Current_Directory>
/home/itssahil/PROJECTS/Mol_Feturizer/New_Systems/rnas/2esj

>  <Rbt.Executable>
rbdock ($Id: //depot/dev/client3/rdock/2013.1/src/exe/rbdock.cxx#4 $)

>  <Rbt.Library>
libRbt.so (2013.1, Build901 2013/11/27)

>  <Rbt.Parameter_File>
/export/apps/rDock/src/rDock_2013.1_src/data/scripts/dock_solv.prm

>  <Rbt.Receptor>
prm/pocket_docking_2.prm

>  <SCORE>
-25.0046

>  <SCORE.INTER>
-18.6422

>  <SCORE.INTER.CONST>
1

>  <SCORE.INTER.POLAR>
-1.63301

>  <SCORE.INTER.ROT>
12

>  <SCORE.INTER.SOLV>
18.2281

>  <SCORE.INTER.VDW>
-24.6608

>  <SCORE.INTER.norm>
-0.358503

>  <SCORE.INTRA>
-6.37076

>  <SCORE.INTRA.DIHEDRAL>
-13.5673

>  <SCORE.INTRA.DIHEDRAL.0>
32.9766

>  <SCORE.INTRA.POLAR>
0

>  <SCORE.INTRA.POLAR.0>
0

>  <SCORE.INTRA.REPUL>
0

>  <SCORE.INTRA.REPUL.0>
0

>  <SCORE.INTRA.SOLV>
-1.3175

>  <SCORE.INTRA.SOLV.lig_0>
-114.358

>  <SCORE.INTRA.VDW>
1.07165

>  <SCORE.INTRA.VDW.0>
-8.24257

>  <SCORE.INTRA.norm>
-0.122515

>  <SCORE.RESTR>
0.0083298

>  <SCORE.RESTR.CAVITY>
0.0083298

>  <SCORE.RESTR.norm>
0.000160188

>  <SCORE.SYSTEM>
0

>  <SCORE.SYSTEM.CONST>
0

>  <SCORE.SYSTEM.DIHEDRAL>
0

>  <SCORE.SYSTEM.SOLV>
0

>  <SCORE.SYSTEM.norm>
0

>  <SCORE.heavy>
52

>  <SCORE.norm>
-0.480858

>  <RMSD>
0.904

$$$$
2esj_lig
 OpenBabel11021811423D
libRbt.so/2013.1/901 2013/11/27
 52 56  0  0  0  0  0  0  0  0999 V2000
   17.0058   -6.1740   18.9065 C   0  0  2  0  0  0  0  0  0  0  0  0
   17.6857   -7.4235   19.1329 O   0  0  0  0  0  0  0  0  0  0  0  0
   19.3626  -10.6966   16.9506 C   0  0  2  0  0  0  0  0  0  0  0  0
   19.5887  -11.8326   16.0419 N   0  0  0  0  0  0  0  0  0  0  0  0
   19.5769   -6.3665   15.5326 C   0  0  1  0  0  0  0  0  0  0  0  0
   21.8972   -4.3104   12.6688 C   0  0  1  0  0  0  0  0  0  0  0  0
   27.0149   -4.1663   13.5337 C   0  0  1  0  0  0  0  0  0  0  0  0
   17.3581   -5.2273   20.0917 C   0  0  2  0  0  0  0  0  0  0  0  0
   18.8012   -5.0439   20.2433 N   0  0  0  0  0  0  0  0  0  0  0  0
   18.1256  -10.9837   17.8912 C   0  0  0  0  0  0  0  0  0  0  0  0
   18.9340   -5.7817   14.2744 C   0  0  2  0  0  0  0  0  0  0  0  0
   18.8022   -6.7583   13.2187 O   0  0  0  0  0  0  0  0  0  0  0  0
   23.2070   -5.1638   12.3568 C   0  0  2  0  0  0  0  0  0  0  0  0
   23.7177   -5.8275   13.5854 N   0  0  0  0  0  0  0  0  0  0  0  0
   26.9412   -5.0902   14.7438 C   0  0  1  0  0  0  0  0  0  0  0  0
   27.8685   -6.1795   14.5652 O   0  0  0  0  0  0  0  0  0  0  0  0
   16.7477   -5.7567   21.4282 C   0  0  0  0  0  0  0  0  0  0  0  0
   17.9351   -9.7796   18.8989 C   0  0  2  0  0  0  0  0  0  0  0  0
   16.7833  -10.0153   19.7758 N   0  0  0  0  0  0  0  0  0  0  0  0
   19.8940   -4.6687   13.9681 C   0  0  2  0  0  0  0  0  0  0  0  0
   21.0668   -5.1769   13.3845 O   0  0  0  0  0  0  0  0  0  0  0  0
   24.2610   -4.2369   11.6051 C   0  0  1  0  0  0  0  0  0  0  0  0
   23.6175   -3.6171   10.4869 O   0  0  0  0  0  0  0  0  0  0  0  0
   27.2415   -4.4318   16.0850 C   0  0  1  0  0  0  0  0  0  0  0  0
   27.3587   -5.4793   17.0541 O   0  0  0  0  0  0  0  0  0  0  0  0
   15.2166   -5.9656   21.2341 C   0  0  2  0  0  0  0  0  0  0  0  0
   14.5843   -6.3731   22.4342 O   0  0  0  0  0  0  0  0  0  0  0  0
   17.7602   -8.4479   18.1238 C   0  0  2  0  0  0  0  0  0  0  0  0
   20.3616   -4.1261   15.3343 C   0  0  2  0  0  0  0  0  0  0  0  0
   20.2793   -5.2812   16.1540 O   0  0  0  0  0  0  0  0  0  0  0  0
   24.7526   -3.0504   12.5324 C   0  0  2  0  0  0  0  0  0  0  0  0
   25.4170   -3.7024   13.6158 O   0  0  0  0  0  0  0  0  0  0  0  0
   28.5211   -3.5935   16.0874 C   0  0  2  0  0  0  0  0  0  0  0  0
   28.4995   -2.8036   17.2876 O   0  0  0  0  0  0  0  0  0  0  0  0
   15.0052   -6.9982   20.0991 C   0  0  2  0  0  0  0  0  0  0  0  0
   15.5822   -6.4331   18.8872 O   0  0  0  0  0  0  0  0  0  0  0  0
   18.8914   -8.1591   17.0855 C   0  0  2  0  0  0  0  0  0  0  0  0
   18.5894   -6.9310   16.3664 O   0  0  0  0  0  0  0  0  0  0  0  0
   19.5184   -3.0090   15.9482 C   0  0  0  0  0  0  0  0  0  0  0  0
   18.2470   -3.5723   16.3030 O   0  0  0  0  0  0  0  0  0  0  0  0
   23.4950   -2.4479   13.1287 C   0  0  1  0  0  0  0  0  0  0  0  0
   22.2425   -3.0748   13.4794 O   0  0  0  0  0  0  0  0  0  0  0  0
   28.6601   -2.7815   14.8046 C   0  0  2  0  0  0  0  0  0  0  0  0
   28.1519   -3.2695   13.5534 O   0  0  0  0  0  0  0  0  0  0  0  0
   13.5671   -7.2427   19.7917 C   0  0  0  0  0  0  0  0  0  0  0  0
   13.0324   -6.0412   19.2912 O   0  0  0  0  0  0  0  0  0  0  0  0
   19.0974   -9.3832   16.1308 C   0  0  1  0  0  0  0  0  0  0  0  0
   20.2819   -9.1129   15.3351 O   0  0  0  0  0  0  0  0  0  0  0  0
   23.6864   -1.1777   14.0134 C   0  0  0  0  0  0  0  0  0  0  0  0
   24.2445   -1.4726   15.3499 N   0  0  0  0  0  0  0  0  0  0  0  0
   29.8458   -1.8605   14.5260 C   0  0  0  0  0  0  0  0  0  0  0  0
   29.4546   -0.4758   14.7215 O   0  0  0  0  0  0  0  0  0  0  0  0
  1  2  1  1  0  0  0
  1  8  1  0  0  0  0
  1 36  1  0  0  0  0
  3  4  1  6  0  0  0
  3 10  1  0  0  0  0
  3 47  1  0  0  0  0
  5 11  1  0  0  0  0
  5 30  1  0  0  0  0
  5 38  1  1  0  0  0
  6 21  1  1  0  0  0
  6 42  1  0  0  0  0
  7 15  1  0  0  0  0
  7 44  1  0  0  0  0
  7 32  1  1  0  0  0
  8  9  1  1  0  0  0
  8 17  1  0  0  0  0
 11 12  1  6  0  0  0
 11 20  1  0  0  0  0
 13  6  1  0  0  0  0
 13 14  1  1  0  0  0
 15 16  1  6  0  0  0
 15 24  1  0  0  0  0
 17 26  1  0  0  0  0
 18 10  1  0  0  0  0
 18 19  1  6  0  0  0
 20 21  1  1  0  0  0
 20 29  1  0  0  0  0
 22 13  1  0  0  0  0
 22 23  1  6  0  0  0
 24 25  1  1  0  0  0
 24 33  1  0  0  0  0
 26 27  1  1  0  0  0
 26 35  1  0  0  0  0
 28  2  1  1  0  0  0
 28 18  1  0  0  0  0
 29 30  1  0  0  0  0
 29 39  1  1  0  0  0
 31 22  1  0  0  0  0
 31 32  1  1  0  0  0
 31 41  1  0  0  0  0
 33 34  1  1  0  0  0
 33 43  1  0  0  0  0
 35 36  1  0  0  0  0
 35 45  1  6  0  0  0
 37 28  1  0  0  0  0
 37 38  1  6  0  0  0
 39 40  1  0  0  0  0
 41 42  1  0  0  0  0
 41 49  1  1  0  0  0
 43 44  1  0  0  0  0
 43 51  1  6  0  0  0
 45 46  1  0  0  0  0
 47 37  1  0  0  0  0
 47 48  1  6  0  0  0
 49 50  1  0  0  0  0
 51 52  1  0  0  0  0
M  END
>  <CHROM.1>
-169.47718952,142.29169079,171.58495503,-164.74551819,160.93134067,-154.20259574
67.84610232,84.96911477,64.75635920,169.99221844,-74.95688945,-103.49280784
21.31966311,-5.49267460,16.11209794,-3.00353605,-0.53744767,-2.17608049

>  <Name>
2esj_lig

>  <RI>
0

>  <Rbt.Current_Directory>
/home/itssahil/PROJECTS/Mol_Feturizer/New_Systems/rnas/2esj

>  <Rbt.Executable>
rbdock ($Id: //depot/dev/client3/rdock/2013.1/src/exe/rbdock.cxx#4 $)

>  <Rbt.Library>
libRbt.so (2013.1, Build901 2013/11/27)

>  <Rbt.Parameter_File>
/export/apps/rDock/src/rDock_2013.1_src/data/scripts/dock_solv.prm

>  <Rbt.Receptor>
prm/pocket_docking_2.prm

>  <SCORE>
-18.8428

>  <SCORE.INTER>
-14.3182

>  <SCORE.INTER.CONST>
1

>  <SCORE.INTER.POLAR>
-0.979796

>  <SCORE.INTER.ROT>
12

>  <SCORE.INTER.SOLV>
18.9156

>  <SCORE.INTER.VDW>
-24.1846

>  <SCORE.INTER.norm>
-0.275349

>  <SCORE.INTRA>
-4.81704

>  <SCORE.INTRA.DIHEDRAL>
-12.1263

>  <SCORE.INTRA.DIHEDRAL.0>
32.9766

>  <SCORE.INTRA.POLAR>
0

>  <SCORE.INTRA.POLAR.0>
0

>  <SCORE.INTRA.REPUL>
0

>  <SCORE.INTRA.REPUL.0>
0

>  <SCORE.INTRA.SOLV>
-0.649791

>  <SCORE.INTRA.SOLV.lig_0>
-114.358

>  <SCORE.INTRA.VDW>
1.57103

>  <SCORE.INTRA.VDW.0>
-8.24257

>  <SCORE.INTRA.norm>
-0.0926353

>  <SCORE.RESTR>
0.292424

>  <SCORE.RESTR.CAVITY>
0.292424

>  <SCORE.RESTR.norm>
0.00562353

>  <SCORE.SYSTEM>
0

>  <SCORE.SYSTEM.CONST>
0

>  <SCORE.SYSTEM.DIHEDRAL>
0

>  <SCORE.SYSTEM.SOLV>
0

>  <SCORE.SYSTEM.norm>
0

>  <SCORE.heavy>
52

>  <SCORE.norm>
-0.362361

>  <RMSD>
0.910

$$$$
2esj_lig
 OpenBabel11021811423D
libRbt.so/2013.1/901 2013/11/27
 52 56  0  0  0  0  0  0  0  0999 V2000
   17.0907   -6.0903   18.9615 C   0  0  2  0  0  0  0  0  0  0  0  0
   17.7718   -7.3467   19.1416 O   0  0  0  0  0  0  0  0  0  0  0  0
   19.6622  -10.4305   16.8602 C   0  0  2  0  0  0  0  0  0  0  0  0
   19.9774  -11.4883   15.8861 N   0  0  0  0  0  0  0  0  0  0  0  0
   19.8107   -6.1806   15.5227 C   0  0  1  0  0  0  0  0  0  0  0  0
   21.9599   -4.4475   12.4105 C   0  0  1  0  0  0  0  0  0  0  0  0
   26.9276   -4.0705   13.8707 C   0  0  1  0  0  0  0  0  0  0  0  0
   17.4072   -5.2036   20.2019 C   0  0  2  0  0  0  0  0  0  0  0  0
   18.8449   -5.0217   20.3997 N   0  0  0  0  0  0  0  0  0  0  0  0
   18.3477  -10.7934   17.6588 C   0  0  0  0  0  0  0  0  0  0  0  0
   19.0362   -5.7146   14.2892 C   0  0  2  0  0  0  0  0  0  0  0  0
   18.7717   -6.7925   13.3654 O   0  0  0  0  0  0  0  0  0  0  0  0
   23.3119   -5.2899   12.3507 C   0  0  2  0  0  0  0  0  0  0  0  0
   23.6772   -5.8105   13.6948 N   0  0  0  0  0  0  0  0  0  0  0  0
   26.7474   -4.7309   15.2326 C   0  0  1  0  0  0  0  0  0  0  0  0
   27.6974   -5.8071   15.3665 O   0  0  0  0  0  0  0  0  0  0  0  0
   16.7660   -5.8030   21.4936 C   0  0  0  0  0  0  0  0  0  0  0  0
   18.0584   -9.6758   18.7399 C   0  0  2  0  0  0  0  0  0  0  0  0
   16.8341   -9.9823   19.4870 N   0  0  0  0  0  0  0  0  0  0  0  0
   19.9697   -4.6644   13.7602 C   0  0  2  0  0  0  0  0  0  0  0  0
   21.0614   -5.2605   13.1065 O   0  0  0  0  0  0  0  0  0  0  0  0
   24.4358   -4.4141   11.6403 C   0  0  1  0  0  0  0  0  0  0  0  0
   23.9258   -3.9299   10.3936 O   0  0  0  0  0  0  0  0  0  0  0  0
   26.9128   -3.8054   16.4320 C   0  0  1  0  0  0  0  0  0  0  0  0
   26.9468   -4.6302   17.6018 O   0  0  0  0  0  0  0  0  0  0  0  0
   15.2416   -6.0086   21.2497 C   0  0  2  0  0  0  0  0  0  0  0  0
   14.5812   -6.4794   22.4110 O   0  0  0  0  0  0  0  0  0  0  0  0
   17.9444   -8.2851   18.0632 C   0  0  2  0  0  0  0  0  0  0  0  0
   20.5975   -3.9939   14.9996 C   0  0  2  0  0  0  0  0  0  0  0  0
   20.5938   -5.0545   15.9420 O   0  0  0  0  0  0  0  0  0  0  0  0
   24.7894   -3.1259   12.4915 C   0  0  2  0  0  0  0  0  0  0  0  0
   25.3250   -3.6451   13.7097 O   0  0  0  0  0  0  0  0  0  0  0  0
   28.1787   -2.9482   16.3792 C   0  0  2  0  0  0  0  0  0  0  0  0
   28.0359   -1.9318   17.3848 O   0  0  0  0  0  0  0  0  0  0  0  0
   15.0652   -6.9830   20.0587 C   0  0  2  0  0  0  0  0  0  0  0  0
   15.6696   -6.3545   18.8923 O   0  0  0  0  0  0  0  0  0  0  0  0
   19.1623   -7.9124   17.1583 C   0  0  2  0  0  0  0  0  0  0  0  0
   18.9173   -6.6295   16.5175 O   0  0  0  0  0  0  0  0  0  0  0  0
   19.8448   -2.7977   15.5813 C   0  0  0  0  0  0  0  0  0  0  0  0
   18.6173   -3.2891   16.1393 O   0  0  0  0  0  0  0  0  0  0  0  0
   23.4581   -2.5026   12.8644 C   0  0  1  0  0  0  0  0  0  0  0  0
   22.1821   -3.1265   13.1238 O   0  0  0  0  0  0  0  0  0  0  0  0
   28.4318   -2.4103   14.9753 C   0  0  2  0  0  0  0  0  0  0  0  0
   28.0494   -3.1566   13.8098 O   0  0  0  0  0  0  0  0  0  0  0  0
   13.6368   -7.2181   19.7024 C   0  0  0  0  0  0  0  0  0  0  0  0
   13.1293   -6.0148   19.1782 O   0  0  0  0  0  0  0  0  0  0  0  0
   19.4623   -9.0543   16.1296 C   0  0  1  0  0  0  0  0  0  0  0  0
   20.7116   -8.7200   15.4688 O   0  0  0  0  0  0  0  0  0  0  0  0
   23.5178   -1.1441   13.6286 C   0  0  0  0  0  0  0  0  0  0  0  0
   24.5694   -1.1008   14.6663 N   0  0  0  0  0  0  0  0  0  0  0  0
   29.6303   -1.5319   14.6233 C   0  0  0  0  0  0  0  0  0  0  0  0
   30.8378   -2.0809   15.2142 O   0  0  0  0  0  0  0  0  0  0  0  0
  1  2  1  1  0  0  0
  1  8  1  0  0  0  0
  1 36  1  0  0  0  0
  3  4  1  6  0  0  0
  3 10  1  0  0  0  0
  3 47  1  0  0  0  0
  5 11  1  0  0  0  0
  5 30  1  0  0  0  0
  5 38  1  1  0  0  0
  6 21  1  1  0  0  0
  6 42  1  0  0  0  0
  7 15  1  0  0  0  0
  7 44  1  0  0  0  0
  7 32  1  1  0  0  0
  8  9  1  1  0  0  0
  8 17  1  0  0  0  0
 11 12  1  6  0  0  0
 11 20  1  0  0  0  0
 13  6  1  0  0  0  0
 13 14  1  1  0  0  0
 15 16  1  1  0  0  0
 15 24  1  0  0  0  0
 17 26  1  0  0  0  0
 18 10  1  0  0  0  0
 18 19  1  6  0  0  0
 20 21  1  6  0  0  0
 20 29  1  0  0  0  0
 22 13  1  0  0  0  0
 22 23  1  6  0  0  0
 24 25  1  1  0  0  0
 24 33  1  0  0  0  0
 26 27  1  1  0  0  0
 26 35  1  0  0  0  0
 28  2  1  1  0  0  0
 28 18  1  0  0  0  0
 29 30  1  0  0  0  0
 29 39  1  1  0  0  0
 31 22  1  0  0  0  0
 31 32  1  1  0  0  0
 31 41  1  0  0  0  0
 33 34  1  1  0  0  0
 33 43  1  0  0  0  0
 35 36  1  0  0  0  0
 35 45  1  6  0  0  0
 37 28  1  0  0  0  0
 37 38  1  6  0  0  0
 39 40  1  0  0  0  0
 41 42  1  0  0  0  0
 41 49  1  1  0  0  0
 43 44  1  0  0  0  0
 43 51  1  6  0  0  0
 45 46  1  0  0  0  0
 47 37  1  0  0  0  0
 47 48  1  1  0  0  0
 49 50  1  0  0  0  0
 51 52  1  0  0  0  0
M  END
>  <CHROM.1>
-165.85909387,131.32371333,156.64361001,-170.80838389,172.58855654,-153.37906534
68.07738337,84.88364734,68.06052886,-171.91974913,-41.43167994,45.07574803
21.40577999,-5.37783747,16.11902043,-2.80529015,-0.44571951,-1.74366142

>  <Name>
2esj_lig

>  <RI>
0

>  <Rbt.Current_Directory>
/home/itssahil/PROJECTS/Mol_Feturizer/New_Systems/rnas/2esj

>  <Rbt.Executable>
rbdock ($Id: //depot/dev/client3/rdock/2013.1/src/exe/rbdock.cxx#4 $)

>  <Rbt.Library>
libRbt.so (2013.1, Build901 2013/11/27)

>  <Rbt.Parameter_File>
/export/apps/rDock/src/rDock_2013.1_src/data/scripts/dock_solv.prm

>  <Rbt.Receptor>
prm/pocket_docking_2.prm

>  <SCORE>
-13.4201

>  <SCORE.INTER>
-12.4676

>  <SCORE.INTER.CONST>
1

>  <SCORE.INTER.POLAR>
-1.09894

>  <SCORE.INTER.ROT>
12

>  <SCORE.INTER.SOLV>
16.436

>  <SCORE.INTER.VDW>
-21.7273

>  <SCORE.INTER.norm>
-0.239762

>  <SCORE.INTRA>
-1.09988

>  <SCORE.INTRA.DIHEDRAL>
-11.1333

>  <SCORE.INTRA.DIHEDRAL.0>
32.9766

>  <SCORE.INTRA.POLAR>
0

>  <SCORE.INTRA.POLAR.0>
0

>  <SCORE.INTRA.REPUL>
0.00718429

>  <SCORE.INTRA.REPUL.0>
0

>  <SCORE.INTRA.SOLV>
1.60752

>  <SCORE.INTRA.SOLV.lig_0>
-114.358

>  <SCORE.INTRA.VDW>
3.62712

>  <SCORE.INTRA.VDW.0>
-8.24257

>  <SCORE.INTRA.norm>
-0.0211515

>  <SCORE.RESTR>
0.147398

>  <SCORE.RESTR.CAVITY>
0.147398

>  <SCORE.RESTR.norm>
0.00283457

>  <SCORE.SYSTEM>
0

>  <SCORE.SYSTEM.CONST>
0

>  <SCORE.SYSTEM.DIHEDRAL>
0

>  <SCORE.SYSTEM.SOLV>
0

>  <SCORE.SYSTEM.norm>
0

>  <SCORE.heavy>
52

>  <SCORE.norm>
-0.258079

>  <RMSD>
1.033

$$$$
2esj_lig
 OpenBabel11021811423D
libRbt.so/2013.1/901 2013/11/27
 52 56  0  0  0  0  0  0  0  0999 V2000
   17.2703   -6.3880   18.7883 C   0  0  2  0  0  0  0  0  0  0  0  0
   17.7186   -7.7208   19.1009 O   0  0  0  0  0  0  0  0  0  0  0  0
   19.5804  -10.8000   16.7901 C   0  0  2  0  0  0  0  0  0  0  0  0
   19.8607  -11.9164   15.8722 N   0  0  0  0  0  0  0  0  0  0  0  0
   19.1690   -6.1322   15.9066 C   0  0  1  0  0  0  0  0  0  0  0  0
   21.6945   -3.6527   13.5973 C   0  0  1  0  0  0  0  0  0  0  0  0
   27.0100   -4.3018   13.3784 C   0  0  1  0  0  0  0  0  0  0  0  0
   17.7159   -5.4580   19.9551 C   0  0  2  0  0  0  0  0  0  0  0  0
   19.1598   -5.5090   20.1829 N   0  0  0  0  0  0  0  0  0  0  0  0
   18.4854  -11.2214   17.8488 C   0  0  0  0  0  0  0  0  0  0  0  0
   19.2509   -5.9975   14.3856 C   0  0  2  0  0  0  0  0  0  0  0  0
   20.2590   -6.8566   13.8102 O   0  0  0  0  0  0  0  0  0  0  0  0
   22.5758   -4.8316   12.9851 C   0  0  2  0  0  0  0  0  0  0  0  0
   23.2043   -5.6431   14.0609 N   0  0  0  0  0  0  0  0  0  0  0  0
   27.1162   -5.1922   14.6110 C   0  0  1  0  0  0  0  0  0  0  0  0
   28.1921   -6.1334   14.4241 O   0  0  0  0  0  0  0  0  0  0  0  0
   16.9584   -5.8156   21.2732 C   0  0  0  0  0  0  0  0  0  0  0  0
   18.2410  -10.0312   18.8613 C   0  0  2  0  0  0  0  0  0  0  0  0
   17.2176  -10.3921   19.8478 N   0  0  0  0  0  0  0  0  0  0  0  0
   19.5439   -4.5307   14.2559 C   0  0  2  0  0  0  0  0  0  0  0  0
   20.8906   -4.2690   14.5600 O   0  0  0  0  0  0  0  0  0  0  0  0
   23.5922   -4.2194   11.9233 C   0  0  1  0  0  0  0  0  0  0  0  0
   22.8601   -3.4155   10.9924 O   0  0  0  0  0  0  0  0  0  0  0  0
   27.3556   -4.4588   15.9252 C   0  0  1  0  0  0  0  0  0  0  0  0
   27.6615   -5.4492   16.9131 O   0  0  0  0  0  0  0  0  0  0  0  0
   15.4257   -5.7771   20.9988 C   0  0  2  0  0  0  0  0  0  0  0  0
   14.6740   -6.0173   22.1749 O   0  0  0  0  0  0  0  0  0  0  0  0
   17.8255   -8.7473   18.0970 C   0  0  2  0  0  0  0  0  0  0  0  0
   18.7634   -3.8415   15.3941 C   0  0  2  0  0  0  0  0  0  0  0  0
   18.7434   -4.8510   16.3909 O   0  0  0  0  0  0  0  0  0  0  0  0
   24.6311   -3.2428   12.6134 C   0  0  2  0  0  0  0  0  0  0  0  0
   25.3636   -4.0827   13.5070 O   0  0  0  0  0  0  0  0  0  0  0  0
   28.4923   -3.4371   15.8629 C   0  0  2  0  0  0  0  0  0  0  0  0
   28.3893   -2.6264   17.0448 O   0  0  0  0  0  0  0  0  0  0  0  0
   15.1020   -6.8128   19.8935 C   0  0  2  0  0  0  0  0  0  0  0  0
   15.8264   -6.4086   18.6964 O   0  0  0  0  0  0  0  0  0  0  0  0
   18.8064   -8.3394   16.9514 C   0  0  2  0  0  0  0  0  0  0  0  0
   18.2839   -7.1733   16.2561 O   0  0  0  0  0  0  0  0  0  0  0  0
   17.3303   -3.4158   15.0765 C   0  0  0  0  0  0  0  0  0  0  0  0
   16.5587   -4.6094   14.8778 O   0  0  0  0  0  0  0  0  0  0  0  0
   23.8074   -2.3266   13.4980 C   0  0  1  0  0  0  0  0  0  0  0  0
   22.5800   -2.5850   14.2129 O   0  0  0  0  0  0  0  0  0  0  0  0
   28.4654   -2.6494   14.5578 C   0  0  2  0  0  0  0  0  0  0  0  0
   27.9975   -3.2433   13.3370 O   0  0  0  0  0  0  0  0  0  0  0  0
   13.6607   -6.8302   19.5129 C   0  0  0  0  0  0  0  0  0  0  0  0
   12.9327   -7.2613   20.6373 O   0  0  0  0  0  0  0  0  0  0  0  0
   19.0737   -9.5466   15.9904 C   0  0  1  0  0  0  0  0  0  0  0  0
   20.1329   -9.1456   15.0811 O   0  0  0  0  0  0  0  0  0  0  0  0
   24.5816   -1.1843   14.2251 C   0  0  0  0  0  0  0  0  0  0  0  0
   23.8095    0.0714   14.3325 N   0  0  0  0  0  0  0  0  0  0  0  0
   29.4878   -1.5680   14.2162 C   0  0  0  0  0  0  0  0  0  0  0  0
   29.4067   -0.4863   15.1817 O   0  0  0  0  0  0  0  0  0  0  0  0
  1  2  1  1  0  0  0
  1  8  1  0  0  0  0
  1 36  1  0  0  0  0
  3  4  1  6  0  0  0
  3 10  1  0  0  0  0
  3 47  1  0  0  0  0
  5 11  1  0  0  0  0
  5 30  1  0  0  0  0
  5 38  1  6  0  0  0
  6 21  1  1  0  0  0
  6 42  1  0  0  0  0
  7 15  1  0  0  0  0
  7 44  1  0  0  0  0
  7 32  1  1  0  0  0
  8  9  1  1  0  0  0
  8 17  1  0  0  0  0
 11 12  1  1  0  0  0
 11 20  1  0  0  0  0
 13  6  1  0  0  0  0
 13 14  1  1  0  0  0
 15 16  1  6  0  0  0
 15 24  1  0  0  0  0
 17 26  1  0  0  0  0
 18 10  1  0  0  0  0
 18 19  1  1  0  0  0
 20 21  1  1  0  0  0
 20 29  1  0  0  0  0
 22 13  1  0  0  0  0
 22 23  1  6  0  0  0
 24 25  1  1  0  0  0
 24 33  1  0  0  0  0
 26 27  1  1  0  0  0
 26 35  1  0  0  0  0
 28  2  1  1  0  0  0
 28 18  1  0  0  0  0
 29 30  1  0  0  0  0
 29 39  1  6  0  0  0
 31 22  1  0  0  0  0
 31 32  1  1  0  0  0
 31 41  1  0  0  0  0
 33 34  1  1  0  0  0
 33 43  1  0  0  0  0
 35 36  1  0  0  0  0
 35 45  1  6  0  0  0
 37 28  1  0  0  0  0
 37 38  1  6  0  0  0
 39 40  1  0  0  0  0
 41 42  1  0  0  0  0
 41 49  1  1  0  0  0
 43 44  1  0  0  0  0
 43 51  1  6  0  0  0
 45 46  1  0  0  0  0
 47 37  1  0  0  0  0
 47 48  1  6  0  0  0
 49 50  1  0  0  0  0
 51 52  1  0  0  0  0
M  END
>  <CHROM.1>
-161.72149675,115.97285677,-102.62429700,177.27639966,121.89427232,-176.19899248
66.82802874,119.37771370,-64.71951872,137.35168254,143.73159507,-62.01509849
21.22074654,-5.48534253,16.13142809,2.68105862,-0.31880325,2.88358131

>  <Name>
2esj_lig

>  <RI>
0

>  <Rbt.Current_Directory>
/home/itssahil/PROJECTS/Mol_Feturizer/New_Systems/rnas/2esj

>  <Rbt.Executable>
rbdock ($Id: //depot/dev/client3/rdock/2013.1/src/exe/rbdock.cxx#4 $)

>  <Rbt.Library>
libRbt.so (2013.1, Build901 2013/11/27)

>  <Rbt.Parameter_File>
/export/apps/rDock/src/rDock_2013.1_src/data/scripts/dock_solv.prm

>  <Rbt.Receptor>
prm/pocket_docking_2.prm

>  <SCORE>
-11.9354

>  <SCORE.INTER>
-17.9335

>  <SCORE.INTER.CONST>
1

>  <SCORE.INTER.POLAR>
-1.78192

>  <SCORE.INTER.ROT>
12

>  <SCORE.INTER.SOLV>
17.224

>  <SCORE.INTER.VDW>
-23.3573

>  <SCORE.INTER.norm>
-0.344875

>  <SCORE.INTRA>
3.50516

>  <SCORE.INTRA.DIHEDRAL>
6.45165

>  <SCORE.INTRA.DIHEDRAL.0>
32.9766

>  <SCORE.INTRA.POLAR>
0

>  <SCORE.INTRA.POLAR.0>
0

>  <SCORE.INTRA.REPUL>
0

>  <SCORE.INTRA.REPUL.0>
0

>  <SCORE.INTRA.SOLV>
-1.91071

>  <SCORE.INTRA.SOLV.lig_0>
-114.358

>  <SCORE.INTRA.VDW>
1.23469

>  <SCORE.INTRA.VDW.0>
-8.24257

>  <SCORE.INTRA.norm>
0.067407

>  <SCORE.RESTR>
2.49289

>  <SCORE.RESTR.CAVITY>
2.49289

>  <SCORE.RESTR.norm>
0.0479402

>  <SCORE.SYSTEM>
0

>  <SCORE.SYSTEM.CONST>
0

>  <SCORE.SYSTEM.DIHEDRAL>
0

>  <SCORE.SYSTEM.SOLV>
0

>  <SCORE.SYSTEM.norm>
0

>  <SCORE.heavy>
52

>  <SCORE.norm>
-0.229527

>  <RMSD>
1.123

$$$$
2esj_lig
 OpenBabel11021811423D
libRbt.so/2013.1/901 2013/11/27
 52 56  0  0  0  0  0  0  0  0999 V2000
   17.1293   -5.9876   18.9142 C   0  0  2  0  0  0  0  0  0  0  0  0
   17.6567   -7.3089   19.1397 O   0  0  0  0  0  0  0  0  0  0  0  0
   19.2803  -10.5113   16.8166 C   0  0  2  0  0  0  0  0  0  0  0  0
   19.4844  -11.6181   15.8675 N   0  0  0  0  0  0  0  0  0  0  0  0
   19.4667   -6.1348   15.5372 C   0  0  1  0  0  0  0  0  0  0  0  0
   21.8192   -4.1211   12.7608 C   0  0  1  0  0  0  0  0  0  0  0  0
   26.6909   -4.4698   13.5004 C   0  0  1  0  0  0  0  0  0  0  0  0
   17.6655   -5.0687   20.0513 C   0  0  2  0  0  0  0  0  0  0  0  0
   19.1265   -5.0689   20.1204 N   0  0  0  0  0  0  0  0  0  0  0  0
   18.0654  -10.8281   17.7764 C   0  0  0  0  0  0  0  0  0  0  0  0
   18.9150   -5.9649   14.1211 C   0  0  2  0  0  0  0  0  0  0  0  0
   19.1326   -7.1338   13.3016 O   0  0  0  0  0  0  0  0  0  0  0  0
   23.1478   -4.9031   12.3552 C   0  0  2  0  0  0  0  0  0  0  0  0
   23.6569   -5.7169   13.4908 N   0  0  0  0  0  0  0  0  0  0  0  0
   26.7478   -5.1301   14.8730 C   0  0  1  0  0  0  0  0  0  0  0  0
   27.3307   -6.4424   14.7434 O   0  0  0  0  0  0  0  0  0  0  0  0
   17.0694   -5.4863   21.4330 C   0  0  0  0  0  0  0  0  0  0  0  0
   17.8992   -9.6565   18.8258 C   0  0  2  0  0  0  0  0  0  0  0  0
   16.7681   -9.9198   19.7214 N   0  0  0  0  0  0  0  0  0  0  0  0
   19.6747   -4.7491   13.6752 C   0  0  2  0  0  0  0  0  0  0  0  0
   20.9969   -5.0894   13.3429 O   0  0  0  0  0  0  0  0  0  0  0  0
   24.1931   -3.8665   11.7485 C   0  0  1  0  0  0  0  0  0  0  0  0
   23.5508   -3.1134   10.7146 O   0  0  0  0  0  0  0  0  0  0  0  0
   27.5368   -4.3672   15.9303 C   0  0  1  0  0  0  0  0  0  0  0  0
   27.6804   -5.2354   17.0599 O   0  0  0  0  0  0  0  0  0  0  0  0
   15.5156   -5.5010   21.3269 C   0  0  2  0  0  0  0  0  0  0  0  0
   14.9056   -5.7978   22.5702 O   0  0  0  0  0  0  0  0  0  0  0  0
   17.7071   -8.3009   18.0973 C   0  0  2  0  0  0  0  0  0  0  0  0
   19.8213   -3.8596   14.9269 C   0  0  2  0  0  0  0  0  0  0  0  0
   19.8452   -4.8208   15.9703 O   0  0  0  0  0  0  0  0  0  0  0  0
   24.6525   -2.8069   12.8327 C   0  0  2  0  0  0  0  0  0  0  0  0
   25.3166   -3.5871   13.8280 O   0  0  0  0  0  0  0  0  0  0  0  0
   28.9201   -3.9143   15.4600 C   0  0  2  0  0  0  0  0  0  0  0  0
   29.3978   -2.9632   16.4253 O   0  0  0  0  0  0  0  0  0  0  0  0
   15.1110   -6.5221   20.2348 C   0  0  2  0  0  0  0  0  0  0  0  0
   15.6856   -6.0621   18.9782 O   0  0  0  0  0  0  0  0  0  0  0  0
   18.8138   -7.9794   17.0425 C   0  0  2  0  0  0  0  0  0  0  0  0
   18.4959   -6.7292   16.3698 O   0  0  0  0  0  0  0  0  0  0  0  0
   18.6959   -2.8588   15.1868 C   0  0  0  0  0  0  0  0  0  0  0  0
   17.5283   -3.6074   15.5555 O   0  0  0  0  0  0  0  0  0  0  0  0
   23.3775   -2.3107   13.4871 C   0  0  1  0  0  0  0  0  0  0  0  0
   22.1329   -2.9996   13.7340 O   0  0  0  0  0  0  0  0  0  0  0  0
   28.8803   -3.3896   14.0290 C   0  0  2  0  0  0  0  0  0  0  0  0
   27.9581   -3.9203   13.0648 O   0  0  0  0  0  0  0  0  0  0  0  0
   13.6384   -6.5865   20.0117 C   0  0  0  0  0  0  0  0  0  0  0  0
   13.3458   -7.8612   19.4924 O   0  0  0  0  0  0  0  0  0  0  0  0
   18.9968   -9.1727   16.0452 C   0  0  1  0  0  0  0  0  0  0  0  0
   20.1625   -8.8773   15.2309 O   0  0  0  0  0  0  0  0  0  0  0  0
   23.5358   -1.1675   14.5363 C   0  0  0  0  0  0  0  0  0  0  0  0
   24.9406   -0.7647   14.7573 N   0  0  0  0  0  0  0  0  0  0  0  0
   30.1175   -2.8788   13.2943 C   0  0  0  0  0  0  0  0  0  0  0  0
   30.5702   -1.6348   13.8912 O   0  0  0  0  0  0  0  0  0  0  0  0
  1  2  1  1  0  0  0
  1  8  1  0  0  0  0
  1 36  1  0  0  0  0
  3  4  1  6  0  0  0
  3 10  1  0  0  0  0
  3 47  1  0  0  0  0
  5 11  1  0  0  0  0
  5 30  1  0  0  0  0
  5 38  1  1  0  0  0
  6 21  1  1  0  0  0
  6 42  1  0  0  0  0
  7 15  1  0  0  0  0
  7 44  1  0  0  0  0
  7 32  1  1  0  0  0
  8  9  1  1  0  0  0
  8 17  1  0  0  0  0
 11 12  1  6  0  0  0
 11 20  1  0  0  0  0
 13  6  1  0  0  0  0
 13 14  1  1  0  0  0
 15 16  1  6  0  0  0
 15 24  1  0  0  0  0
 17 26  1  0  0  0  0
 18 10  1  0  0  0  0
 18 19  1  6  0  0  0
 20 21  1  1  0  0  0
 20 29  1  0  0  0  0
 22 13  1  0  0  0  0
 22 23  1  6  0  0  0
 24 25  1  1  0  0  0
 24 33  1  0  0  0  0
 26 27  1  1  0  0  0
 26 35  1  0  0  0  0
 28  2  1  1  0  0  0
 28 18  1  0  0  0  0
 29 30  1  0  0  0  0
 29 39  1  1  0  0  0
 31 22  1  0  0  0  0
 31 32  1  1  0  0  0
 31 41  1  0  0  0  0
 33 34  1  1  0  0  0
 33 43  1  0  0  0  0
 35 36  1  0  0  0  0
 35 45  1  6  0  0  0
 37 28  1  0  0  0  0
 37 38  1  6  0  0  0
 39 40  1  0  0  0  0
 41 42  1  0  0  0  0
 41 49  1  1  0  0  0
 43 44  1  0  0  0  0
 43 51  1  6  0  0  0
 45 46  1  0  0  0  0
 47 37  1  0  0  0  0
 47 48  1  6  0  0  0
 49 50  1  0  0  0  0
 51 52  1  0  0  0  0
M  END
>  <CHROM.1>
-160.87192050,122.01492501,-172.82585350,-174.07103339,172.80085252,-162.59281700
69.14933656,62.18774513,-154.81377676,169.64336402,-1.56718658,-68.76243361
21.34114544,-5.45807268,15.99883477,2.60613152,-0.08383994,2.35460677

>  <Name>
2esj_lig

>  <RI>
1.01272e+07

>  <Rbt.Current_Directory>
/home/itssahil/PROJECTS/Mol_Feturizer/New_Systems/rnas/2esj

>  <Rbt.Executable>
rbdock ($Id: //depot/dev/client3/rdock/2013.1/src/exe/rbdock.cxx#4 $)

>  <Rbt.Library>
libRbt.so (2013.1, Build901 2013/11/27)

>  <Rbt.Parameter_File>
/export/apps/rDock/src/rDock_2013.1_src/data/scripts/dock_solv.prm

>  <Rbt.Receptor>
prm/pocket_docking_3.prm

>  <SCORE>
-20.8188

>  <SCORE.INTER>
-15.8916

>  <SCORE.INTER.CONST>
1

>  <SCORE.INTER.POLAR>
-0.979796

>  <SCORE.INTER.ROT>
12

>  <SCORE.INTER.SOLV>
18.1806

>  <SCORE.INTER.VDW>
-24.9886

>  <SCORE.INTER.norm>
-0.305608

>  <SCORE.INTRA>
-4.9272

>  <SCORE.INTRA.DIHEDRAL>
-14.0336

>  <SCORE.INTRA.DIHEDRAL.0>
32.9766

>  <SCORE.INTRA.POLAR>
0

>  <SCORE.INTRA.POLAR.0>
0

>  <SCORE.INTRA.REPUL>
0.0150462

>  <SCORE.INTRA.REPUL.0>
0

>  <SCORE.INTRA.SOLV>
-0.716479

>  <SCORE.INTRA.SOLV.lig_0>
-114.358

>  <SCORE.INTRA.VDW>
2.37263

>  <SCORE.INTRA.VDW.0>
-8.24257

>  <SCORE.INTRA.norm>
-0.0947538

>  <SCORE.RESTR>
0

>  <SCORE.RESTR.CAVITY>
0

>  <SCORE.RESTR.norm>
0

>  <SCORE.SYSTEM>
0

>  <SCORE.SYSTEM.CONST>
0

>  <SCORE.SYSTEM.DIHEDRAL>
0

>  <SCORE.SYSTEM.SOLV>
0

>  <SCORE.SYSTEM.norm>
0

>  <SCORE.heavy>
52

>  <SCORE.norm>
-0.400362

>  <RMSD>
1.170

$$$$
2esj_lig
 OpenBabel11021811423D
libRbt.so/2013.1/901 2013/11/27
 52 56  0  0  0  0  0  0  0  0999 V2000
   17.3803   -6.6238   18.4985 C   0  0  2  0  0  0  0  0  0  0  0  0
   17.7846   -7.9465   18.9009 O   0  0  0  0  0  0  0  0  0  0  0  0
   19.1202  -11.4543   16.8517 C   0  0  2  0  0  0  0  0  0  0  0  0
   19.2085  -12.6843   16.0476 N   0  0  0  0  0  0  0  0  0  0  0  0
   19.1847   -6.7606   15.6914 C   0  0  1  0  0  0  0  0  0  0  0  0
   21.8577   -3.9755   14.2559 C   0  0  1  0  0  0  0  0  0  0  0  0
   27.0409   -2.9365   13.3717 C   0  0  1  0  0  0  0  0  0  0  0  0
   18.3276   -5.6092   19.2042 C   0  0  2  0  0  0  0  0  0  0  0  0
   19.7358   -5.8650   18.9028 N   0  0  0  0  0  0  0  0  0  0  0  0
   18.0473  -11.6246   17.9995 C   0  0  0  0  0  0  0  0  0  0  0  0
   20.1213   -7.2301   14.5774 C   0  0  2  0  0  0  0  0  0  0  0  0
   21.2634   -7.9525   15.0864 O   0  0  0  0  0  0  0  0  0  0  0  0
   22.7521   -4.3132   12.9803 C   0  0  2  0  0  0  0  0  0  0  0  0
   23.7248   -5.3968   13.2811 N   0  0  0  0  0  0  0  0  0  0  0  0
   27.5629   -4.1811   14.0803 C   0  0  1  0  0  0  0  0  0  0  0  0
   28.8108   -4.5802   13.4788 O   0  0  0  0  0  0  0  0  0  0  0  0
   18.1056   -5.6218   20.7501 C   0  0  0  0  0  0  0  0  0  0  0  0
   18.0091  -10.3166   18.8879 C   0  0  2  0  0  0  0  0  0  0  0  0
   17.0101  -10.4436   19.9541 N   0  0  0  0  0  0  0  0  0  0  0  0
   20.4596   -5.9172   13.9325 C   0  0  2  0  0  0  0  0  0  0  0  0
   21.3968   -5.2146   14.7087 O   0  0  0  0  0  0  0  0  0  0  0  0
   23.3957   -2.9655   12.4287 C   0  0  1  0  0  0  0  0  0  0  0  0
   22.3571   -1.9976   12.2461 O   0  0  0  0  0  0  0  0  0  0  0  0
   27.7904   -4.0295   15.5795 C   0  0  1  0  0  0  0  0  0  0  0  0
   28.4928   -5.1964   16.0213 O   0  0  0  0  0  0  0  0  0  0  0  0
   16.5968   -5.3707   21.0437 C   0  0  2  0  0  0  0  0  0  0  0  0
   16.3367   -5.2926   22.4338 O   0  0  0  0  0  0  0  0  0  0  0  0
   17.7069   -9.0747   18.0097 C   0  0  2  0  0  0  0  0  0  0  0  0
   19.1808   -5.0594   14.0239 C   0  0  2  0  0  0  0  0  0  0  0  0
   18.5798   -5.5520   15.2110 O   0  0  0  0  0  0  0  0  0  0  0  0
   24.3975   -2.3308   13.4788 C   0  0  2  0  0  0  0  0  0  0  0  0
   25.4338   -3.3050   13.6099 O   0  0  0  0  0  0  0  0  0  0  0  0
   28.5907   -2.7822   15.9587 C   0  0  2  0  0  0  0  0  0  0  0  0
   28.4518   -2.6137   17.3789 O   0  0  0  0  0  0  0  0  0  0  0  0
   15.7749   -6.4988   20.3721 C   0  0  2  0  0  0  0  0  0  0  0  0
   16.0175   -6.4162   18.9385 O   0  0  0  0  0  0  0  0  0  0  0  0
   18.6600   -8.9121   16.7824 C   0  0  2  0  0  0  0  0  0  0  0  0
   18.2416   -7.7658   15.9904 O   0  0  0  0  0  0  0  0  0  0  0  0
   18.1916   -5.1861   12.8659 C   0  0  0  0  0  0  0  0  0  0  0  0
   17.9183   -6.5829   12.6816 O   0  0  0  0  0  0  0  0  0  0  0  0
   23.6609   -2.3382   14.8045 C   0  0  1  0  0  0  0  0  0  0  0  0
   22.6810   -3.2671   15.3159 O   0  0  0  0  0  0  0  0  0  0  0  0
   28.1609   -1.5711   15.1383 C   0  0  2  0  0  0  0  0  0  0  0  0
   27.6925   -1.7121   13.7883 O   0  0  0  0  0  0  0  0  0  0  0  0
   14.3037   -6.3342   20.5481 C   0  0  0  0  0  0  0  0  0  0  0  0
   13.6739   -7.3537   19.8105 O   0  0  0  0  0  0  0  0  0  0  0  0
   18.7219  -10.2344   15.9458 C   0  0  1  0  0  0  0  0  0  0  0  0
   19.7657  -10.0646   14.9504 O   0  0  0  0  0  0  0  0  0  0  0  0
   24.3905   -1.6646   16.0073 C   0  0  0  0  0  0  0  0  0  0  0  0
   24.1794   -2.3682   17.2899 N   0  0  0  0  0  0  0  0  0  0  0  0
   28.7950   -0.1910   15.2954 C   0  0  0  0  0  0  0  0  0  0  0  0
   27.8015    0.8410   15.0572 O   0  0  0  0  0  0  0  0  0  0  0  0
  1  2  1  1  0  0  0
  1  8  1  0  0  0  0
  1 36  1  0  0  0  0
  3  4  1  6  0  0  0
  3 10  1  0  0  0  0
  3 47  1  0  0  0  0
  5 11  1  0  0  0  0
  5 30  1  0  0  0  0
  5 38  1  6  0  0  0
  6 21  1  1  0  0  0
  6 42  1  0  0  0  0
  7 15  1  0  0  0  0
  7 44  1  0  0  0  0
  7 32  1  1  0  0  0
  8  9  1  1  0  0  0
  8 17  1  0  0  0  0
 11 12  1  1  0  0  0
 11 20  1  0  0  0  0
 13  6  1  0  0  0  0
 13 14  1  1  0  0  0
 15 16  1  6  0  0  0
 15 24  1  0  0  0  0
 17 26  1  0  0  0  0
 18 10  1  0  0  0  0
 18 19  1  1  0  0  0
 20 21  1  1  0  0  0
 20 29  1  0  0  0  0
 22 13  1  0  0  0  0
 22 23  1  1  0  0  0
 24 25  1  6  0  0  0
 24 33  1  0  0  0  0
 26 27  1  1  0  0  0
 26 35  1  0  0  0  0
 28  2  1  1  0  0  0
 28 18  1  0  0  0  0
 29 30  1  0  0  0  0
 29 39  1  6  0  0  0
 31 22  1  0  0  0  0
 31 32  1  1  0  0  0
 31 41  1  0  0  0  0
 33 34  1  1  0  0  0
 33 43  1  0  0  0  0
 35 36  1  0  0  0  0
 35 45  1  6  0  0  0
 37 28  1  0  0  0  0
 37 38  1  6  0  0  0
 39 40  1  0  0  0  0
 41 42  1  0  0  0  0
 41 49  1  1  0  0  0
 43 44  1  0  0  0  0
 43 51  1  6  0  0  0
 45 46  1  0  0  0  0
 47 37  1  0  0  0  0
 47 48  1  6  0  0  0
 49 50  1  0  0  0  0
 51 52  1  0  0  0  0
M  END
>  <CHROM.1>
-145.27414758,76.70718197,-69.35944828,162.71845619,178.72623590,-171.10484108
52.02706186,125.22137219,175.48316650,126.17327461,-142.67100282,-146.84162602
21.41784305,-5.54822773,16.15613070,3.04247523,-0.60246545,-2.35453229

>  <Name>
2esj_lig

>  <RI>
0

>  <Rbt.Current_Directory>
/home/itssahil/PROJECTS/Mol_Feturizer/New_Systems/rnas/2esj

>  <Rbt.Executable>
rbdock ($Id: //depot/dev/client3/rdock/2013.1/src/exe/rbdock.cxx#4 $)

>  <Rbt.Library>
libRbt.so (2013.1, Build901 2013/11/27)

>  <Rbt.Parameter_File>
/export/apps/rDock/src/rDock_2013.1_src/data/scripts/dock_solv.prm

>  <Rbt.Receptor>
prm/pocket_docking_2.prm

>  <SCORE>
-10.348

>  <SCORE.INTER>
-11.6198

>  <SCORE.INTER.CONST>
1

>  <SCORE.INTER.POLAR>
-1.45679

>  <SCORE.INTER.ROT>
12

>  <SCORE.INTER.SOLV>
16.0705

>  <SCORE.INTER.VDW>
-19.8474

>  <SCORE.INTER.norm>
-0.223458

>  <SCORE.INTRA>
-0.666867

>  <SCORE.INTRA.DIHEDRAL>
-5.12335

>  <SCORE.INTRA.DIHEDRAL.0>
32.9766

>  <SCORE.INTRA.POLAR>
0

>  <SCORE.INTRA.POLAR.0>
0

>  <SCORE.INTRA.REPUL>
0

>  <SCORE.INTRA.REPUL.0>
0

>  <SCORE.INTRA.SOLV>
-0.739465

>  <SCORE.INTRA.SOLV.lig_0>
-114.358

>  <SCORE.INTRA.VDW>
2.26454

>  <SCORE.INTRA.VDW.0>
-8.24257

>  <SCORE.INTRA.norm>
-0.0128244

>  <SCORE.RESTR>
1.93868

>  <SCORE.RESTR.CAVITY>
1.93868

>  <SCORE.RESTR.norm>
0.0372822

>  <SCORE.SYSTEM>
0

>  <SCORE.SYSTEM.CONST>
0

>  <SCORE.SYSTEM.DIHEDRAL>
0

>  <SCORE.SYSTEM.SOLV>
0

>  <SCORE.SYSTEM.norm>
0

>  <SCORE.heavy>
52

>  <SCORE.norm>
-0.199

>  <RMSD>
1.502

$$$$
2esj_lig
 OpenBabel11021811423D
libRbt.so/2013.1/901 2013/11/27
 52 56  0  0  0  0  0  0  0  0999 V2000
   17.4456   -6.6539   18.9619 C   0  0  2  0  0  0  0  0  0  0  0  0
   17.5331   -8.0691   19.2160 O   0  0  0  0  0  0  0  0  0  0  0  0
   19.7219  -10.9935   16.9922 C   0  0  2  0  0  0  0  0  0  0  0  0
   20.1375  -12.0429   16.0470 N   0  0  0  0  0  0  0  0  0  0  0  0
   19.5174   -6.4529   16.0369 C   0  0  1  0  0  0  0  0  0  0  0  0
   21.9299   -4.6703   13.1939 C   0  0  1  0  0  0  0  0  0  0  0  0
   26.9694   -4.1118   13.1716 C   0  0  1  0  0  0  0  0  0  0  0  0
   18.7349   -5.9944   19.5343 C   0  0  2  0  0  0  0  0  0  0  0  0
   19.9519   -6.5763   18.9691 N   0  0  0  0  0  0  0  0  0  0  0  0
   18.4779  -11.4777   17.8380 C   0  0  0  0  0  0  0  0  0  0  0  0
   19.2834   -6.1884   14.5490 C   0  0  2  0  0  0  0  0  0  0  0  0
   19.9212   -7.1736   13.7076 O   0  0  0  0  0  0  0  0  0  0  0  0
   23.2943   -5.4794   13.3526 C   0  0  2  0  0  0  0  0  0  0  0  0
   23.9738   -5.1362   14.6299 N   0  0  0  0  0  0  0  0  0  0  0  0
   26.6646   -4.9032   14.4383 C   0  0  1  0  0  0  0  0  0  0  0  0
   27.4880   -6.0863   14.4671 O   0  0  0  0  0  0  0  0  0  0  0  0
   18.7705   -6.1005   21.0921 C   0  0  0  0  0  0  0  0  0  0  0  0
   18.0834  -10.3620   18.8873 C   0  0  2  0  0  0  0  0  0  0  0  0
   16.9212  -10.7816   19.6773 N   0  0  0  0  0  0  0  0  0  0  0  0
   19.8563   -4.8063   14.4230 C   0  0  2  0  0  0  0  0  0  0  0  0
   21.2605   -4.8552   14.4065 O   0  0  0  0  0  0  0  0  0  0  0  0
   24.1759   -5.2681   12.0437 C   0  0  1  0  0  0  0  0  0  0  0  0
   23.3788   -5.5734   10.8947 O   0  0  0  0  0  0  0  0  0  0  0  0
   26.8791   -4.1487   15.7448 C   0  0  1  0  0  0  0  0  0  0  0  0
   26.7772   -5.1036   16.8068 O   0  0  0  0  0  0  0  0  0  0  0  0
   17.4555   -5.4962   21.6677 C   0  0  2  0  0  0  0  0  0  0  0  0
   17.4546   -5.4899   23.0841 O   0  0  0  0  0  0  0  0  0  0  0  0
   17.7907   -9.0205   18.1664 C   0  0  2  0  0  0  0  0  0  0  0  0
   19.5233   -4.0885   15.7472 C   0  0  2  0  0  0  0  0  0  0  0  0
   19.5052   -5.1660   16.6701 O   0  0  0  0  0  0  0  0  0  0  0  0
   24.6108   -3.7540   11.8774 C   0  0  2  0  0  0  0  0  0  0  0  0
   25.4292   -3.4955   13.0192 O   0  0  0  0  0  0  0  0  0  0  0  0
   28.2303   -3.4369   15.8310 C   0  0  2  0  0  0  0  0  0  0  0  0
   28.1562   -2.5358   16.9478 O   0  0  0  0  0  0  0  0  0  0  0  0
   16.2597   -6.3007   21.1002 C   0  0  2  0  0  0  0  0  0  0  0  0
   16.2808   -6.1437   19.6525 O   0  0  0  0  0  0  0  0  0  0  0  0
   18.9351   -8.5419   17.2166 C   0  0  2  0  0  0  0  0  0  0  0  0
   18.5260   -7.3215   16.5387 O   0  0  0  0  0  0  0  0  0  0  0  0
   18.1859   -3.3510   15.8044 C   0  0  0  0  0  0  0  0  0  0  0  0
   18.1463   -2.4408   14.6956 O   0  0  0  0  0  0  0  0  0  0  0  0
   23.3488   -2.9395   12.0875 C   0  0  1  0  0  0  0  0  0  0  0  0
   22.2050   -3.2016   12.9287 O   0  0  0  0  0  0  0  0  0  0  0  0
   28.5962   -2.7696   14.5099 C   0  0  2  0  0  0  0  0  0  0  0  0
   28.1839   -3.3272   13.2526 O   0  0  0  0  0  0  0  0  0  0  0  0
   14.9378   -5.7777   21.5490 C   0  0  0  0  0  0  0  0  0  0  0  0
   14.2474   -6.8423   22.1572 O   0  0  0  0  0  0  0  0  0  0  0  0
   19.3444   -9.6786   16.2202 C   0  0  1  0  0  0  0  0  0  0  0  0
   20.5301   -9.2251   15.5147 O   0  0  0  0  0  0  0  0  0  0  0  0
   23.4737   -1.3994   11.8747 C   0  0  0  0  0  0  0  0  0  0  0  0
   22.4274   -0.8425   10.9917 N   0  0  0  0  0  0  0  0  0  0  0  0
   29.8949   -1.9943   14.2998 C   0  0  0  0  0  0  0  0  0  0  0  0
   29.8280   -0.7187   14.9905 O   0  0  0  0  0  0  0  0  0  0  0  0
  1  2  1  1  0  0  0
  1  8  1  0  0  0  0
  1 36  1  0  0  0  0
  3  4  1  6  0  0  0
  3 10  1  0  0  0  0
  3 47  1  0  0  0  0
  5 11  1  0  0  0  0
  5 30  1  0  0  0  0
  5 38  1  1  0  0  0
  6 21  1  1  0  0  0
  6 42  1  0  0  0  0
  7 15  1  0  0  0  0
  7 44  1  0  0  0  0
  7 32  1  1  0  0  0
  8  9  1  6  0  0  0
  8 17  1  0  0  0  0
 11 12  1  6  0  0  0
 11 20  1  0  0  0  0
 13  6  1  0  0  0  0
 13 14  1  1  0  0  0
 15 16  1  1  0  0  0
 15 24  1  0  0  0  0
 17 26  1  0  0  0  0
 18 10  1  0  0  0  0
 18 19  1  6  0  0  0
 20 21  1  1  0  0  0
 20 29  1  0  0  0  0
 22 13  1  0  0  0  0
 22 23  1  6  0  0  0
 24 25  1  1  0  0  0
 24 33  1  0  0  0  0
 26 27  1  1  0  0  0
 26 35  1  0  0  0  0
 28  2  1  1  0  0  0
 28 18  1  0  0  0  0
 29 30  1  0  0  0  0
 29 39  1  6  0  0  0
 31 22  1  0  0  0  0
 31 32  1  1  0  0  0
 31 41  1  0  0  0  0
 33 34  1  1  0  0  0
 33 43  1  0  0  0  0
 35 36  1  0  0  0  0
 35 45  1  1  0  0  0
 37 28  1  0  0  0  0
 37 38  1  6  0  0  0
 39 40  1  0  0  0  0
 41 42  1  0  0  0  0
 41 49  1  1  0  0  0
 43 44  1  0  0  0  0
 43 51  1  6  0  0  0
 45 46  1  0  0  0  0
 47 37  1  0  0  0  0
 47 48  1  1  0  0  0
 49 50  1  0  0  0  0
 51 52  1  0  0  0  0
M  END
>  <CHROM.1>
-107.26989855,125.29139881,-152.13495250,-119.24914317,104.68584731,169.08422863
-54.44594083,72.83881983,-124.40054056,156.82776828,130.34066940,-73.40942471
21.53045926,-5.62736104,16.10916638,-2.79577210,-0.57414008,-1.90364184

>  <Name>
2esj_lig

>  <RI>
0

>  <Rbt.Current_Directory>
/home/itssahil/PROJECTS/Mol_Feturizer/New_Systems/rnas/2esj

>  <Rbt.Executable>
rbdock ($Id: //depot/dev/client3/rdock/2013.1/src/exe/rbdock.cxx#4 $)

>  <Rbt.Library>
libRbt.so (2013.1, Build901 2013/11/27)

>  <Rbt.Parameter_File>
/export/apps/rDock/src/rDock_2013.1_src/data/scripts/dock_solv.prm

>  <Rbt.Receptor>
prm/pocket_docking_2.prm

>  <SCORE>
2.93025

>  <SCORE.INTER>
-7.68149

>  <SCORE.INTER.CONST>
1

>  <SCORE.INTER.POLAR>
0

>  <SCORE.INTER.ROT>
12

>  <SCORE.INTER.SOLV>
16.6219

>  <SCORE.INTER.VDW>
-22.2616

>  <SCORE.INTER.norm>
-0.147721

>  <SCORE.INTRA>
8.78181

>  <SCORE.INTRA.DIHEDRAL>
10.9683

>  <SCORE.INTRA.DIHEDRAL.0>
32.9766

>  <SCORE.INTRA.POLAR>
0

>  <SCORE.INTRA.POLAR.0>
0

>  <SCORE.INTRA.REPUL>
0

>  <SCORE.INTRA.REPUL.0>
0

>  <SCORE.INTRA.SOLV>
2.11886

>  <SCORE.INTRA.SOLV.lig_0>
-114.358

>  <SCORE.INTRA.VDW>
2.23823

>  <SCORE.INTRA.VDW.0>
-8.24257

>  <SCORE.INTRA.norm>
0.168881

>  <SCORE.RESTR>
1.82993

>  <SCORE.RESTR.CAVITY>
1.82993

>  <SCORE.RESTR.norm>
0.0351909

>  <SCORE.SYSTEM>
0

>  <SCORE.SYSTEM.CONST>
0

>  <SCORE.SYSTEM.DIHEDRAL>
0

>  <SCORE.SYSTEM.SOLV>
0

>  <SCORE.SYSTEM.norm>
0

>  <SCORE.heavy>
52

>  <SCORE.norm>
0.056351

>  <RMSD>
1.608

$$$$
2esj_lig
 OpenBabel11021811423D
libRbt.so/2013.1/901 2013/11/27
 52 56  0  0  0  0  0  0  0  0999 V2000
   17.1558   -6.3428   19.0698 C   0  0  2  0  0  0  0  0  0  0  0  0
   17.4771   -7.7131   19.3762 O   0  0  0  0  0  0  0  0  0  0  0  0
   18.9445  -11.0244   17.1025 C   0  0  2  0  0  0  0  0  0  0  0  0
   19.0878  -12.1696   16.1885 N   0  0  0  0  0  0  0  0  0  0  0  0
   19.1690   -6.6238   15.7589 C   0  0  1  0  0  0  0  0  0  0  0  0
   21.1761   -4.1161   12.9627 C   0  0  1  0  0  0  0  0  0  0  0  0
   26.1762   -2.9594   13.2070 C   0  0  1  0  0  0  0  0  0  0  0  0
   17.5854   -5.4766   20.2905 C   0  0  2  0  0  0  0  0  0  0  0  0
   19.0008   -5.6454   20.6181 N   0  0  0  0  0  0  0  0  0  0  0  0
   17.7758  -11.2875   18.1332 C   0  0  0  0  0  0  0  0  0  0  0  0
   18.5537   -5.4722   14.9628 C   0  0  2  0  0  0  0  0  0  0  0  0
   18.0167   -5.9051   13.6941 O   0  0  0  0  0  0  0  0  0  0  0  0
   22.2265   -4.9663   12.1171 C   0  0  2  0  0  0  0  0  0  0  0  0
   23.1276   -5.7427   13.0093 N   0  0  0  0  0  0  0  0  0  0  0  0
   27.0115   -4.2340   13.1691 C   0  0  1  0  0  0  0  0  0  0  0  0
   28.3980   -3.8862   12.9820 O   0  0  0  0  0  0  0  0  0  0  0  0
   16.7092   -5.8030   21.5414 C   0  0  0  0  0  0  0  0  0  0  0  0
   17.6761  -10.0741   19.1428 C   0  0  2  0  0  0  0  0  0  0  0  0
   16.5885  -10.2874   20.1032 N   0  0  0  0  0  0  0  0  0  0  0  0
   19.7362   -4.5540   14.8507 C   0  0  2  0  0  0  0  0  0  0  0  0
   20.6332   -5.0235   13.8763 O   0  0  0  0  0  0  0  0  0  0  0  0
   22.9658   -4.0004   11.0897 C   0  0  1  0  0  0  0  0  0  0  0  0
   21.9812   -3.2745   10.3466 O   0  0  0  0  0  0  0  0  0  0  0  0
   26.9106   -5.1155   14.4081 C   0  0  1  0  0  0  0  0  0  0  0  0
   27.9241   -6.1208   14.2962 O   0  0  0  0  0  0  0  0  0  0  0  0
   15.2079   -5.6388   21.1608 C   0  0  2  0  0  0  0  0  0  0  0  0
   14.3567   -5.8455   22.2738 O   0  0  0  0  0  0  0  0  0  0  0  0
   17.4635   -8.7452   18.3723 C   0  0  2  0  0  0  0  0  0  0  0  0
   20.5130   -4.7016   16.1753 C   0  0  2  0  0  0  0  0  0  0  0  0
   20.2215   -6.0413   16.5401 O   0  0  0  0  0  0  0  0  0  0  0  0
   23.8303   -2.9075   11.8431 C   0  0  2  0  0  0  0  0  0  0  0  0
   24.8195   -3.6630   12.5439 O   0  0  0  0  0  0  0  0  0  0  0  0
   27.0940   -4.3549   15.7225 C   0  0  2  0  0  0  0  0  0  0  0  0
   26.6671   -5.2341   16.7759 O   0  0  0  0  0  0  0  0  0  0  0  0
   14.8870   -6.6211   20.0071 C   0  0  2  0  0  0  0  0  0  0  0  0
   15.7249   -6.2484   18.8758 O   0  0  0  0  0  0  0  0  0  0  0  0
   18.5195   -8.4795   17.2519 C   0  0  2  0  0  0  0  0  0  0  0  0
   18.1827   -7.2521   16.5474 O   0  0  0  0  0  0  0  0  0  0  0  0
   20.1030   -3.7669   17.3129 C   0  0  0  0  0  0  0  0  0  0  0  0
   20.5024   -2.4382   16.9460 O   0  0  0  0  0  0  0  0  0  0  0  0
   22.9224   -2.3326   12.9132 C   0  0  1  0  0  0  0  0  0  0  0  0
   21.8639   -2.9614   13.6674 O   0  0  0  0  0  0  0  0  0  0  0  0
   26.3739   -3.0113   15.6965 C   0  0  2  0  0  0  0  0  0  0  0  0
   26.2273   -2.2665   14.4776 O   0  0  0  0  0  0  0  0  0  0  0  0
   13.4800   -6.5174   19.5254 C   0  0  0  0  0  0  0  0  0  0  0  0
   12.6517   -7.0692   20.5203 O   0  0  0  0  0  0  0  0  0  0  0  0
   18.6382   -9.7128   16.2942 C   0  0  1  0  0  0  0  0  0  0  0  0
   19.7649   -9.4649   15.4120 O   0  0  0  0  0  0  0  0  0  0  0  0
   23.4976   -1.1467   13.7472 C   0  0  0  0  0  0  0  0  0  0  0  0
   23.5264   -1.4117   15.2011 N   0  0  0  0  0  0  0  0  0  0  0  0
   26.3922   -2.0335   16.8691 C   0  0  0  0  0  0  0  0  0  0  0  0
   25.0548   -1.8912   17.4168 O   0  0  0  0  0  0  0  0  0  0  0  0
  1  2  1  1  0  0  0
  1  8  1  0  0  0  0
  1 36  1  0  0  0  0
  3  4  1  6  0  0  0
  3 10  1  0  0  0  0
  3 47  1  0  0  0  0
  5 11  1  0  0  0  0
  5 30  1  0  0  0  0
  5 38  1  1  0  0  0
  6 21  1  1  0  0  0
  6 42  1  0  0  0  0
  7 15  1  0  0  0  0
  7 44  1  0  0  0  0
  7 32  1  1  0  0  0
  8  9  1  1  0  0  0
  8 17  1  0  0  0  0
 11 12  1  6  0  0  0
 11 20  1  0  0  0  0
 13  6  1  0  0  0  0
 13 14  1  1  0  0  0
 15 16  1  1  0  0  0
 15 24  1  0  0  0  0
 17 26  1  0  0  0  0
 18 10  1  0  0  0  0
 18 19  1  1  0  0  0
 20 21  1  6  0  0  0
 20 29  1  0  0  0  0
 22 13  1  0  0  0  0
 22 23  1  1  0  0  0
 24 25  1  6  0  0  0
 24 33  1  0  0  0  0
 26 27  1  1  0  0  0
 26 35  1  0  0  0  0
 28  2  1  1  0  0  0
 28 18  1  0  0  0  0
 29 30  1  0  0  0  0
 29 39  1  1  0  0  0
 31 22  1  0  0  0  0
 31 32  1  1  0  0  0
 31 41  1  0  0  0  0
 33 34  1  1  0  0  0
 33 43  1  0  0  0  0
 35 36  1  0  0  0  0
 35 45  1  6  0  0  0
 37 28  1  0  0  0  0
 37 38  1  6  0  0  0
 39 40  1  0  0  0  0
 41 42  1  0  0  0  0
 41 49  1  1  0  0  0
 43 44  1  0  0  0  0
 43 51  1  1  0  0  0
 45 46  1  0  0  0  0
 47 37  1  0  0  0  0
 47 48  1  6  0  0  0
 49 50  1  0  0  0  0
 51 52  1  0  0  0  0
M  END
>  <CHROM.1>
-167.26342465,172.20165618,175.04840682,-155.38219933,135.28125992,-172.71303332
-69.26903925,165.74826223,-71.84479721,162.75118749,-122.19000280,-114.65917585
20.79211140,-5.54284358,16.19851949,3.01203423,-0.64137902,-2.71259253

>  <Name>
2esj_lig

>  <RI>
0

>  <Rbt.Current_Directory>
/home/itssahil/PROJECTS/Mol_Feturizer/New_Systems/rnas/2esj

>  <Rbt.Executable>
rbdock ($Id: //depot/dev/client3/rdock/2013.1/src/exe/rbdock.cxx#4 $)

>  <Rbt.Library>
libRbt.so (2013.1, Build901 2013/11/27)

>  <Rbt.Parameter_File>
/export/apps/rDock/src/rDock_2013.1_src/data/scripts/dock_solv.prm

>  <Rbt.Receptor>
prm/pocket_docking_2.prm

>  <SCORE>
-23.611

>  <SCORE.INTER>
-19.1281

>  <SCORE.INTER.CONST>
1

>  <SCORE.INTER.POLAR>
-1.68836

>  <SCORE.INTER.ROT>
12

>  <SCORE.INTER.SOLV>
19.075

>  <SCORE.INTER.VDW>
-25.0826

>  <SCORE.INTER.norm>
-0.367848

>  <SCORE.INTRA>
-4.96534

>  <SCORE.INTRA.DIHEDRAL>
-13.3384

>  <SCORE.INTRA.DIHEDRAL.0>
32.9766

>  <SCORE.INTRA.POLAR>
0

>  <SCORE.INTRA.POLAR.0>
0

>  <SCORE.INTRA.REPUL>
0.00337409

>  <SCORE.INTRA.REPUL.0>
0

>  <SCORE.INTRA.SOLV>
1.64007

>  <SCORE.INTRA.SOLV.lig_0>
-114.358

>  <SCORE.INTRA.VDW>
0.866939

>  <SCORE.INTRA.VDW.0>
-8.24257

>  <SCORE.INTRA.norm>
-0.0954872

>  <SCORE.RESTR>
0.482404

>  <SCORE.RESTR.CAVITY>
0.482404

>  <SCORE.RESTR.norm>
0.00927699

>  <SCORE.SYSTEM>
0

>  <SCORE.SYSTEM.CONST>
0

>  <SCORE.SYSTEM.DIHEDRAL>
0

>  <SCORE.SYSTEM.SOLV>
0

>  <SCORE.SYSTEM.norm>
0

>  <SCORE.heavy>
52

>  <SCORE.norm>
-0.454059

>  <RMSD>
1.624

$$$$
2esj_lig
 OpenBabel11021811423D
libRbt.so/2013.1/901 2013/11/27
 52 56  0  0  0  0  0  0  0  0999 V2000
   17.1349   -6.3149   18.7591 C   0  0  2  0  0  0  0  0  0  0  0  0
   17.6091   -7.6336   19.0925 O   0  0  0  0  0  0  0  0  0  0  0  0
   18.9126  -11.1304   17.0042 C   0  0  2  0  0  0  0  0  0  0  0  0
   18.9949  -12.3389   16.1675 N   0  0  0  0  0  0  0  0  0  0  0  0
   19.2366   -6.4503   15.9274 C   0  0  1  0  0  0  0  0  0  0  0  0
   22.2494   -3.9800   14.5228 C   0  0  1  0  0  0  0  0  0  0  0  0
   27.3694   -3.8951   13.7310 C   0  0  1  0  0  0  0  0  0  0  0  0
   17.7724   -5.3179   19.7714 C   0  0  2  0  0  0  0  0  0  0  0  0
   19.2333   -5.3887   19.7723 N   0  0  0  0  0  0  0  0  0  0  0  0
   17.7765  -11.2913   18.0909 C   0  0  0  0  0  0  0  0  0  0  0  0
   20.3033   -7.0865   15.0353 C   0  0  2  0  0  0  0  0  0  0  0  0
   21.3317   -7.7547   15.7978 O   0  0  0  0  0  0  0  0  0  0  0  0
   23.3406   -4.5778   13.5262 C   0  0  2  0  0  0  0  0  0  0  0  0
   24.1608   -5.6219   14.1955 N   0  0  0  0  0  0  0  0  0  0  0  0
   27.9021   -4.7780   14.8537 C   0  0  1  0  0  0  0  0  0  0  0  0
   28.7632   -5.7892   14.2929 O   0  0  0  0  0  0  0  0  0  0  0  0
   17.2288   -5.5650   21.2144 C   0  0  0  0  0  0  0  0  0  0  0  0
   17.7429  -10.0094   19.0167 C   0  0  2  0  0  0  0  0  0  0  0  0
   16.6864  -10.1276   20.0269 N   0  0  0  0  0  0  0  0  0  0  0  0
   20.7818   -5.8814   14.2784 C   0  0  2  0  0  0  0  0  0  0  0  0
   21.6255   -5.0976   15.0834 O   0  0  0  0  0  0  0  0  0  0  0  0
   24.1697   -3.3780   12.8873 C   0  0  1  0  0  0  0  0  0  0  0  0
   23.2546   -2.4235   12.3392 O   0  0  0  0  0  0  0  0  0  0  0  0
   28.6800   -4.0485   15.9423 C   0  0  1  0  0  0  0  0  0  0  0  0
   29.2939   -5.0466   16.7651 O   0  0  0  0  0  0  0  0  0  0  0  0
   15.6727   -5.5078   21.1824 C   0  0  2  0  0  0  0  0  0  0  0  0
   15.1138   -5.6477   22.4764 O   0  0  0  0  0  0  0  0  0  0  0  0
   17.5341   -8.7312   18.1637 C   0  0  2  0  0  0  0  0  0  0  0  0
   19.5378   -4.9941   14.0664 C   0  0  2  0  0  0  0  0  0  0  0  0
   18.7546   -5.3073   15.2072 O   0  0  0  0  0  0  0  0  0  0  0  0
   24.9995   -2.5976   13.9881 C   0  0  2  0  0  0  0  0  0  0  0  0
   25.9215   -3.5678   14.4871 O   0  0  0  0  0  0  0  0  0  0  0  0
   29.7557   -3.1037   15.4036 C   0  0  2  0  0  0  0  0  0  0  0  0
   30.1715   -2.2760   16.5021 O   0  0  0  0  0  0  0  0  0  0  0  0
   15.1638   -6.6088   20.2192 C   0  0  2  0  0  0  0  0  0  0  0  0
   15.6945   -6.3062   18.8972 O   0  0  0  0  0  0  0  0  0  0  0  0
   18.5544   -8.5709   16.9914 C   0  0  2  0  0  0  0  0  0  0  0  0
   18.2216   -7.3861   16.2156 O   0  0  0  0  0  0  0  0  0  0  0  0
   18.7197   -5.2589   12.8030 C   0  0  0  0  0  0  0  0  0  0  0  0
   18.2184   -6.6011   12.8859 O   0  0  0  0  0  0  0  0  0  0  0  0
   24.0291   -2.3353   15.1237 C   0  0  1  0  0  0  0  0  0  0  0  0
   22.9077   -3.1190   15.5851 O   0  0  0  0  0  0  0  0  0  0  0  0
   29.2614   -2.3292   14.1869 C   0  0  2  0  0  0  0  0  0  0  0  0
   28.3186   -2.9037   13.2689 O   0  0  0  0  0  0  0  0  0  0  0  0
   13.6803   -6.6169   20.0723 C   0  0  0  0  0  0  0  0  0  0  0  0
   13.3185   -7.8564   19.5128 O   0  0  0  0  0  0  0  0  0  0  0  0
   18.6084   -9.8696   16.1181 C   0  0  1  0  0  0  0  0  0  0  0  0
   19.7077   -9.7125   15.1820 O   0  0  0  0  0  0  0  0  0  0  0  0
   24.5664   -1.4790   16.3115 C   0  0  0  0  0  0  0  0  0  0  0  0
   25.6102   -0.5117   15.9121 N   0  0  0  0  0  0  0  0  0  0  0  0
   30.1258   -1.3202   13.4342 C   0  0  0  0  0  0  0  0  0  0  0  0
   31.4992   -1.7885   13.3778 O   0  0  0  0  0  0  0  0  0  0  0  0
  1  2  1  1  0  0  0
  1  8  1  0  0  0  0
  1 36  1  0  0  0  0
  3  4  1  6  0  0  0
  3 10  1  0  0  0  0
  3 47  1  0  0  0  0
  5 11  1  0  0  0  0
  5 30  1  0  0  0  0
  5 38  1  6  0  0  0
  6 21  1  1  0  0  0
  6 42  1  0  0  0  0
  7 15  1  0  0  0  0
  7 44  1  0  0  0  0
  7 32  1  1  0  0  0
  8  9  1  1  0  0  0
  8 17  1  0  0  0  0
 11 12  1  1  0  0  0
 11 20  1  0  0  0  0
 13  6  1  0  0  0  0
 13 14  1  1  0  0  0
 15 16  1  6  0  0  0
 15 24  1  0  0  0  0
 17 26  1  0  0  0  0
 18 10  1  0  0  0  0
 18 19  1  1  0  0  0
 20 21  1  1  0  0  0
 20 29  1  0  0  0  0
 22 13  1  0  0  0  0
 22 23  1  1  0  0  0
 24 25  1  1  0  0  0
 24 33  1  0  0  0  0
 26 27  1  1  0  0  0
 26 35  1  0  0  0  0
 28  2  1  1  0  0  0
 28 18  1  0  0  0  0
 29 30  1  0  0  0  0
 29 39  1  6  0  0  0
 31 22  1  0  0  0  0
 31 32  1  1  0  0  0
 31 41  1  0  0  0  0
 33 34  1  1  0  0  0
 33 43  1  0  0  0  0
 35 36  1  0  0  0  0
 35 45  1  6  0  0  0
 37 28  1  0  0  0  0
 37 38  1  6  0  0  0
 39 40  1  0  0  0  0
 41 42  1  0  0  0  0
 41 49  1  1  0  0  0
 43 44  1  0  0  0  0
 43 51  1  6  0  0  0
 45 46  1  0  0  0  0
 47 37  1  0  0  0  0
 47 48  1  6  0  0  0
 49 50  1  0  0  0  0
 51 52  1  0  0  0  0
M  END
>  <CHROM.1>
-162.11634118,64.40485321,-70.61927451,171.28572389,175.46760468,-163.92516002
62.17640159,83.76387666,-163.23317708,129.95348556,29.22521463,37.41443360
21.66478703,-5.62245352,16.25195171,3.04123513,-0.50695831,-2.50533551

>  <Name>
2esj_lig

>  <RI>
1.01272e+07

>  <Rbt.Current_Directory>
/home/itssahil/PROJECTS/Mol_Feturizer/New_Systems/rnas/2esj

>  <Rbt.Executable>
rbdock ($Id: //depot/dev/client3/rdock/2013.1/src/exe/rbdock.cxx#4 $)

>  <Rbt.Library>
libRbt.so (2013.1, Build901 2013/11/27)

>  <Rbt.Parameter_File>
/export/apps/rDock/src/rDock_2013.1_src/data/scripts/dock_solv.prm

>  <Rbt.Receptor>
prm/pocket_docking_3.prm

>  <SCORE>
-20.44

>  <SCORE.INTER>
-16.1749

>  <SCORE.INTER.CONST>
1

>  <SCORE.INTER.POLAR>
-1.80442

>  <SCORE.INTER.ROT>
12

>  <SCORE.INTER.SOLV>
18.0463

>  <SCORE.INTER.VDW>
-22.384

>  <SCORE.INTER.norm>
-0.311055

>  <SCORE.INTRA>
-4.26514

>  <SCORE.INTRA.DIHEDRAL>
-13.7147

>  <SCORE.INTRA.DIHEDRAL.0>
32.9766

>  <SCORE.INTRA.POLAR>
0

>  <SCORE.INTRA.POLAR.0>
0

>  <SCORE.INTRA.REPUL>
0

>  <SCORE.INTRA.REPUL.0>
0

>  <SCORE.INTRA.SOLV>
-0.853806

>  <SCORE.INTRA.SOLV.lig_0>
-114.358

>  <SCORE.INTRA.VDW>
3.01913

>  <SCORE.INTRA.VDW.0>
-8.24257

>  <SCORE.INTRA.norm>
-0.0820219

>  <SCORE.RESTR>
0

>  <SCORE.RESTR.CAVITY>
0

>  <SCORE.RESTR.norm>
0

>  <SCORE.SYSTEM>
0

>  <SCORE.SYSTEM.CONST>
0

>  <SCORE.SYSTEM.DIHEDRAL>
0

>  <SCORE.SYSTEM.SOLV>
0

>  <SCORE.SYSTEM.norm>
0

>  <SCORE.heavy>
52

>  <SCORE.norm>
-0.393077

>  <RMSD>
1.635

$$$$
2esj_lig
 OpenBabel11021811423D
libRbt.so/2013.1/901 2013/11/27
 52 56  0  0  0  0  0  0  0  0999 V2000
   17.1967   -6.3054   19.0758 C   0  0  2  0  0  0  0  0  0  0  0  0
   17.5305   -7.6769   19.3628 O   0  0  0  0  0  0  0  0  0  0  0  0
   19.1096  -10.9096   17.0511 C   0  0  2  0  0  0  0  0  0  0  0  0
   19.2939  -12.0327   16.1173 N   0  0  0  0  0  0  0  0  0  0  0  0
   19.3039   -6.2491   16.1920 C   0  0  1  0  0  0  0  0  0  0  0  0
   21.7974   -4.5810   13.5949 C   0  0  1  0  0  0  0  0  0  0  0  0
   26.6370   -3.1006   13.3969 C   0  0  1  0  0  0  0  0  0  0  0  0
   17.7307   -5.4369   20.2529 C   0  0  2  0  0  0  0  0  0  0  0  0
   19.1666   -5.6162   20.4658 N   0  0  0  0  0  0  0  0  0  0  0  0
   17.9286  -11.2182   18.0547 C   0  0  0  0  0  0  0  0  0  0  0  0
   19.1064   -5.7787   14.7504 C   0  0  2  0  0  0  0  0  0  0  0  0
   19.7291   -6.6623   13.7928 O   0  0  0  0  0  0  0  0  0  0  0  0
   22.9341   -5.6759   13.8192 C   0  0  2  0  0  0  0  0  0  0  0  0
   23.6996   -5.4043   15.0646 N   0  0  0  0  0  0  0  0  0  0  0  0
   27.7635   -3.9983   12.8982 C   0  0  1  0  0  0  0  0  0  0  0  0
   28.7132   -3.2017   12.1621 O   0  0  0  0  0  0  0  0  0  0  0  0
   16.9560   -5.7497   21.5723 C   0  0  0  0  0  0  0  0  0  0  0  0
   17.7847  -10.0279   19.0863 C   0  0  2  0  0  0  0  0  0  0  0  0
   16.6848  -10.2836   20.0221 N   0  0  0  0  0  0  0  0  0  0  0  0
   19.7243   -4.4122   14.8209 C   0  0  2  0  0  0  0  0  0  0  0  0
   21.1263   -4.5053   14.8183 O   0  0  0  0  0  0  0  0  0  0  0  0
   23.8156   -5.7841   12.4977 C   0  0  1  0  0  0  0  0  0  0  0  0
   22.9472   -5.9809   11.3771 O   0  0  0  0  0  0  0  0  0  0  0  0
   28.5228   -4.7532   13.9826 C   0  0  1  0  0  0  0  0  0  0  0  0
   29.6709   -5.3432   13.3629 O   0  0  0  0  0  0  0  0  0  0  0  0
   15.4302   -5.5745   21.3135 C   0  0  2  0  0  0  0  0  0  0  0  0
   14.6702   -5.7684   22.4928 O   0  0  0  0  0  0  0  0  0  0  0  0
   17.5572   -8.6885   18.3385 C   0  0  2  0  0  0  0  0  0  0  0  0
   19.3888   -3.8687   16.2251 C   0  0  2  0  0  0  0  0  0  0  0  0
   19.3198   -5.0595   16.9933 O   0  0  0  0  0  0  0  0  0  0  0  0
   24.5935   -4.4347   12.2092 C   0  0  2  0  0  0  0  0  0  0  0  0
   25.4714   -4.2887   13.3266 O   0  0  0  0  0  0  0  0  0  0  0  0
   28.9733   -3.8706   15.1480 C   0  0  2  0  0  0  0  0  0  0  0  0
   29.3809   -4.7533   16.2060 O   0  0  0  0  0  0  0  0  0  0  0  0
   15.0089   -6.5597   20.1950 C   0  0  2  0  0  0  0  0  0  0  0  0
   15.7556   -6.1997   18.9976 O   0  0  0  0  0  0  0  0  0  0  0  0
   18.6271   -8.3778   17.2432 C   0  0  2  0  0  0  0  0  0  0  0  0
   18.2766   -7.1438   16.5572 O   0  0  0  0  0  0  0  0  0  0  0  0
   18.0741   -3.1014   16.3621 C   0  0  0  0  0  0  0  0  0  0  0  0
   18.0865   -2.0455   15.3903 O   0  0  0  0  0  0  0  0  0  0  0  0
   23.5645   -3.3297   12.3521 C   0  0  1  0  0  0  0  0  0  0  0  0
   22.4074   -3.2454   13.2115 O   0  0  0  0  0  0  0  0  0  0  0  0
   27.8907   -2.8733   15.5453 C   0  0  2  0  0  0  0  0  0  0  0  0
   26.9823   -2.3314   14.5743 O   0  0  0  0  0  0  0  0  0  0  0  0
   13.5684   -6.4462   19.8281 C   0  0  0  0  0  0  0  0  0  0  0  0
   13.5066   -6.0449   18.4808 O   0  0  0  0  0  0  0  0  0  0  0  0
   18.7896   -9.5887   16.2635 C   0  0  1  0  0  0  0  0  0  0  0  0
   19.9263   -9.2990   15.4072 O   0  0  0  0  0  0  0  0  0  0  0  0
   24.0466   -1.8851   12.0151 C   0  0  0  0  0  0  0  0  0  0  0  0
   24.1716   -1.0162   13.2043 N   0  0  0  0  0  0  0  0  0  0  0  0
   28.0664   -1.8580   16.6722 C   0  0  0  0  0  0  0  0  0  0  0  0
   29.1621   -0.9571   16.3614 O   0  0  0  0  0  0  0  0  0  0  0  0
  1  2  1  1  0  0  0
  1  8  1  0  0  0  0
  1 36  1  0  0  0  0
  3  4  1  6  0  0  0
  3 10  1  0  0  0  0
  3 47  1  0  0  0  0
  5 11  1  0  0  0  0
  5 30  1  0  0  0  0
  5 38  1  1  0  0  0
  6 21  1  1  0  0  0
  6 42  1  0  0  0  0
  7 15  1  0  0  0  0
  7 44  1  0  0  0  0
  7 32  1  1  0  0  0
  8  9  1  1  0  0  0
  8 17  1  0  0  0  0
 11 12  1  6  0  0  0
 11 20  1  0  0  0  0
 13  6  1  0  0  0  0
 13 14  1  1  0  0  0
 15 16  1  1  0  0  0
 15 24  1  0  0  0  0
 17 26  1  0  0  0  0
 18 10  1  0  0  0  0
 18 19  1  1  0  0  0
 20 21  1  1  0  0  0
 20 29  1  0  0  0  0
 22 13  1  0  0  0  0
 22 23  1  6  0  0  0
 24 25  1  6  0  0  0
 24 33  1  0  0  0  0
 26 27  1  1  0  0  0
 26 35  1  0  0  0  0
 28  2  1  1  0  0  0
 28 18  1  0  0  0  0
 29 30  1  0  0  0  0
 29 39  1  6  0  0  0
 31 22  1  0  0  0  0
 31 32  1  1  0  0  0
 31 41  1  0  0  0  0
 33 34  1  1  0  0  0
 33 43  1  0  0  0  0
 35 36  1  0  0  0  0
 35 45  1  6  0  0  0
 37 28  1  0  0  0  0
 37 38  1  6  0  0  0
 39 40  1  0  0  0  0
 41 42  1  0  0  0  0
 41 49  1  1  0  0  0
 43 44  1  0  0  0  0
 43 51  1  6  0  0  0
 45 46  1  0  0  0  0
 47 37  1  0  0  0  0
 47 48  1  6  0  0  0
 49 50  1  0  0  0  0
 51 52  1  0  0  0  0
M  END
>  <CHROM.1>
-160.88121273,133.90505174,-138.41529328,-96.38311809,85.62499098,-173.27002440
-54.70174449,172.59183294,117.44202044,141.41926194,-109.18841610,61.82026826
21.28450071,-5.52916070,16.11165830,2.94249959,-0.52173376,-2.89322832

>  <Name>
2esj_lig

>  <RI>
1.01272e+07

>  <Rbt.Current_Directory>
/home/itssahil/PROJECTS/Mol_Feturizer/New_Systems/rnas/2esj

>  <Rbt.Executable>
rbdock ($Id: //depot/dev/client3/rdock/2013.1/src/exe/rbdock.cxx#4 $)

>  <Rbt.Library>
libRbt.so (2013.1, Build901 2013/11/27)

>  <Rbt.Parameter_File>
/export/apps/rDock/src/rDock_2013.1_src/data/scripts/dock_solv.prm

>  <Rbt.Receptor>
prm/pocket_docking_3.prm

>  <SCORE>
-12.0074

>  <SCORE.INTER>
-16.4951

>  <SCORE.INTER.CONST>
1

>  <SCORE.INTER.POLAR>
-1.08937

>  <SCORE.INTER.ROT>
12

>  <SCORE.INTER.SOLV>
19.506

>  <SCORE.INTER.VDW>
-25.4675

>  <SCORE.INTER.norm>
-0.317214

>  <SCORE.INTRA>
4.4877

>  <SCORE.INTRA.DIHEDRAL>
4.23314

>  <SCORE.INTRA.DIHEDRAL.0>
32.9766

>  <SCORE.INTRA.POLAR>
0

>  <SCORE.INTRA.POLAR.0>
0

>  <SCORE.INTRA.REPUL>
0

>  <SCORE.INTRA.REPUL.0>
0

>  <SCORE.INTRA.SOLV>
-1.53414

>  <SCORE.INTRA.SOLV.lig_0>
-114.358

>  <SCORE.INTRA.VDW>
3.1382

>  <SCORE.INTRA.VDW.0>
-8.24257

>  <SCORE.INTRA.norm>
0.0863019

>  <SCORE.RESTR>
0

>  <SCORE.RESTR.CAVITY>
0

>  <SCORE.RESTR.norm>
0

>  <SCORE.SYSTEM>
0

>  <SCORE.SYSTEM.CONST>
0

>  <SCORE.SYSTEM.DIHEDRAL>
0

>  <SCORE.SYSTEM.SOLV>
0

>  <SCORE.SYSTEM.norm>
0

>  <SCORE.heavy>
52

>  <SCORE.norm>
-0.230912

>  <RMSD>
1.727

$$$$
2esj_lig
 OpenBabel11021811423D
libRbt.so/2013.1/901 2013/11/27
 52 56  0  0  0  0  0  0  0  0999 V2000
   16.8586   -6.5447   19.0215 C   0  0  2  0  0  0  0  0  0  0  0  0
   17.2334   -7.8725   19.4355 O   0  0  0  0  0  0  0  0  0  0  0  0
   18.9045  -11.2425   17.4013 C   0  0  2  0  0  0  0  0  0  0  0  0
   19.1182  -12.4419   16.5748 N   0  0  0  0  0  0  0  0  0  0  0  0
   18.7949   -6.5220   16.3650 C   0  0  1  0  0  0  0  0  0  0  0  0
   21.6007   -3.6917   15.1954 C   0  0  1  0  0  0  0  0  0  0  0  0
   26.3723   -3.7237   14.1714 C   0  0  1  0  0  0  0  0  0  0  0  0
   17.5107   -5.5415   20.0182 C   0  0  2  0  0  0  0  0  0  0  0  0
   18.9627   -5.7006   20.0929 N   0  0  0  0  0  0  0  0  0  0  0  0
   17.7628  -11.5033   18.4624 C   0  0  0  0  0  0  0  0  0  0  0  0
   19.9994   -7.0077   15.5576 C   0  0  2  0  0  0  0  0  0  0  0  0
   21.0427   -7.5487   16.3967 O   0  0  0  0  0  0  0  0  0  0  0  0
   22.7281   -4.1794   14.1794 C   0  0  2  0  0  0  0  0  0  0  0  0
   23.6139   -5.1934   14.8104 N   0  0  0  0  0  0  0  0  0  0  0  0
   26.9859   -4.6128   15.2469 C   0  0  1  0  0  0  0  0  0  0  0  0
   27.4802   -5.8217   14.6366 O   0  0  0  0  0  0  0  0  0  0  0  0
   16.8875   -5.6867   21.4428 C   0  0  0  0  0  0  0  0  0  0  0  0
   17.5886  -10.2259   19.3787 C   0  0  2  0  0  0  0  0  0  0  0  0
   16.5240  -10.4372   20.3650 N   0  0  0  0  0  0  0  0  0  0  0  0
   20.3774   -5.7431   14.8420 C   0  0  2  0  0  0  0  0  0  0  0  0
   21.0501   -4.8678   15.7114 O   0  0  0  0  0  0  0  0  0  0  0  0
   23.4781   -2.9052   13.5888 C   0  0  1  0  0  0  0  0  0  0  0  0
   22.5034   -1.9914   13.0754 O   0  0  0  0  0  0  0  0  0  0  0  0
   28.1269   -3.9846   16.0380 C   0  0  1  0  0  0  0  0  0  0  0  0
   28.7237   -5.0255   16.8194 O   0  0  0  0  0  0  0  0  0  0  0  0
   15.3411   -5.5368   21.3331 C   0  0  2  0  0  0  0  0  0  0  0  0
   14.7162   -5.5814   22.6034 O   0  0  0  0  0  0  0  0  0  0  0  0
   17.2824   -8.9765   18.5125 C   0  0  2  0  0  0  0  0  0  0  0  0
   19.0507   -5.0183   14.5353 C   0  0  2  0  0  0  0  0  0  0  0  0
   18.2283   -5.4412   15.6112 O   0  0  0  0  0  0  0  0  0  0  0  0
   24.2560   -2.1158   14.7207 C   0  0  2  0  0  0  0  0  0  0  0  0
   25.2386   -3.0429   15.1846 O   0  0  0  0  0  0  0  0  0  0  0  0
   29.1975   -3.3307   15.1625 C   0  0  2  0  0  0  0  0  0  0  0  0
   30.0146   -2.5298   16.0317 O   0  0  0  0  0  0  0  0  0  0  0  0
   14.8085   -6.6492   20.3961 C   0  0  2  0  0  0  0  0  0  0  0  0
   15.4168   -6.4421   19.0892 O   0  0  0  0  0  0  0  0  0  0  0  0
   18.3109   -8.7275   17.3631 C   0  0  2  0  0  0  0  0  0  0  0  0
   17.8881   -7.5822   16.5720 O   0  0  0  0  0  0  0  0  0  0  0  0
   18.3726   -5.3702   13.2116 C   0  0  0  0  0  0  0  0  0  0  0  0
   19.2166   -4.8934   12.1533 O   0  0  0  0  0  0  0  0  0  0  0  0
   23.2707   -1.9601   15.8631 C   0  0  1  0  0  0  0  0  0  0  0  0
   22.2021   -2.8315   16.2915 O   0  0  0  0  0  0  0  0  0  0  0  0
   28.5773   -2.5625   14.0008 C   0  0  2  0  0  0  0  0  0  0  0  0
   27.3496   -2.9921   13.3924 O   0  0  0  0  0  0  0  0  0  0  0  0
   13.3356   -6.5743   20.1781 C   0  0  0  0  0  0  0  0  0  0  0  0
   12.9301   -7.7972   19.6123 O   0  0  0  0  0  0  0  0  0  0  0  0
   18.5058  -10.0195   16.5000 C   0  0  1  0  0  0  0  0  0  0  0  0
   19.6076   -9.7652   15.5886 O   0  0  0  0  0  0  0  0  0  0  0  0
   23.7517   -1.1171   17.0840 C   0  0  0  0  0  0  0  0  0  0  0  0
   24.9409   -1.6828   17.7554 N   0  0  0  0  0  0  0  0  0  0  0  0
   29.4068   -1.8175   12.9574 C   0  0  0  0  0  0  0  0  0  0  0  0
   30.0705   -2.7669   12.0817 O   0  0  0  0  0  0  0  0  0  0  0  0
  1  2  1  1  0  0  0
  1  8  1  0  0  0  0
  1 36  1  0  0  0  0
  3  4  1  6  0  0  0
  3 10  1  0  0  0  0
  3 47  1  0  0  0  0
  5 11  1  0  0  0  0
  5 30  1  0  0  0  0
  5 38  1  6  0  0  0
  6 21  1  1  0  0  0
  6 42  1  0  0  0  0
  7 15  1  0  0  0  0
  7 44  1  0  0  0  0
  7 32  1  1  0  0  0
  8  9  1  1  0  0  0
  8 17  1  0  0  0  0
 11 12  1  1  0  0  0
 11 20  1  0  0  0  0
 13  6  1  0  0  0  0
 13 14  1  1  0  0  0
 15 16  1  6  0  0  0
 15 24  1  0  0  0  0
 17 26  1  0  0  0  0
 18 10  1  0  0  0  0
 18 19  1  1  0  0  0
 20 21  1  1  0  0  0
 20 29  1  0  0  0  0
 22 13  1  0  0  0  0
 22 23  1  1  0  0  0
 24 25  1  6  0  0  0
 24 33  1  0  0  0  0
 26 27  1  1  0  0  0
 26 35  1  0  0  0  0
 28  2  1  1  0  0  0
 28 18  1  0  0  0  0
 29 30  1  0  0  0  0
 29 39  1  6  0  0  0
 31 22  1  0  0  0  0
 31 32  1  1  0  0  0
 31 41  1  0  0  0  0
 33 34  1  1  0  0  0
 33 43  1  0  0  0  0
 35 36  1  0  0  0  0
 35 45  1  6  0  0  0
 37 28  1  0  0  0  0
 37 38  1  6  0  0  0
 39 40  1  0  0  0  0
 41 42  1  0  0  0  0
 41 49  1  1  0  0  0
 43 44  1  0  0  0  0
 43 51  1  6  0  0  0
 45 46  1  0  0  0  0
 47 37  1  0  0  0  0
 47 48  1  6  0  0  0
 49 50  1  0  0  0  0
 51 52  1  0  0  0  0
M  END
>  <CHROM.1>
-154.64957566,64.05928918,-64.00383094,-176.77841005,173.68598092,-174.66432820
-66.72872177,57.80121426,-165.31405249,126.38515314,-61.18402092,72.10524767
21.20769752,-5.61776266,16.56934871,2.86110367,-0.47806323,-2.89747180

>  <Name>
2esj_lig

>  <RI>
1.01272e+07

>  <Rbt.Current_Directory>
/home/itssahil/PROJECTS/Mol_Feturizer/New_Systems/rnas/2esj

>  <Rbt.Executable>
rbdock ($Id: //depot/dev/client3/rdock/2013.1/src/exe/rbdock.cxx#4 $)

>  <Rbt.Library>
libRbt.so (2013.1, Build901 2013/11/27)

>  <Rbt.Parameter_File>
/export/apps/rDock/src/rDock_2013.1_src/data/scripts/dock_solv.prm

>  <Rbt.Receptor>
prm/pocket_docking_3.prm

>  <SCORE>
-18.8286

>  <SCORE.INTER>
-13.238

>  <SCORE.INTER.CONST>
1

>  <SCORE.INTER.POLAR>
-0.979796

>  <SCORE.INTER.ROT>
12

>  <SCORE.INTER.SOLV>
16.1884

>  <SCORE.INTER.VDW>
-22.5555

>  <SCORE.INTER.norm>
-0.254576

>  <SCORE.INTRA>
-5.59062

>  <SCORE.INTRA.DIHEDRAL>
-16.5761

>  <SCORE.INTRA.DIHEDRAL.0>
32.9766

>  <SCORE.INTRA.POLAR>
0

>  <SCORE.INTRA.POLAR.0>
0

>  <SCORE.INTRA.REPUL>
0

>  <SCORE.INTRA.REPUL.0>
0

>  <SCORE.INTRA.SOLV>
-0.300299

>  <SCORE.INTRA.SOLV.lig_0>
-114.358

>  <SCORE.INTRA.VDW>
2.84759

>  <SCORE.INTRA.VDW.0>
-8.24257

>  <SCORE.INTRA.norm>
-0.107512

>  <SCORE.RESTR>
0

>  <SCORE.RESTR.CAVITY>
0

>  <SCORE.RESTR.norm>
0

>  <SCORE.SYSTEM>
0

>  <SCORE.SYSTEM.CONST>
0

>  <SCORE.SYSTEM.DIHEDRAL>
0

>  <SCORE.SYSTEM.SOLV>
0

>  <SCORE.SYSTEM.norm>
0

>  <SCORE.heavy>
52

>  <SCORE.norm>
-0.362088

>  <RMSD>
1.790

$$$$
2esj_lig
 OpenBabel11021811423D
libRbt.so/2013.1/901 2013/11/27
 52 56  0  0  0  0  0  0  0  0999 V2000
   16.9310   -6.0540   19.4171 C   0  0  2  0  0  0  0  0  0  0  0  0
   17.3630   -7.4133   19.6177 O   0  0  0  0  0  0  0  0  0  0  0  0
   19.1256  -10.4545   17.1821 C   0  0  2  0  0  0  0  0  0  0  0  0
   19.3810  -11.5086   16.1865 N   0  0  0  0  0  0  0  0  0  0  0  0
   19.1429   -6.1030   15.9783 C   0  0  1  0  0  0  0  0  0  0  0  0
   21.1555   -3.9082   12.9692 C   0  0  1  0  0  0  0  0  0  0  0  0
   26.1705   -3.0511   14.0345 C   0  0  1  0  0  0  0  0  0  0  0  0
   17.8503   -5.1381   20.2779 C   0  0  2  0  0  0  0  0  0  0  0  0
   19.2658   -5.3144   19.9547 N   0  0  0  0  0  0  0  0  0  0  0  0
   17.9013  -10.8507   18.0994 C   0  0  0  0  0  0  0  0  0  0  0  0
   18.3821   -5.2860   14.9332 C   0  0  2  0  0  0  0  0  0  0  0  0
   17.9649   -6.0862   13.8058 O   0  0  0  0  0  0  0  0  0  0  0  0
   22.2993   -4.8218   12.3378 C   0  0  2  0  0  0  0  0  0  0  0  0
   22.9724   -5.6352   13.3848 N   0  0  0  0  0  0  0  0  0  0  0  0
   27.0986   -4.1724   13.5821 C   0  0  1  0  0  0  0  0  0  0  0  0
   28.4379   -3.6549   13.4515 O   0  0  0  0  0  0  0  0  0  0  0  0
   17.6190   -5.3907   21.8017 C   0  0  0  0  0  0  0  0  0  0  0  0
   17.6799   -9.7355   19.1989 C   0  0  2  0  0  0  0  0  0  0  0  0
   16.5390  -10.0729   20.0564 N   0  0  0  0  0  0  0  0  0  0  0  0
   19.4083   -4.2415   14.6018 C   0  0  2  0  0  0  0  0  0  0  0  0
   20.4017   -4.7758   13.7640 O   0  0  0  0  0  0  0  0  0  0  0  0
   23.2704   -3.9073   11.4685 C   0  0  1  0  0  0  0  0  0  0  0  0
   22.4845   -3.1383   10.5522 O   0  0  0  0  0  0  0  0  0  0  0  0
   27.1507   -5.3857   14.5027 C   0  0  1  0  0  0  0  0  0  0  0  0
   28.2301   -6.2122   14.0532 O   0  0  0  0  0  0  0  0  0  0  0  0
   16.1031   -5.2201   22.1155 C   0  0  2  0  0  0  0  0  0  0  0  0
   15.8326   -5.3600   23.4987 O   0  0  0  0  0  0  0  0  0  0  0  0
   17.4633   -8.3527   18.5311 C   0  0  2  0  0  0  0  0  0  0  0  0
   20.1516   -3.9457   15.9208 C   0  0  2  0  0  0  0  0  0  0  0  0
   20.0624   -5.1910   16.5949 O   0  0  0  0  0  0  0  0  0  0  0  0
   24.0348   -2.8538   12.3713 C   0  0  2  0  0  0  0  0  0  0  0  0
   24.8316   -3.6531   13.2469 O   0  0  0  0  0  0  0  0  0  0  0  0
   27.3620   -5.0330   15.9761 C   0  0  2  0  0  0  0  0  0  0  0  0
   27.0772   -6.2202   16.7339 O   0  0  0  0  0  0  0  0  0  0  0  0
   15.3115   -6.2505   21.2724 C   0  0  2  0  0  0  0  0  0  0  0  0
   15.5611   -5.9454   19.8704 O   0  0  0  0  0  0  0  0  0  0  0  0
   18.5814   -7.9503   17.5168 C   0  0  2  0  0  0  0  0  0  0  0  0
   18.2410   -6.6789   16.8970 O   0  0  0  0  0  0  0  0  0  0  0  0
   19.5597   -2.8485   16.8047 C   0  0  0  0  0  0  0  0  0  0  0  0
   19.2489   -1.7320   15.9583 O   0  0  0  0  0  0  0  0  0  0  0  0
   22.9735   -2.2203   13.2501 C   0  0  1  0  0  0  0  0  0  0  0  0
   21.7593   -2.7842   13.7908 O   0  0  0  0  0  0  0  0  0  0  0  0
   26.5386   -3.8163   16.3836 C   0  0  2  0  0  0  0  0  0  0  0  0
   26.2524   -2.7624   15.4512 O   0  0  0  0  0  0  0  0  0  0  0  0
   13.8358   -6.1465   21.4571 C   0  0  0  0  0  0  0  0  0  0  0  0
   13.2836   -7.4058   21.1582 O   0  0  0  0  0  0  0  0  0  0  0  0
   18.8191   -9.0891   16.4686 C   0  0  1  0  0  0  0  0  0  0  0  0
   19.9921   -8.7226   15.6945 O   0  0  0  0  0  0  0  0  0  0  0  0
   23.4440   -1.0576   14.1774 C   0  0  0  0  0  0  0  0  0  0  0  0
   23.8346   -1.5077   15.5300 N   0  0  0  0  0  0  0  0  0  0  0  0
   26.5590   -3.2308   17.7937 C   0  0  0  0  0  0  0  0  0  0  0  0
   25.5187   -3.8441   18.6002 O   0  0  0  0  0  0  0  0  0  0  0  0
  1  2  1  1  0  0  0
  1  8  1  0  0  0  0
  1 36  1  0  0  0  0
  3  4  1  6  0  0  0
  3 10  1  0  0  0  0
  3 47  1  0  0  0  0
  5 11  1  0  0  0  0
  5 30  1  0  0  0  0
  5 38  1  1  0  0  0
  6 21  1  1  0  0  0
  6 42  1  0  0  0  0
  7 15  1  0  0  0  0
  7 44  1  0  0  0  0
  7 32  1  1  0  0  0
  8  9  1  6  0  0  0
  8 17  1  0  0  0  0
 11 12  1  6  0  0  0
 11 20  1  0  0  0  0
 13  6  1  0  0  0  0
 13 14  1  1  0  0  0
 15 16  1  1  0  0  0
 15 24  1  0  0  0  0
 17 26  1  0  0  0  0
 18 10  1  0  0  0  0
 18 19  1  6  0  0  0
 20 21  1  6  0  0  0
 20 29  1  0  0  0  0
 22 13  1  0  0  0  0
 22 23  1  6  0  0  0
 24 25  1  6  0  0  0
 24 33  1  0  0  0  0
 26 27  1  1  0  0  0
 26 35  1  0  0  0  0
 28  2  1  1  0  0  0
 28 18  1  0  0  0  0
 29 30  1  0  0  0  0
 29 39  1  1  0  0  0
 31 22  1  0  0  0  0
 31 32  1  1  0  0  0
 31 41  1  0  0  0  0
 33 34  1  1  0  0  0
 33 43  1  0  0  0  0
 35 36  1  0  0  0  0
 35 45  1  6  0  0  0
 37 28  1  0  0  0  0
 37 38  1  6  0  0  0
 39 40  1  0  0  0  0
 41 42  1  0  0  0  0
 41 49  1  1  0  0  0
 43 44  1  0  0  0  0
 43 51  1  1  0  0  0
 45 46  1  0  0  0  0
 47 37  1  0  0  0  0
 47 48  1  6  0  0  0
 49 50  1  0  0  0  0
 51 52  1  0  0  0  0
M  END
>  <CHROM.1>
-137.94483438,149.47524461,171.86871275,-128.58456699,157.41565063,-169.10519887
-45.92938976,159.32556702,-154.78070678,177.74025117,-92.90800278,-90.87556622
20.90734919,-5.40631095,16.50633281,-2.61651590,-0.39304776,-1.62239279

>  <Name>
2esj_lig

>  <RI>
1.01272e+07

>  <Rbt.Current_Directory>
/home/itssahil/PROJECTS/Mol_Feturizer/New_Systems/rnas/2esj

>  <Rbt.Executable>
rbdock ($Id: //depot/dev/client3/rdock/2013.1/src/exe/rbdock.cxx#4 $)

>  <Rbt.Library>
libRbt.so (2013.1, Build901 2013/11/27)

>  <Rbt.Parameter_File>
/export/apps/rDock/src/rDock_2013.1_src/data/scripts/dock_solv.prm

>  <Rbt.Receptor>
prm/pocket_docking_3.prm

>  <SCORE>
-15.063

>  <SCORE.INTER>
-15.8969

>  <SCORE.INTER.CONST>
1

>  <SCORE.INTER.POLAR>
-0.71227

>  <SCORE.INTER.ROT>
12

>  <SCORE.INTER.SOLV>
18.2961

>  <SCORE.INTER.VDW>
-25.9224

>  <SCORE.INTER.norm>
-0.305709

>  <SCORE.INTRA>
0.833882

>  <SCORE.INTRA.DIHEDRAL>
-3.40208

>  <SCORE.INTRA.DIHEDRAL.0>
32.9766

>  <SCORE.INTRA.POLAR>
0

>  <SCORE.INTRA.POLAR.0>
0

>  <SCORE.INTRA.REPUL>
0

>  <SCORE.INTRA.REPUL.0>
0

>  <SCORE.INTRA.SOLV>
2.05124

>  <SCORE.INTRA.SOLV.lig_0>
-114.358

>  <SCORE.INTRA.VDW>
1.5093

>  <SCORE.INTRA.VDW.0>
-8.24257

>  <SCORE.INTRA.norm>
0.0160362

>  <SCORE.RESTR>
0

>  <SCORE.RESTR.CAVITY>
0

>  <SCORE.RESTR.norm>
0

>  <SCORE.SYSTEM>
0

>  <SCORE.SYSTEM.CONST>
0

>  <SCORE.SYSTEM.DIHEDRAL>
0

>  <SCORE.SYSTEM.SOLV>
0

>  <SCORE.SYSTEM.norm>
0

>  <SCORE.heavy>
52

>  <SCORE.norm>
-0.289673

>  <RMSD>
1.824

$$$$
2esj_lig
 OpenBabel11021811423D
libRbt.so/2013.1/901 2013/11/27
 52 56  0  0  0  0  0  0  0  0999 V2000
   18.4319   -7.0409   17.8560 C   0  0  2  0  0  0  0  0  0  0  0  0
   18.1956   -8.4616   17.8817 O   0  0  0  0  0  0  0  0  0  0  0  0
   20.4150  -10.8890   15.1485 C   0  0  2  0  0  0  0  0  0  0  0  0
   20.8276  -11.8044   14.0718 N   0  0  0  0  0  0  0  0  0  0  0  0
   19.4676   -6.3113   14.7555 C   0  0  1  0  0  0  0  0  0  0  0  0
   21.2425   -2.7571   13.5780 C   0  0  1  0  0  0  0  0  0  0  0  0
   26.5337   -2.5921   13.5179 C   0  0  1  0  0  0  0  0  0  0  0  0
   19.8897   -6.7994   18.3476 C   0  0  2  0  0  0  0  0  0  0  0  0
   20.8718   -7.5307   17.5477 N   0  0  0  0  0  0  0  0  0  0  0  0
   19.3826  -11.6018   16.1095 C   0  0  0  0  0  0  0  0  0  0  0  0
   18.6455   -5.3787   13.8651 C   0  0  2  0  0  0  0  0  0  0  0  0
   18.6984   -5.7586   12.4729 O   0  0  0  0  0  0  0  0  0  0  0  0
   22.3832   -2.8866   12.4720 C   0  0  2  0  0  0  0  0  0  0  0  0
   23.1034   -4.1815   12.5960 N   0  0  0  0  0  0  0  0  0  0  0  0
   26.8203   -4.0356   13.9151 C   0  0  1  0  0  0  0  0  0  0  0  0
   27.8677   -4.5592   13.0741 O   0  0  0  0  0  0  0  0  0  0  0  0
   20.0407   -7.1837   19.8538 C   0  0  0  0  0  0  0  0  0  0  0  0
   18.9967  -10.6246   17.2918 C   0  0  2  0  0  0  0  0  0  0  0  0
   18.0277  -11.2581   18.1921 N   0  0  0  0  0  0  0  0  0  0  0  0
   19.2993   -4.0620   14.1701 C   0  0  2  0  0  0  0  0  0  0  0  0
   20.5299   -3.9566   13.5001 O   0  0  0  0  0  0  0  0  0  0  0  0
   23.3098   -1.5931   12.5311 C   0  0  1  0  0  0  0  0  0  0  0  0
   22.4817   -0.4275   12.4655 O   0  0  0  0  0  0  0  0  0  0  0  0
   27.2357   -4.2411   15.3669 C   0  0  1  0  0  0  0  0  0  0  0  0
   27.6864   -5.5945   15.4908 O   0  0  0  0  0  0  0  0  0  0  0  0
   18.9704   -6.4108   20.6800 C   0  0  2  0  0  0  0  0  0  0  0  0
   19.1006   -6.6543   22.0692 O   0  0  0  0  0  0  0  0  0  0  0  0
   18.4251   -9.2964   16.7312 C   0  0  2  0  0  0  0  0  0  0  0  0
   19.6897   -4.1194   15.6613 C   0  0  2  0  0  0  0  0  0  0  0  0
   19.9220   -5.5060   15.8520 O   0  0  0  0  0  0  0  0  0  0  0  0
   24.0817   -1.4971   13.9110 C   0  0  2  0  0  0  0  0  0  0  0  0
   24.9199   -2.6537   13.9265 O   0  0  0  0  0  0  0  0  0  0  0  0
   28.3430   -3.2935   15.8314 C   0  0  2  0  0  0  0  0  0  0  0  0
   28.4001   -3.3896   17.2640 O   0  0  0  0  0  0  0  0  0  0  0  0
   17.5682   -6.8131   20.1594 C   0  0  2  0  0  0  0  0  0  0  0  0
   17.4944   -6.4122   18.7613 O   0  0  0  0  0  0  0  0  0  0  0  0
   19.3457   -8.5970   15.6804 C   0  0  2  0  0  0  0  0  0  0  0  0
   18.6825   -7.4080   15.1677 O   0  0  0  0  0  0  0  0  0  0  0  0
   18.6363   -3.6410   16.6600 C   0  0  0  0  0  0  0  0  0  0  0  0
   18.4324   -2.2384   16.4346 O   0  0  0  0  0  0  0  0  0  0  0  0
   23.0362   -1.7368   14.9832 C   0  0  1  0  0  0  0  0  0  0  0  0
   21.8500   -2.5594   14.9546 O   0  0  0  0  0  0  0  0  0  0  0  0
   28.1256   -1.8790   15.3058 C   0  0  2  0  0  0  0  0  0  0  0  0
   27.4960   -1.6426   14.0371 O   0  0  0  0  0  0  0  0  0  0  0  0
   16.4598   -6.0942   20.8500 C   0  0  0  0  0  0  0  0  0  0  0  0
   16.7810   -4.7241   20.8499 O   0  0  0  0  0  0  0  0  0  0  0  0
   19.7565   -9.5961   14.5467 C   0  0  1  0  0  0  0  0  0  0  0  0
   20.7562   -8.9312   13.7295 O   0  0  0  0  0  0  0  0  0  0  0  0
   23.5131   -1.5939   16.4614 C   0  0  0  0  0  0  0  0  0  0  0  0
   23.7209   -2.8912   17.1386 N   0  0  0  0  0  0  0  0  0  0  0  0
   29.0801   -0.7244   15.6019 C   0  0  0  0  0  0  0  0  0  0  0  0
   29.5919   -0.8392   16.9560 O   0  0  0  0  0  0  0  0  0  0  0  0
  1  2  1  1  0  0  0
  1  8  1  0  0  0  0
  1 36  1  0  0  0  0
  3  4  1  6  0  0  0
  3 10  1  0  0  0  0
  3 47  1  0  0  0  0
  5 11  1  0  0  0  0
  5 30  1  0  0  0  0
  5 38  1  1  0  0  0
  6 21  1  1  0  0  0
  6 42  1  0  0  0  0
  7 15  1  0  0  0  0
  7 44  1  0  0  0  0
  7 32  1  1  0  0  0
  8  9  1  6  0  0  0
  8 17  1  0  0  0  0
 11 12  1  6  0  0  0
 11 20  1  0  0  0  0
 13  6  1  0  0  0  0
 13 14  1  1  0  0  0
 15 16  1  6  0  0  0
 15 24  1  0  0  0  0
 17 26  1  0  0  0  0
 18 10  1  0  0  0  0
 18 19  1  1  0  0  0
 20 21  1  6  0  0  0
 20 29  1  0  0  0  0
 22 13  1  0  0  0  0
 22 23  1  1  0  0  0
 24 25  1  6  0  0  0
 24 33  1  0  0  0  0
 26 27  1  1  0  0  0
 26 35  1  0  0  0  0
 28  2  1  1  0  0  0
 28 18  1  0  0  0  0
 29 30  1  0  0  0  0
 29 39  1  1  0  0  0
 31 22  1  0  0  0  0
 31 32  1  6  0  0  0
 31 41  1  0  0  0  0
 33 34  1  1  0  0  0
 33 43  1  0  0  0  0
 35 36  1  0  0  0  0
 35 45  1  1  0  0  0
 37 28  1  0  0  0  0
 37 38  1  6  0  0  0
 39 40  1  0  0  0  0
 41 42  1  0  0  0  0
 41 49  1  1  0  0  0
 43 44  1  0  0  0  0
 43 51  1  6  0  0  0
 45 46  1  0  0  0  0
 47 37  1  0  0  0  0
 47 48  1  6  0  0  0
 49 50  1  0  0  0  0
 51 52  1  0  0  0  0
M  END
>  <CHROM.1>
-92.34766542,162.15564227,-168.02239883,173.10408143,175.17452971,142.65186096
-65.18214366,99.04366143,48.88970032,149.55652523,-103.30964688,-36.73690146
21.79960640,-5.20717666,15.89937047,2.82568238,-0.59631308,-2.58571031

>  <Name>
2esj_lig

>  <RI>
1.01272e+07

>  <Rbt.Current_Directory>
/home/itssahil/PROJECTS/Mol_Feturizer/New_Systems/rnas/2esj

>  <Rbt.Executable>
rbdock ($Id: //depot/dev/client3/rdock/2013.1/src/exe/rbdock.cxx#4 $)

>  <Rbt.Library>
libRbt.so (2013.1, Build901 2013/11/27)

>  <Rbt.Parameter_File>
/export/apps/rDock/src/rDock_2013.1_src/data/scripts/dock_solv.prm

>  <Rbt.Receptor>
prm/pocket_docking_3.prm

>  <SCORE>
0.196214

>  <SCORE.INTER>
-1.24343

>  <SCORE.INTER.CONST>
1

>  <SCORE.INTER.POLAR>
-0.416931

>  <SCORE.INTER.ROT>
12

>  <SCORE.INTER.SOLV>
15.1622

>  <SCORE.INTER.VDW>
-16.0933

>  <SCORE.INTER.norm>
-0.0239121

>  <SCORE.INTRA>
1.4199

>  <SCORE.INTRA.DIHEDRAL>
-6.59398

>  <SCORE.INTRA.DIHEDRAL.0>
32.9766

>  <SCORE.INTRA.POLAR>
0

>  <SCORE.INTRA.POLAR.0>
0

>  <SCORE.INTRA.REPUL>
0

>  <SCORE.INTRA.REPUL.0>
0

>  <SCORE.INTRA.SOLV>
2.3234

>  <SCORE.INTRA.SOLV.lig_0>
-114.358

>  <SCORE.INTRA.VDW>
3.55519

>  <SCORE.INTRA.VDW.0>
-8.24257

>  <SCORE.INTRA.norm>
0.0273058

>  <SCORE.RESTR>
0.0197386

>  <SCORE.RESTR.CAVITY>
0.0197386

>  <SCORE.RESTR.norm>
0.000379588

>  <SCORE.SYSTEM>
0

>  <SCORE.SYSTEM.CONST>
0

>  <SCORE.SYSTEM.DIHEDRAL>
0

>  <SCORE.SYSTEM.SOLV>
0

>  <SCORE.SYSTEM.norm>
0

>  <SCORE.heavy>
52

>  <SCORE.norm>
0.00377335

>  <RMSD>
1.903

$$$$
2esj_lig
 OpenBabel11021811423D
libRbt.so/2013.1/901 2013/11/27
 52 56  0  0  0  0  0  0  0  0999 V2000
   17.2690   -6.5267   18.6656 C   0  0  2  0  0  0  0  0  0  0  0  0
   17.6240   -7.8507   19.1082 O   0  0  0  0  0  0  0  0  0  0  0  0
   18.8325  -11.5096   17.2534 C   0  0  2  0  0  0  0  0  0  0  0  0
   18.8838  -12.7681   16.4913 N   0  0  0  0  0  0  0  0  0  0  0  0
   19.3359   -6.9075   15.9197 C   0  0  1  0  0  0  0  0  0  0  0  0
   22.5682   -4.7006   14.4639 C   0  0  1  0  0  0  0  0  0  0  0  0
   27.3334   -4.4332   15.6245 C   0  0  1  0  0  0  0  0  0  0  0  0
   17.8395   -5.5166   19.7045 C   0  0  2  0  0  0  0  0  0  0  0  0
   19.2836   -5.6634   19.8836 N   0  0  0  0  0  0  0  0  0  0  0  0
   17.6753  -11.5655   18.3283 C   0  0  0  0  0  0  0  0  0  0  0  0
   20.4471   -7.6437   15.1701 C   0  0  2  0  0  0  0  0  0  0  0  0
   21.4111   -8.2420   16.0635 O   0  0  0  0  0  0  0  0  0  0  0  0
   24.0031   -5.3694   14.2770 C   0  0  2  0  0  0  0  0  0  0  0  0
   24.4837   -5.9682   15.5503 N   0  0  0  0  0  0  0  0  0  0  0  0
   27.5943   -4.4112   17.1262 C   0  0  1  0  0  0  0  0  0  0  0  0
   28.3517   -5.5819   17.4925 O   0  0  0  0  0  0  0  0  0  0  0  0
   17.1167   -5.6650   21.0810 C   0  0  0  0  0  0  0  0  0  0  0  0
   17.6739  -10.2300   19.1758 C   0  0  2  0  0  0  0  0  0  0  0  0
   16.5989  -10.2507   20.1732 N   0  0  0  0  0  0  0  0  0  0  0  0
   20.9959   -6.5279   14.3288 C   0  0  2  0  0  0  0  0  0  0  0  0
   21.7991   -5.6754   15.1050 O   0  0  0  0  0  0  0  0  0  0  0  0
   24.9881   -4.3047   13.6203 C   0  0  1  0  0  0  0  0  0  0  0  0
   24.3723   -3.7680   12.4450 O   0  0  0  0  0  0  0  0  0  0  0  0
   28.3430   -3.1869   17.6390 C   0  0  1  0  0  0  0  0  0  0  0  0
   28.7008   -3.4490   19.0005 O   0  0  0  0  0  0  0  0  0  0  0  0
   15.5811   -5.5283   20.8602 C   0  0  2  0  0  0  0  0  0  0  0  0
   14.8670   -5.5762   22.0824 O   0  0  0  0  0  0  0  0  0  0  0  0
   17.5235   -8.9987   18.2450 C   0  0  2  0  0  0  0  0  0  0  0  0
   19.7848   -5.6528   13.9451 C   0  0  2  0  0  0  0  0  0  0  0  0
   18.9229   -5.8388   15.0567 O   0  0  0  0  0  0  0  0  0  0  0  0
   25.2303   -3.0701   14.5829 C   0  0  2  0  0  0  0  0  0  0  0  0
   25.8742   -3.6358   15.7256 O   0  0  0  0  0  0  0  0  0  0  0  0
   29.6035   -2.8550   16.8385 C   0  0  2  0  0  0  0  0  0  0  0  0
   30.0104   -1.5339   17.2307 O   0  0  0  0  0  0  0  0  0  0  0  0
   15.1264   -6.6465   19.8897 C   0  0  2  0  0  0  0  0  0  0  0  0
   15.8252   -6.4362   18.6294 O   0  0  0  0  0  0  0  0  0  0  0  0
   18.5662   -8.9445   17.0827 C   0  0  2  0  0  0  0  0  0  0  0  0
   18.2874   -7.7974   16.2325 O   0  0  0  0  0  0  0  0  0  0  0  0
   19.0465   -6.0362   12.6630 C   0  0  0  0  0  0  0  0  0  0  0  0
   19.9884   -5.9608   11.5828 O   0  0  0  0  0  0  0  0  0  0  0  0
   23.8545   -2.6452   15.0588 C   0  0  1  0  0  0  0  0  0  0  0  0
   22.6702   -3.4360   15.2967 O   0  0  0  0  0  0  0  0  0  0  0  0
   29.3748   -3.0221   15.3404 C   0  0  2  0  0  0  0  0  0  0  0  0
   28.4679   -4.0112   14.8295 O   0  0  0  0  0  0  0  0  0  0  0  0
   13.6724   -6.5842   19.5663 C   0  0  0  0  0  0  0  0  0  0  0  0
   12.9649   -6.8896   20.7438 O   0  0  0  0  0  0  0  0  0  0  0  0
   18.5867  -10.2943   16.2890 C   0  0  1  0  0  0  0  0  0  0  0  0
   19.7046  -10.2318   15.3640 O   0  0  0  0  0  0  0  0  0  0  0  0
   23.7932   -1.3674   15.9513 C   0  0  0  0  0  0  0  0  0  0  0  0
   24.0931   -1.6310   17.3744 N   0  0  0  0  0  0  0  0  0  0  0  0
   30.4621   -2.7694   14.2985 C   0  0  0  0  0  0  0  0  0  0  0  0
   29.8567   -2.4579   13.0158 O   0  0  0  0  0  0  0  0  0  0  0  0
  1  2  1  1  0  0  0
  1  8  1  0  0  0  0
  1 36  1  0  0  0  0
  3  4  1  6  0  0  0
  3 10  1  0  0  0  0
  3 47  1  0  0  0  0
  5 11  1  0  0  0  0
  5 30  1  0  0  0  0
  5 38  1  6  0  0  0
  6 21  1  1  0  0  0
  6 42  1  0  0  0  0
  7 15  1  0  0  0  0
  7 44  1  0  0  0  0
  7 32  1  1  0  0  0
  8  9  1  1  0  0  0
  8 17  1  0  0  0  0
 11 12  1  1  0  0  0
 11 20  1  0  0  0  0
 13  6  1  0  0  0  0
 13 14  1  1  0  0  0
 15 16  1  6  0  0  0
 15 24  1  0  0  0  0
 17 26  1  0  0  0  0
 18 10  1  0  0  0  0
 18 19  1  1  0  0  0
 20 21  1  1  0  0  0
 20 29  1  0  0  0  0
 22 13  1  0  0  0  0
 22 23  1  6  0  0  0
 24 25  1  1  0  0  0
 24 33  1  0  0  0  0
 26 27  1  1  0  0  0
 26 35  1  0  0  0  0
 28  2  1  1  0  0  0
 28 18  1  0  0  0  0
 29 30  1  0  0  0  0
 29 39  1  6  0  0  0
 31 22  1  0  0  0  0
 31 32  1  1  0  0  0
 31 41  1  0  0  0  0
 33 34  1  6  0  0  0
 33 43  1  0  0  0  0
 35 36  1  0  0  0  0
 35 45  1  6  0  0  0
 37 28  1  0  0  0  0
 37 38  1  6  0  0  0
 39 40  1  0  0  0  0
 41 42  1  0  0  0  0
 41 49  1  1  0  0  0
 43 44  1  0  0  0  0
 43 51  1  6  0  0  0
 45 46  1  0  0  0  0
 47 37  1  0  0  0  0
 47 48  1  6  0  0  0
 49 50  1  0  0  0  0
 51 52  1  0  0  0  0
M  END
>  <CHROM.1>
-165.68852959,60.86827180,-94.81734797,165.59306430,170.02827448,-167.29628508
-59.55825188,60.09352528,-67.38367078,129.19886194,-82.42471235,-156.19004348
21.66318311,-5.88911971,16.67138807,-3.13717906,-0.47574492,-2.16703139

>  <Name>
2esj_lig

>  <RI>
1.01272e+07

>  <Rbt.Current_Directory>
/home/itssahil/PROJECTS/Mol_Feturizer/New_Systems/rnas/2esj

>  <Rbt.Executable>
rbdock ($Id: //depot/dev/client3/rdock/2013.1/src/exe/rbdock.cxx#4 $)

>  <Rbt.Library>
libRbt.so (2013.1, Build901 2013/11/27)

>  <Rbt.Parameter_File>
/export/apps/rDock/src/rDock_2013.1_src/data/scripts/dock_solv.prm

>  <Rbt.Receptor>
prm/pocket_docking_3.prm

>  <SCORE>
-16.017

>  <SCORE.INTER>
-11.8553

>  <SCORE.INTER.CONST>
1

>  <SCORE.INTER.POLAR>
-0.979796

>  <SCORE.INTER.ROT>
12

>  <SCORE.INTER.SOLV>
15.2007

>  <SCORE.INTER.VDW>
-21.3044

>  <SCORE.INTER.norm>
-0.227986

>  <SCORE.INTRA>
-4.16171

>  <SCORE.INTRA.DIHEDRAL>
-12.554

>  <SCORE.INTRA.DIHEDRAL.0>
32.9766

>  <SCORE.INTRA.POLAR>
0

>  <SCORE.INTRA.POLAR.0>
0

>  <SCORE.INTRA.REPUL>
0

>  <SCORE.INTRA.REPUL.0>
0

>  <SCORE.INTRA.SOLV>
-1.59933

>  <SCORE.INTRA.SOLV.lig_0>
-114.358

>  <SCORE.INTRA.VDW>
2.91495

>  <SCORE.INTRA.VDW.0>
-8.24257

>  <SCORE.INTRA.norm>
-0.0800329

>  <SCORE.RESTR>
0

>  <SCORE.RESTR.CAVITY>
0

>  <SCORE.RESTR.norm>
0

>  <SCORE.SYSTEM>
0

>  <SCORE.SYSTEM.CONST>
0

>  <SCORE.SYSTEM.DIHEDRAL>
0

>  <SCORE.SYSTEM.SOLV>
0

>  <SCORE.SYSTEM.norm>
0

>  <SCORE.heavy>
52

>  <SCORE.norm>
-0.308019

>  <RMSD>
1.992

$$$$
2esj_lig
 OpenBabel11021811423D
libRbt.so/2013.1/901 2013/11/27
 52 56  0  0  0  0  0  0  0  0999 V2000
   17.6308   -5.7820   17.6097 C   0  0  2  0  0  0  0  0  0  0  0  0
   18.6486   -6.8009   17.6404 O   0  0  0  0  0  0  0  0  0  0  0  0
   19.8946  -10.4480   15.7875 C   0  0  2  0  0  0  0  0  0  0  0  0
   19.9441  -11.7674   15.1362 N   0  0  0  0  0  0  0  0  0  0  0  0
   19.2482   -6.1420   13.8704 C   0  0  1  0  0  0  0  0  0  0  0  0
   21.6390   -2.8941   12.5898 C   0  0  1  0  0  0  0  0  0  0  0  0
   26.9595   -2.6777   13.1203 C   0  0  1  0  0  0  0  0  0  0  0  0
   18.1197   -4.6041   18.5033 C   0  0  2  0  0  0  0  0  0  0  0  0
   19.4207   -4.0892   18.0772 N   0  0  0  0  0  0  0  0  0  0  0  0
   19.0996  -10.5381   17.1503 C   0  0  0  0  0  0  0  0  0  0  0  0
   20.0365   -5.1441   14.7196 C   0  0  2  0  0  0  0  0  0  0  0  0
   19.2798   -3.9485   15.0085 O   0  0  0  0  0  0  0  0  0  0  0  0
   22.8317   -3.3052   11.6153 C   0  0  2  0  0  0  0  0  0  0  0  0
   23.5138   -4.5363   12.0950 N   0  0  0  0  0  0  0  0  0  0  0  0
   27.1389   -4.0874   13.6716 C   0  0  1  0  0  0  0  0  0  0  0  0
   28.3682   -4.6422   13.1622 O   0  0  0  0  0  0  0  0  0  0  0  0
   18.1849   -5.0327   20.0037 C   0  0  0  0  0  0  0  0  0  0  0  0
   19.1080   -9.1263   17.8633 C   0  0  2  0  0  0  0  0  0  0  0  0
   18.3639   -9.1793   19.1260 N   0  0  0  0  0  0  0  0  0  0  0  0
   21.2318   -4.9195   13.8394 C   0  0  2  0  0  0  0  0  0  0  0  0
   20.9032   -4.0682   12.7709 O   0  0  0  0  0  0  0  0  0  0  0  0
   23.7844   -2.0469   11.4048 C   0  0  1  0  0  0  0  0  0  0  0  0
   22.9886   -0.9255   11.0075 O   0  0  0  0  0  0  0  0  0  0  0  0
   27.1691   -4.1932   15.1915 C   0  0  1  0  0  0  0  0  0  0  0  0
   27.5769   -5.5270   15.5151 O   0  0  0  0  0  0  0  0  0  0  0  0
   16.7965   -5.5982   20.4261 C   0  0  2  0  0  0  0  0  0  0  0  0
   16.7616   -5.9359   21.8012 O   0  0  0  0  0  0  0  0  0  0  0  0
   18.5083   -8.0442   16.9280 C   0  0  2  0  0  0  0  0  0  0  0  0
   21.5186   -6.2754   13.1620 C   0  0  2  0  0  0  0  0  0  0  0  0
   20.2231   -6.8495   13.0917 O   0  0  0  0  0  0  0  0  0  0  0  0
   24.4864   -1.6198   12.7591 C   0  0  2  0  0  0  0  0  0  0  0  0
   25.2950   -2.7449   13.1063 O   0  0  0  0  0  0  0  0  0  0  0  0
   28.1179   -3.1968   15.8601 C   0  0  2  0  0  0  0  0  0  0  0  0
   27.8063   -3.2015   17.2628 O   0  0  0  0  0  0  0  0  0  0  0  0
   16.4744   -6.8200   19.5303 C   0  0  2  0  0  0  0  0  0  0  0  0
   16.4142   -6.3444   18.1552 O   0  0  0  0  0  0  0  0  0  0  0  0
   19.1713   -7.9819   15.5147 C   0  0  2  0  0  0  0  0  0  0  0  0
   18.4858   -6.9911   14.6993 O   0  0  0  0  0  0  0  0  0  0  0  0
   22.4532   -7.2259   13.9094 C   0  0  0  0  0  0  0  0  0  0  0  0
   23.7389   -6.5933   13.9903 O   0  0  0  0  0  0  0  0  0  0  0  0
   23.3817   -1.5757   13.7974 C   0  0  1  0  0  0  0  0  0  0  0  0
   22.1794   -2.3676   13.9066 O   0  0  0  0  0  0  0  0  0  0  0  0
   28.0383   -1.8226   15.2046 C   0  0  2  0  0  0  0  0  0  0  0  0
   27.7541   -1.6787   13.8045 O   0  0  0  0  0  0  0  0  0  0  0  0
   15.1387   -7.4176   19.8151 C   0  0  0  0  0  0  0  0  0  0  0  0
   15.0609   -7.6347   21.2033 O   0  0  0  0  0  0  0  0  0  0  0  0
   19.1980   -9.3989   14.8487 C   0  0  1  0  0  0  0  0  0  0  0  0
   19.9956   -9.2904   13.6398 O   0  0  0  0  0  0  0  0  0  0  0  0
   23.7852   -1.0759   15.2187 C   0  0  0  0  0  0  0  0  0  0  0  0
   25.0648   -1.6400   15.6974 N   0  0  0  0  0  0  0  0  0  0  0  0
   28.8818   -0.6332   15.6581 C   0  0  0  0  0  0  0  0  0  0  0  0
   30.2866   -0.8940   15.3984 O   0  0  0  0  0  0  0  0  0  0  0  0
  1  2  1  1  0  0  0
  1  8  1  0  0  0  0
  1 36  1  0  0  0  0
  3  4  1  6  0  0  0
  3 10  1  0  0  0  0
  3 47  1  0  0  0  0
  5 11  1  0  0  0  0
  5 30  1  0  0  0  0
  5 38  1  1  0  0  0
  6 21  1  1  0  0  0
  6 42  1  0  0  0  0
  7 15  1  0  0  0  0
  7 44  1  0  0  0  0
  7 32  1  1  0  0  0
  8  9  1  6  0  0  0
  8 17  1  0  0  0  0
 11 12  1  6  0  0  0
 11 20  1  0  0  0  0
 13  6  1  0  0  0  0
 13 14  1  1  0  0  0
 15 16  1  6  0  0  0
 15 24  1  0  0  0  0
 17 26  1  0  0  0  0
 18 10  1  0  0  0  0
 18 19  1  1  0  0  0
 20 21  1  6  0  0  0
 20 29  1  0  0  0  0
 22 13  1  0  0  0  0
 22 23  1  1  0  0  0
 24 25  1  6  0  0  0
 24 33  1  0  0  0  0
 26 27  1  1  0  0  0
 26 35  1  0  0  0  0
 28  2  1  1  0  0  0
 28 18  1  0  0  0  0
 29 30  1  0  0  0  0
 29 39  1  1  0  0  0
 31 22  1  0  0  0  0
 31 32  1  1  0  0  0
 31 41  1  0  0  0  0
 33 34  1  1  0  0  0
 33 43  1  0  0  0  0
 35 36  1  0  0  0  0
 35 45  1  1  0  0  0
 37 28  1  0  0  0  0
 37 38  1  6  0  0  0
 39 40  1  0  0  0  0
 41 42  1  0  0  0  0
 41 49  1  1  0  0  0
 43 44  1  0  0  0  0
 43 51  1  6  0  0  0
 45 46  1  0  0  0  0
 47 37  1  0  0  0  0
 47 48  1  6  0  0  0
 49 50  1  0  0  0  0
 51 52  1  0  0  0  0
M  END
>  <CHROM.1>
179.20709858,-70.28197429,90.63719643,175.17963336,123.41044599,-141.38606830
-63.57238305,113.69237456,-50.78112843,139.09577264,-43.49465377,65.89617109
21.87354276,-5.12433261,15.48012827,-3.05051023,-0.61555202,-2.09908112

>  <Name>
2esj_lig

>  <RI>
0

>  <Rbt.Current_Directory>
/home/itssahil/PROJECTS/Mol_Feturizer/New_Systems/rnas/2esj

>  <Rbt.Executable>
rbdock ($Id: //depot/dev/client3/rdock/2013.1/src/exe/rbdock.cxx#4 $)

>  <Rbt.Library>
libRbt.so (2013.1, Build901 2013/11/27)

>  <Rbt.Parameter_File>
/export/apps/rDock/src/rDock_2013.1_src/data/scripts/dock_solv.prm

>  <Rbt.Receptor>
prm/pocket_docking_2.prm

>  <SCORE>
-2.97831

>  <SCORE.INTER>
-10.9211

>  <SCORE.INTER.CONST>
1

>  <SCORE.INTER.POLAR>
-1.64486

>  <SCORE.INTER.ROT>
12

>  <SCORE.INTER.SOLV>
12.3652

>  <SCORE.INTER.VDW>
-17.5196

>  <SCORE.INTER.norm>
-0.210021

>  <SCORE.INTRA>
6.74803

>  <SCORE.INTRA.DIHEDRAL>
0.731735

>  <SCORE.INTRA.DIHEDRAL.0>
32.9766

>  <SCORE.INTRA.POLAR>
0

>  <SCORE.INTRA.POLAR.0>
0

>  <SCORE.INTRA.REPUL>
0.0963522

>  <SCORE.INTRA.REPUL.0>
0

>  <SCORE.INTRA.SOLV>
9.72017

>  <SCORE.INTRA.SOLV.lig_0>
-114.358

>  <SCORE.INTRA.VDW>
1.04031

>  <SCORE.INTRA.VDW.0>
-8.24257

>  <SCORE.INTRA.norm>
0.12977

>  <SCORE.RESTR>
1.19475

>  <SCORE.RESTR.CAVITY>
1.19475

>  <SCORE.RESTR.norm>
0.0229759

>  <SCORE.SYSTEM>
0

>  <SCORE.SYSTEM.CONST>
0

>  <SCORE.SYSTEM.DIHEDRAL>
0

>  <SCORE.SYSTEM.SOLV>
0

>  <SCORE.SYSTEM.norm>
0

>  <SCORE.heavy>
52

>  <SCORE.norm>
-0.0572753

>  <RMSD>
2.062

$$$$
2esj_lig
 OpenBabel11021811423D
libRbt.so/2013.1/901 2013/11/27
 52 56  0  0  0  0  0  0  0  0999 V2000
   18.3960   -5.2660   18.8503 C   0  0  2  0  0  0  0  0  0  0  0  0
   18.8761   -6.6235   18.8112 O   0  0  0  0  0  0  0  0  0  0  0  0
   19.7865   -9.6126   15.8916 C   0  0  2  0  0  0  0  0  0  0  0  0
   19.7255  -10.6042   14.8051 N   0  0  0  0  0  0  0  0  0  0  0  0
   20.1208   -5.1362   15.0831 C   0  0  1  0  0  0  0  0  0  0  0  0
   22.0832   -2.7901   12.1998 C   0  0  1  0  0  0  0  0  0  0  0  0
   27.0462   -2.6714   13.3004 C   0  0  1  0  0  0  0  0  0  0  0  0
   19.0770   -4.5627   20.0614 C   0  0  2  0  0  0  0  0  0  0  0  0
   20.5365   -4.6237   19.9876 N   0  0  0  0  0  0  0  0  0  0  0  0
   18.7348   -9.9658   17.0169 C   0  0  0  0  0  0  0  0  0  0  0  0
   19.3060   -4.2830   14.1102 C   0  0  2  0  0  0  0  0  0  0  0  0
   18.8451   -5.0379   12.9687 O   0  0  0  0  0  0  0  0  0  0  0  0
   23.0795   -3.6923   11.3428 C   0  0  2  0  0  0  0  0  0  0  0  0
   23.6948   -4.7545   12.1820 N   0  0  0  0  0  0  0  0  0  0  0  0
   27.6238   -4.0807   13.2388 C   0  0  1  0  0  0  0  0  0  0  0  0
   29.0559   -4.0125   13.3898 O   0  0  0  0  0  0  0  0  0  0  0  0
   18.5883   -5.1790   21.4106 C   0  0  0  0  0  0  0  0  0  0  0  0
   18.8560   -8.9248   18.2015 C   0  0  2  0  0  0  0  0  0  0  0  0
   17.8799   -9.2226   19.2547 N   0  0  0  0  0  0  0  0  0  0  0  0
   20.3067   -3.2139   13.7790 C   0  0  2  0  0  0  0  0  0  0  0  0
   21.2657   -3.7006   12.8747 O   0  0  0  0  0  0  0  0  0  0  0  0
   24.1149   -2.7464   10.5889 C   0  0  1  0  0  0  0  0  0  0  0  0
   23.3881   -1.7393    9.8773 O   0  0  0  0  0  0  0  0  0  0  0  0
   27.0861   -5.0509   14.2837 C   0  0  1  0  0  0  0  0  0  0  0  0
   27.8998   -6.2277   14.2272 O   0  0  0  0  0  0  0  0  0  0  0  0
   17.0324   -5.1236   21.4546 C   0  0  2  0  0  0  0  0  0  0  0  0
   16.5232   -5.5977   22.6883 O   0  0  0  0  0  0  0  0  0  0  0  0
   18.6580   -7.4798   17.6744 C   0  0  2  0  0  0  0  0  0  0  0  0
   21.1065   -2.9676   15.0748 C   0  0  2  0  0  0  0  0  0  0  0  0
   21.0592   -4.2418   15.6970 O   0  0  0  0  0  0  0  0  0  0  0  0
   25.0397   -1.9687   11.6132 C   0  0  2  0  0  0  0  0  0  0  0  0
   25.7718   -2.9991   12.2787 O   0  0  0  0  0  0  0  0  0  0  0  0
   27.1000   -4.4930   15.7080 C   0  0  2  0  0  0  0  0  0  0  0  0
   26.2930   -5.3726   16.5080 O   0  0  0  0  0  0  0  0  0  0  0  0
   16.4813   -5.9393   20.2588 C   0  0  2  0  0  0  0  0  0  0  0  0
   16.9621   -5.3010   19.0414 O   0  0  0  0  0  0  0  0  0  0  0  0
   19.5876   -7.1031   16.4765 C   0  0  2  0  0  0  0  0  0  0  0  0
   19.2667   -5.7611   16.0154 O   0  0  0  0  0  0  0  0  0  0  0  0
   20.5457   -1.9162   16.0318 C   0  0  0  0  0  0  0  0  0  0  0  0
   19.2668   -2.3831   16.4858 O   0  0  0  0  0  0  0  0  0  0  0  0
   24.1022   -1.3948   12.6581 C   0  0  1  0  0  0  0  0  0  0  0  0
   22.8536   -1.9108   13.1674 O   0  0  0  0  0  0  0  0  0  0  0  0
   26.6594   -3.0338   15.7414 C   0  0  2  0  0  0  0  0  0  0  0  0
   26.9310   -2.1469   14.6453 O   0  0  0  0  0  0  0  0  0  0  0  0
   14.9932   -5.9167   20.1722 C   0  0  0  0  0  0  0  0  0  0  0  0
   14.6361   -6.4318   18.9123 O   0  0  0  0  0  0  0  0  0  0  0  0
   19.4899   -8.1731   15.3373 C   0  0  1  0  0  0  0  0  0  0  0  0
   20.5170   -7.8559   14.3607 O   0  0  0  0  0  0  0  0  0  0  0  0
   24.7497   -0.4826   13.7450 C   0  0  0  0  0  0  0  0  0  0  0  0
   25.0733    0.8740   13.2553 N   0  0  0  0  0  0  0  0  0  0  0  0
   26.5867   -2.2148   17.0281 C   0  0  0  0  0  0  0  0  0  0  0  0
   25.7796   -1.0267   16.8145 O   0  0  0  0  0  0  0  0  0  0  0  0
  1  2  1  1  0  0  0
  1  8  1  0  0  0  0
  1 36  1  0  0  0  0
  3  4  1  6  0  0  0
  3 10  1  0  0  0  0
  3 47  1  0  0  0  0
  5 11  1  0  0  0  0
  5 30  1  0  0  0  0
  5 38  1  1  0  0  0
  6 21  1  1  0  0  0
  6 42  1  0  0  0  0
  7 15  1  0  0  0  0
  7 44  1  0  0  0  0
  7 32  1  1  0  0  0
  8  9  1  6  0  0  0
  8 17  1  0  0  0  0
 11 12  1  6  0  0  0
 11 20  1  0  0  0  0
 13  6  1  0  0  0  0
 13 14  1  1  0  0  0
 15 16  1  1  0  0  0
 15 24  1  0  0  0  0
 17 26  1  0  0  0  0
 18 10  1  0  0  0  0
 18 19  1  1  0  0  0
 20 21  1  6  0  0  0
 20 29  1  0  0  0  0
 22 13  1  0  0  0  0
 22 23  1  1  0  0  0
 24 25  1  1  0  0  0
 24 33  1  0  0  0  0
 26 27  1  1  0  0  0
 26 35  1  0  0  0  0
 28  2  1  1  0  0  0
 28 18  1  0  0  0  0
 29 30  1  0  0  0  0
 29 39  1  1  0  0  0
 31 22  1  0  0  0  0
 31 32  1  1  0  0  0
 31 41  1  0  0  0  0
 33 34  1  1  0  0  0
 33 43  1  0  0  0  0
 35 36  1  0  0  0  0
 35 45  1  6  0  0  0
 37 28  1  0  0  0  0
 37 38  1  6  0  0  0
 39 40  1  0  0  0  0
 41 42  1  0  0  0  0
 41 49  1  1  0  0  0
 43 44  1  0  0  0  0
 43 51  1  1  0  0  0
 45 46  1  0  0  0  0
 47 37  1  0  0  0  0
 47 48  1  6  0  0  0
 49 50  1  0  0  0  0
 51 52  1  0  0  0  0
M  END
>  <CHROM.1>
-167.57464856,144.28935879,176.93868773,-161.45000246,164.79983047,-160.53939024
63.37926835,170.79549840,167.47707865,170.04274595,76.44690432,-163.22997502
21.70886851,-4.63729937,15.70431345,-2.76543919,-0.60351001,-1.94356590

>  <Name>
2esj_lig

>  <RI>
0

>  <Rbt.Current_Directory>
/home/itssahil/PROJECTS/Mol_Feturizer/New_Systems/rnas/2esj

>  <Rbt.Executable>
rbdock ($Id: //depot/dev/client3/rdock/2013.1/src/exe/rbdock.cxx#4 $)

>  <Rbt.Library>
libRbt.so (2013.1, Build901 2013/11/27)

>  <Rbt.Parameter_File>
/export/apps/rDock/src/rDock_2013.1_src/data/scripts/dock_solv.prm

>  <Rbt.Receptor>
prm/pocket_docking_4.prm

>  <SCORE>
-20.1419

>  <SCORE.INTER>
-12.8814

>  <SCORE.INTER.CONST>
1

>  <SCORE.INTER.POLAR>
-0.847337

>  <SCORE.INTER.ROT>
12

>  <SCORE.INTER.SOLV>
15.3358

>  <SCORE.INTER.VDW>
-22.4751

>  <SCORE.INTER.norm>
-0.247719

>  <SCORE.INTRA>
-7.26049

>  <SCORE.INTRA.DIHEDRAL>
-16.4321

>  <SCORE.INTRA.DIHEDRAL.0>
32.9766

>  <SCORE.INTRA.POLAR>
0

>  <SCORE.INTRA.POLAR.0>
0

>  <SCORE.INTRA.REPUL>
0

>  <SCORE.INTRA.REPUL.0>
0

>  <SCORE.INTRA.SOLV>
-1.94807

>  <SCORE.INTRA.SOLV.lig_0>
-114.358

>  <SCORE.INTRA.VDW>
1.92961

>  <SCORE.INTRA.VDW.0>
-8.24257

>  <SCORE.INTRA.norm>
-0.139625

>  <SCORE.RESTR>
0

>  <SCORE.RESTR.CAVITY>
0

>  <SCORE.RESTR.norm>
0

>  <SCORE.SYSTEM>
0

>  <SCORE.SYSTEM.CONST>
0

>  <SCORE.SYSTEM.DIHEDRAL>
0

>  <SCORE.SYSTEM.SOLV>
0

>  <SCORE.SYSTEM.norm>
0

>  <SCORE.heavy>
52

>  <SCORE.norm>
-0.387344

>  <RMSD>
2.081

$$$$
2esj_lig
 OpenBabel11021811423D
libRbt.so/2013.1/901 2013/11/27
 52 56  0  0  0  0  0  0  0  0999 V2000
   16.9507   -6.3366   18.8902 C   0  0  2  0  0  0  0  0  0  0  0  0
   17.3707   -7.6720   19.2295 O   0  0  0  0  0  0  0  0  0  0  0  0
   19.1408  -10.8787   17.0222 C   0  0  2  0  0  0  0  0  0  0  0  0
   19.3904  -12.0240   16.1315 N   0  0  0  0  0  0  0  0  0  0  0  0
   18.9889   -6.2534   15.9763 C   0  0  1  0  0  0  0  0  0  0  0  0
   21.7121   -4.6190   13.4393 C   0  0  1  0  0  0  0  0  0  0  0  0
   26.3385   -3.1253   14.2712 C   0  0  1  0  0  0  0  0  0  0  0  0
   17.6323   -5.3615   19.8950 C   0  0  2  0  0  0  0  0  0  0  0  0
   19.0890   -5.4930   19.8921 N   0  0  0  0  0  0  0  0  0  0  0  0
   18.0001  -11.2278   18.0588 C   0  0  0  0  0  0  0  0  0  0  0  0
   19.0371   -6.1857   14.4494 C   0  0  2  0  0  0  0  0  0  0  0  0
   19.9563   -7.1456   13.8844 O   0  0  0  0  0  0  0  0  0  0  0  0
   23.1133   -5.0082   14.0923 C   0  0  2  0  0  0  0  0  0  0  0  0
   23.4052   -4.1587   15.2772 N   0  0  0  0  0  0  0  0  0  0  0  0
   26.1401   -2.0855   15.3679 C   0  0  1  0  0  0  0  0  0  0  0  0
   26.7584   -2.5547   16.5828 O   0  0  0  0  0  0  0  0  0  0  0  0
   17.0834   -5.5779   21.3410 C   0  0  0  0  0  0  0  0  0  0  0  0
   17.7874  -10.0087   19.0437 C   0  0  2  0  0  0  0  0  0  0  0  0
   16.7229  -10.3022   20.0089 N   0  0  0  0  0  0  0  0  0  0  0  0
   19.4423   -4.7537   14.2513 C   0  0  2  0  0  0  0  0  0  0  0  0
   20.8138   -4.5900   14.5093 O   0  0  0  0  0  0  0  0  0  0  0  0
   24.2333   -4.9920   12.9607 C   0  0  1  0  0  0  0  0  0  0  0  0
   23.7922   -5.7959   11.8616 O   0  0  0  0  0  0  0  0  0  0  0  0
   26.6974   -0.7008   15.0607 C   0  0  1  0  0  0  0  0  0  0  0  0
   26.6344    0.0594   16.2725 O   0  0  0  0  0  0  0  0  0  0  0  0
   15.5309   -5.4562   21.3133 C   0  0  2  0  0  0  0  0  0  0  0  0
   14.9708   -5.5658   22.6096 O   0  0  0  0  0  0  0  0  0  0  0  0
   17.4538   -8.7210   18.2466 C   0  0  2  0  0  0  0  0  0  0  0  0
   18.7526   -3.9594   15.3796 C   0  0  2  0  0  0  0  0  0  0  0  0
   18.6812   -4.9238   16.4177 O   0  0  0  0  0  0  0  0  0  0  0  0
   24.4416   -3.5354   12.3739 C   0  0  2  0  0  0  0  0  0  0  0  0
   24.9124   -2.7721   13.4857 O   0  0  0  0  0  0  0  0  0  0  0  0
   28.1379   -0.7161   14.5463 C   0  0  2  0  0  0  0  0  0  0  0  0
   28.4046    0.5919   14.0147 O   0  0  0  0  0  0  0  0  0  0  0  0
   14.9737   -6.5404   20.3577 C   0  0  2  0  0  0  0  0  0  0  0  0
   15.5123   -6.2672   19.0325 O   0  0  0  0  0  0  0  0  0  0  0  0
   18.4821   -8.3815   17.1204 C   0  0  2  0  0  0  0  0  0  0  0  0
   18.0342   -7.2049   16.3915 O   0  0  0  0  0  0  0  0  0  0  0  0
   17.3495   -3.4320   15.0817 C   0  0  0  0  0  0  0  0  0  0  0  0
   16.4962   -4.5669   14.8735 O   0  0  0  0  0  0  0  0  0  0  0  0
   23.0501   -3.0096   12.0783 C   0  0  1  0  0  0  0  0  0  0  0  0
   21.7982   -3.2705   12.7486 O   0  0  0  0  0  0  0  0  0  0  0  0
   28.3665   -1.8537   13.5574 C   0  0  2  0  0  0  0  0  0  0  0  0
   27.6567   -3.0966   13.6722 O   0  0  0  0  0  0  0  0  0  0  0  0
   13.4907   -6.4875   20.2151 C   0  0  0  0  0  0  0  0  0  0  0  0
   13.0848   -7.6781   19.5843 O   0  0  0  0  0  0  0  0  0  0  0  0
   18.7155   -9.6177   16.1878 C   0  0  1  0  0  0  0  0  0  0  0  0
   19.8156   -9.2845   15.3001 O   0  0  0  0  0  0  0  0  0  0  0  0
   22.9684   -1.6141   11.3864 C   0  0  0  0  0  0  0  0  0  0  0  0
   23.8043   -0.5853   12.0404 N   0  0  0  0  0  0  0  0  0  0  0  0
   29.7139   -2.1188   12.8895 C   0  0  0  0  0  0  0  0  0  0  0  0
   29.6070   -3.2549   11.9914 O   0  0  0  0  0  0  0  0  0  0  0  0
  1  2  1  1  0  0  0
  1  8  1  0  0  0  0
  1 36  1  0  0  0  0
  3  4  1  6  0  0  0
  3 10  1  0  0  0  0
  3 47  1  0  0  0  0
  5 11  1  0  0  0  0
  5 30  1  0  0  0  0
  5 38  1  6  0  0  0
  6 21  1  1  0  0  0
  6 42  1  0  0  0  0
  7 15  1  0  0  0  0
  7 44  1  0  0  0  0
  7 32  1  6  0  0  0
  8  9  1  1  0  0  0
  8 17  1  0  0  0  0
 11 12  1  1  0  0  0
 11 20  1  0  0  0  0
 13  6  1  0  0  0  0
 13 14  1  1  0  0  0
 15 16  1  1  0  0  0
 15 24  1  0  0  0  0
 17 26  1  0  0  0  0
 18 10  1  0  0  0  0
 18 19  1  1  0  0  0
 20 21  1  1  0  0  0
 20 29  1  0  0  0  0
 22 13  1  0  0  0  0
 22 23  1  6  0  0  0
 24 25  1  1  0  0  0
 24 33  1  0  0  0  0
 26 27  1  1  0  0  0
 26 35  1  0  0  0  0
 28  2  1  1  0  0  0
 28 18  1  0  0  0  0
 29 30  1  0  0  0  0
 29 39  1  6  0  0  0
 31 22  1  0  0  0  0
 31 32  1  1  0  0  0
 31 41  1  0  0  0  0
 33 34  1  6  0  0  0
 33 43  1  0  0  0  0
 35 36  1  0  0  0  0
 35 45  1  6  0  0  0
 37 28  1  0  0  0  0
 37 38  1  6  0  0  0
 39 40  1  0  0  0  0
 41 42  1  0  0  0  0
 41 49  1  1  0  0  0
 43 44  1  0  0  0  0
 43 51  1  1  0  0  0
 45 46  1  0  0  0  0
 47 37  1  0  0  0  0
 47 48  1  6  0  0  0
 49 50  1  0  0  0  0
 51 52  1  0  0  0  0
M  END
>  <CHROM.1>
-151.72197271,115.94317459,-157.37459549,-174.18923430,95.95536503,-174.01205270
63.43703206,61.61237510,-166.96685031,141.18036407,-48.91832659,-179.24694552
20.98438040,-5.16811183,15.96282211,2.98909708,-0.63421491,-2.60647996

>  <Name>
2esj_lig

>  <RI>
1.01272e+07

>  <Rbt.Current_Directory>
/home/itssahil/PROJECTS/Mol_Feturizer/New_Systems/rnas/2esj

>  <Rbt.Executable>
rbdock ($Id: //depot/dev/client3/rdock/2013.1/src/exe/rbdock.cxx#4 $)

>  <Rbt.Library>
libRbt.so (2013.1, Build901 2013/11/27)

>  <Rbt.Parameter_File>
/export/apps/rDock/src/rDock_2013.1_src/data/scripts/dock_solv.prm

>  <Rbt.Receptor>
prm/pocket_docking_3.prm

>  <SCORE>
-18.3217

>  <SCORE.INTER>
-17.6339

>  <SCORE.INTER.CONST>
1

>  <SCORE.INTER.POLAR>
-1.77938

>  <SCORE.INTER.ROT>
12

>  <SCORE.INTER.SOLV>
16.8535

>  <SCORE.INTER.VDW>
-23.0425

>  <SCORE.INTER.norm>
-0.339113

>  <SCORE.INTRA>
-0.717624

>  <SCORE.INTRA.DIHEDRAL>
-4.70251

>  <SCORE.INTRA.DIHEDRAL.0>
32.9766

>  <SCORE.INTRA.POLAR>
0

>  <SCORE.INTRA.POLAR.0>
0

>  <SCORE.INTRA.REPUL>
0

>  <SCORE.INTRA.REPUL.0>
0

>  <SCORE.INTRA.SOLV>
0.00783679

>  <SCORE.INTRA.SOLV.lig_0>
-114.358

>  <SCORE.INTRA.VDW>
1.62972

>  <SCORE.INTRA.VDW.0>
-8.24257

>  <SCORE.INTRA.norm>
-0.0138005

>  <SCORE.RESTR>
0.0297948

>  <SCORE.RESTR.CAVITY>
0.0297948

>  <SCORE.RESTR.norm>
0.000572977

>  <SCORE.SYSTEM>
0

>  <SCORE.SYSTEM.CONST>
0

>  <SCORE.SYSTEM.DIHEDRAL>
0

>  <SCORE.SYSTEM.SOLV>
0

>  <SCORE.SYSTEM.norm>
0

>  <SCORE.heavy>
52

>  <SCORE.norm>
-0.352341

>  <RMSD>
2.103

$$$$
2esj_lig
 OpenBabel11021811423D
libRbt.so/2013.1/901 2013/11/27
 52 56  0  0  0  0  0  0  0  0999 V2000
   17.5912   -6.0847   17.6991 C   0  0  2  0  0  0  0  0  0  0  0  0
   18.4279   -7.2364   17.9186 O   0  0  0  0  0  0  0  0  0  0  0  0
   19.2530  -11.2085   16.5660 C   0  0  2  0  0  0  0  0  0  0  0  0
   19.1603  -12.5729   16.0206 N   0  0  0  0  0  0  0  0  0  0  0  0
   19.7694   -6.8865   14.4746 C   0  0  1  0  0  0  0  0  0  0  0  0
   22.2540   -4.1971   12.3660 C   0  0  1  0  0  0  0  0  0  0  0  0
   26.2666   -2.1146   15.2443 C   0  0  1  0  0  0  0  0  0  0  0  0
   18.2116   -4.8967   18.4921 C   0  0  2  0  0  0  0  0  0  0  0  0
   19.6008   -4.6428   18.1115 N   0  0  0  0  0  0  0  0  0  0  0  0
   18.2345  -11.0243   17.7602 C   0  0  0  0  0  0  0  0  0  0  0  0
   19.3085   -6.2422   13.1665 C   0  0  2  0  0  0  0  0  0  0  0  0
   19.5497   -7.0882   12.0213 O   0  0  0  0  0  0  0  0  0  0  0  0
   23.7507   -4.6996   12.5858 C   0  0  2  0  0  0  0  0  0  0  0  0
   23.9410   -5.2263   13.9632 N   0  0  0  0  0  0  0  0  0  0  0  0
   27.1987   -2.0720   14.0389 C   0  0  1  0  0  0  0  0  0  0  0  0
   28.1118   -0.9660   14.1853 O   0  0  0  0  0  0  0  0  0  0  0  0
   18.1208   -5.1462   20.0312 C   0  0  0  0  0  0  0  0  0  0  0  0
   18.3901   -9.5736   18.3708 C   0  0  2  0  0  0  0  0  0  0  0  0
   17.4451   -9.3718   19.4739 N   0  0  0  0  0  0  0  0  0  0  0  0
   20.1206   -4.9795   13.1821 C   0  0  2  0  0  0  0  0  0  0  0  0
   21.4527   -5.2466   12.8235 O   0  0  0  0  0  0  0  0  0  0  0  0
   24.7536   -3.5364   12.1658 C   0  0  1  0  0  0  0  0  0  0  0  0
   24.4146   -3.0859   10.8502 O   0  0  0  0  0  0  0  0  0  0  0  0
   28.0212   -3.3338   13.8070 C   0  0  1  0  0  0  0  0  0  0  0  0
   28.9910   -3.0277   12.7990 O   0  0  0  0  0  0  0  0  0  0  0  0
   16.6375   -5.4367   20.4070 C   0  0  2  0  0  0  0  0  0  0  0  0
   16.4700   -5.5968   21.8043 O   0  0  0  0  0  0  0  0  0  0  0  0
   18.1768   -8.4989   17.2733 C   0  0  2  0  0  0  0  0  0  0  0  0
   20.2105   -4.5531   14.6618 C   0  0  2  0  0  0  0  0  0  0  0  0
   20.1498   -5.8018   15.3326 O   0  0  0  0  0  0  0  0  0  0  0  0
   24.6001   -2.2723   13.1079 C   0  0  2  0  0  0  0  0  0  0  0  0
   24.9777   -2.7487   14.4005 O   0  0  0  0  0  0  0  0  0  0  0  0
   28.7359   -3.8428   15.0601 C   0  0  2  0  0  0  0  0  0  0  0  0
   29.1945   -5.1726   14.7670 O   0  0  0  0  0  0  0  0  0  0  0  0
   16.1745   -6.6937   19.6293 C   0  0  2  0  0  0  0  0  0  0  0  0
   16.2706   -6.3838   18.2096 O   0  0  0  0  0  0  0  0  0  0  0  0
   19.0711   -8.6919   16.0068 C   0  0  2  0  0  0  0  0  0  0  0  0
   18.7369   -7.6797   15.0168 O   0  0  0  0  0  0  0  0  0  0  0  0
   19.0938   -3.6466   15.1784 C   0  0  0  0  0  0  0  0  0  0  0  0
   19.1421   -2.4275   14.4227 O   0  0  0  0  0  0  0  0  0  0  0  0
   23.1101   -2.0022   13.1922 C   0  0  1  0  0  0  0  0  0  0  0  0
   21.9969   -2.9205   13.1453 O   0  0  0  0  0  0  0  0  0  0  0  0
   27.8430   -3.7446   16.2920 C   0  0  2  0  0  0  0  0  0  0  0  0
   26.8670   -2.6998   16.4251 O   0  0  0  0  0  0  0  0  0  0  0  0
   14.7458   -7.0405   19.8764 C   0  0  0  0  0  0  0  0  0  0  0  0
   13.9585   -6.0583   19.2474 O   0  0  0  0  0  0  0  0  0  0  0  0
   18.9403  -10.1493   15.4491 C   0  0  1  0  0  0  0  0  0  0  0  0
   19.9385  -10.3009   14.4051 O   0  0  0  0  0  0  0  0  0  0  0  0
   22.6794   -0.7305   13.9860 C   0  0  0  0  0  0  0  0  0  0  0  0
   22.1525   -1.0309   15.3339 N   0  0  0  0  0  0  0  0  0  0  0  0
   28.2969   -4.1717   17.6860 C   0  0  0  0  0  0  0  0  0  0  0  0
   27.1744   -4.7201   18.4264 O   0  0  0  0  0  0  0  0  0  0  0  0
  1  2  1  1  0  0  0
  1  8  1  0  0  0  0
  1 36  1  0  0  0  0
  3  4  1  6  0  0  0
  3 10  1  0  0  0  0
  3 47  1  0  0  0  0
  5 11  1  0  0  0  0
  5 30  1  0  0  0  0
  5 38  1  1  0  0  0
  6 21  1  1  0  0  0
  6 42  1  0  0  0  0
  7 15  1  0  0  0  0
  7 44  1  0  0  0  0
  7 32  1  6  0  0  0
  8  9  1  6  0  0  0
  8 17  1  0  0  0  0
 11 12  1  6  0  0  0
 11 20  1  0  0  0  0
 13  6  1  0  0  0  0
 13 14  1  1  0  0  0
 15 16  1  1  0  0  0
 15 24  1  0  0  0  0
 17 26  1  0  0  0  0
 18 10  1  0  0  0  0
 18 19  1  1  0  0  0
 20 21  1  1  0  0  0
 20 29  1  0  0  0  0
 22 13  1  0  0  0  0
 22 23  1  6  0  0  0
 24 25  1  6  0  0  0
 24 33  1  0  0  0  0
 26 27  1  1  0  0  0
 26 35  1  0  0  0  0
 28  2  1  1  0  0  0
 28 18  1  0  0  0  0
 29 30  1  0  0  0  0
 29 39  1  1  0  0  0
 31 22  1  0  0  0  0
 31 32  1  1  0  0  0
 31 41  1  0  0  0  0
 33 34  1  6  0  0  0
 33 43  1  0  0  0  0
 35 36  1  0  0  0  0
 35 45  1  1  0  0  0
 37 28  1  0  0  0  0
 37 38  1  6  0  0  0
 39 40  1  0  0  0  0
 41 42  1  0  0  0  0
 41 49  1  1  0  0  0
 43 44  1  0  0  0  0
 43 51  1  1  0  0  0
 45 46  1  0  0  0  0
 47 37  1  0  0  0  0
 47 48  1  6  0  0  0
 49 50  1  0  0  0  0
 51 52  1  0  0  0  0
M  END
>  <CHROM.1>
-176.88154349,161.21542437,159.23186694,-43.74190705,159.73857898,-137.32342954
-61.86396797,119.10339330,70.54859421,127.26444536,-103.23242918,-146.12928538
21.51236004,-5.35136982,15.70225160,3.04225282,-0.57417285,-2.44311348

>  <Name>
2esj_lig

>  <RI>
1.01272e+07

>  <Rbt.Current_Directory>
/home/itssahil/PROJECTS/Mol_Feturizer/New_Systems/rnas/2esj

>  <Rbt.Executable>
rbdock ($Id: //depot/dev/client3/rdock/2013.1/src/exe/rbdock.cxx#4 $)

>  <Rbt.Library>
libRbt.so (2013.1, Build901 2013/11/27)

>  <Rbt.Parameter_File>
/export/apps/rDock/src/rDock_2013.1_src/data/scripts/dock_solv.prm

>  <Rbt.Receptor>
prm/pocket_docking_3.prm

>  <SCORE>
-9.06862

>  <SCORE.INTER>
-12.3183

>  <SCORE.INTER.CONST>
1

>  <SCORE.INTER.POLAR>
-1.4169

>  <SCORE.INTER.ROT>
12

>  <SCORE.INTER.SOLV>
15.324

>  <SCORE.INTER.VDW>
-20.1972

>  <SCORE.INTER.norm>
-0.23689

>  <SCORE.INTRA>
3.24967

>  <SCORE.INTRA.DIHEDRAL>
-0.41469

>  <SCORE.INTRA.DIHEDRAL.0>
32.9766

>  <SCORE.INTRA.POLAR>
0

>  <SCORE.INTRA.POLAR.0>
0

>  <SCORE.INTRA.REPUL>
0

>  <SCORE.INTRA.REPUL.0>
0

>  <SCORE.INTRA.SOLV>
3.72528

>  <SCORE.INTRA.SOLV.lig_0>
-114.358

>  <SCORE.INTRA.VDW>
1.59437

>  <SCORE.INTRA.VDW.0>
-8.24257

>  <SCORE.INTRA.norm>
0.0624936

>  <SCORE.RESTR>
0

>  <SCORE.RESTR.CAVITY>
0

>  <SCORE.RESTR.norm>
0

>  <SCORE.SYSTEM>
0

>  <SCORE.SYSTEM.CONST>
0

>  <SCORE.SYSTEM.DIHEDRAL>
0

>  <SCORE.SYSTEM.SOLV>
0

>  <SCORE.SYSTEM.norm>
0

>  <SCORE.heavy>
52

>  <SCORE.norm>
-0.174397

>  <RMSD>
2.134

$$$$
2esj_lig
 OpenBabel11021811423D
libRbt.so/2013.1/901 2013/11/27
 52 56  0  0  0  0  0  0  0  0999 V2000
   18.1316   -8.2039   19.1272 C   0  0  2  0  0  0  0  0  0  0  0  0
   17.8327   -7.8362   17.7670 O   0  0  0  0  0  0  0  0  0  0  0  0
   20.5566  -10.1128   15.3825 C   0  0  2  0  0  0  0  0  0  0  0  0
   21.1742  -10.9775   14.3635 N   0  0  0  0  0  0  0  0  0  0  0  0
   19.5917   -5.7475   14.5501 C   0  0  1  0  0  0  0  0  0  0  0  0
   21.6529   -2.5266   12.8623 C   0  0  1  0  0  0  0  0  0  0  0  0
   26.9223   -3.3552   13.3342 C   0  0  1  0  0  0  0  0  0  0  0  0
   16.7884   -8.2162   19.9152 C   0  0  2  0  0  0  0  0  0  0  0  0
   15.8012   -9.1111   19.3121 N   0  0  0  0  0  0  0  0  0  0  0  0
   19.3906  -10.8820   16.1217 C   0  0  0  0  0  0  0  0  0  0  0  0
   18.8376   -4.4413   14.2977 C   0  0  2  0  0  0  0  0  0  0  0  0
   18.1010   -4.4620   13.0558 O   0  0  0  0  0  0  0  0  0  0  0  0
   22.7094   -3.2228   11.8927 C   0  0  2  0  0  0  0  0  0  0  0  0
   23.1414   -4.5400   12.4306 N   0  0  0  0  0  0  0  0  0  0  0  0
   26.8288   -4.7018   14.0423 C   0  0  1  0  0  0  0  0  0  0  0  0
   27.9216   -5.5390   13.6142 O   0  0  0  0  0  0  0  0  0  0  0  0
   16.1970   -6.7754   20.0309 C   0  0  0  0  0  0  0  0  0  0  0  0
   18.7793   -9.9590   17.2514 C   0  0  2  0  0  0  0  0  0  0  0  0
   17.6844  -10.6454   17.9448 N   0  0  0  0  0  0  0  0  0  0  0  0
   19.9734   -3.4597   14.3245 C   0  0  2  0  0  0  0  0  0  0  0  0
   20.7000   -3.5149   13.1231 O   0  0  0  0  0  0  0  0  0  0  0  0
   23.8907   -2.1980   11.5940 C   0  0  1  0  0  0  0  0  0  0  0  0
   23.3275   -0.9605   11.1466 O   0  0  0  0  0  0  0  0  0  0  0  0
   26.8521   -4.6398   15.5648 C   0  0  1  0  0  0  0  0  0  0  0  0
   26.9952   -5.9825   16.0411 O   0  0  0  0  0  0  0  0  0  0  0  0
   17.2739   -5.8381   20.6534 C   0  0  2  0  0  0  0  0  0  0  0  0
   16.7765   -4.5279   20.8589 O   0  0  0  0  0  0  0  0  0  0  0  0
   18.2808   -8.6211   16.6461 C   0  0  2  0  0  0  0  0  0  0  0  0
   20.9628   -3.9870   15.3840 C   0  0  2  0  0  0  0  0  0  0  0  0
   20.7531   -5.3884   15.3114 O   0  0  0  0  0  0  0  0  0  0  0  0
   24.7029   -1.8521   12.9092 C   0  0  2  0  0  0  0  0  0  0  0  0
   25.2765   -3.0984   13.3066 O   0  0  0  0  0  0  0  0  0  0  0  0
   27.9830   -3.7783   16.1295 C   0  0  2  0  0  0  0  0  0  0  0  0
   27.6896   -3.5645   17.5198 O   0  0  0  0  0  0  0  0  0  0  0  0
   18.5150   -5.8381   19.7268 C   0  0  2  0  0  0  0  0  0  0  0  0
   19.0194   -7.2035   19.6793 O   0  0  0  0  0  0  0  0  0  0  0  0
   19.3528   -7.8639   15.7984 C   0  0  2  0  0  0  0  0  0  0  0  0
   18.7593   -6.6686   15.2193 O   0  0  0  0  0  0  0  0  0  0  0  0
   20.7379   -3.5156   16.8202 C   0  0  0  0  0  0  0  0  0  0  0  0
   19.6964   -2.5286   16.7932 O   0  0  0  0  0  0  0  0  0  0  0  0
   23.6601   -1.5291   13.9621 C   0  0  1  0  0  0  0  0  0  0  0  0
   22.3259   -2.0526   14.1372 O   0  0  0  0  0  0  0  0  0  0  0  0
   28.1665   -2.4975   15.3231 C   0  0  2  0  0  0  0  0  0  0  0  0
   27.9026   -2.4595   13.9122 O   0  0  0  0  0  0  0  0  0  0  0  0
   19.6357   -5.0062   20.2508 C   0  0  0  0  0  0  0  0  0  0  0  0
   19.5919   -3.7694   19.5811 O   0  0  0  0  0  0  0  0  0  0  0  0
   19.9807   -8.8101   14.7201 C   0  0  1  0  0  0  0  0  0  0  0  0
   21.0906   -8.0951   14.1149 O   0  0  0  0  0  0  0  0  0  0  0  0
   24.1967   -1.0477   15.3452 C   0  0  0  0  0  0  0  0  0  0  0  0
   24.7255   -2.1446   16.1832 N   0  0  0  0  0  0  0  0  0  0  0  0
   29.2298   -1.4518   15.6510 C   0  0  0  0  0  0  0  0  0  0  0  0
   30.5437   -2.0699   15.6706 O   0  0  0  0  0  0  0  0  0  0  0  0
  1  2  1  6  0  0  0
  1  8  1  0  0  0  0
  1 36  1  0  0  0  0
  3  4  1  6  0  0  0
  3 10  1  0  0  0  0
  3 47  1  0  0  0  0
  5 11  1  0  0  0  0
  5 30  1  0  0  0  0
  5 38  1  1  0  0  0
  6 21  1  1  0  0  0
  6 42  1  0  0  0  0
  7 15  1  0  0  0  0
  7 44  1  0  0  0  0
  7 32  1  1  0  0  0
  8  9  1  6  0  0  0
  8 17  1  0  0  0  0
 11 12  1  6  0  0  0
 11 20  1  0  0  0  0
 13  6  1  0  0  0  0
 13 14  1  1  0  0  0
 15 16  1  6  0  0  0
 15 24  1  0  0  0  0
 17 26  1  0  0  0  0
 18 10  1  0  0  0  0
 18 19  1  6  0  0  0
 20 21  1  6  0  0  0
 20 29  1  0  0  0  0
 22 13  1  0  0  0  0
 22 23  1  1  0  0  0
 24 25  1  1  0  0  0
 24 33  1  0  0  0  0
 26 27  1  6  0  0  0
 26 35  1  0  0  0  0
 28  2  1  1  0  0  0
 28 18  1  0  0  0  0
 29 30  1  0  0  0  0
 29 39  1  1  0  0  0
 31 22  1  0  0  0  0
 31 32  1  1  0  0  0
 31 41  1  0  0  0  0
 33 34  1  1  0  0  0
 33 43  1  0  0  0  0
 35 36  1  0  0  0  0
 35 45  1  1  0  0  0
 37 28  1  0  0  0  0
 37 38  1  6  0  0  0
 39 40  1  0  0  0  0
 41 42  1  0  0  0  0
 41 49  1  1  0  0  0
 43 44  1  0  0  0  0
 43 51  1  6  0  0  0
 45 46  1  0  0  0  0
 47 37  1  0  0  0  0
 47 48  1  1  0  0  0
 49 50  1  0  0  0  0
 51 52  1  0  0  0  0
M  END
>  <CHROM.1>
-128.06830883,-167.47863719,153.34349560,170.90135651,169.31434354,12.49833283
-6.72229946,115.68058579,-99.32647943,172.26800518,-76.85897642,55.86560987
21.89016567,-5.10016474,15.78435418,-2.53755557,-0.16798677,-0.90116978

>  <Name>
2esj_lig

>  <RI>
0

>  <Rbt.Current_Directory>
/home/itssahil/PROJECTS/Mol_Feturizer/New_Systems/rnas/2esj

>  <Rbt.Executable>
rbdock ($Id: //depot/dev/client3/rdock/2013.1/src/exe/rbdock.cxx#4 $)

>  <Rbt.Library>
libRbt.so (2013.1, Build901 2013/11/27)

>  <Rbt.Parameter_File>
/export/apps/rDock/src/rDock_2013.1_src/data/scripts/dock_solv.prm

>  <Rbt.Receptor>
prm/pocket_docking_2.prm

>  <SCORE>
17.5979

>  <SCORE.INTER>
2.87041

>  <SCORE.INTER.CONST>
1

>  <SCORE.INTER.POLAR>
0

>  <SCORE.INTER.ROT>
12

>  <SCORE.INTER.SOLV>
14.833

>  <SCORE.INTER.VDW>
-14.6307

>  <SCORE.INTER.norm>
0.0552002

>  <SCORE.INTRA>
11.5779

>  <SCORE.INTRA.DIHEDRAL>
5.82311

>  <SCORE.INTRA.DIHEDRAL.0>
32.9766

>  <SCORE.INTRA.POLAR>
0

>  <SCORE.INTRA.POLAR.0>
0

>  <SCORE.INTRA.REPUL>
0.00825791

>  <SCORE.INTRA.REPUL.0>
0

>  <SCORE.INTRA.SOLV>
6.39446

>  <SCORE.INTRA.SOLV.lig_0>
-114.358

>  <SCORE.INTRA.VDW>
5.42782

>  <SCORE.INTRA.VDW.0>
-8.24257

>  <SCORE.INTRA.norm>
0.222652

>  <SCORE.RESTR>
3.14962

>  <SCORE.RESTR.CAVITY>
3.14962

>  <SCORE.RESTR.norm>
0.0605696

>  <SCORE.SYSTEM>
0

>  <SCORE.SYSTEM.CONST>
0

>  <SCORE.SYSTEM.DIHEDRAL>
0

>  <SCORE.SYSTEM.SOLV>
0

>  <SCORE.SYSTEM.norm>
0

>  <SCORE.heavy>
52

>  <SCORE.norm>
0.338422

>  <RMSD>
2.231

$$$$
2esj_lig
 OpenBabel11021811423D
libRbt.so/2013.1/901 2013/11/27
 52 56  0  0  0  0  0  0  0  0999 V2000
   17.3827   -6.7353   18.5293 C   0  0  2  0  0  0  0  0  0  0  0  0
   17.7444   -8.0557   18.9771 O   0  0  0  0  0  0  0  0  0  0  0  0
   18.8918  -11.6937   17.0441 C   0  0  2  0  0  0  0  0  0  0  0  0
   18.9123  -12.9578   16.2898 N   0  0  0  0  0  0  0  0  0  0  0  0
   19.1197   -7.0931   15.6337 C   0  0  1  0  0  0  0  0  0  0  0  0
   21.5447   -4.3861   14.1856 C   0  0  1  0  0  0  0  0  0  0  0  0
   25.9908   -1.9087   15.7067 C   0  0  1  0  0  0  0  0  0  0  0  0
   18.0525   -5.7132   19.4945 C   0  0  2  0  0  0  0  0  0  0  0  0
   19.5030   -5.8874   19.5651 N   0  0  0  0  0  0  0  0  0  0  0  0
   17.8426  -11.7749   18.2231 C   0  0  0  0  0  0  0  0  0  0  0  0
   19.8926   -7.6553   14.4398 C   0  0  2  0  0  0  0  0  0  0  0  0
   21.0188   -8.4637   14.8443 O   0  0  0  0  0  0  0  0  0  0  0  0
   23.0313   -4.2809   13.6199 C   0  0  2  0  0  0  0  0  0  0  0  0
   23.9807   -5.0527   14.4649 N   0  0  0  0  0  0  0  0  0  0  0  0
   26.4747   -2.3127   14.3189 C   0  0  1  0  0  0  0  0  0  0  0  0
   27.4027   -1.3216   13.8339 O   0  0  0  0  0  0  0  0  0  0  0  0
   17.4364   -5.8123   20.9261 C   0  0  0  0  0  0  0  0  0  0  0  0
   17.8772  -10.4314   19.0571 C   0  0  2  0  0  0  0  0  0  0  0  0
   16.9015  -10.4756   20.1511 N   0  0  0  0  0  0  0  0  0  0  0  0
   20.2678   -6.3847   13.7335 C   0  0  2  0  0  0  0  0  0  0  0  0
   21.3356   -5.7522   14.3923 O   0  0  0  0  0  0  0  0  0  0  0  0
   23.4019   -2.7451   13.4224 C   0  0  1  0  0  0  0  0  0  0  0  0
   22.3747   -2.1172   12.6481 O   0  0  0  0  0  0  0  0  0  0  0  0
   27.1549   -3.6740   14.2372 C   0  0  1  0  0  0  0  0  0  0  0  0
   27.7436   -3.7757   12.9360 O   0  0  0  0  0  0  0  0  0  0  0  0
   15.8913   -5.6472   20.8214 C   0  0  2  0  0  0  0  0  0  0  0  0
   15.2738   -5.6498   22.0961 O   0  0  0  0  0  0  0  0  0  0  0  0
   17.6008   -9.2152   18.1355 C   0  0  2  0  0  0  0  0  0  0  0  0
   19.0802   -5.4214   13.9371 C   0  0  2  0  0  0  0  0  0  0  0  0
   18.5688   -5.8450   15.1909 O   0  0  0  0  0  0  0  0  0  0  0  0
   23.4314   -1.9747   14.8061 C   0  0  2  0  0  0  0  0  0  0  0  0
   24.4860   -2.6030   15.5364 O   0  0  0  0  0  0  0  0  0  0  0  0
   28.2339   -3.8888   15.3000 C   0  0  2  0  0  0  0  0  0  0  0  0
   28.5493   -5.2906   15.2963 O   0  0  0  0  0  0  0  0  0  0  0  0
   15.3400   -6.7782   19.9182 C   0  0  2  0  0  0  0  0  0  0  0  0
   15.9426   -6.6138   18.6026 O   0  0  0  0  0  0  0  0  0  0  0  0
   18.5280   -9.1402   16.8803 C   0  0  2  0  0  0  0  0  0  0  0  0
   18.1341   -8.0113   16.0515 O   0  0  0  0  0  0  0  0  0  0  0  0
   17.9678   -5.4811   12.8908 C   0  0  0  0  0  0  0  0  0  0  0  0
   17.0264   -4.4432   13.2009 O   0  0  0  0  0  0  0  0  0  0  0  0
   22.1518   -2.3654   15.5203 C   0  0  1  0  0  0  0  0  0  0  0  0
   21.4052   -3.6005   15.4765 O   0  0  0  0  0  0  0  0  0  0  0  0
   27.7980   -3.3476   16.6570 C   0  0  2  0  0  0  0  0  0  0  0  0
   26.9370   -2.2033   16.7627 O   0  0  0  0  0  0  0  0  0  0  0  0
   13.8668   -6.6918   19.7068 C   0  0  0  0  0  0  0  0  0  0  0  0
   13.2446   -7.0996   20.9013 O   0  0  0  0  0  0  0  0  0  0  0  0
   18.5178  -10.4968   16.0981 C   0  0  1  0  0  0  0  0  0  0  0  0
   19.5418  -10.4088   15.0719 O   0  0  0  0  0  0  0  0  0  0  0  0
   21.8740   -1.6583   16.8826 C   0  0  0  0  0  0  0  0  0  0  0  0
   20.5977   -2.0671   17.5060 N   0  0  0  0  0  0  0  0  0  0  0  0
   28.6785   -3.4150   17.9027 C   0  0  0  0  0  0  0  0  0  0  0  0
   27.8984   -3.0773   19.0801 O   0  0  0  0  0  0  0  0  0  0  0  0
  1  2  1  1  0  0  0
  1  8  1  0  0  0  0
  1 36  1  0  0  0  0
  3  4  1  6  0  0  0
  3 10  1  0  0  0  0
  3 47  1  0  0  0  0
  5 11  1  0  0  0  0
  5 30  1  0  0  0  0
  5 38  1  6  0  0  0
  6 21  1  1  0  0  0
  6 42  1  0  0  0  0
  7 15  1  0  0  0  0
  7 44  1  0  0  0  0
  7 32  1  1  0  0  0
  8  9  1  1  0  0  0
  8 17  1  0  0  0  0
 11 12  1  1  0  0  0
 11 20  1  0  0  0  0
 13  6  1  0  0  0  0
 13 14  1  1  0  0  0
 15 16  1  1  0  0  0
 15 24  1  0  0  0  0
 17 26  1  0  0  0  0
 18 10  1  0  0  0  0
 18 19  1  1  0  0  0
 20 21  1  1  0  0  0
 20 29  1  0  0  0  0
 22 13  1  0  0  0  0
 22 23  1  6  0  0  0
 24 25  1  6  0  0  0
 24 33  1  0  0  0  0
 26 27  1  1  0  0  0
 26 35  1  0  0  0  0
 28  2  1  1  0  0  0
 28 18  1  0  0  0  0
 29 30  1  0  0  0  0
 29 39  1  6  0  0  0
 31 22  1  0  0  0  0
 31 32  1  1  0  0  0
 31 41  1  0  0  0  0
 33 34  1  1  0  0  0
 33 43  1  0  0  0  0
 35 36  1  0  0  0  0
 35 45  1  6  0  0  0
 37 28  1  0  0  0  0
 37 38  1  6  0  0  0
 39 40  1  0  0  0  0
 41 42  1  0  0  0  0
 41 49  1  1  0  0  0
 43 44  1  0  0  0  0
 43 51  1  1  0  0  0
 45 46  1  0  0  0  0
 47 37  1  0  0  0  0
 47 48  1  6  0  0  0
 49 50  1  0  0  0  0
 51 52  1  0  0  0  0
M  END
>  <CHROM.1>
-163.30005517,79.84937699,-121.97269507,-79.10235282,-158.93145495,-171.17838462
-175.37335554,102.48006492,-73.89315293,129.28546469,178.78887148,-168.37024132
20.93556987,-5.72202814,16.47378118,2.92729838,-0.54581085,-2.56108059

>  <Name>
2esj_lig

>  <RI>
0

>  <Rbt.Current_Directory>
/home/itssahil/PROJECTS/Mol_Feturizer/New_Systems/rnas/2esj

>  <Rbt.Executable>
rbdock ($Id: //depot/dev/client3/rdock/2013.1/src/exe/rbdock.cxx#4 $)

>  <Rbt.Library>
libRbt.so (2013.1, Build901 2013/11/27)

>  <Rbt.Parameter_File>
/export/apps/rDock/src/rDock_2013.1_src/data/scripts/dock_solv.prm

>  <Rbt.Receptor>
prm/pocket_docking_2.prm

>  <SCORE>
-5.02231

>  <SCORE.INTER>
-10.9452

>  <SCORE.INTER.CONST>
1

>  <SCORE.INTER.POLAR>
-0.979796

>  <SCORE.INTER.ROT>
12

>  <SCORE.INTER.SOLV>
16.57

>  <SCORE.INTER.VDW>
-21.1541

>  <SCORE.INTER.norm>
-0.210484

>  <SCORE.INTRA>
3.15902

>  <SCORE.INTRA.DIHEDRAL>
-0.720168

>  <SCORE.INTRA.DIHEDRAL.0>
32.9766

>  <SCORE.INTRA.POLAR>
0

>  <SCORE.INTRA.POLAR.0>
0

>  <SCORE.INTRA.REPUL>
0

>  <SCORE.INTRA.REPUL.0>
0

>  <SCORE.INTRA.SOLV>
-2.6235

>  <SCORE.INTRA.SOLV.lig_0>
-114.358

>  <SCORE.INTRA.VDW>
4.83085

>  <SCORE.INTRA.VDW.0>
-8.24257

>  <SCORE.INTRA.norm>
0.0607504

>  <SCORE.RESTR>
2.76383

>  <SCORE.RESTR.CAVITY>
2.76383

>  <SCORE.RESTR.norm>
0.0531506

>  <SCORE.SYSTEM>
0

>  <SCORE.SYSTEM.CONST>
0

>  <SCORE.SYSTEM.DIHEDRAL>
0

>  <SCORE.SYSTEM.SOLV>
0

>  <SCORE.SYSTEM.norm>
0

>  <SCORE.heavy>
52

>  <SCORE.norm>
-0.0965829

>  <RMSD>
2.271

$$$$
2esj_lig
 OpenBabel11021811423D
libRbt.so/2013.1/901 2013/11/27
 52 56  0  0  0  0  0  0  0  0999 V2000
   17.4529   -6.3680   18.2282 C   0  0  2  0  0  0  0  0  0  0  0  0
   18.0094   -7.6389   18.6151 O   0  0  0  0  0  0  0  0  0  0  0  0
   19.4375  -11.1016   16.5515 C   0  0  2  0  0  0  0  0  0  0  0  0
   19.5539  -12.3445   15.7711 N   0  0  0  0  0  0  0  0  0  0  0  0
   19.1152   -6.5909   15.0618 C   0  0  1  0  0  0  0  0  0  0  0  0
   22.1073   -4.4465   13.0691 C   0  0  1  0  0  0  0  0  0  0  0  0
   26.9420   -2.5346   14.0435 C   0  0  1  0  0  0  0  0  0  0  0  0
   18.0387   -5.2888   19.1859 C   0  0  2  0  0  0  0  0  0  0  0  0
   19.5011   -5.2715   19.1716 N   0  0  0  0  0  0  0  0  0  0  0  0
   18.4668  -11.3138   17.7804 C   0  0  0  0  0  0  0  0  0  0  0  0
   20.5222   -7.1838   14.9754 C   0  0  2  0  0  0  0  0  0  0  0  0
   21.3036   -6.9222   16.1613 O   0  0  0  0  0  0  0  0  0  0  0  0
   23.5866   -5.0361   13.1439 C   0  0  2  0  0  0  0  0  0  0  0  0
   24.0685   -5.0940   14.5493 N   0  0  0  0  0  0  0  0  0  0  0  0
   27.3224   -3.9317   13.5672 C   0  0  1  0  0  0  0  0  0  0  0  0
   28.6074   -3.8765   12.9158 O   0  0  0  0  0  0  0  0  0  0  0  0
   17.5253   -5.5013   20.6455 C   0  0  0  0  0  0  0  0  0  0  0  0
   18.4008   -9.9872   18.6392 C   0  0  2  0  0  0  0  0  0  0  0  0
   17.4945  -10.1534   19.7802 N   0  0  0  0  0  0  0  0  0  0  0  0
   21.0315   -6.5017   13.7387 C   0  0  2  0  0  0  0  0  0  0  0  0
   21.3842   -5.1710   14.0204 O   0  0  0  0  0  0  0  0  0  0  0  0
   24.5199   -4.2189   12.1458 C   0  0  1  0  0  0  0  0  0  0  0  0
   23.9042   -4.1923   10.8539 O   0  0  0  0  0  0  0  0  0  0  0  0
   27.3928   -4.9944   14.6572 C   0  0  1  0  0  0  0  0  0  0  0  0
   27.9852   -6.1604   14.0741 O   0  0  0  0  0  0  0  0  0  0  0  0
   15.9684   -5.5393   20.6306 C   0  0  2  0  0  0  0  0  0  0  0  0
   15.4318   -5.6528   21.9365 O   0  0  0  0  0  0  0  0  0  0  0  0
   17.9471   -8.7943   17.7582 C   0  0  2  0  0  0  0  0  0  0  0  0
   19.8173   -6.3745   12.7958 C   0  0  2  0  0  0  0  0  0  0  0  0
   18.7403   -6.2743   13.7140 O   0  0  0  0  0  0  0  0  0  0  0  0
   24.6561   -2.7046   12.5903 C   0  0  2  0  0  0  0  0  0  0  0  0
   25.3025   -2.7681   13.8625 O   0  0  0  0  0  0  0  0  0  0  0  0
   28.2071   -4.5699   15.8805 C   0  0  2  0  0  0  0  0  0  0  0  0
   27.9231   -5.5200   16.9204 O   0  0  0  0  0  0  0  0  0  0  0  0
   15.5177   -6.7122   19.7249 C   0  0  2  0  0  0  0  0  0  0  0  0
   16.0160   -6.4395   18.3839 O   0  0  0  0  0  0  0  0  0  0  0  0
   18.7933   -8.6004   16.4592 C   0  0  2  0  0  0  0  0  0  0  0  0
   18.2371   -7.5085   15.6751 O   0  0  0  0  0  0  0  0  0  0  0  0
   19.5660   -7.5462   11.8472 C   0  0  0  0  0  0  0  0  0  0  0  0
   18.9099   -7.0258   10.6817 O   0  0  0  0  0  0  0  0  0  0  0  0
   23.2432   -2.2318   12.8739 C   0  0  1  0  0  0  0  0  0  0  0  0
   22.1054   -2.9614   13.3815 O   0  0  0  0  0  0  0  0  0  0  0  0
   27.9286   -3.1203   16.2622 C   0  0  2  0  0  0  0  0  0  0  0  0
   27.6035   -2.1361   15.2686 O   0  0  0  0  0  0  0  0  0  0  0  0
   14.0361   -6.8162   19.5973 C   0  0  0  0  0  0  0  0  0  0  0  0
   13.5243   -7.1339   20.8690 O   0  0  0  0  0  0  0  0  0  0  0  0
   18.8876   -9.9382   15.6506 C   0  0  1  0  0  0  0  0  0  0  0  0
   19.8406   -9.7242   14.5758 O   0  0  0  0  0  0  0  0  0  0  0  0
   23.0759   -0.7241   13.2365 C   0  0  0  0  0  0  0  0  0  0  0  0
   22.1708   -0.4933   14.3821 N   0  0  0  0  0  0  0  0  0  0  0  0
   28.6085   -2.4232   17.4384 C   0  0  0  0  0  0  0  0  0  0  0  0
   28.9398   -3.3943   18.4660 O   0  0  0  0  0  0  0  0  0  0  0  0
  1  2  1  1  0  0  0
  1  8  1  0  0  0  0
  1 36  1  0  0  0  0
  3  4  1  6  0  0  0
  3 10  1  0  0  0  0
  3 47  1  0  0  0  0
  5 11  1  0  0  0  0
  5 30  1  0  0  0  0
  5 38  1  6  0  0  0
  6 21  1  1  0  0  0
  6 42  1  0  0  0  0
  7 15  1  0  0  0  0
  7 44  1  0  0  0  0
  7 32  1  1  0  0  0
  8  9  1  1  0  0  0
  8 17  1  0  0  0  0
 11 12  1  1  0  0  0
 11 20  1  0  0  0  0
 13  6  1  0  0  0  0
 13 14  1  1  0  0  0
 15 16  1  1  0  0  0
 15 24  1  0  0  0  0
 17 26  1  0  0  0  0
 18 10  1  0  0  0  0
 18 19  1  1  0  0  0
 20 21  1  1  0  0  0
 20 29  1  0  0  0  0
 22 13  1  0  0  0  0
 22 23  1  6  0  0  0
 24 25  1  6  0  0  0
 24 33  1  0  0  0  0
 26 27  1  1  0  0  0
 26 35  1  0  0  0  0
 28  2  1  1  0  0  0
 28 18  1  0  0  0  0
 29 30  1  0  0  0  0
 29 39  1  6  0  0  0
 31 22  1  0  0  0  0
 31 32  1  1  0  0  0
 31 41  1  0  0  0  0
 33 34  1  1  0  0  0
 33 43  1  0  0  0  0
 35 36  1  0  0  0  0
 35 45  1  6  0  0  0
 37 28  1  0  0  0  0
 37 38  1  6  0  0  0
 39 40  1  0  0  0  0
 41 42  1  0  0  0  0
 41 49  1  1  0  0  0
 43 44  1  0  0  0  0
 43 51  1  6  0  0  0
 45 46  1  0  0  0  0
 47 37  1  0  0  0  0
 47 48  1  6  0  0  0
 49 50  1  0  0  0  0
 51 52  1  0  0  0  0
M  END
>  <CHROM.1>
-164.50936384,18.26633592,-74.06662601,-78.39729069,168.22117481,-169.48159370
-151.74240261,98.22565619,-65.12021236,138.50798114,-135.62003436,-29.35852815
21.45200745,-5.84831489,15.80851598,-2.88763911,-0.50256114,-1.85489630

>  <Name>
2esj_lig

>  <RI>
0

>  <Rbt.Current_Directory>
/home/itssahil/PROJECTS/Mol_Feturizer/New_Systems/rnas/2esj

>  <Rbt.Executable>
rbdock ($Id: //depot/dev/client3/rdock/2013.1/src/exe/rbdock.cxx#4 $)

>  <Rbt.Library>
libRbt.so (2013.1, Build901 2013/11/27)

>  <Rbt.Parameter_File>
/export/apps/rDock/src/rDock_2013.1_src/data/scripts/dock_solv.prm

>  <Rbt.Receptor>
prm/pocket_docking_2.prm

>  <SCORE>
-10.1956

>  <SCORE.INTER>
-17.5053

>  <SCORE.INTER.CONST>
1

>  <SCORE.INTER.POLAR>
-1.72645

>  <SCORE.INTER.ROT>
12

>  <SCORE.INTER.SOLV>
18.6998

>  <SCORE.INTER.VDW>
-23.7486

>  <SCORE.INTER.norm>
-0.33664

>  <SCORE.INTRA>
2.93726

>  <SCORE.INTRA.DIHEDRAL>
-3.78254

>  <SCORE.INTRA.DIHEDRAL.0>
32.9766

>  <SCORE.INTRA.POLAR>
0

>  <SCORE.INTRA.POLAR.0>
0

>  <SCORE.INTRA.REPUL>
0

>  <SCORE.INTRA.REPUL.0>
0

>  <SCORE.INTRA.SOLV>
-0.454878

>  <SCORE.INTRA.SOLV.lig_0>
-114.358

>  <SCORE.INTRA.VDW>
5.05597

>  <SCORE.INTRA.VDW.0>
-8.24257

>  <SCORE.INTRA.norm>
0.0564857

>  <SCORE.RESTR>
4.37239

>  <SCORE.RESTR.CAVITY>
4.37239

>  <SCORE.RESTR.norm>
0.0840845

>  <SCORE.SYSTEM>
0

>  <SCORE.SYSTEM.CONST>
0

>  <SCORE.SYSTEM.DIHEDRAL>
0

>  <SCORE.SYSTEM.SOLV>
0

>  <SCORE.SYSTEM.norm>
0

>  <SCORE.heavy>
52

>  <SCORE.norm>
-0.19607

>  <RMSD>
2.290

$$$$
2esj_lig
 OpenBabel11021811423D
libRbt.so/2013.1/901 2013/11/27
 52 56  0  0  0  0  0  0  0  0999 V2000
   18.6104   -5.0951   18.6888 C   0  0  2  0  0  0  0  0  0  0  0  0
   19.1731   -6.4207   18.6585 O   0  0  0  0  0  0  0  0  0  0  0  0
   19.7662   -9.5548   15.8100 C   0  0  2  0  0  0  0  0  0  0  0  0
   19.5855  -10.6324   14.8234 N   0  0  0  0  0  0  0  0  0  0  0  0
   19.8253   -4.7516   15.3876 C   0  0  1  0  0  0  0  0  0  0  0  0
   22.6318   -2.2551   13.4101 C   0  0  1  0  0  0  0  0  0  0  0  0
   27.7140   -2.6483   13.4191 C   0  0  1  0  0  0  0  0  0  0  0  0
   19.2654   -4.3351   19.8797 C   0  0  2  0  0  0  0  0  0  0  0  0
   20.7245   -4.3067   19.7827 N   0  0  0  0  0  0  0  0  0  0  0  0
   18.9936   -9.8976   17.1453 C   0  0  0  0  0  0  0  0  0  0  0  0
   20.5658   -5.1840   14.1214 C   0  0  2  0  0  0  0  0  0  0  0  0
   21.7619   -5.9385   14.4137 O   0  0  0  0  0  0  0  0  0  0  0  0
   23.3422   -3.0997   12.2598 C   0  0  2  0  0  0  0  0  0  0  0  0
   24.0042   -4.3093   12.8160 N   0  0  0  0  0  0  0  0  0  0  0  0
   28.0835   -4.0998   13.1360 C   0  0  1  0  0  0  0  0  0  0  0  0
   29.5123   -4.2016   12.9726 O   0  0  0  0  0  0  0  0  0  0  0  0
   18.8369   -4.9624   21.2443 C   0  0  0  0  0  0  0  0  0  0  0  0
   19.2478   -8.7582   18.2124 C   0  0  2  0  0  0  0  0  0  0  0  0
   18.5296   -9.0458   19.4583 N   0  0  0  0  0  0  0  0  0  0  0  0
   20.8197   -3.8490   13.4831 C   0  0  2  0  0  0  0  0  0  0  0  0
   21.8794   -3.1888   14.1277 O   0  0  0  0  0  0  0  0  0  0  0  0
   24.2947   -2.1358   11.4239 C   0  0  1  0  0  0  0  0  0  0  0  0
   23.5440   -0.9901   11.0084 O   0  0  0  0  0  0  0  0  0  0  0  0
   27.6597   -5.0999   14.2049 C   0  0  1  0  0  0  0  0  0  0  0  0
   28.2884   -6.3474   13.8907 O   0  0  0  0  0  0  0  0  0  0  0  0
   17.2815   -5.0026   21.3132 C   0  0  2  0  0  0  0  0  0  0  0  0
   16.8220   -5.4909   22.5609 O   0  0  0  0  0  0  0  0  0  0  0  0
   18.8165   -7.3804   17.6460 C   0  0  2  0  0  0  0  0  0  0  0  0
   19.5859   -2.9827   13.8102 C   0  0  2  0  0  0  0  0  0  0  0  0
   19.1722   -3.5180   15.0573 O   0  0  0  0  0  0  0  0  0  0  0  0
   25.4780   -1.5762   12.3159 C   0  0  2  0  0  0  0  0  0  0  0  0
   26.2224   -2.7388   12.6828 O   0  0  0  0  0  0  0  0  0  0  0  0
   28.0429   -4.6829   15.6259 C   0  0  2  0  0  0  0  0  0  0  0  0
   27.3180   -5.5410   16.5219 O   0  0  0  0  0  0  0  0  0  0  0  0
   16.7634   -5.8667   20.1368 C   0  0  2  0  0  0  0  0  0  0  0  0
   17.1845   -5.2161   18.9038 O   0  0  0  0  0  0  0  0  0  0  0  0
   19.4535   -7.0297   16.2632 C   0  0  2  0  0  0  0  0  0  0  0  0
   18.9248   -5.7586   15.7927 O   0  0  0  0  0  0  0  0  0  0  0  0
   18.4239   -3.0510   12.8199 C   0  0  0  0  0  0  0  0  0  0  0  0
   18.8976   -2.5480   11.5621 O   0  0  0  0  0  0  0  0  0  0  0  0
   24.8299   -1.0861   13.5964 C   0  0  1  0  0  0  0  0  0  0  0  0
   23.6634   -1.5761   14.2920 O   0  0  0  0  0  0  0  0  0  0  0  0
   27.8067   -3.1941   15.8548 C   0  0  2  0  0  0  0  0  0  0  0  0
   27.9513   -2.2429   14.7889 O   0  0  0  0  0  0  0  0  0  0  0  0
   15.2756   -5.9373   20.0743 C   0  0  0  0  0  0  0  0  0  0  0  0
   14.9307   -6.4642   18.8160 O   0  0  0  0  0  0  0  0  0  0  0  0
   19.2339   -8.1924   15.2375 C   0  0  1  0  0  0  0  0  0  0  0  0
   20.0150   -7.8753   14.0549 O   0  0  0  0  0  0  0  0  0  0  0  0
   25.7689   -0.3822   14.6239 C   0  0  0  0  0  0  0  0  0  0  0  0
   25.4743    1.0557   14.7984 N   0  0  0  0  0  0  0  0  0  0  0  0
   28.1100   -2.4964   17.1788 C   0  0  0  0  0  0  0  0  0  0  0  0
   29.5329   -2.5650   17.4607 O   0  0  0  0  0  0  0  0  0  0  0  0
  1  2  1  1  0  0  0
  1  8  1  0  0  0  0
  1 36  1  0  0  0  0
  3  4  1  6  0  0  0
  3 10  1  0  0  0  0
  3 47  1  0  0  0  0
  5 11  1  0  0  0  0
  5 30  1  0  0  0  0
  5 38  1  6  0  0  0
  6 21  1  1  0  0  0
  6 42  1  0  0  0  0
  7 15  1  0  0  0  0
  7 44  1  0  0  0  0
  7 32  1  1  0  0  0
  8  9  1  6  0  0  0
  8 17  1  0  0  0  0
 11 12  1  1  0  0  0
 11 20  1  0  0  0  0
 13  6  1  0  0  0  0
 13 14  1  1  0  0  0
 15 16  1  1  0  0  0
 15 24  1  0  0  0  0
 17 26  1  0  0  0  0
 18 10  1  0  0  0  0
 18 19  1  1  0  0  0
 20 21  1  1  0  0  0
 20 29  1  0  0  0  0
 22 13  1  0  0  0  0
 22 23  1  1  0  0  0
 24 25  1  6  0  0  0
 24 33  1  0  0  0  0
 26 27  1  1  0  0  0
 26 35  1  0  0  0  0
 28  2  1  1  0  0  0
 28 18  1  0  0  0  0
 29 30  1  0  0  0  0
 29 39  1  6  0  0  0
 31 22  1  0  0  0  0
 31 32  1  1  0  0  0
 31 41  1  0  0  0  0
 33 34  1  1  0  0  0
 33 43  1  0  0  0  0
 35 36  1  0  0  0  0
 35 45  1  6  0  0  0
 37 28  1  0  0  0  0
 37 38  1  6  0  0  0
 39 40  1  0  0  0  0
 41 42  1  0  0  0  0
 41 49  1  1  0  0  0
 43 44  1  0  0  0  0
 43 51  1  1  0  0  0
 45 46  1  0  0  0  0
 47 37  1  0  0  0  0
 47 48  1  6  0  0  0
 49 50  1  0  0  0  0
 51 52  1  0  0  0  0
M  END
>  <CHROM.1>
-177.90988627,66.86611668,-64.19361698,-164.07281039,153.57402568,-162.10191568
-63.02517172,169.64737242,166.27790068,128.46908076,113.11599928,63.21562519
22.08803314,-4.60955700,15.71657509,-2.57103787,-0.13666203,-1.10479276

>  <Name>
2esj_lig

>  <RI>
1.62275e+07

>  <Rbt.Current_Directory>
/home/itssahil/PROJECTS/Mol_Feturizer/New_Systems/rnas/2esj

>  <Rbt.Executable>
rbdock ($Id: //depot/dev/client3/rdock/2013.1/src/exe/rbdock.cxx#4 $)

>  <Rbt.Library>
libRbt.so (2013.1, Build901 2013/11/27)

>  <Rbt.Parameter_File>
/export/apps/rDock/src/rDock_2013.1_src/data/scripts/dock_solv.prm

>  <Rbt.Receptor>
prm/pocket_docking_5.prm

>  <SCORE>
-15.1924

>  <SCORE.INTER>
-9.91759

>  <SCORE.INTER.CONST>
1

>  <SCORE.INTER.POLAR>
-0.979796

>  <SCORE.INTER.ROT>
12

>  <SCORE.INTER.SOLV>
16.3929

>  <SCORE.INTER.VDW>
-20.41

>  <SCORE.INTER.norm>
-0.190723

>  <SCORE.INTRA>
-5.27479

>  <SCORE.INTRA.DIHEDRAL>
-13.9783

>  <SCORE.INTRA.DIHEDRAL.0>
32.9766

>  <SCORE.INTRA.POLAR>
0

>  <SCORE.INTRA.POLAR.0>
0

>  <SCORE.INTRA.REPUL>
0

>  <SCORE.INTRA.REPUL.0>
0

>  <SCORE.INTRA.SOLV>
-2.12804

>  <SCORE.INTRA.SOLV.lig_0>
-114.358

>  <SCORE.INTRA.VDW>
2.77836

>  <SCORE.INTRA.VDW.0>
-8.24257

>  <SCORE.INTRA.norm>
-0.101438

>  <SCORE.RESTR>
0

>  <SCORE.RESTR.CAVITY>
0

>  <SCORE.RESTR.norm>
0

>  <SCORE.SYSTEM>
0

>  <SCORE.SYSTEM.CONST>
0

>  <SCORE.SYSTEM.DIHEDRAL>
0

>  <SCORE.SYSTEM.SOLV>
0

>  <SCORE.SYSTEM.norm>
0

>  <SCORE.heavy>
52

>  <SCORE.norm>
-0.292161

>  <RMSD>
2.322

$$$$
2esj_lig
 OpenBabel11021811423D
libRbt.so/2013.1/901 2013/11/27
 52 56  0  0  0  0  0  0  0  0999 V2000
   17.0189   -6.9452   18.5651 C   0  0  2  0  0  0  0  0  0  0  0  0
   17.4405   -8.2187   19.0898 O   0  0  0  0  0  0  0  0  0  0  0  0
   19.0172  -11.7969   17.3581 C   0  0  2  0  0  0  0  0  0  0  0  0
   19.1938  -13.0773   16.6533 N   0  0  0  0  0  0  0  0  0  0  0  0
   18.8971   -7.2069   15.8440 C   0  0  1  0  0  0  0  0  0  0  0  0
   21.2773   -4.2737   14.3902 C   0  0  1  0  0  0  0  0  0  0  0  0
   25.9130   -2.7854   15.0548 C   0  0  1  0  0  0  0  0  0  0  0  0
   17.6341   -5.8382   19.4712 C   0  0  2  0  0  0  0  0  0  0  0  0
   19.0908   -5.9385   19.5558 N   0  0  0  0  0  0  0  0  0  0  0  0
   17.9131  -11.9356   18.4803 C   0  0  0  0  0  0  0  0  0  0  0  0
   19.7296   -7.6247   14.6312 C   0  0  2  0  0  0  0  0  0  0  0  0
   20.9190   -8.3537   15.0045 O   0  0  0  0  0  0  0  0  0  0  0  0
   22.2341   -4.3615   13.1182 C   0  0  2  0  0  0  0  0  0  0  0  0
   23.3517   -5.3133   13.3547 N   0  0  0  0  0  0  0  0  0  0  0  0
   27.0426   -2.6665   14.0384 C   0  0  1  0  0  0  0  0  0  0  0  0
   28.0490   -1.7707   14.5514 O   0  0  0  0  0  0  0  0  0  0  0  0
   17.0154   -5.8837   20.9045 C   0  0  0  0  0  0  0  0  0  0  0  0
   17.7797  -10.5687   19.2647 C   0  0  2  0  0  0  0  0  0  0  0  0
   16.7503  -10.6667   20.3047 N   0  0  0  0  0  0  0  0  0  0  0  0
   19.9976   -6.2852   14.0083 C   0  0  2  0  0  0  0  0  0  0  0  0
   20.9978   -5.6023   14.7209 O   0  0  0  0  0  0  0  0  0  0  0  0
   22.6798   -2.8901   12.7039 C   0  0  1  0  0  0  0  0  0  0  0  0
   21.5121   -2.0726   12.5734 O   0  0  0  0  0  0  0  0  0  0  0  0
   27.7250   -3.9776   13.6670 C   0  0  1  0  0  0  0  0  0  0  0  0
   28.8900   -3.6470   12.9030 O   0  0  0  0  0  0  0  0  0  0  0  0
   15.4648   -5.7989   20.7861 C   0  0  2  0  0  0  0  0  0  0  0  0
   14.8410   -5.7573   22.0570 O   0  0  0  0  0  0  0  0  0  0  0  0
   17.4496   -9.4127   18.2851 C   0  0  2  0  0  0  0  0  0  0  0  0
   18.7269   -5.4447   14.2502 C   0  0  2  0  0  0  0  0  0  0  0  0
   18.2420   -5.9876   15.4680 O   0  0  0  0  0  0  0  0  0  0  0  0
   23.5575   -2.2117   13.8347 C   0  0  2  0  0  0  0  0  0  0  0  0
   24.7247   -3.0314   13.9134 O   0  0  0  0  0  0  0  0  0  0  0  0
   28.1337   -4.8235   14.8742 C   0  0  2  0  0  0  0  0  0  0  0  0
   28.4632   -6.1300   14.3753 O   0  0  0  0  0  0  0  0  0  0  0  0
   14.9729   -7.0053   19.9485 C   0  0  2  0  0  0  0  0  0  0  0  0
   15.5743   -6.8887   18.6272 O   0  0  0  0  0  0  0  0  0  0  0  0
   18.4373   -9.2937   17.0804 C   0  0  2  0  0  0  0  0  0  0  0  0
   17.9928   -8.2324   16.1902 O   0  0  0  0  0  0  0  0  0  0  0  0
   17.6354   -5.5384   13.1845 C   0  0  0  0  0  0  0  0  0  0  0  0
   16.3723   -5.5958   13.8633 O   0  0  0  0  0  0  0  0  0  0  0  0
   22.8071   -2.4453   15.1318 C   0  0  1  0  0  0  0  0  0  0  0  0
   21.9674   -3.5497   15.5315 O   0  0  0  0  0  0  0  0  0  0  0  0
   27.0556   -4.8173   15.9522 C   0  0  2  0  0  0  0  0  0  0  0  0
   26.2134   -3.6728   16.1591 O   0  0  0  0  0  0  0  0  0  0  0  0
   13.4984   -7.0017   19.7283 C   0  0  0  0  0  0  0  0  0  0  0  0
   13.0908   -8.3403   19.5796 O   0  0  0  0  0  0  0  0  0  0  0  0
   18.5932  -10.6698   16.3495 C   0  0  1  0  0  0  0  0  0  0  0  0
   19.6628  -10.5217   15.3782 O   0  0  0  0  0  0  0  0  0  0  0  0
   23.4072   -1.7820   16.4095 C   0  0  0  0  0  0  0  0  0  0  0  0
   24.3535   -0.6862   16.1122 N   0  0  0  0  0  0  0  0  0  0  0  0
   27.1952   -5.5683   17.2744 C   0  0  0  0  0  0  0  0  0  0  0  0
   28.0754   -4.8377   18.1690 O   0  0  0  0  0  0  0  0  0  0  0  0
  1  2  1  1  0  0  0
  1  8  1  0  0  0  0
  1 36  1  0  0  0  0
  3  4  1  6  0  0  0
  3 10  1  0  0  0  0
  3 47  1  0  0  0  0
  5 11  1  0  0  0  0
  5 30  1  0  0  0  0
  5 38  1  6  0  0  0
  6 21  1  1  0  0  0
  6 42  1  0  0  0  0
  7 15  1  0  0  0  0
  7 44  1  0  0  0  0
  7 32  1  6  0  0  0
  8  9  1  1  0  0  0
  8 17  1  0  0  0  0
 11 12  1  1  0  0  0
 11 20  1  0  0  0  0
 13  6  1  0  0  0  0
 13 14  1  1  0  0  0
 15 16  1  1  0  0  0
 15 24  1  0  0  0  0
 17 26  1  0  0  0  0
 18 10  1  0  0  0  0
 18 19  1  1  0  0  0
 20 21  1  1  0  0  0
 20 29  1  0  0  0  0
 22 13  1  0  0  0  0
 22 23  1  1  0  0  0
 24 25  1  1  0  0  0
 24 33  1  0  0  0  0
 26 27  1  1  0  0  0
 26 35  1  0  0  0  0
 28  2  1  1  0  0  0
 28 18  1  0  0  0  0
 29 30  1  0  0  0  0
 29 39  1  6  0  0  0
 31 22  1  0  0  0  0
 31 32  1  1  0  0  0
 31 41  1  0  0  0  0
 33 34  1  6  0  0  0
 33 43  1  0  0  0  0
 35 36  1  0  0  0  0
 35 45  1  6  0  0  0
 37 28  1  0  0  0  0
 37 38  1  6  0  0  0
 39 40  1  0  0  0  0
 41 42  1  0  0  0  0
 41 49  1  1  0  0  0
 43 44  1  0  0  0  0
 43 51  1  1  0  0  0
 45 46  1  0  0  0  0
 47 37  1  0  0  0  0
 47 48  1  6  0  0  0
 49 50  1  0  0  0  0
 51 52  1  0  0  0  0
M  END
>  <CHROM.1>
-158.62165477,86.67529262,-81.26299231,-124.74125904,-172.54856709,-172.68239827
138.89112020,-175.30088298,-151.67809122,126.29601086,18.53687702,76.99939871
20.87422001,-6.03481783,16.31574832,2.64910733,-0.31009060,2.95822433

>  <Name>
2esj_lig

>  <RI>
0

>  <Rbt.Current_Directory>
/home/itssahil/PROJECTS/Mol_Feturizer/New_Systems/rnas/2esj

>  <Rbt.Executable>
rbdock ($Id: //depot/dev/client3/rdock/2013.1/src/exe/rbdock.cxx#4 $)

>  <Rbt.Library>
libRbt.so (2013.1, Build901 2013/11/27)

>  <Rbt.Parameter_File>
/export/apps/rDock/src/rDock_2013.1_src/data/scripts/dock_solv.prm

>  <Rbt.Receptor>
prm/pocket_docking_2.prm

>  <SCORE>
-9.80792

>  <SCORE.INTER>
-17.1642

>  <SCORE.INTER.CONST>
1

>  <SCORE.INTER.POLAR>
-1.95959

>  <SCORE.INTER.ROT>
12

>  <SCORE.INTER.SOLV>
20.068

>  <SCORE.INTER.VDW>
-23.2002

>  <SCORE.INTER.norm>
-0.330081

>  <SCORE.INTRA>
4.49949

>  <SCORE.INTRA.DIHEDRAL>
0.676229

>  <SCORE.INTRA.DIHEDRAL.0>
32.9766

>  <SCORE.INTRA.POLAR>
0

>  <SCORE.INTRA.POLAR.0>
0

>  <SCORE.INTRA.REPUL>
0

>  <SCORE.INTRA.REPUL.0>
0

>  <SCORE.INTRA.SOLV>
-0.292188

>  <SCORE.INTRA.SOLV.lig_0>
-114.358

>  <SCORE.INTRA.VDW>
4.30747

>  <SCORE.INTRA.VDW.0>
-8.24257

>  <SCORE.INTRA.norm>
0.0865286

>  <SCORE.RESTR>
2.8568

>  <SCORE.RESTR.CAVITY>
2.8568

>  <SCORE.RESTR.norm>
0.0549385

>  <SCORE.SYSTEM>
0

>  <SCORE.SYSTEM.CONST>
0

>  <SCORE.SYSTEM.DIHEDRAL>
0

>  <SCORE.SYSTEM.SOLV>
0

>  <SCORE.SYSTEM.norm>
0

>  <SCORE.heavy>
52

>  <SCORE.norm>
-0.188614

>  <RMSD>
2.326

$$$$
2esj_lig
 OpenBabel11021811423D
libRbt.so/2013.1/901 2013/11/27
 52 56  0  0  0  0  0  0  0  0999 V2000
   17.5260   -6.0929   18.3851 C   0  0  2  0  0  0  0  0  0  0  0  0
   18.0086   -7.4293   18.6218 O   0  0  0  0  0  0  0  0  0  0  0  0
   19.6591  -10.5465   16.2038 C   0  0  2  0  0  0  0  0  0  0  0  0
   19.8640  -11.6463   15.2468 N   0  0  0  0  0  0  0  0  0  0  0  0
   19.5832   -5.8557   15.4402 C   0  0  1  0  0  0  0  0  0  0  0  0
   22.0140   -4.1714   12.8847 C   0  0  1  0  0  0  0  0  0  0  0  0
   25.5441   -2.1128   13.4093 C   0  0  1  0  0  0  0  0  0  0  0  0
   18.3763   -5.1256   19.2605 C   0  0  2  0  0  0  0  0  0  0  0  0
   19.8080   -5.2455   18.9867 N   0  0  0  0  0  0  0  0  0  0  0  0
   18.5340  -10.9280   17.2459 C   0  0  0  0  0  0  0  0  0  0  0  0
   19.3922   -5.4358   13.9823 C   0  0  2  0  0  0  0  0  0  0  0  0
   20.1117   -6.2881   13.0650 O   0  0  0  0  0  0  0  0  0  0  0  0
   23.2315   -5.1261   13.2689 C   0  0  2  0  0  0  0  0  0  0  0  0
   23.9324   -4.6354   14.4850 N   0  0  0  0  0  0  0  0  0  0  0  0
   26.9898   -2.1061   13.8925 C   0  0  1  0  0  0  0  0  0  0  0  0
   27.4649   -0.7460   13.9461 O   0  0  0  0  0  0  0  0  0  0  0  0
   18.1052   -5.3653   20.7798 C   0  0  0  0  0  0  0  0  0  0  0  0
   18.3698   -9.7604   18.3002 C   0  0  2  0  0  0  0  0  0  0  0  0
   17.3205  -10.0841   19.2723 N   0  0  0  0  0  0  0  0  0  0  0  0
   19.8968   -4.0228   14.0358 C   0  0  2  0  0  0  0  0  0  0  0  0
   21.3013   -4.0029   14.0748 O   0  0  0  0  0  0  0  0  0  0  0  0
   24.1596   -5.3205   11.9899 C   0  0  1  0  0  0  0  0  0  0  0  0
   23.3461   -5.7307   10.8860 O   0  0  0  0  0  0  0  0  0  0  0  0
   27.2226   -2.7399   15.2587 C   0  0  1  0  0  0  0  0  0  0  0  0
   28.5670   -2.4332   15.6442 O   0  0  0  0  0  0  0  0  0  0  0  0
   16.5737   -5.2555   21.0410 C   0  0  2  0  0  0  0  0  0  0  0  0
   16.2634   -5.3864   22.4168 O   0  0  0  0  0  0  0  0  0  0  0  0
   18.0471   -8.4244   17.5819 C   0  0  2  0  0  0  0  0  0  0  0  0
   19.4771   -3.4761   15.4158 C   0  0  2  0  0  0  0  0  0  0  0  0
   19.4802   -4.6508   16.2115 O   0  0  0  0  0  0  0  0  0  0  0  0
   24.8294   -3.9546   11.5483 C   0  0  2  0  0  0  0  0  0  0  0  0
   25.6568   -3.5943   12.6556 O   0  0  0  0  0  0  0  0  0  0  0  0
   26.2599   -2.2456   16.3398 C   0  0  2  0  0  0  0  0  0  0  0  0
   26.3918   -3.1406   17.4562 O   0  0  0  0  0  0  0  0  0  0  0  0
   15.8553   -6.3315   20.1894 C   0  0  2  0  0  0  0  0  0  0  0  0
   16.1383   -6.0368   18.7915 O   0  0  0  0  0  0  0  0  0  0  0  0
   19.0578   -8.0453   16.4524 C   0  0  2  0  0  0  0  0  0  0  0  0
   18.6200   -6.8215   15.7988 O   0  0  0  0  0  0  0  0  0  0  0  0
   18.1020   -2.8141   15.4966 C   0  0  0  0  0  0  0  0  0  0  0  0
   17.8830   -2.4377   16.8641 O   0  0  0  0  0  0  0  0  0  0  0  0
   23.7070   -2.9348   11.5291 C   0  0  1  0  0  0  0  0  0  0  0  0
   22.5208   -2.8457   12.3473 O   0  0  0  0  0  0  0  0  0  0  0  0
   24.8381   -2.1149   15.8053 C   0  0  2  0  0  0  0  0  0  0  0  0
   24.5846   -1.7638   14.4363 O   0  0  0  0  0  0  0  0  0  0  0  0
   14.3713   -6.2885   20.3239 C   0  0  0  0  0  0  0  0  0  0  0  0
   13.8499   -7.3728   19.5941 O   0  0  0  0  0  0  0  0  0  0  0  0
   19.2435   -9.2331   15.4490 C   0  0  1  0  0  0  0  0  0  0  0  0
   20.3310   -8.8748   14.5555 O   0  0  0  0  0  0  0  0  0  0  0  0
   24.0757   -1.5069   11.0214 C   0  0  0  0  0  0  0  0  0  0  0  0
   23.3334   -1.1061    9.8077 N   0  0  0  0  0  0  0  0  0  0  0  0
   23.6680   -1.6325   16.6596 C   0  0  0  0  0  0  0  0  0  0  0  0
   22.5043   -1.4025   15.8220 O   0  0  0  0  0  0  0  0  0  0  0  0
  1  2  1  1  0  0  0
  1  8  1  0  0  0  0
  1 36  1  0  0  0  0
  3  4  1  6  0  0  0
  3 10  1  0  0  0  0
  3 47  1  0  0  0  0
  5 11  1  0  0  0  0
  5 30  1  0  0  0  0
  5 38  1  1  0  0  0
  6 21  1  1  0  0  0
  6 42  1  0  0  0  0
  7 15  1  0  0  0  0
  7 44  1  0  0  0  0
  7 32  1  1  0  0  0
  8  9  1  1  0  0  0
  8 17  1  0  0  0  0
 11 12  1  6  0  0  0
 11 20  1  0  0  0  0
 13  6  1  0  0  0  0
 13 14  1  1  0  0  0
 15 16  1  1  0  0  0
 15 24  1  0  0  0  0
 17 26  1  0  0  0  0
 18 10  1  0  0  0  0
 18 19  1  1  0  0  0
 20 21  1  1  0  0  0
 20 29  1  0  0  0  0
 22 13  1  0  0  0  0
 22 23  1  6  0  0  0
 24 25  1  1  0  0  0
 24 33  1  0  0  0  0
 26 27  1  1  0  0  0
 26 35  1  0  0  0  0
 28  2  1  1  0  0  0
 28 18  1  0  0  0  0
 29 30  1  0  0  0  0
 29 39  1  6  0  0  0
 31 22  1  0  0  0  0
 31 32  1  1  0  0  0
 31 41  1  0  0  0  0
 33 34  1  1  0  0  0
 33 43  1  0  0  0  0
 35 36  1  0  0  0  0
 35 45  1  6  0  0  0
 37 28  1  0  0  0  0
 37 38  1  6  0  0  0
 39 40  1  0  0  0  0
 41 42  1  0  0  0  0
 41 49  1  1  0  0  0
 43 44  1  0  0  0  0
 43 51  1  1  0  0  0
 45 46  1  0  0  0  0
 47 37  1  0  0  0  0
 47 48  1  6  0  0  0
 49 50  1  0  0  0  0
 51 52  1  0  0  0  0
M  END
>  <CHROM.1>
-144.88201601,130.17788879,-138.91492323,-153.28630951,80.01380595,-169.77254150
177.28076100,-125.91776597,-175.35681586,139.80972267,118.15709633,170.49724560
21.04174898,-5.01834094,15.77769097,-3.11542061,-0.71952686,-2.37684312

>  <Name>
2esj_lig

>  <RI>
0

>  <Rbt.Current_Directory>
/home/itssahil/PROJECTS/Mol_Feturizer/New_Systems/rnas/2esj

>  <Rbt.Executable>
rbdock ($Id: //depot/dev/client3/rdock/2013.1/src/exe/rbdock.cxx#4 $)

>  <Rbt.Library>
libRbt.so (2013.1, Build901 2013/11/27)

>  <Rbt.Parameter_File>
/export/apps/rDock/src/rDock_2013.1_src/data/scripts/dock_solv.prm

>  <Rbt.Receptor>
prm/pocket_docking_2.prm

>  <SCORE>
-4.87262

>  <SCORE.INTER>
-12.7933

>  <SCORE.INTER.CONST>
1

>  <SCORE.INTER.POLAR>
-0.979796

>  <SCORE.INTER.ROT>
12

>  <SCORE.INTER.SOLV>
15.0575

>  <SCORE.INTER.VDW>
-21.8821

>  <SCORE.INTER.norm>
-0.246026

>  <SCORE.INTRA>
6.74558

>  <SCORE.INTRA.DIHEDRAL>
6.3317

>  <SCORE.INTRA.DIHEDRAL.0>
32.9766

>  <SCORE.INTRA.POLAR>
0

>  <SCORE.INTRA.POLAR.0>
0

>  <SCORE.INTRA.REPUL>
0

>  <SCORE.INTRA.REPUL.0>
0

>  <SCORE.INTRA.SOLV>
2.96714

>  <SCORE.INTRA.SOLV.lig_0>
-114.358

>  <SCORE.INTRA.VDW>
2.09615

>  <SCORE.INTRA.VDW.0>
-8.24257

>  <SCORE.INTRA.norm>
0.129723

>  <SCORE.RESTR>
1.17515

>  <SCORE.RESTR.CAVITY>
1.17515

>  <SCORE.RESTR.norm>
0.022599

>  <SCORE.SYSTEM>
0

>  <SCORE.SYSTEM.CONST>
0

>  <SCORE.SYSTEM.DIHEDRAL>
0

>  <SCORE.SYSTEM.SOLV>
0

>  <SCORE.SYSTEM.norm>
0

>  <SCORE.heavy>
52

>  <SCORE.norm>
-0.0937042

>  <RMSD>
2.383

$$$$
2esj_lig
 OpenBabel11021811423D
libRbt.so/2013.1/901 2013/11/27
 52 56  0  0  0  0  0  0  0  0999 V2000
   17.0690   -6.6815   19.2616 C   0  0  2  0  0  0  0  0  0  0  0  0
   17.2686   -8.0282   19.7321 O   0  0  0  0  0  0  0  0  0  0  0  0
   18.6981  -11.6722   18.0100 C   0  0  2  0  0  0  0  0  0  0  0  0
   18.8502  -12.9158   17.2369 N   0  0  0  0  0  0  0  0  0  0  0  0
   19.5565   -7.3481   16.4721 C   0  0  1  0  0  0  0  0  0  0  0  0
   21.5956   -5.6190   13.6003 C   0  0  1  0  0  0  0  0  0  0  0  0
   25.5909   -3.0353   11.8694 C   0  0  1  0  0  0  0  0  0  0  0  0
   17.4994   -5.7168   20.4058 C   0  0  2  0  0  0  0  0  0  0  0  0
   18.8789   -5.9467   20.8340 N   0  0  0  0  0  0  0  0  0  0  0  0
   17.3826  -11.7266   18.8841 C   0  0  0  0  0  0  0  0  0  0  0  0
   19.1942   -6.2192   15.5063 C   0  0  2  0  0  0  0  0  0  0  0  0
   18.9893   -6.6930   14.1576 O   0  0  0  0  0  0  0  0  0  0  0  0
   22.8865   -6.4367   13.1464 C   0  0  2  0  0  0  0  0  0  0  0  0
   24.0448   -6.1410   14.0307 N   0  0  0  0  0  0  0  0  0  0  0  0
   26.8067   -3.5612   12.6236 C   0  0  1  0  0  0  0  0  0  0  0  0
   27.9947   -2.9289   12.1064 O   0  0  0  0  0  0  0  0  0  0  0  0
   16.5370   -5.8395   21.6297 C   0  0  0  0  0  0  0  0  0  0  0  0
   17.2673  -10.4089   19.7513 C   0  0  2  0  0  0  0  0  0  0  0  0
   16.0460  -10.4282   20.5629 N   0  0  0  0  0  0  0  0  0  0  0  0
   20.3886   -5.3243   15.6705 C   0  0  2  0  0  0  0  0  0  0  0  0
   21.4931   -5.8452   14.9754 O   0  0  0  0  0  0  0  0  0  0  0  0
   23.1416   -6.1813   11.5957 C   0  0  1  0  0  0  0  0  0  0  0  0
   21.9310   -6.4434   10.8784 O   0  0  0  0  0  0  0  0  0  0  0  0
   26.7792   -3.3483   14.1323 C   0  0  1  0  0  0  0  0  0  0  0  0
   28.0796   -3.6813   14.6307 O   0  0  0  0  0  0  0  0  0  0  0  0
   15.0744   -5.6140   21.1442 C   0  0  2  0  0  0  0  0  0  0  0  0
   14.1533   -5.6353   22.2199 O   0  0  0  0  0  0  0  0  0  0  0  0
   17.2889   -9.1562   18.8374 C   0  0  2  0  0  0  0  0  0  0  0  0
   20.7965   -5.4319   17.1542 C   0  0  2  0  0  0  0  0  0  0  0  0
   20.3882   -6.7518   17.4771 O   0  0  0  0  0  0  0  0  0  0  0  0
   23.4928   -4.6634   11.3096 C   0  0  2  0  0  0  0  0  0  0  0  0
   24.7189   -4.4478   12.0101 O   0  0  0  0  0  0  0  0  0  0  0  0
   26.4284   -1.9183   14.5469 C   0  0  2  0  0  0  0  0  0  0  0  0
   26.1369   -1.9518   15.9535 O   0  0  0  0  0  0  0  0  0  0  0  0
   14.7400   -6.6939   20.0855 C   0  0  2  0  0  0  0  0  0  0  0  0
   15.6616   -6.5093   18.9730 O   0  0  0  0  0  0  0  0  0  0  0  0
   18.5055   -9.0994   17.8588 C   0  0  2  0  0  0  0  0  0  0  0  0
   18.3860   -7.9299   17.0018 O   0  0  0  0  0  0  0  0  0  0  0  0
   20.1324   -4.4474   18.1162 C   0  0  0  0  0  0  0  0  0  0  0  0
   20.4526   -3.1222   17.6679 O   0  0  0  0  0  0  0  0  0  0  0  0
   22.4494   -3.8535   12.0552 C   0  0  1  0  0  0  0  0  0  0  0  0
   21.7594   -4.1425   13.2901 O   0  0  0  0  0  0  0  0  0  0  0  0
   25.3066   -1.3461   13.6874 C   0  0  2  0  0  0  0  0  0  0  0  0
   25.1506   -1.7287   12.3122 O   0  0  0  0  0  0  0  0  0  0  0  0
   13.3719   -6.5462   19.5119 C   0  0  0  0  0  0  0  0  0  0  0  0
   12.4519   -6.8670   20.5272 O   0  0  0  0  0  0  0  0  0  0  0  0
   18.6307  -10.4329   17.0473 C   0  0  1  0  0  0  0  0  0  0  0  0
   19.8835  -10.3742   16.3150 O   0  0  0  0  0  0  0  0  0  0  0  0
   22.5003   -2.3072   11.8578 C   0  0  0  0  0  0  0  0  0  0  0  0
   21.4970   -1.8055   10.8954 N   0  0  0  0  0  0  0  0  0  0  0  0
   24.7564    0.0668   13.8684 C   0  0  0  0  0  0  0  0  0  0  0  0
   23.3098    0.0239   13.9876 O   0  0  0  0  0  0  0  0  0  0  0  0
  1  2  1  1  0  0  0
  1  8  1  0  0  0  0
  1 36  1  0  0  0  0
  3  4  1  6  0  0  0
  3 10  1  0  0  0  0
  3 47  1  0  0  0  0
  5 11  1  0  0  0  0
  5 30  1  0  0  0  0
  5 38  1  1  0  0  0
  6 21  1  1  0  0  0
  6 42  1  0  0  0  0
  7 15  1  0  0  0  0
  7 44  1  0  0  0  0
  7 32  1  1  0  0  0
  8  9  1  1  0  0  0
  8 17  1  0  0  0  0
 11 12  1  6  0  0  0
 11 20  1  0  0  0  0
 13  6  1  0  0  0  0
 13 14  1  1  0  0  0
 15 16  1  6  0  0  0
 15 24  1  0  0  0  0
 17 26  1  0  0  0  0
 18 10  1  0  0  0  0
 18 19  1  6  0  0  0
 20 21  1  6  0  0  0
 20 29  1  0  0  0  0
 22 13  1  0  0  0  0
 22 23  1  6  0  0  0
 24 25  1  6  0  0  0
 24 33  1  0  0  0  0
 26 27  1  1  0  0  0
 26 35  1  0  0  0  0
 28  2  1  1  0  0  0
 28 18  1  0  0  0  0
 29 30  1  0  0  0  0
 29 39  1  1  0  0  0
 31 22  1  0  0  0  0
 31 32  1  1  0  0  0
 31 41  1  0  0  0  0
 33 34  1  1  0  0  0
 33 43  1  0  0  0  0
 35 36  1  0  0  0  0
 35 45  1  6  0  0  0
 37 28  1  0  0  0  0
 37 38  1  6  0  0  0
 39 40  1  0  0  0  0
 41 42  1  0  0  0  0
 41 49  1  1  0  0  0
 43 44  1  0  0  0  0
 43 51  1  6  0  0  0
 45 46  1  0  0  0  0
 47 37  1  0  0  0  0
 47 48  1  1  0  0  0
 49 50  1  0  0  0  0
 51 52  1  0  0  0  0
M  END
>  <CHROM.1>
-164.38811962,174.89105862,-175.80188795,-170.80897759,81.40392424,-170.05013392
-58.96400981,172.75030604,-69.26966124,152.99212942,100.63003964,-128.40870006
20.61614543,-5.74687743,16.09530065,2.87287929,-0.73111197,-2.88481716

>  <Name>
2esj_lig

>  <RI>
1.01272e+07

>  <Rbt.Current_Directory>
/home/itssahil/PROJECTS/Mol_Feturizer/New_Systems/rnas/2esj

>  <Rbt.Executable>
rbdock ($Id: //depot/dev/client3/rdock/2013.1/src/exe/rbdock.cxx#4 $)

>  <Rbt.Library>
libRbt.so (2013.1, Build901 2013/11/27)

>  <Rbt.Parameter_File>
/export/apps/rDock/src/rDock_2013.1_src/data/scripts/dock_solv.prm

>  <Rbt.Receptor>
prm/pocket_docking_3.prm

>  <SCORE>
-24.9584

>  <SCORE.INTER>
-16.496

>  <SCORE.INTER.CONST>
1

>  <SCORE.INTER.POLAR>
-1.22685

>  <SCORE.INTER.ROT>
12

>  <SCORE.INTER.SOLV>
18.5207

>  <SCORE.INTER.VDW>
-24.6814

>  <SCORE.INTER.norm>
-0.31723

>  <SCORE.INTRA>
-8.48403

>  <SCORE.INTRA.DIHEDRAL>
-18.6242

>  <SCORE.INTRA.DIHEDRAL.0>
32.9766

>  <SCORE.INTRA.POLAR>
0

>  <SCORE.INTRA.POLAR.0>
0

>  <SCORE.INTRA.REPUL>
0

>  <SCORE.INTRA.REPUL.0>
0

>  <SCORE.INTRA.SOLV>
-1.98834

>  <SCORE.INTRA.SOLV.lig_0>
-114.358

>  <SCORE.INTRA.VDW>
1.82224

>  <SCORE.INTRA.VDW.0>
-8.24257

>  <SCORE.INTRA.norm>
-0.163154

>  <SCORE.RESTR>
0.0215962

>  <SCORE.RESTR.CAVITY>
0.0215962

>  <SCORE.RESTR.norm>
0.000415311

>  <SCORE.SYSTEM>
0

>  <SCORE.SYSTEM.CONST>
0

>  <SCORE.SYSTEM.DIHEDRAL>
0

>  <SCORE.SYSTEM.SOLV>
0

>  <SCORE.SYSTEM.norm>
0

>  <SCORE.heavy>
52

>  <SCORE.norm>
-0.479969

>  <RMSD>
2.412

$$$$
2esj_lig
 OpenBabel11021811423D
libRbt.so/2013.1/901 2013/11/27
 52 56  0  0  0  0  0  0  0  0999 V2000
   18.2521   -7.6731   19.0927 C   0  0  2  0  0  0  0  0  0  0  0  0
   17.6743   -7.8272   17.7823 O   0  0  0  0  0  0  0  0  0  0  0  0
   20.0884  -10.9712   16.1775 C   0  0  2  0  0  0  0  0  0  0  0  0
   20.5943  -12.1390   15.4374 N   0  0  0  0  0  0  0  0  0  0  0  0
   19.7838   -6.7360   14.3916 C   0  0  1  0  0  0  0  0  0  0  0  0
   22.1444   -4.2221   11.9915 C   0  0  1  0  0  0  0  0  0  0  0  0
   27.1749   -3.8831   13.2689 C   0  0  1  0  0  0  0  0  0  0  0  0
   17.3539   -6.6793   19.8869 C   0  0  2  0  0  0  0  0  0  0  0  0
   15.9618   -7.1230   19.9528 N   0  0  0  0  0  0  0  0  0  0  0  0
   18.8148  -11.3678   17.0248 C   0  0  0  0  0  0  0  0  0  0  0  0
   19.2246   -6.1968   13.0744 C   0  0  2  0  0  0  0  0  0  0  0  0
   19.3752   -7.1351   11.9871 O   0  0  0  0  0  0  0  0  0  0  0  0
   23.5322   -4.9244   11.6424 C   0  0  2  0  0  0  0  0  0  0  0  0
   24.0116   -5.7553   12.7786 N   0  0  0  0  0  0  0  0  0  0  0  0
   27.1254   -4.8798   14.4212 C   0  0  1  0  0  0  0  0  0  0  0  0
   28.1529   -5.8733   14.2324 O   0  0  0  0  0  0  0  0  0  0  0  0
   17.4251   -5.2471   19.2680 C   0  0  0  0  0  0  0  0  0  0  0  0
   18.3217  -10.1171   17.8579 C   0  0  2  0  0  0  0  0  0  0  0  0
   17.1306  -10.4553   18.6440 N   0  0  0  0  0  0  0  0  0  0  0  0
   20.0375   -4.9435   12.9242 C   0  0  2  0  0  0  0  0  0  0  0  0
   21.3375   -5.2495   12.4876 O   0  0  0  0  0  0  0  0  0  0  0  0
   24.5595   -3.8173   11.1382 C   0  0  1  0  0  0  0  0  0  0  0  0
   23.9442   -3.0571   10.0931 O   0  0  0  0  0  0  0  0  0  0  0  0
   27.3020   -4.2783   15.8102 C   0  0  1  0  0  0  0  0  0  0  0  0
   27.4649   -5.3673   16.7256 O   0  0  0  0  0  0  0  0  0  0  0  0
   18.9171   -4.8076   19.1873 C   0  0  2  0  0  0  0  0  0  0  0  0
   19.0504   -3.4826   18.7049 O   0  0  0  0  0  0  0  0  0  0  0  0
   18.0252   -8.9219   16.9152 C   0  0  2  0  0  0  0  0  0  0  0  0
   20.2420   -4.3987   14.3529 C   0  0  2  0  0  0  0  0  0  0  0  0
   20.2311   -5.5882   15.1262 O   0  0  0  0  0  0  0  0  0  0  0  0
   24.8994   -2.7786   12.2848 C   0  0  2  0  0  0  0  0  0  0  0  0
   25.5401   -3.5633   13.2919 O   0  0  0  0  0  0  0  0  0  0  0  0
   28.5008   -3.3352   15.9259 C   0  0  2  0  0  0  0  0  0  0  0  0
   28.3522   -2.6223   17.1646 O   0  0  0  0  0  0  0  0  0  0  0  0
   19.6759   -5.8193   18.2930 C   0  0  2  0  0  0  0  0  0  0  0  0
   19.5810   -7.1221   18.9369 O   0  0  0  0  0  0  0  0  0  0  0  0
   19.2058   -8.5518   15.9612 C   0  0  2  0  0  0  0  0  0  0  0  0
   18.7949   -7.4742   15.0744 O   0  0  0  0  0  0  0  0  0  0  0  0
   19.1700   -3.4443   14.8777 C   0  0  0  0  0  0  0  0  0  0  0  0
   19.5929   -2.9881   16.1710 O   0  0  0  0  0  0  0  0  0  0  0  0
   23.5641   -2.3684   12.8756 C   0  0  1  0  0  0  0  0  0  0  0  0
   22.3426   -3.1244   13.0206 O   0  0  0  0  0  0  0  0  0  0  0  0
   28.6287   -2.4400   14.6984 C   0  0  2  0  0  0  0  0  0  0  0  0
   28.2259   -2.8951   13.3974 O   0  0  0  0  0  0  0  0  0  0  0  0
   21.1328   -5.5232   18.1819 C   0  0  0  0  0  0  0  0  0  0  0  0
   21.2709   -4.3841   17.3673 O   0  0  0  0  0  0  0  0  0  0  0  0
   19.7113   -9.8140   15.1844 C   0  0  1  0  0  0  0  0  0  0  0  0
   20.9198   -9.4280   14.4773 O   0  0  0  0  0  0  0  0  0  0  0  0
   23.6018   -1.2593   13.9716 C   0  0  0  0  0  0  0  0  0  0  0  0
   24.8517   -1.2566   14.7605 N   0  0  0  0  0  0  0  0  0  0  0  0
   29.7402   -1.4062   14.5335 C   0  0  0  0  0  0  0  0  0  0  0  0
   31.0331   -2.0671   14.5142 O   0  0  0  0  0  0  0  0  0  0  0  0
  1  2  1  6  0  0  0
  1  8  1  0  0  0  0
  1 36  1  0  0  0  0
  3  4  1  6  0  0  0
  3 10  1  0  0  0  0
  3 47  1  0  0  0  0
  5 11  1  0  0  0  0
  5 30  1  0  0  0  0
  5 38  1  1  0  0  0
  6 21  1  1  0  0  0
  6 42  1  0  0  0  0
  7 15  1  0  0  0  0
  7 44  1  0  0  0  0
  7 32  1  1  0  0  0
  8  9  1  6  0  0  0
  8 17  1  0  0  0  0
 11 12  1  6  0  0  0
 11 20  1  0  0  0  0
 13  6  1  0  0  0  0
 13 14  1  1  0  0  0
 15 16  1  6  0  0  0
 15 24  1  0  0  0  0
 17 26  1  0  0  0  0
 18 10  1  0  0  0  0
 18 19  1  6  0  0  0
 20 21  1  1  0  0  0
 20 29  1  0  0  0  0
 22 13  1  0  0  0  0
 22 23  1  6  0  0  0
 24 25  1  1  0  0  0
 24 33  1  0  0  0  0
 26 27  1  6  0  0  0
 26 35  1  0  0  0  0
 28  2  1  1  0  0  0
 28 18  1  0  0  0  0
 29 30  1  0  0  0  0
 29 39  1  1  0  0  0
 31 22  1  0  0  0  0
 31 32  1  1  0  0  0
 31 41  1  0  0  0  0
 33 34  1  1  0  0  0
 33 43  1  0  0  0  0
 35 36  1  0  0  0  0
 35 45  1  1  0  0  0
 37 28  1  0  0  0  0
 37 38  1  6  0  0  0
 39 40  1  0  0  0  0
 41 42  1  0  0  0  0
 41 49  1  1  0  0  0
 43 44  1  0  0  0  0
 43 51  1  6  0  0  0
 45 46  1  0  0  0  0
 47 37  1  0  0  0  0
 47 48  1  1  0  0  0
 49 50  1  0  0  0  0
 51 52  1  0  0  0  0
M  END
>  <CHROM.1>
-163.09201173,151.61420823,178.36873157,-171.89676934,165.20047381,32.47086287
-176.11991671,85.98648339,-72.49487830,162.79362600,-29.92031302,62.13561070
22.18829775,-5.48039731,15.32609385,-2.84404751,-0.52991494,-1.63191938

>  <Name>
2esj_lig

>  <RI>
0

>  <Rbt.Current_Directory>
/home/itssahil/PROJECTS/Mol_Feturizer/New_Systems/rnas/2esj

>  <Rbt.Executable>
rbdock ($Id: //depot/dev/client3/rdock/2013.1/src/exe/rbdock.cxx#4 $)

>  <Rbt.Library>
libRbt.so (2013.1, Build901 2013/11/27)

>  <Rbt.Parameter_File>
/export/apps/rDock/src/rDock_2013.1_src/data/scripts/dock_solv.prm

>  <Rbt.Receptor>
prm/pocket_docking_2.prm

>  <SCORE>
-1.89999

>  <SCORE.INTER>
-0.439786

>  <SCORE.INTER.CONST>
1

>  <SCORE.INTER.POLAR>
-0.468201

>  <SCORE.INTER.ROT>
12

>  <SCORE.INTER.SOLV>
14.8915

>  <SCORE.INTER.VDW>
-15.2964

>  <SCORE.INTER.norm>
-0.00845742

>  <SCORE.INTRA>
-3.38603

>  <SCORE.INTRA.DIHEDRAL>
-14.2704

>  <SCORE.INTRA.DIHEDRAL.0>
32.9766

>  <SCORE.INTRA.POLAR>
0

>  <SCORE.INTRA.POLAR.0>
0

>  <SCORE.INTRA.REPUL>
0.0294281

>  <SCORE.INTRA.REPUL.0>
0

>  <SCORE.INTRA.SOLV>
2.82264

>  <SCORE.INTRA.SOLV.lig_0>
-114.358

>  <SCORE.INTRA.VDW>
2.1907

>  <SCORE.INTRA.VDW.0>
-8.24257

>  <SCORE.INTRA.norm>
-0.065116

>  <SCORE.RESTR>
1.92582

>  <SCORE.RESTR.CAVITY>
1.92582

>  <SCORE.RESTR.norm>
0.0370351

>  <SCORE.SYSTEM>
0

>  <SCORE.SYSTEM.CONST>
0

>  <SCORE.SYSTEM.DIHEDRAL>
0

>  <SCORE.SYSTEM.SOLV>
0

>  <SCORE.SYSTEM.norm>
0

>  <SCORE.heavy>
52

>  <SCORE.norm>
-0.0365383

>  <RMSD>
2.452

$$$$
2esj_lig
 OpenBabel11021811423D
libRbt.so/2013.1/901 2013/11/27
 52 56  0  0  0  0  0  0  0  0999 V2000
   18.0698   -7.6238   19.5257 C   0  0  2  0  0  0  0  0  0  0  0  0
   17.3152   -8.2363   18.4626 O   0  0  0  0  0  0  0  0  0  0  0  0
   19.8365  -11.5909   17.6394 C   0  0  2  0  0  0  0  0  0  0  0  0
   20.3878  -12.8765   17.1803 N   0  0  0  0  0  0  0  0  0  0  0  0
   19.4850   -7.5711   15.2093 C   0  0  1  0  0  0  0  0  0  0  0  0
   22.0065   -5.1494   12.9478 C   0  0  1  0  0  0  0  0  0  0  0  0
   27.0735   -4.0225   13.5440 C   0  0  1  0  0  0  0  0  0  0  0  0
   17.1908   -6.4901   20.1314 C   0  0  2  0  0  0  0  0  0  0  0  0
   15.8946   -6.9832   20.5960 N   0  0  0  0  0  0  0  0  0  0  0  0
   18.5391  -11.8294   18.5097 C   0  0  0  0  0  0  0  0  0  0  0  0
   19.7807   -7.9870   13.7678 C   0  0  2  0  0  0  0  0  0  0  0  0
   20.8319   -8.9737   13.6841 O   0  0  0  0  0  0  0  0  0  0  0  0
   23.4172   -5.6498   12.3995 C   0  0  2  0  0  0  0  0  0  0  0  0
   24.1657   -6.3918   13.4484 N   0  0  0  0  0  0  0  0  0  0  0  0
   27.3498   -4.9021   14.7578 C   0  0  1  0  0  0  0  0  0  0  0  0
   28.5165   -5.7095   14.5019 O   0  0  0  0  0  0  0  0  0  0  0  0
   16.9803   -5.3366   19.0997 C   0  0  0  0  0  0  0  0  0  0  0  0
   17.9958  -10.4428   19.0425 C   0  0  2  0  0  0  0  0  0  0  0  0
   16.7823  -10.6352   19.8433 N   0  0  0  0  0  0  0  0  0  0  0  0
   20.1338   -6.6576   13.1660 C   0  0  2  0  0  0  0  0  0  0  0  0
   21.4328   -6.2764   13.5423 O   0  0  0  0  0  0  0  0  0  0  0  0
   24.1943   -4.4126   11.7665 C   0  0  1  0  0  0  0  0  0  0  0  0
   23.3356   -3.7590   10.8262 O   0  0  0  0  0  0  0  0  0  0  0  0
   27.5731   -4.1541   16.0666 C   0  0  1  0  0  0  0  0  0  0  0  0
   28.0458   -5.1080   17.0242 O   0  0  0  0  0  0  0  0  0  0  0  0
   18.3724   -4.8453   18.6034 C   0  0  2  0  0  0  0  0  0  0  0  0
   18.2581   -3.7441   17.7201 O   0  0  0  0  0  0  0  0  0  0  0  0
   17.7151   -9.4809   17.8589 C   0  0  2  0  0  0  0  0  0  0  0  0
   19.2248   -5.6238   13.8621 C   0  0  2  0  0  0  0  0  0  0  0  0
   19.0360   -6.2105   15.1400 O   0  0  0  0  0  0  0  0  0  0  0  0
   24.5405   -3.3242   12.8641 C   0  0  2  0  0  0  0  0  0  0  0  0
   25.4222   -3.9988   13.7629 O   0  0  0  0  0  0  0  0  0  0  0  0
   28.5776   -3.0057   15.9568 C   0  0  2  0  0  0  0  0  0  0  0  0
   28.4451   -2.2202   17.1527 O   0  0  0  0  0  0  0  0  0  0  0  0
   19.1014   -6.0382   17.9366 C   0  0  2  0  0  0  0  0  0  0  0  0
   19.2762   -7.0632   18.9562 O   0  0  0  0  0  0  0  0  0  0  0  0
   18.9238   -9.2930   16.8870 C   0  0  2  0  0  0  0  0  0  0  0  0
   18.5285   -8.4368   15.7793 O   0  0  0  0  0  0  0  0  0  0  0  0
   17.8632   -5.3698   13.2161 C   0  0  0  0  0  0  0  0  0  0  0  0
   16.8704   -5.4660   14.2479 O   0  0  0  0  0  0  0  0  0  0  0  0
   23.2570   -3.1028   13.6412 C   0  0  1  0  0  0  0  0  0  0  0  0
   22.1889   -4.0240   13.9495 O   0  0  0  0  0  0  0  0  0  0  0  0
   28.3880   -2.2184   14.6650 C   0  0  2  0  0  0  0  0  0  0  0  0
   27.9270   -2.8553   13.4635 O   0  0  0  0  0  0  0  0  0  0  0  0
   20.4725   -5.6945   17.4629 C   0  0  0  0  0  0  0  0  0  0  0  0
   20.4155   -4.4029   16.9073 O   0  0  0  0  0  0  0  0  0  0  0  0
   19.4776  -10.6787   16.4121 C   0  0  1  0  0  0  0  0  0  0  0  0
   20.7048  -10.4224   15.6789 O   0  0  0  0  0  0  0  0  0  0  0  0
   23.2899   -1.9883   14.7319 C   0  0  0  0  0  0  0  0  0  0  0  0
   24.2798   -0.9261   14.4554 N   0  0  0  0  0  0  0  0  0  0  0  0
   29.2571   -1.0223   14.2832 C   0  0  0  0  0  0  0  0  0  0  0  0
   30.4974   -1.0498   15.0378 O   0  0  0  0  0  0  0  0  0  0  0  0
  1  2  1  6  0  0  0
  1  8  1  0  0  0  0
  1 36  1  0  0  0  0
  3  4  1  6  0  0  0
  3 10  1  0  0  0  0
  3 47  1  0  0  0  0
  5 11  1  0  0  0  0
  5 30  1  0  0  0  0
  5 38  1  6  0  0  0
  6 21  1  1  0  0  0
  6 42  1  0  0  0  0
  7 15  1  0  0  0  0
  7 44  1  0  0  0  0
  7 32  1  1  0  0  0
  8  9  1  6  0  0  0
  8 17  1  0  0  0  0
 11 12  1  1  0  0  0
 11 20  1  0  0  0  0
 13  6  1  0  0  0  0
 13 14  1  1  0  0  0
 15 16  1  6  0  0  0
 15 24  1  0  0  0  0
 17 26  1  0  0  0  0
 18 10  1  0  0  0  0
 18 19  1  6  0  0  0
 20 21  1  1  0  0  0
 20 29  1  0  0  0  0
 22 13  1  0  0  0  0
 22 23  1  6  0  0  0
 24 25  1  1  0  0  0
 24 33  1  0  0  0  0
 26 27  1  6  0  0  0
 26 35  1  0  0  0  0
 28  2  1  1  0  0  0
 28 18  1  0  0  0  0
 29 30  1  0  0  0  0
 29 39  1  6  0  0  0
 31 22  1  0  0  0  0
 31 32  1  1  0  0  0
 31 41  1  0  0  0  0
 33 34  1  1  0  0  0
 33 43  1  0  0  0  0
 35 36  1  0  0  0  0
 35 45  1  1  0  0  0
 37 28  1  0  0  0  0
 37 38  1  6  0  0  0
 39 40  1  0  0  0  0
 41 42  1  0  0  0  0
 41 49  1  1  0  0  0
 43 44  1  0  0  0  0
 43 51  1  6  0  0  0
 45 46  1  0  0  0  0
 47 37  1  0  0  0  0
 47 48  1  1  0  0  0
 49 50  1  0  0  0  0
 51 52  1  0  0  0  0
M  END
>  <CHROM.1>
-167.67680023,114.30319601,-127.65697970,-178.08737259,172.03575708,48.97194331
130.36947304,88.86342189,-39.88048319,146.55008418,26.73698962,19.49605295
21.89637414,-5.95084994,15.70247114,-2.53474155,-0.10691515,-0.70601079

>  <Name>
2esj_lig

>  <RI>
0

>  <Rbt.Current_Directory>
/home/itssahil/PROJECTS/Mol_Feturizer/New_Systems/rnas/2esj

>  <Rbt.Executable>
rbdock ($Id: //depot/dev/client3/rdock/2013.1/src/exe/rbdock.cxx#4 $)

>  <Rbt.Library>
libRbt.so (2013.1, Build901 2013/11/27)

>  <Rbt.Parameter_File>
/export/apps/rDock/src/rDock_2013.1_src/data/scripts/dock_solv.prm

>  <Rbt.Receptor>
prm/pocket_docking_2.prm

>  <SCORE>
4.70012

>  <SCORE.INTER>
-3.55038

>  <SCORE.INTER.CONST>
1

>  <SCORE.INTER.POLAR>
-0.978088

>  <SCORE.INTER.ROT>
12

>  <SCORE.INTER.SOLV>
15.0317

>  <SCORE.INTER.VDW>
-15.7172

>  <SCORE.INTER.norm>
-0.0682766

>  <SCORE.INTRA>
6.02039

>  <SCORE.INTRA.DIHEDRAL>
2.3651

>  <SCORE.INTRA.DIHEDRAL.0>
32.9766

>  <SCORE.INTRA.POLAR>
0

>  <SCORE.INTRA.POLAR.0>
0

>  <SCORE.INTRA.REPUL>
0

>  <SCORE.INTRA.REPUL.0>
0

>  <SCORE.INTRA.SOLV>
0.551189

>  <SCORE.INTRA.SOLV.lig_0>
-114.358

>  <SCORE.INTRA.VDW>
4.56225

>  <SCORE.INTRA.VDW.0>
-8.24257

>  <SCORE.INTRA.norm>
0.115777

>  <SCORE.RESTR>
2.23011

>  <SCORE.RESTR.CAVITY>
2.23011

>  <SCORE.RESTR.norm>
0.0428867

>  <SCORE.SYSTEM>
0

>  <SCORE.SYSTEM.CONST>
0

>  <SCORE.SYSTEM.DIHEDRAL>
0

>  <SCORE.SYSTEM.SOLV>
0

>  <SCORE.SYSTEM.norm>
0

>  <SCORE.heavy>
52

>  <SCORE.norm>
0.0903869

>  <RMSD>
2.538

$$$$
2esj_lig
 OpenBabel11021811423D
libRbt.so/2013.1/901 2013/11/27
 52 56  0  0  0  0  0  0  0  0999 V2000
   17.6128   -6.3512   18.1648 C   0  0  2  0  0  0  0  0  0  0  0  0
   18.3232   -7.5828   18.3955 O   0  0  0  0  0  0  0  0  0  0  0  0
   19.7207  -10.9056   16.0947 C   0  0  2  0  0  0  0  0  0  0  0  0
   19.8249  -12.1047   15.2469 N   0  0  0  0  0  0  0  0  0  0  0  0
   19.1234   -6.0834   15.3607 C   0  0  1  0  0  0  0  0  0  0  0  0
   21.9870   -4.0494   13.9785 C   0  0  1  0  0  0  0  0  0  0  0  0
   26.2222   -1.7509   15.9662 C   0  0  1  0  0  0  0  0  0  0  0  0
   18.2491   -5.2645   19.0810 C   0  0  2  0  0  0  0  0  0  0  0  0
   19.6858   -5.1177   18.8496 N   0  0  0  0  0  0  0  0  0  0  0  0
   18.8110  -11.2002   17.3529 C   0  0  0  0  0  0  0  0  0  0  0  0
   19.5918   -5.8603   13.9222 C   0  0  2  0  0  0  0  0  0  0  0  0
   20.8760   -6.4668   13.6610 O   0  0  0  0  0  0  0  0  0  0  0  0
   22.9610   -4.1961   15.2319 C   0  0  2  0  0  0  0  0  0  0  0  0
   22.7505   -3.0915   16.2046 N   0  0  0  0  0  0  0  0  0  0  0  0
   27.0483   -1.0267   14.9095 C   0  0  1  0  0  0  0  0  0  0  0  0
   27.8754   -0.0359   15.5519 O   0  0  0  0  0  0  0  0  0  0  0  0
   17.9844   -5.5809   20.5873 C   0  0  0  0  0  0  0  0  0  0  0  0
   18.7593   -9.9206   18.2810 C   0  0  2  0  0  0  0  0  0  0  0  0
   17.9090  -10.1634   19.4511 N   0  0  0  0  0  0  0  0  0  0  0  0
   19.5954   -4.3601   13.8648 C   0  0  2  0  0  0  0  0  0  0  0  0
   20.7200   -3.8447   14.5312 O   0  0  0  0  0  0  0  0  0  0  0  0
   24.4563   -4.3561   14.7087 C   0  0  1  0  0  0  0  0  0  0  0  0
   24.4969   -5.4071   13.7380 O   0  0  0  0  0  0  0  0  0  0  0  0
   27.9514   -1.9180   14.0655 C   0  0  1  0  0  0  0  0  0  0  0  0
   28.8089   -1.0565   13.3087 O   0  0  0  0  0  0  0  0  0  0  0  0
   16.4518   -5.7555   20.8029 C   0  0  2  0  0  0  0  0  0  0  0  0
   16.1328   -5.9691   22.1663 O   0  0  0  0  0  0  0  0  0  0  0  0
   18.2437   -8.6944   17.4837 C   0  0  2  0  0  0  0  0  0  0  0  0
   18.4048   -3.9011   14.7318 C   0  0  2  0  0  0  0  0  0  0  0  0
   18.3223   -4.9411   15.6934 O   0  0  0  0  0  0  0  0  0  0  0  0
   24.9477   -3.0526   13.9545 C   0  0  2  0  0  0  0  0  0  0  0  0
   24.9270   -2.0364   14.9581 O   0  0  0  0  0  0  0  0  0  0  0  0
   28.8036   -2.8867   14.8873 C   0  0  2  0  0  0  0  0  0  0  0  0
   29.3461   -3.8481   13.9674 O   0  0  0  0  0  0  0  0  0  0  0  0
   15.9643   -6.9257   19.9129 C   0  0  2  0  0  0  0  0  0  0  0  0
   16.2274   -6.5555   18.5292 O   0  0  0  0  0  0  0  0  0  0  0  0
   19.0262   -8.4171   16.1602 C   0  0  2  0  0  0  0  0  0  0  0  0
   18.4146   -7.2988   15.4589 O   0  0  0  0  0  0  0  0  0  0  0  0
   17.0590   -3.7612   14.0212 C   0  0  0  0  0  0  0  0  0  0  0  0
   16.3252   -4.9745   14.2424 O   0  0  0  0  0  0  0  0  0  0  0  0
   23.8351   -2.6941   12.9881 C   0  0  1  0  0  0  0  0  0  0  0  0
   22.4084   -2.8817   13.1056 O   0  0  0  0  0  0  0  0  0  0  0  0
   28.0069   -3.4971   16.0350 C   0  0  2  0  0  0  0  0  0  0  0  0
   26.9615   -2.7634   16.6911 O   0  0  0  0  0  0  0  0  0  0  0  0
   14.4939   -7.1548   20.0024 C   0  0  0  0  0  0  0  0  0  0  0  0
   13.8602   -5.9167   19.7882 O   0  0  0  0  0  0  0  0  0  0  0  0
   19.1088   -9.7099   15.2804 C   0  0  1  0  0  0  0  0  0  0  0  0
   20.0078   -9.4217   14.1767 O   0  0  0  0  0  0  0  0  0  0  0  0
   24.1069   -1.4916   12.0327 C   0  0  0  0  0  0  0  0  0  0  0  0
   25.4621   -1.5059   11.4428 N   0  0  0  0  0  0  0  0  0  0  0  0
   28.6045   -4.4920   17.0274 C   0  0  0  0  0  0  0  0  0  0  0  0
   27.7288   -4.6319   18.1773 O   0  0  0  0  0  0  0  0  0  0  0  0
  1  2  1  1  0  0  0
  1  8  1  0  0  0  0
  1 36  1  0  0  0  0
  3  4  1  6  0  0  0
  3 10  1  0  0  0  0
  3 47  1  0  0  0  0
  5 11  1  0  0  0  0
  5 30  1  0  0  0  0
  5 38  1  6  0  0  0
  6 21  1  1  0  0  0
  6 42  1  0  0  0  0
  7 15  1  0  0  0  0
  7 44  1  0  0  0  0
  7 32  1  6  0  0  0
  8  9  1  1  0  0  0
  8 17  1  0  0  0  0
 11 12  1  1  0  0  0
 11 20  1  0  0  0  0
 13  6  1  0  0  0  0
 13 14  1  1  0  0  0
 15 16  1  1  0  0  0
 15 24  1  0  0  0  0
 17 26  1  0  0  0  0
 18 10  1  0  0  0  0
 18 19  1  1  0  0  0
 20 21  1  1  0  0  0
 20 29  1  0  0  0  0
 22 13  1  0  0  0  0
 22 23  1  6  0  0  0
 24 25  1  1  0  0  0
 24 33  1  0  0  0  0
 26 27  1  1  0  0  0
 26 35  1  0  0  0  0
 28  2  1  1  0  0  0
 28 18  1  0  0  0  0
 29 30  1  0  0  0  0
 29 39  1  6  0  0  0
 31 22  1  0  0  0  0
 31 32  1  1  0  0  0
 31 41  1  0  0  0  0
 33 34  1  6  0  0  0
 33 43  1  0  0  0  0
 35 36  1  0  0  0  0
 35 45  1  6  0  0  0
 37 28  1  0  0  0  0
 37 38  1  6  0  0  0
 39 40  1  0  0  0  0
 41 42  1  0  0  0  0
 41 49  1  1  0  0  0
 43 44  1  0  0  0  0
 43 51  1  1  0  0  0
 45 46  1  0  0  0  0
 47 37  1  0  0  0  0
 47 48  1  6  0  0  0
 49 50  1  0  0  0  0
 51 52  1  0  0  0  0
M  END
>  <CHROM.1>
-163.33119439,109.17055963,-146.35087973,76.14380594,68.61936256,-162.99082342
96.41848189,87.33930777,50.94383545,111.45954674,43.42721259,165.76599662
21.44488092,-5.22274463,16.04002476,-2.96852186,-0.54226321,-1.86544361

>  <Name>
2esj_lig

>  <RI>
0

>  <Rbt.Current_Directory>
/home/itssahil/PROJECTS/Mol_Feturizer/New_Systems/rnas/2esj

>  <Rbt.Executable>
rbdock ($Id: //depot/dev/client3/rdock/2013.1/src/exe/rbdock.cxx#4 $)

>  <Rbt.Library>
libRbt.so (2013.1, Build901 2013/11/27)

>  <Rbt.Parameter_File>
/export/apps/rDock/src/rDock_2013.1_src/data/scripts/dock_solv.prm

>  <Rbt.Receptor>
prm/pocket_docking_2.prm

>  <SCORE>
-5.77161

>  <SCORE.INTER>
-12.2715

>  <SCORE.INTER.CONST>
1

>  <SCORE.INTER.POLAR>
-2.04246

>  <SCORE.INTER.ROT>
12

>  <SCORE.INTER.SOLV>
13.8478

>  <SCORE.INTER.VDW>
-17.5887

>  <SCORE.INTER.norm>
-0.23599

>  <SCORE.INTRA>
3.03459

>  <SCORE.INTRA.DIHEDRAL>
0.717888

>  <SCORE.INTRA.DIHEDRAL.0>
32.9766

>  <SCORE.INTRA.POLAR>
0

>  <SCORE.INTRA.POLAR.0>
0

>  <SCORE.INTRA.REPUL>
0

>  <SCORE.INTRA.REPUL.0>
0

>  <SCORE.INTRA.SOLV>
0.547068

>  <SCORE.INTRA.SOLV.lig_0>
-114.358

>  <SCORE.INTRA.VDW>
2.40211

>  <SCORE.INTRA.VDW.0>
-8.24257

>  <SCORE.INTRA.norm>
0.0583575

>  <SCORE.RESTR>
3.46531

>  <SCORE.RESTR.CAVITY>
3.46531

>  <SCORE.RESTR.norm>
0.0666405

>  <SCORE.SYSTEM>
0

>  <SCORE.SYSTEM.CONST>
0

>  <SCORE.SYSTEM.DIHEDRAL>
0

>  <SCORE.SYSTEM.SOLV>
0

>  <SCORE.SYSTEM.norm>
0

>  <SCORE.heavy>
52

>  <SCORE.norm>
-0.110992

>  <RMSD>
2.585

$$$$
2esj_lig
 OpenBabel11021811423D
libRbt.so/2013.1/901 2013/11/27
 52 56  0  0  0  0  0  0  0  0999 V2000
   17.5542   -6.1661   17.8625 C   0  0  2  0  0  0  0  0  0  0  0  0
   18.3527   -7.3341   18.1326 O   0  0  0  0  0  0  0  0  0  0  0  0
   19.7691  -10.8377   16.1309 C   0  0  2  0  0  0  0  0  0  0  0  0
   19.8804  -12.1021   15.3851 N   0  0  0  0  0  0  0  0  0  0  0  0
   19.2641   -6.1561   14.8652 C   0  0  1  0  0  0  0  0  0  0  0  0
   21.0440   -2.6461   13.7734 C   0  0  1  0  0  0  0  0  0  0  0  0
   25.6178   -1.9220   15.7089 C   0  0  1  0  0  0  0  0  0  0  0  0
   18.1131   -5.0041   18.7357 C   0  0  2  0  0  0  0  0  0  0  0  0
   19.5346   -4.7622   18.4908 N   0  0  0  0  0  0  0  0  0  0  0  0
   18.8396  -11.0259   17.3950 C   0  0  0  0  0  0  0  0  0  0  0  0
   18.9326   -5.6704   13.4536 C   0  0  2  0  0  0  0  0  0  0  0  0
   19.7313   -6.3251   12.4443 O   0  0  0  0  0  0  0  0  0  0  0  0
   22.6019   -2.7036   13.4402 C   0  0  2  0  0  0  0  0  0  0  0  0
   23.2611   -3.8261   14.1587 N   0  0  0  0  0  0  0  0  0  0  0  0
   25.8965   -0.7158   16.5982 C   0  0  1  0  0  0  0  0  0  0  0  0
   27.1722   -0.8902   17.2467 O   0  0  0  0  0  0  0  0  0  0  0  0
   17.8770   -5.2846   20.2538 C   0  0  0  0  0  0  0  0  0  0  0  0
   18.7799   -9.6748   18.2152 C   0  0  2  0  0  0  0  0  0  0  0  0
   17.9114   -9.8188   19.3881 N   0  0  0  0  0  0  0  0  0  0  0  0
   19.2053   -4.2011   13.5984 C   0  0  2  0  0  0  0  0  0  0  0  0
   20.5884   -3.9534   13.5833 O   0  0  0  0  0  0  0  0  0  0  0  0
   23.2402   -1.2689   13.7037 C   0  0  1  0  0  0  0  0  0  0  0  0
   22.4705   -0.2848   13.0054 O   0  0  0  0  0  0  0  0  0  0  0  0
   25.9119    0.6302   15.8838 C   0  0  1  0  0  0  0  0  0  0  0  0
   26.4159    1.5966   16.8123 O   0  0  0  0  0  0  0  0  0  0  0  0
   16.3618   -5.5617   20.4845 C   0  0  2  0  0  0  0  0  0  0  0  0
   16.0635   -5.7488   21.8564 O   0  0  0  0  0  0  0  0  0  0  0  0
   18.2817   -8.5159   17.3131 C   0  0  2  0  0  0  0  0  0  0  0  0
   18.7753   -3.8307   15.0328 C   0  0  2  0  0  0  0  0  0  0  0  0
   19.0087   -5.0426   15.7326 O   0  0  0  0  0  0  0  0  0  0  0  0
   23.1600   -0.8727   15.2353 C   0  0  2  0  0  0  0  0  0  0  0  0
   23.9638   -1.8522   15.8948 O   0  0  0  0  0  0  0  0  0  0  0  0
   26.7713    0.6467   14.6184 C   0  0  2  0  0  0  0  0  0  0  0  0
   26.4400    1.8493   13.9053 O   0  0  0  0  0  0  0  0  0  0  0  0
   15.9574   -6.7952   19.6395 C   0  0  2  0  0  0  0  0  0  0  0  0
   16.1884   -6.4568   18.2420 O   0  0  0  0  0  0  0  0  0  0  0  0
   19.0849   -8.3498   15.9834 C   0  0  2  0  0  0  0  0  0  0  0  0
   18.4889   -7.2902   15.1844 O   0  0  0  0  0  0  0  0  0  0  0  0
   17.3176   -3.4113   15.2198 C   0  0  0  0  0  0  0  0  0  0  0  0
   16.4988   -4.5554   14.9368 O   0  0  0  0  0  0  0  0  0  0  0  0
   21.7332   -1.1630   15.6598 C   0  0  1  0  0  0  0  0  0  0  0  0
   20.8174   -2.1800   15.1998 O   0  0  0  0  0  0  0  0  0  0  0  0
   26.5964   -0.6321   13.8068 C   0  0  2  0  0  0  0  0  0  0  0  0
   26.3230   -1.8893   14.4444 O   0  0  0  0  0  0  0  0  0  0  0  0
   14.5078   -7.1266   19.7457 C   0  0  0  0  0  0  0  0  0  0  0  0
   13.7847   -6.0029   19.3045 O   0  0  0  0  0  0  0  0  0  0  0  0
   19.1747   -9.7101   15.2129 C   0  0  1  0  0  0  0  0  0  0  0  0
   20.0912   -9.5157   14.1032 O   0  0  0  0  0  0  0  0  0  0  0  0
   21.3476   -0.7614   17.1168 C   0  0  0  0  0  0  0  0  0  0  0  0
   21.7029   -1.7859   18.1212 N   0  0  0  0  0  0  0  0  0  0  0  0
   27.3393   -0.8971   12.4993 C   0  0  0  0  0  0  0  0  0  0  0  0
   26.4445   -1.5160   11.5375 O   0  0  0  0  0  0  0  0  0  0  0  0
  1  2  1  1  0  0  0
  1  8  1  0  0  0  0
  1 36  1  0  0  0  0
  3  4  1  6  0  0  0
  3 10  1  0  0  0  0
  3 47  1  0  0  0  0
  5 11  1  0  0  0  0
  5 30  1  0  0  0  0
  5 38  1  1  0  0  0
  6 21  1  1  0  0  0
  6 42  1  0  0  0  0
  7 15  1  0  0  0  0
  7 44  1  0  0  0  0
  7 32  1  6  0  0  0
  8  9  1  1  0  0  0
  8 17  1  0  0  0  0
 11 12  1  6  0  0  0
 11 20  1  0  0  0  0
 13  6  1  0  0  0  0
 13 14  1  1  0  0  0
 15 16  1  6  0  0  0
 15 24  1  0  0  0  0
 17 26  1  0  0  0  0
 18 10  1  0  0  0  0
 18 19  1  1  0  0  0
 20 21  1  1  0  0  0
 20 29  1  0  0  0  0
 22 13  1  0  0  0  0
 22 23  1  6  0  0  0
 24 25  1  1  0  0  0
 24 33  1  0  0  0  0
 26 27  1  1  0  0  0
 26 35  1  0  0  0  0
 28  2  1  1  0  0  0
 28 18  1  0  0  0  0
 29 30  1  0  0  0  0
 29 39  1  6  0  0  0
 31 22  1  0  0  0  0
 31 32  1  1  0  0  0
 31 41  1  0  0  0  0
 33 34  1  6  0  0  0
 33 43  1  0  0  0  0
 35 36  1  0  0  0  0
 35 45  1  6  0  0  0
 37 28  1  0  0  0  0
 37 38  1  6  0  0  0
 39 40  1  0  0  0  0
 41 42  1  0  0  0  0
 41 49  1  1  0  0  0
 43 44  1  0  0  0  0
 43 51  1  1  0  0  0
 45 46  1  0  0  0  0
 47 37  1  0  0  0  0
 47 48  1  6  0  0  0
 49 50  1  0  0  0  0
 51 52  1  0  0  0  0
M  END
>  <CHROM.1>
-167.72141081,143.49933359,-170.31722408,75.19664935,-176.84533226,-156.99481441
65.79494587,68.43985990,59.28521374,118.92075266,-84.43343082,-138.99798922
20.78055735,-4.37814403,16.03030777,2.76423150,-0.69605836,-2.54825390

>  <Name>
2esj_lig

>  <RI>
0

>  <Rbt.Current_Directory>
/home/itssahil/PROJECTS/Mol_Feturizer/New_Systems/rnas/2esj

>  <Rbt.Executable>
rbdock ($Id: //depot/dev/client3/rdock/2013.1/src/exe/rbdock.cxx#4 $)

>  <Rbt.Library>
libRbt.so (2013.1, Build901 2013/11/27)

>  <Rbt.Parameter_File>
/export/apps/rDock/src/rDock_2013.1_src/data/scripts/dock_solv.prm

>  <Rbt.Receptor>
prm/pocket_docking_4.prm

>  <SCORE>
-21.3171

>  <SCORE.INTER>
-18.681

>  <SCORE.INTER.CONST>
1

>  <SCORE.INTER.POLAR>
-2.18725

>  <SCORE.INTER.ROT>
12

>  <SCORE.INTER.SOLV>
16.6486

>  <SCORE.INTER.VDW>
-22.3127

>  <SCORE.INTER.norm>
-0.35925

>  <SCORE.INTRA>
-2.63614

>  <SCORE.INTRA.DIHEDRAL>
-9.59094

>  <SCORE.INTRA.DIHEDRAL.0>
32.9766

>  <SCORE.INTRA.POLAR>
0

>  <SCORE.INTRA.POLAR.0>
0

>  <SCORE.INTRA.REPUL>
0.00165144

>  <SCORE.INTRA.REPUL.0>
0

>  <SCORE.INTRA.SOLV>
2.34161

>  <SCORE.INTRA.SOLV.lig_0>
-114.358

>  <SCORE.INTRA.VDW>
0.980266

>  <SCORE.INTRA.VDW.0>
-8.24257

>  <SCORE.INTRA.norm>
-0.050695

>  <SCORE.RESTR>
0

>  <SCORE.RESTR.CAVITY>
0

>  <SCORE.RESTR.norm>
0

>  <SCORE.SYSTEM>
0

>  <SCORE.SYSTEM.CONST>
0

>  <SCORE.SYSTEM.DIHEDRAL>
0

>  <SCORE.SYSTEM.SOLV>
0

>  <SCORE.SYSTEM.norm>
0

>  <SCORE.heavy>
52

>  <SCORE.norm>
-0.409945

>  <RMSD>
2.606

$$$$
2esj_lig
 OpenBabel11021811423D
libRbt.so/2013.1/901 2013/11/27
 52 56  0  0  0  0  0  0  0  0999 V2000
   17.2625   -6.1919   19.1672 C   0  0  2  0  0  0  0  0  0  0  0  0
   17.6114   -7.5511   19.4922 O   0  0  0  0  0  0  0  0  0  0  0  0
   19.0914  -11.0125   17.4633 C   0  0  2  0  0  0  0  0  0  0  0  0
   19.2647  -12.1768   16.5793 N   0  0  0  0  0  0  0  0  0  0  0  0
   19.8856   -6.3107   16.7883 C   0  0  1  0  0  0  0  0  0  0  0  0
   22.7682   -3.4858   16.4190 C   0  0  1  0  0  0  0  0  0  0  0  0
   27.7517   -3.2310   16.0381 C   0  0  1  0  0  0  0  0  0  0  0  0
   17.6299   -5.3074   20.3951 C   0  0  2  0  0  0  0  0  0  0  0  0
   19.0385   -5.4353   20.7675 N   0  0  0  0  0  0  0  0  0  0  0  0
   17.7583  -11.1523   18.3004 C   0  0  0  0  0  0  0  0  0  0  0  0
   20.3344   -6.0583   15.3484 C   0  0  2  0  0  0  0  0  0  0  0  0
   21.2913   -7.0380   14.8903 O   0  0  0  0  0  0  0  0  0  0  0  0
   23.3726   -2.9403   15.0485 C   0  0  2  0  0  0  0  0  0  0  0  0
   24.1531   -3.9962   14.3507 N   0  0  0  0  0  0  0  0  0  0  0  0
   28.3600   -1.8341   16.0852 C   0  0  1  0  0  0  0  0  0  0  0  0
   29.3393   -1.7794   17.1418 O   0  0  0  0  0  0  0  0  0  0  0  0
   16.7243   -5.6508   21.6202 C   0  0  0  0  0  0  0  0  0  0  0  0
   17.6197   -9.9229   19.2859 C   0  0  2  0  0  0  0  0  0  0  0  0
   16.3818  -10.0217   20.0662 N   0  0  0  0  0  0  0  0  0  0  0  0
   20.8873   -4.6681   15.4735 C   0  0  2  0  0  0  0  0  0  0  0  0
   22.1529   -4.6947   16.0834 O   0  0  0  0  0  0  0  0  0  0  0  0
   24.1706   -1.5928   15.3354 C   0  0  1  0  0  0  0  0  0  0  0  0
   23.3223   -0.6989   16.0635 O   0  0  0  0  0  0  0  0  0  0  0  0
   29.0311   -1.3725   14.7973 C   0  0  1  0  0  0  0  0  0  0  0  0
   29.7386   -0.1645   15.0979 O   0  0  0  0  0  0  0  0  0  0  0  0
   15.2317   -5.5301   21.1920 C   0  0  2  0  0  0  0  0  0  0  0  0
   14.3521   -5.7540   22.2794 O   0  0  0  0  0  0  0  0  0  0  0  0
   17.6549   -8.5892   18.4954 C   0  0  2  0  0  0  0  0  0  0  0  0
   19.9919   -3.9481   16.5028 C   0  0  2  0  0  0  0  0  0  0  0  0
   19.5780   -5.0206   17.3345 O   0  0  0  0  0  0  0  0  0  0  0  0
   25.4259   -1.8509   16.2664 C   0  0  2  0  0  0  0  0  0  0  0  0
   26.2628   -2.7158   15.4969 O   0  0  0  0  0  0  0  0  0  0  0  0
   30.0033   -2.3959   14.2076 C   0  0  2  0  0  0  0  0  0  0  0  0
   30.3036   -1.9632   12.8707 O   0  0  0  0  0  0  0  0  0  0  0  0
   14.9739   -6.5273   20.0352 C   0  0  2  0  0  0  0  0  0  0  0  0
   15.8363   -6.1380   18.9282 O   0  0  0  0  0  0  0  0  0  0  0  0
   18.8912   -8.4373   17.5523 C   0  0  2  0  0  0  0  0  0  0  0  0
   18.7847   -7.1921   16.8076 O   0  0  0  0  0  0  0  0  0  0  0  0
   18.7600   -3.2317   15.9507 C   0  0  0  0  0  0  0  0  0  0  0  0
   18.3152   -2.3034   16.9508 O   0  0  0  0  0  0  0  0  0  0  0  0
   24.9156   -2.6958   17.4179 C   0  0  1  0  0  0  0  0  0  0  0  0
   23.8663   -3.6871   17.4470 O   0  0  0  0  0  0  0  0  0  0  0  0
   29.4471   -3.8125   14.2983 C   0  0  2  0  0  0  0  0  0  0  0  0
   28.5915   -4.2106   15.3806 O   0  0  0  0  0  0  0  0  0  0  0  0
   13.5803   -6.4650   19.5094 C   0  0  0  0  0  0  0  0  0  0  0  0
   12.7215   -6.8926   20.5389 O   0  0  0  0  0  0  0  0  0  0  0  0
   19.0388   -9.6876   16.6211 C   0  0  1  0  0  0  0  0  0  0  0  0
   20.3063   -9.5571   15.9241 O   0  0  0  0  0  0  0  0  0  0  0  0
   25.9383   -3.0131   18.5520 C   0  0  0  0  0  0  0  0  0  0  0  0
   26.1088   -4.4602   18.8001 N   0  0  0  0  0  0  0  0  0  0  0  0
   30.2059   -5.0391   13.7969 C   0  0  0  0  0  0  0  0  0  0  0  0
   29.2735   -6.0110   13.2540 O   0  0  0  0  0  0  0  0  0  0  0  0
  1  2  1  1  0  0  0
  1  8  1  0  0  0  0
  1 36  1  0  0  0  0
  3  4  1  6  0  0  0
  3 10  1  0  0  0  0
  3 47  1  0  0  0  0
  5 11  1  0  0  0  0
  5 30  1  0  0  0  0
  5 38  1  6  0  0  0
  6 21  1  6  0  0  0
  6 42  1  0  0  0  0
  7 15  1  0  0  0  0
  7 44  1  0  0  0  0
  7 32  1  6  0  0  0
  8  9  1  1  0  0  0
  8 17  1  0  0  0  0
 11 12  1  1  0  0  0
 11 20  1  0  0  0  0
 13  6  1  0  0  0  0
 13 14  1  1  0  0  0
 15 16  1  1  0  0  0
 15 24  1  0  0  0  0
 17 26  1  0  0  0  0
 18 10  1  0  0  0  0
 18 19  1  6  0  0  0
 20 21  1  1  0  0  0
 20 29  1  0  0  0  0
 22 13  1  0  0  0  0
 22 23  1  1  0  0  0
 24 25  1  1  0  0  0
 24 33  1  0  0  0  0
 26 27  1  1  0  0  0
 26 35  1  0  0  0  0
 28  2  1  1  0  0  0
 28 18  1  0  0  0  0
 29 30  1  0  0  0  0
 29 39  1  6  0  0  0
 31 22  1  0  0  0  0
 31 32  1  6  0  0  0
 31 41  1  0  0  0  0
 33 34  1  6  0  0  0
 33 43  1  0  0  0  0
 35 36  1  0  0  0  0
 35 45  1  6  0  0  0
 37 28  1  0  0  0  0
 37 38  1  6  0  0  0
 39 40  1  0  0  0  0
 41 42  1  0  0  0  0
 41 49  1  6  0  0  0
 43 44  1  0  0  0  0
 43 51  1  1  0  0  0
 45 46  1  0  0  0  0
 47 37  1  0  0  0  0
 47 48  1  1  0  0  0
 49 50  1  0  0  0  0
 51 52  1  0  0  0  0
M  END
>  <CHROM.1>
-167.38126879,121.95443603,-78.92537908,-62.97512738,-173.15374510,-162.67901635
-162.13739915,177.68085687,-65.30295602,129.52669412,-123.81900740,-145.30524431
21.81588403,-5.19474158,17.11331816,2.87126994,-0.42073071,-2.88776515

>  <Name>
2esj_lig

>  <RI>
1.01272e+07

>  <Rbt.Current_Directory>
/home/itssahil/PROJECTS/Mol_Feturizer/New_Systems/rnas/2esj

>  <Rbt.Executable>
rbdock ($Id: //depot/dev/client3/rdock/2013.1/src/exe/rbdock.cxx#4 $)

>  <Rbt.Library>
libRbt.so (2013.1, Build901 2013/11/27)

>  <Rbt.Parameter_File>
/export/apps/rDock/src/rDock_2013.1_src/data/scripts/dock_solv.prm

>  <Rbt.Receptor>
prm/pocket_docking_3.prm

>  <SCORE>
-13.2796

>  <SCORE.INTER>
-11.9174

>  <SCORE.INTER.CONST>
1

>  <SCORE.INTER.POLAR>
-0.979796

>  <SCORE.INTER.ROT>
12

>  <SCORE.INTER.SOLV>
16.3032

>  <SCORE.INTER.VDW>
-21.7134

>  <SCORE.INTER.norm>
-0.229181

>  <SCORE.INTRA>
-1.36224

>  <SCORE.INTRA.DIHEDRAL>
-7.6635

>  <SCORE.INTRA.DIHEDRAL.0>
32.9766

>  <SCORE.INTRA.POLAR>
0

>  <SCORE.INTRA.POLAR.0>
0

>  <SCORE.INTRA.REPUL>
0

>  <SCORE.INTRA.REPUL.0>
0

>  <SCORE.INTRA.SOLV>
-1.38048

>  <SCORE.INTRA.SOLV.lig_0>
-114.358

>  <SCORE.INTRA.VDW>
3.15975

>  <SCORE.INTRA.VDW.0>
-8.24257

>  <SCORE.INTRA.norm>
-0.0261969

>  <SCORE.RESTR>
0

>  <SCORE.RESTR.CAVITY>
0

>  <SCORE.RESTR.norm>
0

>  <SCORE.SYSTEM>
0

>  <SCORE.SYSTEM.CONST>
0

>  <SCORE.SYSTEM.DIHEDRAL>
0

>  <SCORE.SYSTEM.SOLV>
0

>  <SCORE.SYSTEM.norm>
0

>  <SCORE.heavy>
52

>  <SCORE.norm>
-0.255378

>  <RMSD>
2.620

$$$$
2esj_lig
 OpenBabel11021811423D
libRbt.so/2013.1/901 2013/11/27
 52 56  0  0  0  0  0  0  0  0999 V2000
   17.8405   -5.9618   17.6578 C   0  0  2  0  0  0  0  0  0  0  0  0
   18.7325   -7.0835   17.8032 O   0  0  0  0  0  0  0  0  0  0  0  0
   20.1413  -10.3911   15.4875 C   0  0  2  0  0  0  0  0  0  0  0  0
   20.2521  -11.6202   14.6848 N   0  0  0  0  0  0  0  0  0  0  0  0
   19.1022   -5.9004   14.1981 C   0  0  1  0  0  0  0  0  0  0  0  0
   20.4055   -2.6474   11.8874 C   0  0  1  0  0  0  0  0  0  0  0  0
   24.8999   -0.5188   13.4792 C   0  0  1  0  0  0  0  0  0  0  0  0
   18.3931   -4.8058   18.5427 C   0  0  2  0  0  0  0  0  0  0  0  0
   19.7709   -4.4557   18.1987 N   0  0  0  0  0  0  0  0  0  0  0  0
   19.4221  -10.6956   16.8614 C   0  0  0  0  0  0  0  0  0  0  0  0
   18.3333   -5.5144   12.9339 C   0  0  2  0  0  0  0  0  0  0  0  0
   18.7243   -6.3033   11.7893 O   0  0  0  0  0  0  0  0  0  0  0  0
   21.9685   -2.8006   11.6141 C   0  0  2  0  0  0  0  0  0  0  0  0
   22.6542   -3.4322   12.7724 N   0  0  0  0  0  0  0  0  0  0  0  0
   25.3223   -1.6784   12.5845 C   0  0  1  0  0  0  0  0  0  0  0  0
   26.5207   -1.3138   11.8708 O   0  0  0  0  0  0  0  0  0  0  0  0
   18.3018   -5.1715   20.0583 C   0  0  0  0  0  0  0  0  0  0  0  0
   19.3654   -9.3775   17.7338 C   0  0  2  0  0  0  0  0  0  0  0  0
   18.6895   -9.6301   19.0105 N   0  0  0  0  0  0  0  0  0  0  0  0
   18.6890   -4.0595   12.8304 C   0  0  2  0  0  0  0  0  0  0  0  0
   19.9945   -3.9061   12.3338 O   0  0  0  0  0  0  0  0  0  0  0  0
   22.5569   -1.3887   11.1720 C   0  0  1  0  0  0  0  0  0  0  0  0
   21.7650   -0.8736   10.0968 O   0  0  0  0  0  0  0  0  0  0  0  0
   25.5863   -2.9946   13.3058 C   0  0  1  0  0  0  0  0  0  0  0  0
   26.1909   -3.8824   12.3590 O   0  0  0  0  0  0  0  0  0  0  0  0
   16.8320   -5.5624   20.3938 C   0  0  2  0  0  0  0  0  0  0  0  0
   16.6607   -5.8326   21.7736 O   0  0  0  0  0  0  0  0  0  0  0  0
   18.6459   -8.2448   16.9565 C   0  0  2  0  0  0  0  0  0  0  0  0
   18.7780   -3.5419   14.2808 C   0  0  2  0  0  0  0  0  0  0  0  0
   19.1908   -4.7033   14.9833 O   0  0  0  0  0  0  0  0  0  0  0  0
   22.4444   -0.3240   12.3395 C   0  0  2  0  0  0  0  0  0  0  0  0
   23.2708   -0.8521   13.3781 O   0  0  0  0  0  0  0  0  0  0  0  0
   26.4987   -2.8568   14.5258 C   0  0  2  0  0  0  0  0  0  0  0  0
   26.3981   -4.0863   15.2626 O   0  0  0  0  0  0  0  0  0  0  0  0
   16.4399   -6.7805   19.5211 C   0  0  2  0  0  0  0  0  0  0  0  0
   16.5324   -6.3629   18.1290 O   0  0  0  0  0  0  0  0  0  0  0  0
   19.2331   -7.9720   15.5346 C   0  0  2  0  0  0  0  0  0  0  0  0
   18.4404   -6.9497   14.8690 O   0  0  0  0  0  0  0  0  0  0  0  0
   17.4828   -3.0125   14.8956 C   0  0  0  0  0  0  0  0  0  0  0  0
   17.8011   -2.4962   16.1963 O   0  0  0  0  0  0  0  0  0  0  0  0
   21.0224   -0.4305   12.8560 C   0  0  1  0  0  0  0  0  0  0  0  0
   20.1458   -1.5754   12.9297 O   0  0  0  0  0  0  0  0  0  0  0  0
   26.1633   -1.6102   15.3371 C   0  0  2  0  0  0  0  0  0  0  0  0
   25.6628   -0.4214   14.7062 O   0  0  0  0  0  0  0  0  0  0  0  0
   15.0285   -7.2152   19.7247 C   0  0  0  0  0  0  0  0  0  0  0  0
   14.9175   -7.6821   21.0475 O   0  0  0  0  0  0  0  0  0  0  0  0
   19.3274   -9.2979   14.7067 C   0  0  1  0  0  0  0  0  0  0  0  0
   20.0554   -8.9924   13.4877 O   0  0  0  0  0  0  0  0  0  0  0  0
   20.6055    0.5934   13.9562 C   0  0  0  0  0  0  0  0  0  0  0  0
   20.8559    0.1116   15.3309 N   0  0  0  0  0  0  0  0  0  0  0  0
   26.9183   -1.2123   16.6033 C   0  0  0  0  0  0  0  0  0  0  0  0
   26.1861   -0.1781   17.3126 O   0  0  0  0  0  0  0  0  0  0  0  0
  1  2  1  1  0  0  0
  1  8  1  0  0  0  0
  1 36  1  0  0  0  0
  3  4  1  6  0  0  0
  3 10  1  0  0  0  0
  3 47  1  0  0  0  0
  5 11  1  0  0  0  0
  5 30  1  0  0  0  0
  5 38  1  1  0  0  0
  6 21  1  1  0  0  0
  6 42  1  0  0  0  0
  7 15  1  0  0  0  0
  7 44  1  0  0  0  0
  7 32  1  1  0  0  0
  8  9  1  6  0  0  0
  8 17  1  0  0  0  0
 11 12  1  6  0  0  0
 11 20  1  0  0  0  0
 13  6  1  0  0  0  0
 13 14  1  1  0  0  0
 15 16  1  1  0  0  0
 15 24  1  0  0  0  0
 17 26  1  0  0  0  0
 18 10  1  0  0  0  0
 18 19  1  1  0  0  0
 20 21  1  1  0  0  0
 20 29  1  0  0  0  0
 22 13  1  0  0  0  0
 22 23  1  6  0  0  0
 24 25  1  6  0  0  0
 24 33  1  0  0  0  0
 26 27  1  1  0  0  0
 26 35  1  0  0  0  0
 28  2  1  1  0  0  0
 28 18  1  0  0  0  0
 29 30  1  0  0  0  0
 29 39  1  1  0  0  0
 31 22  1  0  0  0  0
 31 32  1  1  0  0  0
 31 41  1  0  0  0  0
 33 34  1  1  0  0  0
 33 43  1  0  0  0  0
 35 36  1  0  0  0  0
 35 45  1  1  0  0  0
 37 28  1  0  0  0  0
 37 38  1  6  0  0  0
 39 40  1  0  0  0  0
 41 42  1  0  0  0  0
 41 49  1  1  0  0  0
 43 44  1  0  0  0  0
 43 51  1  6  0  0  0
 45 46  1  0  0  0  0
 47 37  1  0  0  0  0
 47 48  1  6  0  0  0
 49 50  1  0  0  0  0
 51 52  1  0  0  0  0
M  END
>  <CHROM.1>
-169.52694165,143.77990579,171.74637164,-87.96607739,165.97151070,-159.55644533
-175.87183484,88.43596687,-65.33073097,134.43814540,-90.29891682,-166.78367271
20.68623201,-4.47630992,15.24042381,2.96153975,-0.84422194,-2.47346494

>  <Name>
2esj_lig

>  <RI>
1.62275e+07

>  <Rbt.Current_Directory>
/home/itssahil/PROJECTS/Mol_Feturizer/New_Systems/rnas/2esj

>  <Rbt.Executable>
rbdock ($Id: //depot/dev/client3/rdock/2013.1/src/exe/rbdock.cxx#4 $)

>  <Rbt.Library>
libRbt.so (2013.1, Build901 2013/11/27)

>  <Rbt.Parameter_File>
/export/apps/rDock/src/rDock_2013.1_src/data/scripts/dock_solv.prm

>  <Rbt.Receptor>
prm/pocket_docking_5.prm

>  <SCORE>
-17.2662

>  <SCORE.INTER>
-15.9274

>  <SCORE.INTER.CONST>
1

>  <SCORE.INTER.POLAR>
-1.5793

>  <SCORE.INTER.ROT>
12

>  <SCORE.INTER.SOLV>
16.4945

>  <SCORE.INTER.VDW>
-22.4521

>  <SCORE.INTER.norm>
-0.306296

>  <SCORE.INTRA>
-1.35048

>  <SCORE.INTRA.DIHEDRAL>
-6.54405

>  <SCORE.INTRA.DIHEDRAL.0>
32.9766

>  <SCORE.INTRA.POLAR>
0

>  <SCORE.INTRA.POLAR.0>
0

>  <SCORE.INTRA.REPUL>
0

>  <SCORE.INTRA.REPUL.0>
0

>  <SCORE.INTRA.SOLV>
2.1748

>  <SCORE.INTRA.SOLV.lig_0>
-114.358

>  <SCORE.INTRA.VDW>
0.834142

>  <SCORE.INTRA.VDW.0>
-8.24257

>  <SCORE.INTRA.norm>
-0.0259708

>  <SCORE.RESTR>
0.0116375

>  <SCORE.RESTR.CAVITY>
0.0116375

>  <SCORE.RESTR.norm>
0.000223798

>  <SCORE.SYSTEM>
0

>  <SCORE.SYSTEM.CONST>
0

>  <SCORE.SYSTEM.DIHEDRAL>
0

>  <SCORE.SYSTEM.SOLV>
0

>  <SCORE.SYSTEM.norm>
0

>  <SCORE.heavy>
52

>  <SCORE.norm>
-0.332043

>  <RMSD>
2.667

$$$$
2esj_lig
 OpenBabel11021811423D
libRbt.so/2013.1/901 2013/11/27
 52 56  0  0  0  0  0  0  0  0999 V2000
   17.7663   -5.9279   17.4614 C   0  0  2  0  0  0  0  0  0  0  0  0
   18.6914   -7.0217   17.6118 O   0  0  0  0  0  0  0  0  0  0  0  0
   19.6916  -10.9230   16.1738 C   0  0  2  0  0  0  0  0  0  0  0  0
   19.6564  -12.2854   15.6171 N   0  0  0  0  0  0  0  0  0  0  0  0
   19.8462   -6.5848   14.0828 C   0  0  1  0  0  0  0  0  0  0  0  0
   22.7455   -4.6212   11.8115 C   0  0  1  0  0  0  0  0  0  0  0  0
   26.8800   -1.7573   13.2036 C   0  0  1  0  0  0  0  0  0  0  0  0
   18.3537   -4.7081   18.2308 C   0  0  2  0  0  0  0  0  0  0  0  0
   19.6956   -4.3558   17.7678 N   0  0  0  0  0  0  0  0  0  0  0  0
   18.7225  -10.8127   17.4172 C   0  0  0  0  0  0  0  0  0  0  0  0
   20.8605   -7.4268   13.3078 C   0  0  2  0  0  0  0  0  0  0  0  0
   21.9653   -7.8555   14.1330 O   0  0  0  0  0  0  0  0  0  0  0  0
   24.3054   -4.8137   12.0774 C   0  0  2  0  0  0  0  0  0  0  0  0
   24.6162   -4.7171   13.5283 N   0  0  0  0  0  0  0  0  0  0  0  0
   27.4601   -3.0917   12.7492 C   0  0  1  0  0  0  0  0  0  0  0  0
   28.7858   -2.8778   12.2247 O   0  0  0  0  0  0  0  0  0  0  0  0
   18.3776   -4.9784   19.7688 C   0  0  0  0  0  0  0  0  0  0  0  0
   18.8184   -9.3608   18.0372 C   0  0  2  0  0  0  0  0  0  0  0  0
   17.9170   -9.2276   19.1864 N   0  0  0  0  0  0  0  0  0  0  0  0
   21.2407   -6.4647   12.2197 C   0  0  2  0  0  0  0  0  0  0  0  0
   22.1188   -5.4852   12.7134 O   0  0  0  0  0  0  0  0  0  0  0  0
   25.1164   -3.8076   11.1473 C   0  0  1  0  0  0  0  0  0  0  0  0
   24.6715   -3.9661    9.7961 O   0  0  0  0  0  0  0  0  0  0  0  0
   27.5483   -4.1644   13.8280 C   0  0  1  0  0  0  0  0  0  0  0  0
   28.3217   -5.2429   13.2905 O   0  0  0  0  0  0  0  0  0  0  0  0
   16.9442   -5.3736   20.2325 C   0  0  2  0  0  0  0  0  0  0  0  0
   16.8767   -5.5585   21.6351 O   0  0  0  0  0  0  0  0  0  0  0  0
   18.4871   -8.2913   16.9641 C   0  0  2  0  0  0  0  0  0  0  0  0
   19.9567   -5.6792   11.8823 C   0  0  2  0  0  0  0  0  0  0  0  0
   19.2741   -5.6821   13.1262 O   0  0  0  0  0  0  0  0  0  0  0  0
   24.8160   -2.2993   11.5266 C   0  0  2  0  0  0  0  0  0  0  0  0
   25.3020   -2.1691   12.8635 O   0  0  0  0  0  0  0  0  0  0  0  0
   28.1905   -3.6792   15.1288 C   0  0  2  0  0  0  0  0  0  0  0  0
   27.9202   -4.6787   16.1252 O   0  0  0  0  0  0  0  0  0  0  0  0
   16.5192   -6.6515   19.4675 C   0  0  2  0  0  0  0  0  0  0  0  0
   16.5040   -6.3218   18.0491 O   0  0  0  0  0  0  0  0  0  0  0  0
   19.3294   -8.4173   15.6543 C   0  0  2  0  0  0  0  0  0  0  0  0
   18.8866   -7.4187   14.6935 O   0  0  0  0  0  0  0  0  0  0  0  0
   19.0523   -6.2817   10.8077 C   0  0  0  0  0  0  0  0  0  0  0  0
   17.9268   -5.4055   10.6488 O   0  0  0  0  0  0  0  0  0  0  0  0
   23.3064   -2.1953   11.6296 C   0  0  1  0  0  0  0  0  0  0  0  0
   22.3352   -3.1791   12.0460 O   0  0  0  0  0  0  0  0  0  0  0  0
   27.7142   -2.2791   15.4994 C   0  0  2  0  0  0  0  0  0  0  0  0
   27.3738   -1.3152   14.4911 O   0  0  0  0  0  0  0  0  0  0  0  0
   15.1358   -7.0979   19.7984 C   0  0  0  0  0  0  0  0  0  0  0  0
   15.1395   -7.5245   21.1393 O   0  0  0  0  0  0  0  0  0  0  0  0
   19.2612   -9.8748   15.0859 C   0  0  1  0  0  0  0  0  0  0  0  0
   20.2154   -9.9552   13.9939 O   0  0  0  0  0  0  0  0  0  0  0  0
   22.7256   -0.7722   11.8948 C   0  0  0  0  0  0  0  0  0  0  0  0
   21.5993   -0.7674   12.8518 N   0  0  0  0  0  0  0  0  0  0  0  0
   28.1969   -1.5372   16.7437 C   0  0  0  0  0  0  0  0  0  0  0  0
   27.6010   -2.1219   17.9319 O   0  0  0  0  0  0  0  0  0  0  0  0
  1  2  1  1  0  0  0
  1  8  1  0  0  0  0
  1 36  1  0  0  0  0
  3  4  1  6  0  0  0
  3 10  1  0  0  0  0
  3 47  1  0  0  0  0
  5 11  1  0  0  0  0
  5 30  1  0  0  0  0
  5 38  1  6  0  0  0
  6 21  1  1  0  0  0
  6 42  1  0  0  0  0
  7 15  1  0  0  0  0
  7 44  1  0  0  0  0
  7 32  1  1  0  0  0
  8  9  1  6  0  0  0
  8 17  1  0  0  0  0
 11 12  1  1  0  0  0
 11 20  1  0  0  0  0
 13  6  1  0  0  0  0
 13 14  1  1  0  0  0
 15 16  1  1  0  0  0
 15 24  1  0  0  0  0
 17 26  1  0  0  0  0
 18 10  1  0  0  0  0
 18 19  1  1  0  0  0
 20 21  1  1  0  0  0
 20 29  1  0  0  0  0
 22 13  1  0  0  0  0
 22 23  1  6  0  0  0
 24 25  1  6  0  0  0
 24 33  1  0  0  0  0
 26 27  1  1  0  0  0
 26 35  1  0  0  0  0
 28  2  1  1  0  0  0
 28 18  1  0  0  0  0
 29 30  1  0  0  0  0
 29 39  1  6  0  0  0
 31 22  1  0  0  0  0
 31 32  1  1  0  0  0
 31 41  1  0  0  0  0
 33 34  1  1  0  0  0
 33 43  1  0  0  0  0
 35 36  1  0  0  0  0
 35 45  1  1  0  0  0
 37 28  1  0  0  0  0
 37 38  1  6  0  0  0
 39 40  1  0  0  0  0
 41 42  1  0  0  0  0
 41 49  1  1  0  0  0
 43 44  1  0  0  0  0
 43 51  1  6  0  0  0
 45 46  1  0  0  0  0
 47 37  1  0  0  0  0
 47 48  1  6  0  0  0
 49 50  1  0  0  0  0
 51 52  1  0  0  0  0
M  END
>  <CHROM.1>
-176.78639589,59.84525936,-123.10141288,-71.00233220,170.37508218,-136.42807984
179.97655699,88.07890733,-67.29567150,129.11639495,-139.61493560,-73.10907951
21.76136469,-5.46462158,14.98763205,-2.78889780,-0.56454454,-1.75533348

>  <Name>
2esj_lig

>  <RI>
0

>  <Rbt.Current_Directory>
/home/itssahil/PROJECTS/Mol_Feturizer/New_Systems/rnas/2esj

>  <Rbt.Executable>
rbdock ($Id: //depot/dev/client3/rdock/2013.1/src/exe/rbdock.cxx#4 $)

>  <Rbt.Library>
libRbt.so (2013.1, Build901 2013/11/27)

>  <Rbt.Parameter_File>
/export/apps/rDock/src/rDock_2013.1_src/data/scripts/dock_solv.prm

>  <Rbt.Receptor>
prm/pocket_docking_4.prm

>  <SCORE>
-16.1505

>  <SCORE.INTER>
-18.1894

>  <SCORE.INTER.CONST>
1

>  <SCORE.INTER.POLAR>
-1.61201

>  <SCORE.INTER.ROT>
12

>  <SCORE.INTER.SOLV>
15.3029

>  <SCORE.INTER.VDW>
-23.4539

>  <SCORE.INTER.norm>
-0.349796

>  <SCORE.INTRA>
2.03887

>  <SCORE.INTRA.DIHEDRAL>
-3.75965

>  <SCORE.INTRA.DIHEDRAL.0>
32.9766

>  <SCORE.INTRA.POLAR>
0

>  <SCORE.INTRA.POLAR.0>
0

>  <SCORE.INTRA.REPUL>
0

>  <SCORE.INTRA.REPUL.0>
0

>  <SCORE.INTRA.SOLV>
1.75783

>  <SCORE.INTRA.SOLV.lig_0>
-114.358

>  <SCORE.INTRA.VDW>
3.03978

>  <SCORE.INTRA.VDW.0>
-8.24257

>  <SCORE.INTRA.norm>
0.039209

>  <SCORE.RESTR>
0

>  <SCORE.RESTR.CAVITY>
0

>  <SCORE.RESTR.norm>
0

>  <SCORE.SYSTEM>
0

>  <SCORE.SYSTEM.CONST>
0

>  <SCORE.SYSTEM.DIHEDRAL>
0

>  <SCORE.SYSTEM.SOLV>
0

>  <SCORE.SYSTEM.norm>
0

>  <SCORE.heavy>
52

>  <SCORE.norm>
-0.310587

>  <RMSD>
2.674

$$$$
2esj_lig
 OpenBabel11021811423D
libRbt.so/2013.1/901 2013/11/27
 52 56  0  0  0  0  0  0  0  0999 V2000
   17.3605   -7.7586   19.1951 C   0  0  2  0  0  0  0  0  0  0  0  0
   17.6817   -7.4975   17.8154 O   0  0  0  0  0  0  0  0  0  0  0  0
   19.9890  -10.5458   15.8991 C   0  0  2  0  0  0  0  0  0  0  0  0
   20.4442  -11.6794   15.0776 N   0  0  0  0  0  0  0  0  0  0  0  0
   19.4500   -6.0133   14.6446 C   0  0  1  0  0  0  0  0  0  0  0  0
   21.6094   -2.6745   13.6035 C   0  0  1  0  0  0  0  0  0  0  0  0
   26.7859   -3.3279   14.5177 C   0  0  1  0  0  0  0  0  0  0  0  0
   16.4716   -6.5838   19.6998 C   0  0  2  0  0  0  0  0  0  0  0  0
   15.2707   -6.4083   18.8835 N   0  0  0  0  0  0  0  0  0  0  0  0
   18.7987  -10.9914   16.8383 C   0  0  0  0  0  0  0  0  0  0  0  0
   18.7337   -5.0028   13.7478 C   0  0  2  0  0  0  0  0  0  0  0  0
   18.7749   -5.3775   12.3538 O   0  0  0  0  0  0  0  0  0  0  0  0
   22.7102   -2.8333   12.4615 C   0  0  2  0  0  0  0  0  0  0  0  0
   23.2603   -4.2145   12.4377 N   0  0  0  0  0  0  0  0  0  0  0  0
   26.8194   -4.8137   14.1786 C   0  0  1  0  0  0  0  0  0  0  0  0
   28.1825   -5.2122   13.9305 O   0  0  0  0  0  0  0  0  0  0  0  0
   17.2828   -5.2500   19.7432 C   0  0  0  0  0  0  0  0  0  0  0  0
   18.3631   -9.7778   17.7543 C   0  0  2  0  0  0  0  0  0  0  0  0
   17.2491  -10.1617   18.6275 N   0  0  0  0  0  0  0  0  0  0  0  0
   19.5019   -3.7546   14.0736 C   0  0  2  0  0  0  0  0  0  0  0  0
   20.7483   -3.7604   13.4249 O   0  0  0  0  0  0  0  0  0  0  0  0
   23.7953   -1.6797   12.6253 C   0  0  1  0  0  0  0  0  0  0  0  0
   23.1224   -0.4184   12.6969 O   0  0  0  0  0  0  0  0  0  0  0  0
   26.2457   -5.7381   15.2458 C   0  0  1  0  0  0  0  0  0  0  0  0
   26.5743   -7.0789   14.8656 O   0  0  0  0  0  0  0  0  0  0  0  0
   18.5663   -5.4693   20.5977 C   0  0  2  0  0  0  0  0  0  0  0  0
   19.3126   -4.2743   20.7433 O   0  0  0  0  0  0  0  0  0  0  0  0
   17.9706   -8.5562   16.8834 C   0  0  2  0  0  0  0  0  0  0  0  0
   19.8596   -3.8571   15.5706 C   0  0  2  0  0  0  0  0  0  0  0  0
   19.9585   -5.2605   15.7546 O   0  0  0  0  0  0  0  0  0  0  0  0
   24.5905   -1.8228   13.9878 C   0  0  2  0  0  0  0  0  0  0  0  0
   25.2739   -3.0712   13.8670 O   0  0  0  0  0  0  0  0  0  0  0  0
   26.7821   -5.4641   16.6519 C   0  0  2  0  0  0  0  0  0  0  0  0
   25.9364   -6.1794   17.5673 O   0  0  0  0  0  0  0  0  0  0  0  0
   19.4068   -6.5898   19.9365 C   0  0  2  0  0  0  0  0  0  0  0  0
   18.5973   -7.8003   19.9452 O   0  0  0  0  0  0  0  0  0  0  0  0
   19.0593   -8.1349   15.8450 C   0  0  2  0  0  0  0  0  0  0  0  0
   18.5592   -7.0345   15.0354 O   0  0  0  0  0  0  0  0  0  0  0  0
   18.8384   -3.2886   16.5553 C   0  0  0  0  0  0  0  0  0  0  0  0
   19.4107   -3.3729   17.8686 O   0  0  0  0  0  0  0  0  0  0  0  0
   23.5365   -2.0368   15.0571 C   0  0  1  0  0  0  0  0  0  0  0  0
   22.2545   -2.6961   14.9770 O   0  0  0  0  0  0  0  0  0  0  0  0
   26.8838   -3.9685   16.9301 C   0  0  2  0  0  0  0  0  0  0  0  0
   27.1748   -3.0322   15.8810 O   0  0  0  0  0  0  0  0  0  0  0  0
   20.6442   -6.9199   20.6997 C   0  0  0  0  0  0  0  0  0  0  0  0
   21.5485   -5.8573   20.5173 O   0  0  0  0  0  0  0  0  0  0  0  0
   19.5123   -9.3617   14.9836 C   0  0  1  0  0  0  0  0  0  0  0  0
   20.6498   -8.9324   14.1893 O   0  0  0  0  0  0  0  0  0  0  0  0
   24.0463   -2.1064   16.5296 C   0  0  0  0  0  0  0  0  0  0  0  0
   23.0363   -1.6794   17.5207 N   0  0  0  0  0  0  0  0  0  0  0  0
   27.3976   -3.3999   18.2508 C   0  0  0  0  0  0  0  0  0  0  0  0
   27.4220   -4.4411   19.2627 O   0  0  0  0  0  0  0  0  0  0  0  0
  1  2  1  6  0  0  0
  1  8  1  0  0  0  0
  1 36  1  0  0  0  0
  3  4  1  6  0  0  0
  3 10  1  0  0  0  0
  3 47  1  0  0  0  0
  5 11  1  0  0  0  0
  5 30  1  0  0  0  0
  5 38  1  1  0  0  0
  6 21  1  1  0  0  0
  6 42  1  0  0  0  0
  7 15  1  0  0  0  0
  7 44  1  0  0  0  0
  7 32  1  1  0  0  0
  8  9  1  6  0  0  0
  8 17  1  0  0  0  0
 11 12  1  6  0  0  0
 11 20  1  0  0  0  0
 13  6  1  0  0  0  0
 13 14  1  1  0  0  0
 15 16  1  1  0  0  0
 15 24  1  0  0  0  0
 17 26  1  0  0  0  0
 18 10  1  0  0  0  0
 18 19  1  6  0  0  0
 20 21  1  6  0  0  0
 20 29  1  0  0  0  0
 22 13  1  0  0  0  0
 22 23  1  1  0  0  0
 24 25  1  6  0  0  0
 24 33  1  0  0  0  0
 26 27  1  6  0  0  0
 26 35  1  0  0  0  0
 28  2  1  1  0  0  0
 28 18  1  0  0  0  0
 29 30  1  0  0  0  0
 29 39  1  1  0  0  0
 31 22  1  0  0  0  0
 31 32  1  6  0  0  0
 31 41  1  0  0  0  0
 33 34  1  1  0  0  0
 33 43  1  0  0  0  0
 35 36  1  0  0  0  0
 35 45  1  1  0  0  0
 37 28  1  0  0  0  0
 37 38  1  6  0  0  0
 39 40  1  0  0  0  0
 41 42  1  0  0  0  0
 41 49  1  1  0  0  0
 43 44  1  0  0  0  0
 43 51  1  1  0  0  0
 45 46  1  0  0  0  0
 47 37  1  0  0  0  0
 47 48  1  6  0  0  0
 49 50  1  0  0  0  0
 51 52  1  0  0  0  0
M  END
>  <CHROM.1>
-152.89830104,177.18028450,-165.71486025,173.91704073,179.81521799,-20.26550469
-174.90163948,145.38958964,-72.78711006,142.90498092,152.67818960,-14.87403416
21.60396016,-5.42664516,16.27626707,-2.59355984,-0.27641215,-1.03306636

>  <Name>
2esj_lig

>  <RI>
1.01272e+07

>  <Rbt.Current_Directory>
/home/itssahil/PROJECTS/Mol_Feturizer/New_Systems/rnas/2esj

>  <Rbt.Executable>
rbdock ($Id: //depot/dev/client3/rdock/2013.1/src/exe/rbdock.cxx#4 $)

>  <Rbt.Library>
libRbt.so (2013.1, Build901 2013/11/27)

>  <Rbt.Parameter_File>
/export/apps/rDock/src/rDock_2013.1_src/data/scripts/dock_solv.prm

>  <Rbt.Receptor>
prm/pocket_docking_3.prm

>  <SCORE>
-7.37977

>  <SCORE.INTER>
-9.71744

>  <SCORE.INTER.CONST>
1

>  <SCORE.INTER.POLAR>
-1.54048

>  <SCORE.INTER.ROT>
12

>  <SCORE.INTER.SOLV>
18.2751

>  <SCORE.INTER.VDW>
-19.035

>  <SCORE.INTER.norm>
-0.186874

>  <SCORE.INTRA>
2.33767

>  <SCORE.INTRA.DIHEDRAL>
-7.20049

>  <SCORE.INTRA.DIHEDRAL.0>
32.9766

>  <SCORE.INTRA.POLAR>
0

>  <SCORE.INTRA.POLAR.0>
0

>  <SCORE.INTRA.REPUL>
0

>  <SCORE.INTRA.REPUL.0>
0

>  <SCORE.INTRA.SOLV>
-1.0472

>  <SCORE.INTRA.SOLV.lig_0>
-114.358

>  <SCORE.INTRA.VDW>
6.46152

>  <SCORE.INTRA.VDW.0>
-8.24257

>  <SCORE.INTRA.norm>
0.0449552

>  <SCORE.RESTR>
0

>  <SCORE.RESTR.CAVITY>
0

>  <SCORE.RESTR.norm>
0

>  <SCORE.SYSTEM>
0

>  <SCORE.SYSTEM.CONST>
0

>  <SCORE.SYSTEM.DIHEDRAL>
0

>  <SCORE.SYSTEM.SOLV>
0

>  <SCORE.SYSTEM.norm>
0

>  <SCORE.heavy>
52

>  <SCORE.norm>
-0.141919

>  <RMSD>
2.680

$$$$
2esj_lig
 OpenBabel11021811423D
libRbt.so/2013.1/901 2013/11/27
 52 56  0  0  0  0  0  0  0  0999 V2000
   17.9284   -7.9560   19.2421 C   0  0  2  0  0  0  0  0  0  0  0  0
   18.3747   -7.7305   17.8912 O   0  0  0  0  0  0  0  0  0  0  0  0
   20.2120  -10.7106   15.4354 C   0  0  2  0  0  0  0  0  0  0  0  0
   20.4785  -11.8384   14.5275 N   0  0  0  0  0  0  0  0  0  0  0  0
   19.1371   -6.2001   14.4000 C   0  0  1  0  0  0  0  0  0  0  0  0
   20.6876   -2.8495   12.7010 C   0  0  1  0  0  0  0  0  0  0  0  0
   25.6371   -2.1990   13.1414 C   0  0  1  0  0  0  0  0  0  0  0  0
   16.8226   -6.9042   19.5520 C   0  0  2  0  0  0  0  0  0  0  0  0
   15.7182   -6.9640   18.5949 N   0  0  0  0  0  0  0  0  0  0  0  0
   19.3455  -11.1901   16.6669 C   0  0  0  0  0  0  0  0  0  0  0  0
   18.5159   -5.8252   13.0539 C   0  0  2  0  0  0  0  0  0  0  0  0
   19.0742   -6.5840   11.9594 O   0  0  0  0  0  0  0  0  0  0  0  0
   22.0707   -2.9393   11.9135 C   0  0  2  0  0  0  0  0  0  0  0  0
   22.9001   -4.0662   12.4167 N   0  0  0  0  0  0  0  0  0  0  0  0
   26.0312   -3.4566   13.9073 C   0  0  1  0  0  0  0  0  0  0  0  0
   26.9282   -4.2427   13.0974 O   0  0  0  0  0  0  0  0  0  0  0  0
   17.4192   -5.4612   19.5835 C   0  0  0  0  0  0  0  0  0  0  0  0
   19.1199   -9.9798   17.6598 C   0  0  2  0  0  0  0  0  0  0  0  0
   18.3058  -10.3955   18.8066 N   0  0  0  0  0  0  0  0  0  0  0  0
   18.8269   -4.3571   13.0081 C   0  0  2  0  0  0  0  0  0  0  0  0
   20.1769   -4.1500   12.6781 O   0  0  0  0  0  0  0  0  0  0  0  0
   22.7794   -1.5141   11.9490 C   0  0  1  0  0  0  0  0  0  0  0  0
   21.8489   -0.5233   11.5006 O   0  0  0  0  0  0  0  0  0  0  0  0
   26.7023   -3.2153   15.2540 C   0  0  1  0  0  0  0  0  0  0  0  0
   27.2069   -4.4762   15.7076 O   0  0  0  0  0  0  0  0  0  0  0  0
   18.6065   -5.4296   20.5910 C   0  0  2  0  0  0  0  0  0  0  0  0
   19.1471   -4.1275   20.7273 O   0  0  0  0  0  0  0  0  0  0  0  0
   18.4477   -8.7928   16.9221 C   0  0  2  0  0  0  0  0  0  0  0  0
   18.7170   -3.8562   14.4629 C   0  0  2  0  0  0  0  0  0  0  0  0
   19.0834   -5.0113   15.2007 O   0  0  0  0  0  0  0  0  0  0  0  0
   23.1720   -1.1000   13.4268 C   0  0  2  0  0  0  0  0  0  0  0  0
   24.1234   -2.0872   13.8279 O   0  0  0  0  0  0  0  0  0  0  0  0
   27.8464   -2.2013   15.1998 C   0  0  2  0  0  0  0  0  0  0  0  0
   28.1583   -1.8520   16.5583 O   0  0  0  0  0  0  0  0  0  0  0  0
   19.6760   -6.4445   20.1165 C   0  0  2  0  0  0  0  0  0  0  0  0
   19.0566   -7.7625   20.1272 O   0  0  0  0  0  0  0  0  0  0  0  0
   19.1907   -8.3439   15.6231 C   0  0  2  0  0  0  0  0  0  0  0  0
   18.4375   -7.2816   14.9745 O   0  0  0  0  0  0  0  0  0  0  0  0
   17.3370   -3.3822   14.9176 C   0  0  0  0  0  0  0  0  0  0  0  0
   16.4703   -4.5260   14.9325 O   0  0  0  0  0  0  0  0  0  0  0  0
   21.9364   -1.3593   14.2672 C   0  0  1  0  0  0  0  0  0  0  0  0
   20.9098   -2.3640   14.1216 O   0  0  0  0  0  0  0  0  0  0  0  0
   27.4985   -1.0126   14.3107 C   0  0  2  0  0  0  0  0  0  0  0  0
   26.6481   -1.1623   13.1635 O   0  0  0  0  0  0  0  0  0  0  0  0
   20.8453   -6.5346   21.0369 C   0  0  0  0  0  0  0  0  0  0  0  0
   21.5660   -5.3315   20.9225 O   0  0  0  0  0  0  0  0  0  0  0  0
   19.4485   -9.5657   14.6780 C   0  0  1  0  0  0  0  0  0  0  0  0
   20.3047   -9.1021   13.6004 O   0  0  0  0  0  0  0  0  0  0  0  0
   22.0154   -0.9351   15.7661 C   0  0  0  0  0  0  0  0  0  0  0  0
   20.8442   -1.3637   16.5594 N   0  0  0  0  0  0  0  0  0  0  0  0
   28.4563    0.1504   14.0623 C   0  0  0  0  0  0  0  0  0  0  0  0
   28.4356    1.0600   15.1941 O   0  0  0  0  0  0  0  0  0  0  0  0
  1  2  1  6  0  0  0
  1  8  1  0  0  0  0
  1 36  1  0  0  0  0
  3  4  1  6  0  0  0
  3 10  1  0  0  0  0
  3 47  1  0  0  0  0
  5 11  1  0  0  0  0
  5 30  1  0  0  0  0
  5 38  1  1  0  0  0
  6 21  1  1  0  0  0
  6 42  1  0  0  0  0
  7 15  1  0  0  0  0
  7 44  1  0  0  0  0
  7 32  1  1  0  0  0
  8  9  1  6  0  0  0
  8 17  1  0  0  0  0
 11 12  1  6  0  0  0
 11 20  1  0  0  0  0
 13  6  1  0  0  0  0
 13 14  1  1  0  0  0
 15 16  1  6  0  0  0
 15 24  1  0  0  0  0
 17 26  1  0  0  0  0
 18 10  1  0  0  0  0
 18 19  1  1  0  0  0
 20 21  1  1  0  0  0
 20 29  1  0  0  0  0
 22 13  1  0  0  0  0
 22 23  1  1  0  0  0
 24 25  1  6  0  0  0
 24 33  1  0  0  0  0
 26 27  1  6  0  0  0
 26 35  1  0  0  0  0
 28  2  1  1  0  0  0
 28 18  1  0  0  0  0
 29 30  1  0  0  0  0
 29 39  1  1  0  0  0
 31 22  1  0  0  0  0
 31 32  1  1  0  0  0
 31 41  1  0  0  0  0
 33 34  1  1  0  0  0
 33 43  1  0  0  0  0
 35 36  1  0  0  0  0
 35 45  1  1  0  0  0
 37 28  1  0  0  0  0
 37 38  1  6  0  0  0
 39 40  1  0  0  0  0
 41 42  1  0  0  0  0
 41 49  1  1  0  0  0
 43 44  1  0  0  0  0
 43 51  1  6  0  0  0
 45 46  1  0  0  0  0
 47 37  1  0  0  0  0
 47 48  1  6  0  0  0
 49 50  1  0  0  0  0
 51 52  1  0  0  0  0
M  END
>  <CHROM.1>
-128.99667270,138.46367732,-165.07869565,-175.54126774,-174.45635709,-45.40417006
66.51544364,67.82908936,-70.06990465,140.15289536,-173.02558408,-79.08568472
21.35424495,-4.87809086,15.57463951,-2.61182617,-0.59684896,-1.27718292

>  <Name>
2esj_lig

>  <RI>
1.01272e+07

>  <Rbt.Current_Directory>
/home/itssahil/PROJECTS/Mol_Feturizer/New_Systems/rnas/2esj

>  <Rbt.Executable>
rbdock ($Id: //depot/dev/client3/rdock/2013.1/src/exe/rbdock.cxx#4 $)

>  <Rbt.Library>
libRbt.so (2013.1, Build901 2013/11/27)

>  <Rbt.Parameter_File>
/export/apps/rDock/src/rDock_2013.1_src/data/scripts/dock_solv.prm

>  <Rbt.Receptor>
prm/pocket_docking_3.prm

>  <SCORE>
-6.96852

>  <SCORE.INTER>
-10.696

>  <SCORE.INTER.CONST>
1

>  <SCORE.INTER.POLAR>
-2.2345

>  <SCORE.INTER.ROT>
12

>  <SCORE.INTER.SOLV>
16.6534

>  <SCORE.INTER.VDW>
-16.8335

>  <SCORE.INTER.norm>
-0.205692

>  <SCORE.INTRA>
3.68292

>  <SCORE.INTRA.DIHEDRAL>
-6.90318

>  <SCORE.INTRA.DIHEDRAL.0>
32.9766

>  <SCORE.INTRA.POLAR>
0

>  <SCORE.INTRA.POLAR.0>
0

>  <SCORE.INTRA.REPUL>
0.175454

>  <SCORE.INTRA.REPUL.0>
0

>  <SCORE.INTRA.SOLV>
-0.00864782

>  <SCORE.INTRA.SOLV.lig_0>
-114.358

>  <SCORE.INTRA.VDW>
6.26156

>  <SCORE.INTRA.VDW.0>
-8.24257

>  <SCORE.INTRA.norm>
0.0708253

>  <SCORE.RESTR>
0.044551

>  <SCORE.RESTR.CAVITY>
0.044551

>  <SCORE.RESTR.norm>
0.000856751

>  <SCORE.SYSTEM>
0

>  <SCORE.SYSTEM.CONST>
0

>  <SCORE.SYSTEM.DIHEDRAL>
0

>  <SCORE.SYSTEM.SOLV>
0

>  <SCORE.SYSTEM.norm>
0

>  <SCORE.heavy>
52

>  <SCORE.norm>
-0.13401

>  <RMSD>
2.682

$$$$
2esj_lig
 OpenBabel11021811423D
libRbt.so/2013.1/901 2013/11/27
 52 56  0  0  0  0  0  0  0  0999 V2000
   18.2935   -8.4017   18.4774 C   0  0  2  0  0  0  0  0  0  0  0  0
   17.7074   -8.6679   17.1888 O   0  0  0  0  0  0  0  0  0  0  0  0
   21.2168   -9.7288   14.9872 C   0  0  2  0  0  0  0  0  0  0  0  0
   22.1727  -10.1251   13.9401 N   0  0  0  0  0  0  0  0  0  0  0  0
   19.7150   -5.4195   15.5669 C   0  0  1  0  0  0  0  0  0  0  0  0
   21.0903   -3.3861   14.3594 C   0  0  1  0  0  0  0  0  0  0  0  0
   26.1559   -3.9387   13.1724 C   0  0  1  0  0  0  0  0  0  0  0  0
   17.8847   -9.5658   19.4276 C   0  0  2  0  0  0  0  0  0  0  0  0
   18.2842  -10.8724   18.9056 N   0  0  0  0  0  0  0  0  0  0  0  0
   20.0619  -10.8004   15.1104 C   0  0  0  0  0  0  0  0  0  0  0  0
   18.8106   -4.1999   15.3851 C   0  0  2  0  0  0  0  0  0  0  0  0
   18.6507   -3.8350   13.9970 O   0  0  0  0  0  0  0  0  0  0  0  0
   22.3359   -4.2657   14.8241 C   0  0  2  0  0  0  0  0  0  0  0  0
   23.3120   -3.4471   15.5909 N   0  0  0  0  0  0  0  0  0  0  0  0
   25.9922   -4.7803   14.4327 C   0  0  1  0  0  0  0  0  0  0  0  0
   26.8362   -5.9452   14.3372 O   0  0  0  0  0  0  0  0  0  0  0  0
   16.3466   -9.5506   19.6979 C   0  0  0  0  0  0  0  0  0  0  0  0
   19.0787  -10.3884   16.2788 C   0  0  2  0  0  0  0  0  0  0  0  0
   17.9883  -11.3609   16.4054 N   0  0  0  0  0  0  0  0  0  0  0  0
   19.5503   -3.1852   16.2080 C   0  0  2  0  0  0  0  0  0  0  0  0
   20.6764   -2.7136   15.5122 O   0  0  0  0  0  0  0  0  0  0  0  0
   22.9381   -5.0192   13.5574 C   0  0  1  0  0  0  0  0  0  0  0  0
   21.8806   -5.7096   12.8838 O   0  0  0  0  0  0  0  0  0  0  0  0
   26.3204   -4.0673   15.7389 C   0  0  1  0  0  0  0  0  0  0  0  0
   26.3415   -5.0607   16.7699 O   0  0  0  0  0  0  0  0  0  0  0  0
   15.9432   -8.1436   20.2301 C   0  0  2  0  0  0  0  0  0  0  0  0
   14.5695   -8.0830   20.5700 O   0  0  0  0  0  0  0  0  0  0  0  0
   18.5090   -8.9675   16.0308 C   0  0  2  0  0  0  0  0  0  0  0  0
   20.1462   -3.9613   17.4005 C   0  0  2  0  0  0  0  0  0  0  0  0
   20.3507   -5.2492   16.8413 O   0  0  0  0  0  0  0  0  0  0  0  0
   23.5267   -3.9956   12.5014 C   0  0  2  0  0  0  0  0  0  0  0  0
   24.5970   -3.3516   13.1943 O   0  0  0  0  0  0  0  0  0  0  0  0
   27.6602   -3.3292   15.7187 C   0  0  2  0  0  0  0  0  0  0  0  0
   27.6798   -2.4695   16.8698 O   0  0  0  0  0  0  0  0  0  0  0  0
   16.3117   -7.0914   19.1548 C   0  0  2  0  0  0  0  0  0  0  0  0
   17.7546   -7.1513   18.9674 O   0  0  0  0  0  0  0  0  0  0  0  0
   19.5988   -7.8762   15.7807 C   0  0  2  0  0  0  0  0  0  0  0  0
   18.9555   -6.6051   15.4859 O   0  0  0  0  0  0  0  0  0  0  0  0
   19.2642   -4.0835   18.6426 C   0  0  0  0  0  0  0  0  0  0  0  0
   19.8796   -5.0404   19.5174 O   0  0  0  0  0  0  0  0  0  0  0  0
   22.4596   -2.9330   12.3215 C   0  0  1  0  0  0  0  0  0  0  0  0
   21.4970   -2.4162   13.2654 O   0  0  0  0  0  0  0  0  0  0  0  0
   27.8816   -2.6083   14.3936 C   0  0  2  0  0  0  0  0  0  0  0  0
   27.3577   -3.1307   13.1630 O   0  0  0  0  0  0  0  0  0  0  0  0
   16.0120   -5.6937   19.5780 C   0  0  0  0  0  0  0  0  0  0  0  0
   16.7747   -5.4291   20.7306 O   0  0  0  0  0  0  0  0  0  0  0  0
   20.5907   -8.3268   14.6558 C   0  0  1  0  0  0  0  0  0  0  0  0
   21.6717   -7.3574   14.6227 O   0  0  0  0  0  0  0  0  0  0  0  0
   22.7418   -1.8420   11.2431 C   0  0  0  0  0  0  0  0  0  0  0  0
   22.1405   -2.1479    9.9280 N   0  0  0  0  0  0  0  0  0  0  0  0
   29.1386   -1.7978   14.0861 C   0  0  0  0  0  0  0  0  0  0  0  0
   29.2998   -0.7411   15.0691 O   0  0  0  0  0  0  0  0  0  0  0  0
  1  2  1  6  0  0  0
  1  8  1  0  0  0  0
  1 36  1  0  0  0  0
  3  4  1  6  0  0  0
  3 10  1  0  0  0  0
  3 47  1  0  0  0  0
  5 11  1  0  0  0  0
  5 30  1  0  0  0  0
  5 38  1  1  0  0  0
  6 21  1  1  0  0  0
  6 42  1  0  0  0  0
  7 15  1  0  0  0  0
  7 44  1  0  0  0  0
  7 32  1  1  0  0  0
  8  9  1  6  0  0  0
  8 17  1  0  0  0  0
 11 12  1  6  0  0  0
 11 20  1  0  0  0  0
 13  6  1  0  0  0  0
 13 14  1  6  0  0  0
 15 16  1  6  0  0  0
 15 24  1  0  0  0  0
 17 26  1  0  0  0  0
 18 10  1  0  0  0  0
 18 19  1  6  0  0  0
 20 21  1  6  0  0  0
 20 29  1  0  0  0  0
 22 13  1  0  0  0  0
 22 23  1  6  0  0  0
 24 25  1  1  0  0  0
 24 33  1  0  0  0  0
 26 27  1  6  0  0  0
 26 35  1  0  0  0  0
 28  2  1  1  0  0  0
 28 18  1  0  0  0  0
 29 30  1  0  0  0  0
 29 39  1  1  0  0  0
 31 22  1  0  0  0  0
 31 32  1  1  0  0  0
 31 41  1  0  0  0  0
 33 34  1  1  0  0  0
 33 43  1  0  0  0  0
 35 36  1  0  0  0  0
 35 45  1  1  0  0  0
 37 28  1  0  0  0  0
 37 38  1  6  0  0  0
 39 40  1  0  0  0  0
 41 42  1  0  0  0  0
 41 49  1  1  0  0  0
 43 44  1  0  0  0  0
 43 51  1  6  0  0  0
 45 46  1  0  0  0  0
 47 37  1  0  0  0  0
 47 48  1  1  0  0  0
 49 50  1  0  0  0  0
 51 52  1  0  0  0  0
M  END
>  <CHROM.1>
-113.44535998,-173.20736695,-101.76353602,-91.84361007,-12.11514447,71.07461738
169.05132841,89.76821149,60.69830057,163.78722207,94.90858895,-58.26290722
21.40370089,-5.61956056,15.83725781,-2.72865656,0.53758933,0.15684693

>  <Name>
2esj_lig

>  <RI>
0

>  <Rbt.Current_Directory>
/home/itssahil/PROJECTS/Mol_Feturizer/New_Systems/rnas/2esj

>  <Rbt.Executable>
rbdock ($Id: //depot/dev/client3/rdock/2013.1/src/exe/rbdock.cxx#4 $)

>  <Rbt.Library>
libRbt.so (2013.1, Build901 2013/11/27)

>  <Rbt.Parameter_File>
/export/apps/rDock/src/rDock_2013.1_src/data/scripts/dock_solv.prm

>  <Rbt.Receptor>
prm/pocket_docking_2.prm

>  <SCORE>
19.7271

>  <SCORE.INTER>
5.20043

>  <SCORE.INTER.CONST>
1

>  <SCORE.INTER.POLAR>
0

>  <SCORE.INTER.ROT>
12

>  <SCORE.INTER.SOLV>
13.5129

>  <SCORE.INTER.VDW>
-12.6374

>  <SCORE.INTER.norm>
0.100008

>  <SCORE.INTRA>
12.0605

>  <SCORE.INTRA.DIHEDRAL>
0.702057

>  <SCORE.INTRA.DIHEDRAL.0>
32.9766

>  <SCORE.INTRA.POLAR>
0

>  <SCORE.INTRA.POLAR.0>
0

>  <SCORE.INTRA.REPUL>
0

>  <SCORE.INTRA.REPUL.0>
0

>  <SCORE.INTRA.SOLV>
6.01511

>  <SCORE.INTRA.SOLV.lig_0>
-114.358

>  <SCORE.INTRA.VDW>
8.70191

>  <SCORE.INTRA.VDW.0>
-8.24257

>  <SCORE.INTRA.norm>
0.231933

>  <SCORE.RESTR>
2.46621

>  <SCORE.RESTR.CAVITY>
2.46621

>  <SCORE.RESTR.norm>
0.0474271

>  <SCORE.SYSTEM>
0

>  <SCORE.SYSTEM.CONST>
0

>  <SCORE.SYSTEM.DIHEDRAL>
0

>  <SCORE.SYSTEM.SOLV>
0

>  <SCORE.SYSTEM.norm>
0

>  <SCORE.heavy>
52

>  <SCORE.norm>
0.379368

>  <RMSD>
2.699

$$$$
2esj_lig
 OpenBabel11021811423D
libRbt.so/2013.1/901 2013/11/27
 52 56  0  0  0  0  0  0  0  0999 V2000
   17.0182   -8.2847   19.1723 C   0  0  2  0  0  0  0  0  0  0  0  0
   17.1988   -7.9701   17.7783 O   0  0  0  0  0  0  0  0  0  0  0  0
   20.6942  -10.1354   16.6031 C   0  0  2  0  0  0  0  0  0  0  0  0
   21.6723  -10.9855   15.9044 N   0  0  0  0  0  0  0  0  0  0  0  0
   19.8945   -5.9143   15.2067 C   0  0  1  0  0  0  0  0  0  0  0  0
   22.3562   -2.9105   13.8740 C   0  0  1  0  0  0  0  0  0  0  0  0
   26.7536   -3.7425   16.1690 C   0  0  1  0  0  0  0  0  0  0  0  0
   15.8665   -7.3853   19.7104 C   0  0  2  0  0  0  0  0  0  0  0  0
   14.6299   -7.5545   18.9479 N   0  0  0  0  0  0  0  0  0  0  0  0
   19.3804  -10.9553   16.9182 C   0  0  0  0  0  0  0  0  0  0  0  0
   19.3164   -5.0110   14.1165 C   0  0  2  0  0  0  0  0  0  0  0  0
   19.4293   -5.5949   12.8006 O   0  0  0  0  0  0  0  0  0  0  0  0
   23.7790   -3.6079   13.6994 C   0  0  2  0  0  0  0  0  0  0  0  0
   23.9070   -4.7917   14.5900 N   0  0  0  0  0  0  0  0  0  0  0  0
   27.4845   -2.4969   16.6569 C   0  0  1  0  0  0  0  0  0  0  0  0
   28.6269   -2.8948   17.4410 O   0  0  0  0  0  0  0  0  0  0  0  0
   16.2876   -5.8814   19.7105 C   0  0  0  0  0  0  0  0  0  0  0  0
   18.3664  -10.0441   17.7202 C   0  0  2  0  0  0  0  0  0  0  0  0
   17.1312  -10.7781   18.0139 N   0  0  0  0  0  0  0  0  0  0  0  0
   20.1459   -3.7756   14.3160 C   0  0  2  0  0  0  0  0  0  0  0  0
   21.4314   -3.9536   13.7774 O   0  0  0  0  0  0  0  0  0  0  0  0
   24.9182   -2.5091   13.8729 C   0  0  1  0  0  0  0  0  0  0  0  0
   24.6333   -1.4065   13.0059 O   0  0  0  0  0  0  0  0  0  0  0  0
   27.9705   -1.5561   15.5609 C   0  0  1  0  0  0  0  0  0  0  0  0
   28.8239   -0.5883   16.1815 O   0  0  0  0  0  0  0  0  0  0  0  0
   17.6172   -5.7313   20.5076 C   0  0  2  0  0  0  0  0  0  0  0  0
   18.0177   -4.3768   20.6135 O   0  0  0  0  0  0  0  0  0  0  0  0
   18.0506   -8.7530   16.9212 C   0  0  2  0  0  0  0  0  0  0  0  0
   20.3889   -3.6705   15.8357 C   0  0  2  0  0  0  0  0  0  0  0  0
   20.3753   -5.0330   16.2312 O   0  0  0  0  0  0  0  0  0  0  0  0
   24.9280   -1.9130   15.3405 C   0  0  2  0  0  0  0  0  0  0  0  0
   25.2479   -3.0297   16.1718 O   0  0  0  0  0  0  0  0  0  0  0  0
   28.7348   -2.2601   14.4383 C   0  0  2  0  0  0  0  0  0  0  0  0
   28.8459   -1.3205   13.3569 O   0  0  0  0  0  0  0  0  0  0  0  0
   18.7011   -6.5941   19.8151 C   0  0  2  0  0  0  0  0  0  0  0  0
   18.2504   -7.9780   19.8663 O   0  0  0  0  0  0  0  0  0  0  0  0
   19.3155   -7.9534   16.4722 C   0  0  2  0  0  0  0  0  0  0  0  0
   18.9085   -6.8097   15.6704 O   0  0  0  0  0  0  0  0  0  0  0  0
   19.3434   -2.8997   16.6409 C   0  0  0  0  0  0  0  0  0  0  0  0
   18.0753   -3.0891   15.9962 O   0  0  0  0  0  0  0  0  0  0  0  0
   23.4840   -1.5716   15.6541 C   0  0  1  0  0  0  0  0  0  0  0  0
   22.2643   -2.2081   15.2161 O   0  0  0  0  0  0  0  0  0  0  0  0
   28.0763   -3.5810   14.0562 C   0  0  2  0  0  0  0  0  0  0  0  0
   27.3805   -4.3768   15.0281 O   0  0  0  0  0  0  0  0  0  0  0  0
   20.0124   -6.5647   20.5237 C   0  0  0  0  0  0  0  0  0  0  0  0
   20.8914   -7.4086   19.8197 O   0  0  0  0  0  0  0  0  0  0  0  0
   20.3280   -8.8855   15.7250 C   0  0  1  0  0  0  0  0  0  0  0  0
   21.5446   -8.1199   15.5180 O   0  0  0  0  0  0  0  0  0  0  0  0
   23.2192   -0.8627   17.0180 C   0  0  0  0  0  0  0  0  0  0  0  0
   22.8361   -1.7951   18.0989 N   0  0  0  0  0  0  0  0  0  0  0  0
   28.6274   -4.5035   12.9714 C   0  0  0  0  0  0  0  0  0  0  0  0
   29.9583   -4.0718   12.5827 O   0  0  0  0  0  0  0  0  0  0  0  0
  1  2  1  6  0  0  0
  1  8  1  0  0  0  0
  1 36  1  0  0  0  0
  3  4  1  6  0  0  0
  3 10  1  0  0  0  0
  3 47  1  0  0  0  0
  5 11  1  0  0  0  0
  5 30  1  0  0  0  0
  5 38  1  1  0  0  0
  6 21  1  1  0  0  0
  6 42  1  0  0  0  0
  7 15  1  0  0  0  0
  7 44  1  0  0  0  0
  7 32  1  6  0  0  0
  8  9  1  6  0  0  0
  8 17  1  0  0  0  0
 11 12  1  6  0  0  0
 11 20  1  0  0  0  0
 13  6  1  0  0  0  0
 13 14  1  1  0  0  0
 15 16  1  6  0  0  0
 15 24  1  0  0  0  0
 17 26  1  0  0  0  0
 18 10  1  0  0  0  0
 18 19  1  6  0  0  0
 20 21  1  6  0  0  0
 20 29  1  0  0  0  0
 22 13  1  0  0  0  0
 22 23  1  6  0  0  0
 24 25  1  1  0  0  0
 24 33  1  0  0  0  0
 26 27  1  6  0  0  0
 26 35  1  0  0  0  0
 28  2  1  1  0  0  0
 28 18  1  0  0  0  0
 29 30  1  0  0  0  0
 29 39  1  1  0  0  0
 31 22  1  0  0  0  0
 31 32  1  1  0  0  0
 31 41  1  0  0  0  0
 33 34  1  6  0  0  0
 33 43  1  0  0  0  0
 35 36  1  0  0  0  0
 35 45  1  1  0  0  0
 37 28  1  0  0  0  0
 37 38  1  6  0  0  0
 39 40  1  0  0  0  0
 41 42  1  0  0  0  0
 41 49  1  1  0  0  0
 43 44  1  0  0  0  0
 43 51  1  1  0  0  0
 45 46  1  0  0  0  0
 47 37  1  0  0  0  0
 47 48  1  1  0  0  0
 49 50  1  0  0  0  0
 51 52  1  0  0  0  0
M  END
>  <CHROM.1>
-170.77372218,165.75687911,159.06239483,62.39768769,-179.60435092,12.68041158
31.86912588,69.32381632,178.47497245,177.30904911,-95.55424711,11.25491107
21.98561391,-5.08442602,16.29219937,-2.72046976,0.43696533,0.17116132

>  <Name>
2esj_lig

>  <RI>
0

>  <Rbt.Current_Directory>
/home/itssahil/PROJECTS/Mol_Feturizer/New_Systems/rnas/2esj

>  <Rbt.Executable>
rbdock ($Id: //depot/dev/client3/rdock/2013.1/src/exe/rbdock.cxx#4 $)

>  <Rbt.Library>
libRbt.so (2013.1, Build901 2013/11/27)

>  <Rbt.Parameter_File>
/export/apps/rDock/src/rDock_2013.1_src/data/scripts/dock_solv.prm

>  <Rbt.Receptor>
prm/pocket_docking_2.prm

>  <SCORE>
9.40264

>  <SCORE.INTER>
2.66677

>  <SCORE.INTER.CONST>
1

>  <SCORE.INTER.POLAR>
-0.362019

>  <SCORE.INTER.ROT>
12

>  <SCORE.INTER.SOLV>
15.0647

>  <SCORE.INTER.VDW>
-13.637

>  <SCORE.INTER.norm>
0.051284

>  <SCORE.INTRA>
2.32252

>  <SCORE.INTRA.DIHEDRAL>
-13.8954

>  <SCORE.INTRA.DIHEDRAL.0>
32.9766

>  <SCORE.INTRA.POLAR>
0

>  <SCORE.INTRA.POLAR.0>
0

>  <SCORE.INTRA.REPUL>
0.164144

>  <SCORE.INTRA.REPUL.0>
0

>  <SCORE.INTRA.SOLV>
1.65143

>  <SCORE.INTRA.SOLV.lig_0>
-114.358

>  <SCORE.INTRA.VDW>
7.62377

>  <SCORE.INTRA.VDW.0>
-8.24257

>  <SCORE.INTRA.norm>
0.0446638

>  <SCORE.RESTR>
4.41336

>  <SCORE.RESTR.CAVITY>
4.41336

>  <SCORE.RESTR.norm>
0.0848722

>  <SCORE.SYSTEM>
0

>  <SCORE.SYSTEM.CONST>
0

>  <SCORE.SYSTEM.DIHEDRAL>
0

>  <SCORE.SYSTEM.SOLV>
0

>  <SCORE.SYSTEM.norm>
0

>  <SCORE.heavy>
52

>  <SCORE.norm>
0.18082

>  <RMSD>
2.704

$$$$
2esj_lig
 OpenBabel11021811423D
libRbt.so/2013.1/901 2013/11/27
 52 56  0  0  0  0  0  0  0  0999 V2000
   18.0271   -7.7550   19.3440 C   0  0  2  0  0  0  0  0  0  0  0  0
   18.5221   -7.6640   17.9943 O   0  0  0  0  0  0  0  0  0  0  0  0
   19.9361  -11.0334   15.7727 C   0  0  2  0  0  0  0  0  0  0  0  0
   20.0480  -12.2363   14.9314 N   0  0  0  0  0  0  0  0  0  0  0  0
   19.6662   -6.5819   14.3160 C   0  0  1  0  0  0  0  0  0  0  0  0
   21.6854   -3.6974   12.0106 C   0  0  1  0  0  0  0  0  0  0  0  0
   26.5789   -3.3089   13.6176 C   0  0  1  0  0  0  0  0  0  0  0  0
   16.9223   -6.6705   19.5121 C   0  0  2  0  0  0  0  0  0  0  0  0
   15.8509   -6.8147   18.5269 N   0  0  0  0  0  0  0  0  0  0  0  0
   18.9490  -11.2966   16.9785 C   0  0  0  0  0  0  0  0  0  0  0  0
   18.8765   -5.5820   13.4705 C   0  0  2  0  0  0  0  0  0  0  0  0
   18.5009   -6.1234   12.1855 O   0  0  0  0  0  0  0  0  0  0  0  0
   22.8568   -4.4177   11.2043 C   0  0  2  0  0  0  0  0  0  0  0  0
   23.4600   -5.5159   12.0050 N   0  0  0  0  0  0  0  0  0  0  0  0
   26.9464   -4.7737   13.8244 C   0  0  1  0  0  0  0  0  0  0  0  0
   28.3599   -4.8745   14.0896 O   0  0  0  0  0  0  0  0  0  0  0  0
   17.5323   -5.2354   19.4257 C   0  0  0  0  0  0  0  0  0  0  0  0
   18.8876  -10.0148   17.9030 C   0  0  2  0  0  0  0  0  0  0  0  0
   17.9665  -10.2283   19.0241 N   0  0  0  0  0  0  0  0  0  0  0  0
   19.8582   -4.4484   13.3987 C   0  0  2  0  0  0  0  0  0  0  0  0
   20.8786   -4.7385   12.4773 O   0  0  0  0  0  0  0  0  0  0  0  0
   23.8853   -3.3156   10.6918 C   0  0  1  0  0  0  0  0  0  0  0  0
   23.1615   -2.2949    9.9969 O   0  0  0  0  0  0  0  0  0  0  0  0
   26.2044   -5.4779   14.9540 C   0  0  1  0  0  0  0  0  0  0  0  0
   26.8385   -6.7464   15.1510 O   0  0  0  0  0  0  0  0  0  0  0  0
   18.6844   -5.1150   20.4668 C   0  0  2  0  0  0  0  0  0  0  0  0
   19.2334   -3.8097   20.4962 O   0  0  0  0  0  0  0  0  0  0  0  0
   18.4570   -8.7735   17.0790 C   0  0  2  0  0  0  0  0  0  0  0  0
   20.5805   -4.4278   14.7616 C   0  0  2  0  0  0  0  0  0  0  0  0
   20.5417   -5.7957   15.1363 O   0  0  0  0  0  0  0  0  0  0  0  0
   24.6037   -2.5878   11.9016 C   0  0  2  0  0  0  0  0  0  0  0  0
   25.3405   -3.6260   12.5494 O   0  0  0  0  0  0  0  0  0  0  0  0
   26.2058   -4.7004   16.2714 C   0  0  2  0  0  0  0  0  0  0  0  0
   25.2275   -5.3200   17.1221 O   0  0  0  0  0  0  0  0  0  0  0  0
   19.7591   -6.1783   20.1301 C   0  0  2  0  0  0  0  0  0  0  0  0
   19.1262   -7.4848   20.2457 O   0  0  0  0  0  0  0  0  0  0  0  0
   19.3202   -8.5235   15.8010 C   0  0  2  0  0  0  0  0  0  0  0  0
   18.7850   -7.3869   15.0675 O   0  0  0  0  0  0  0  0  0  0  0  0
   19.9365   -3.5838   15.8609 C   0  0  0  0  0  0  0  0  0  0  0  0
   20.0030   -2.2112   15.4471 O   0  0  0  0  0  0  0  0  0  0  0  0
   23.4976   -2.2091   12.8676 C   0  0  1  0  0  0  0  0  0  0  0  0
   22.2488   -2.8746   13.1546 O   0  0  0  0  0  0  0  0  0  0  0  0
   25.9829   -3.2098   16.0413 C   0  0  2  0  0  0  0  0  0  0  0  0
   26.4534   -2.5597   14.8506 O   0  0  0  0  0  0  0  0  0  0  0  0
   20.8950   -6.1874   21.0956 C   0  0  0  0  0  0  0  0  0  0  0  0
   21.5616   -4.9541   20.9744 O   0  0  0  0  0  0  0  0  0  0  0  0
   19.4093   -9.8195   14.9264 C   0  0  1  0  0  0  0  0  0  0  0  0
   20.3769   -9.5621   13.8743 O   0  0  0  0  0  0  0  0  0  0  0  0
   23.9220   -1.3767   14.1164 C   0  0  0  0  0  0  0  0  0  0  0  0
   23.4425    0.0210   14.0803 N   0  0  0  0  0  0  0  0  0  0  0  0
   25.9463   -2.1881   17.1756 C   0  0  0  0  0  0  0  0  0  0  0  0
   25.0006   -2.6110   18.1933 O   0  0  0  0  0  0  0  0  0  0  0  0
  1  2  1  6  0  0  0
  1  8  1  0  0  0  0
  1 36  1  0  0  0  0
  3  4  1  6  0  0  0
  3 10  1  0  0  0  0
  3 47  1  0  0  0  0
  5 11  1  0  0  0  0
  5 30  1  0  0  0  0
  5 38  1  1  0  0  0
  6 21  1  1  0  0  0
  6 42  1  0  0  0  0
  7 15  1  0  0  0  0
  7 44  1  0  0  0  0
  7 32  1  1  0  0  0
  8  9  1  6  0  0  0
  8 17  1  0  0  0  0
 11 12  1  6  0  0  0
 11 20  1  0  0  0  0
 13  6  1  0  0  0  0
 13 14  1  1  0  0  0
 15 16  1  1  0  0  0
 15 24  1  0  0  0  0
 17 26  1  0  0  0  0
 18 10  1  0  0  0  0
 18 19  1  1  0  0  0
 20 21  1  6  0  0  0
 20 29  1  0  0  0  0
 22 13  1  0  0  0  0
 22 23  1  1  0  0  0
 24 25  1  1  0  0  0
 24 33  1  0  0  0  0
 26 27  1  6  0  0  0
 26 35  1  0  0  0  0
 28  2  1  1  0  0  0
 28 18  1  0  0  0  0
 29 30  1  0  0  0  0
 29 39  1  1  0  0  0
 31 22  1  0  0  0  0
 31 32  1  1  0  0  0
 31 41  1  0  0  0  0
 33 34  1  1  0  0  0
 33 43  1  0  0  0  0
 35 36  1  0  0  0  0
 35 45  1  1  0  0  0
 37 28  1  0  0  0  0
 37 38  1  6  0  0  0
 39 40  1  0  0  0  0
 41 42  1  0  0  0  0
 41 49  1  1  0  0  0
 43 44  1  0  0  0  0
 43 51  1  1  0  0  0
 45 46  1  0  0  0  0
 47 37  1  0  0  0  0
 47 48  1  6  0  0  0
 49 50  1  0  0  0  0
 51 52  1  0  0  0  0
M  END
>  <CHROM.1>
-120.77103263,171.71880626,170.66034213,-176.41067815,163.67996543,-43.25713500
-65.45528649,162.94220688,-64.93213721,149.50464334,109.96416345,-52.32668790
21.66329883,-5.50520531,15.63126611,-2.71449991,-0.69968858,-1.72820969

>  <Name>
2esj_lig

>  <RI>
1.01272e+07

>  <Rbt.Current_Directory>
/home/itssahil/PROJECTS/Mol_Feturizer/New_Systems/rnas/2esj

>  <Rbt.Executable>
rbdock ($Id: //depot/dev/client3/rdock/2013.1/src/exe/rbdock.cxx#4 $)

>  <Rbt.Library>
libRbt.so (2013.1, Build901 2013/11/27)

>  <Rbt.Parameter_File>
/export/apps/rDock/src/rDock_2013.1_src/data/scripts/dock_solv.prm

>  <Rbt.Receptor>
prm/pocket_docking_3.prm

>  <SCORE>
-9.90427

>  <SCORE.INTER>
-8.55757

>  <SCORE.INTER.CONST>
1

>  <SCORE.INTER.POLAR>
-1.45659

>  <SCORE.INTER.ROT>
12

>  <SCORE.INTER.SOLV>
18.8609

>  <SCORE.INTER.VDW>
-18.7367

>  <SCORE.INTER.norm>
-0.164569

>  <SCORE.INTRA>
-1.34739

>  <SCORE.INTRA.DIHEDRAL>
-12.0591

>  <SCORE.INTRA.DIHEDRAL.0>
32.9766

>  <SCORE.INTRA.POLAR>
0

>  <SCORE.INTRA.POLAR.0>
0

>  <SCORE.INTRA.REPUL>
0

>  <SCORE.INTRA.REPUL.0>
0

>  <SCORE.INTRA.SOLV>
-1.16622

>  <SCORE.INTRA.SOLV.lig_0>
-114.358

>  <SCORE.INTRA.VDW>
5.26525

>  <SCORE.INTRA.VDW.0>
-8.24257

>  <SCORE.INTRA.norm>
-0.0259114

>  <SCORE.RESTR>
0.000691623

>  <SCORE.RESTR.CAVITY>
0.000691623

>  <SCORE.RESTR.norm>
1.33004e-05

>  <SCORE.SYSTEM>
0

>  <SCORE.SYSTEM.CONST>
0

>  <SCORE.SYSTEM.DIHEDRAL>
0

>  <SCORE.SYSTEM.SOLV>
0

>  <SCORE.SYSTEM.norm>
0

>  <SCORE.heavy>
52

>  <SCORE.norm>
-0.190467

>  <RMSD>
2.739

$$$$
2esj_lig
 OpenBabel11021811423D
libRbt.so/2013.1/901 2013/11/27
 52 56  0  0  0  0  0  0  0  0999 V2000
   17.7010   -8.4374   19.2961 C   0  0  2  0  0  0  0  0  0  0  0  0
   18.1089   -8.2024   17.9347 O   0  0  0  0  0  0  0  0  0  0  0  0
   20.1416  -11.2433   15.7191 C   0  0  2  0  0  0  0  0  0  0  0  0
   20.4825  -12.3848   14.8542 N   0  0  0  0  0  0  0  0  0  0  0  0
   19.3015   -6.8108   14.3974 C   0  0  1  0  0  0  0  0  0  0  0  0
   21.0525   -3.4482   12.5684 C   0  0  1  0  0  0  0  0  0  0  0  0
   25.5821   -3.1138   14.5350 C   0  0  1  0  0  0  0  0  0  0  0  0
   16.3654   -7.6699   19.5242 C   0  0  2  0  0  0  0  0  0  0  0  0
   15.3306   -8.0637   18.5686 N   0  0  0  0  0  0  0  0  0  0  0  0
   19.1331  -11.6930   16.8496 C   0  0  0  0  0  0  0  0  0  0  0  0
   18.4218   -5.6866   13.8487 C   0  0  2  0  0  0  0  0  0  0  0  0
   17.9375   -5.9664   12.5174 O   0  0  0  0  0  0  0  0  0  0  0  0
   22.2613   -3.9775   11.6739 C   0  0  2  0  0  0  0  0  0  0  0  0
   22.9315   -5.1397   12.3149 N   0  0  0  0  0  0  0  0  0  0  0  0
   26.2410   -1.7926   14.1559 C   0  0  1  0  0  0  0  0  0  0  0  0
   26.4945   -1.0293   15.3523 O   0  0  0  0  0  0  0  0  0  0  0  0
   16.5911   -6.1260   19.4550 C   0  0  0  0  0  0  0  0  0  0  0  0
   18.8252  -10.4691   17.8030 C   0  0  2  0  0  0  0  0  0  0  0  0
   17.8795  -10.8568   18.8547 N   0  0  0  0  0  0  0  0  0  0  0  0
   19.3753   -4.5295   13.9274 C   0  0  2  0  0  0  0  0  0  0  0  0
   20.3106   -4.5904   12.8806 O   0  0  0  0  0  0  0  0  0  0  0  0
   23.2207   -2.7554   11.3259 C   0  0  1  0  0  0  0  0  0  0  0  0
   22.4350   -1.6917   10.7782 O   0  0  0  0  0  0  0  0  0  0  0  0
   27.5525   -1.9154   13.3895 C   0  0  1  0  0  0  0  0  0  0  0  0
   28.1334   -0.6080   13.3321 O   0  0  0  0  0  0  0  0  0  0  0  0
   17.7119   -5.7357   20.4635 C   0  0  2  0  0  0  0  0  0  0  0  0
   17.9153   -4.3347   20.5085 O   0  0  0  0  0  0  0  0  0  0  0  0
   18.2657   -9.2749   16.9869 C   0  0  2  0  0  0  0  0  0  0  0  0
   20.2199   -4.7633   15.1969 C   0  0  2  0  0  0  0  0  0  0  0  0
   20.2367   -6.1794   15.2828 O   0  0  0  0  0  0  0  0  0  0  0  0
   23.8996   -2.1637   12.6291 C   0  0  2  0  0  0  0  0  0  0  0  0
   24.6992   -3.2373   13.1277 O   0  0  0  0  0  0  0  0  0  0  0  0
   28.5497   -2.8857   14.0255 C   0  0  2  0  0  0  0  0  0  0  0  0
   29.5750   -3.1292   13.0487 O   0  0  0  0  0  0  0  0  0  0  0  0
   19.0071   -6.4877   20.0683 C   0  0  2  0  0  0  0  0  0  0  0  0
   18.7279   -7.9133   20.1706 O   0  0  0  0  0  0  0  0  0  0  0  0
   19.1584   -8.8538   15.7758 C   0  0  2  0  0  0  0  0  0  0  0  0
   18.5058   -7.7817   15.0402 O   0  0  0  0  0  0  0  0  0  0  0  0
   19.6673   -4.1841   16.4987 C   0  0  0  0  0  0  0  0  0  0  0  0
   18.2426   -4.3556   16.4779 O   0  0  0  0  0  0  0  0  0  0  0  0
   22.7769   -1.9906   13.6339 C   0  0  1  0  0  0  0  0  0  0  0  0
   21.5708   -2.7625   13.8190 O   0  0  0  0  0  0  0  0  0  0  0  0
   27.8574   -4.1447   14.5354 C   0  0  2  0  0  0  0  0  0  0  0  0
   26.5112   -4.1067   15.0335 O   0  0  0  0  0  0  0  0  0  0  0  0
   20.1421   -6.2255   20.9985 C   0  0  0  0  0  0  0  0  0  0  0  0
   19.6577   -6.3836   22.3102 O   0  0  0  0  0  0  0  0  0  0  0  0
   19.4927  -10.0894   14.8737 C   0  0  1  0  0  0  0  0  0  0  0  0
   20.4735   -9.6541   13.8950 O   0  0  0  0  0  0  0  0  0  0  0  0
   23.1564   -1.3184   14.9891 C   0  0  0  0  0  0  0  0  0  0  0  0
   24.0797   -0.1741   14.8380 N   0  0  0  0  0  0  0  0  0  0  0  0
   28.6035   -5.2839   15.2262 C   0  0  0  0  0  0  0  0  0  0  0  0
   29.4784   -5.9504   14.2780 O   0  0  0  0  0  0  0  0  0  0  0  0
  1  2  1  6  0  0  0
  1  8  1  0  0  0  0
  1 36  1  0  0  0  0
  3  4  1  6  0  0  0
  3 10  1  0  0  0  0
  3 47  1  0  0  0  0
  5 11  1  0  0  0  0
  5 30  1  0  0  0  0
  5 38  1  1  0  0  0
  6 21  1  1  0  0  0
  6 42  1  0  0  0  0
  7 15  1  0  0  0  0
  7 44  1  0  0  0  0
  7 32  1  6  0  0  0
  8  9  1  6  0  0  0
  8 17  1  0  0  0  0
 11 12  1  6  0  0  0
 11 20  1  0  0  0  0
 13  6  1  0  0  0  0
 13 14  1  1  0  0  0
 15 16  1  1  0  0  0
 15 24  1  0  0  0  0
 17 26  1  0  0  0  0
 18 10  1  0  0  0  0
 18 19  1  1  0  0  0
 20 21  1  6  0  0  0
 20 29  1  0  0  0  0
 22 13  1  0  0  0  0
 22 23  1  1  0  0  0
 24 25  1  1  0  0  0
 24 33  1  0  0  0  0
 26 27  1  6  0  0  0
 26 35  1  0  0  0  0
 28  2  1  1  0  0  0
 28 18  1  0  0  0  0
 29 30  1  0  0  0  0
 29 39  1  1  0  0  0
 31 22  1  0  0  0  0
 31 32  1  1  0  0  0
 31 41  1  0  0  0  0
 33 34  1  6  0  0  0
 33 43  1  0  0  0  0
 35 36  1  0  0  0  0
 35 45  1  1  0  0  0
 37 28  1  0  0  0  0
 37 38  1  6  0  0  0
 39 40  1  0  0  0  0
 41 42  1  0  0  0  0
 41 49  1  1  0  0  0
 43 44  1  0  0  0  0
 43 51  1  1  0  0  0
 45 46  1  0  0  0  0
 47 37  1  0  0  0  0
 47 48  1  6  0  0  0
 49 50  1  0  0  0  0
 51 52  1  0  0  0  0
M  END
>  <CHROM.1>
-119.44045273,-172.50710199,164.01544983,-49.99125011,163.52528792,-35.77661558
38.11671886,-177.97812455,47.87580237,148.01180317,41.22839813,-67.67970976
21.57189425,-5.49741411,15.56762753,3.13929263,-0.72610539,-2.25540949

>  <Name>
2esj_lig

>  <RI>
0

>  <Rbt.Current_Directory>
/home/itssahil/PROJECTS/Mol_Feturizer/New_Systems/rnas/2esj

>  <Rbt.Executable>
rbdock ($Id: //depot/dev/client3/rdock/2013.1/src/exe/rbdock.cxx#4 $)

>  <Rbt.Library>
libRbt.so (2013.1, Build901 2013/11/27)

>  <Rbt.Parameter_File>
/export/apps/rDock/src/rDock_2013.1_src/data/scripts/dock_solv.prm

>  <Rbt.Receptor>
prm/pocket_docking_2.prm

>  <SCORE>
11.9519

>  <SCORE.INTER>
1.52932

>  <SCORE.INTER.CONST>
1

>  <SCORE.INTER.POLAR>
-0.845023

>  <SCORE.INTER.ROT>
12

>  <SCORE.INTER.SOLV>
20.9753

>  <SCORE.INTER.VDW>
-14.7555

>  <SCORE.INTER.norm>
0.02941

>  <SCORE.INTRA>
5.92603

>  <SCORE.INTRA.DIHEDRAL>
-8.91252

>  <SCORE.INTRA.DIHEDRAL.0>
32.9766

>  <SCORE.INTRA.POLAR>
0

>  <SCORE.INTRA.POLAR.0>
0

>  <SCORE.INTRA.REPUL>
0

>  <SCORE.INTRA.REPUL.0>
0

>  <SCORE.INTRA.SOLV>
3.71361

>  <SCORE.INTRA.SOLV.lig_0>
-114.358

>  <SCORE.INTRA.VDW>
8.52549

>  <SCORE.INTRA.VDW.0>
-8.24257

>  <SCORE.INTRA.norm>
0.113962

>  <SCORE.RESTR>
4.49652

>  <SCORE.RESTR.CAVITY>
4.49652

>  <SCORE.RESTR.norm>
0.0864715

>  <SCORE.SYSTEM>
0

>  <SCORE.SYSTEM.CONST>
0

>  <SCORE.SYSTEM.DIHEDRAL>
0

>  <SCORE.SYSTEM.SOLV>
0

>  <SCORE.SYSTEM.norm>
0

>  <SCORE.heavy>
52

>  <SCORE.norm>
0.229844

>  <RMSD>
2.800

$$$$
2esj_lig
 OpenBabel11021811423D
libRbt.so/2013.1/901 2013/11/27
 52 56  0  0  0  0  0  0  0  0999 V2000
   17.6594   -5.9733   17.8312 C   0  0  2  0  0  0  0  0  0  0  0  0
   18.5546   -6.9305   17.2336 O   0  0  0  0  0  0  0  0  0  0  0  0
   19.1471  -11.1408   17.6920 C   0  0  2  0  0  0  0  0  0  0  0  0
   18.9775  -12.6017   17.7573 N   0  0  0  0  0  0  0  0  0  0  0  0
   19.7852   -7.5887   14.2712 C   0  0  1  0  0  0  0  0  0  0  0  0
   21.9402   -4.6930   12.4375 C   0  0  1  0  0  0  0  0  0  0  0  0
   26.8220   -3.3369   12.9554 C   0  0  1  0  0  0  0  0  0  0  0  0
   17.5702   -4.7513   16.8700 C   0  0  2  0  0  0  0  0  0  0  0  0
   17.1408   -5.1350   15.5256 N   0  0  0  0  0  0  0  0  0  0  0  0
   18.1140  -10.4248   18.6499 C   0  0  0  0  0  0  0  0  0  0  0  0
   19.9931   -7.8202   12.7740 C   0  0  2  0  0  0  0  0  0  0  0  0
   21.0719   -8.7415   12.5039 O   0  0  0  0  0  0  0  0  0  0  0  0
   23.3548   -4.7821   11.7081 C   0  0  2  0  0  0  0  0  0  0  0  0
   24.2699   -5.7072   12.4276 N   0  0  0  0  0  0  0  0  0  0  0  0
   27.3142   -4.3853   13.9464 C   0  0  1  0  0  0  0  0  0  0  0  0
   28.4112   -5.1137   13.3596 O   0  0  0  0  0  0  0  0  0  0  0  0
   18.9373   -3.9999   16.7957 C   0  0  0  0  0  0  0  0  0  0  0  0
   18.3506   -8.8614   18.6113 C   0  0  2  0  0  0  0  0  0  0  0  0
   17.3942   -8.1711   19.4828 N   0  0  0  0  0  0  0  0  0  0  0  0
   20.2525   -6.4151   12.3130 C   0  0  2  0  0  0  0  0  0  0  0  0
   21.5598   -6.0214   12.6453 O   0  0  0  0  0  0  0  0  0  0  0  0
   23.9196   -3.3090   11.4936 C   0  0  1  0  0  0  0  0  0  0  0  0
   22.9150   -2.5174   10.8510 O   0  0  0  0  0  0  0  0  0  0  0  0
   27.7769   -3.8418   15.2929 C   0  0  1  0  0  0  0  0  0  0  0  0
   28.4147   -4.9191   15.9877 O   0  0  0  0  0  0  0  0  0  0  0  0
   19.3835   -3.6233   18.2395 C   0  0  2  0  0  0  0  0  0  0  0  0
   20.5824   -2.8690   18.2404 O   0  0  0  0  0  0  0  0  0  0  0  0
   18.2362   -8.3326   17.1579 C   0  0  2  0  0  0  0  0  0  0  0  0
   19.3572   -5.5118   13.1860 C   0  0  2  0  0  0  0  0  0  0  0  0
   19.2818   -6.2513   14.3945 O   0  0  0  0  0  0  0  0  0  0  0  0
   24.2126   -2.5947   12.8768 C   0  0  2  0  0  0  0  0  0  0  0  0
   25.2393   -3.3893   13.4726 O   0  0  0  0  0  0  0  0  0  0  0  0
   28.7478   -2.6649   15.1819 C   0  0  2  0  0  0  0  0  0  0  0  0
   28.8401   -2.0762   16.4895 O   0  0  0  0  0  0  0  0  0  0  0  0
   19.5301   -4.9283   19.0608 C   0  0  2  0  0  0  0  0  0  0  0  0
   18.2204   -5.5638   19.1007 O   0  0  0  0  0  0  0  0  0  0  0  0
   19.1466   -9.0805   16.1318 C   0  0  2  0  0  0  0  0  0  0  0  0
   18.9048   -8.5576   14.7959 O   0  0  0  0  0  0  0  0  0  0  0  0
   17.9446   -5.2467   12.6663 C   0  0  0  0  0  0  0  0  0  0  0  0
   17.6528   -3.8603   12.8954 O   0  0  0  0  0  0  0  0  0  0  0  0
   22.9766   -2.8223   13.7257 C   0  0  1  0  0  0  0  0  0  0  0  0
   22.0590   -3.9368   13.7479 O   0  0  0  0  0  0  0  0  0  0  0  0
   28.3262   -1.6936   14.0851 C   0  0  2  0  0  0  0  0  0  0  0  0
   27.6499   -2.1498   12.9034 O   0  0  0  0  0  0  0  0  0  0  0  0
   19.9101   -4.6852   20.4817 C   0  0  0  0  0  0  0  0  0  0  0  0
   18.8305   -4.0283   21.1006 O   0  0  0  0  0  0  0  0  0  0  0  0
   18.9330  -10.6291   16.2224 C   0  0  1  0  0  0  0  0  0  0  0  0
   19.9444  -11.2520   15.3866 O   0  0  0  0  0  0  0  0  0  0  0  0
   22.9559   -2.1265   15.1215 C   0  0  0  0  0  0  0  0  0  0  0  0
   21.8133   -1.2063   15.3012 N   0  0  0  0  0  0  0  0  0  0  0  0
   29.1140   -0.4312   13.7422 C   0  0  0  0  0  0  0  0  0  0  0  0
   29.1758    0.4441   14.8992 O   0  0  0  0  0  0  0  0  0  0  0  0
  1  2  1  6  0  0  0
  1  8  1  0  0  0  0
  1 36  1  0  0  0  0
  3  4  1  6  0  0  0
  3 10  1  0  0  0  0
  3 47  1  0  0  0  0
  5 11  1  0  0  0  0
  5 30  1  0  0  0  0
  5 38  1  6  0  0  0
  6 21  1  1  0  0  0
  6 42  1  0  0  0  0
  7 15  1  0  0  0  0
  7 44  1  0  0  0  0
  7 32  1  1  0  0  0
  8  9  1  6  0  0  0
  8 17  1  0  0  0  0
 11 12  1  1  0  0  0
 11 20  1  0  0  0  0
 13  6  1  0  0  0  0
 13 14  1  1  0  0  0
 15 16  1  6  0  0  0
 15 24  1  0  0  0  0
 17 26  1  0  0  0  0
 18 10  1  0  0  0  0
 18 19  1  1  0  0  0
 20 21  1  1  0  0  0
 20 29  1  0  0  0  0
 22 13  1  0  0  0  0
 22 23  1  1  0  0  0
 24 25  1  6  0  0  0
 24 33  1  0  0  0  0
 26 27  1  6  0  0  0
 26 35  1  0  0  0  0
 28  2  1  1  0  0  0
 28 18  1  0  0  0  0
 29 30  1  0  0  0  0
 29 39  1  6  0  0  0
 31 22  1  0  0  0  0
 31 32  1  1  0  0  0
 31 41  1  0  0  0  0
 33 34  1  1  0  0  0
 33 43  1  0  0  0  0
 35 36  1  0  0  0  0
 35 45  1  1  0  0  0
 37 28  1  0  0  0  0
 37 38  1  6  0  0  0
 39 40  1  0  0  0  0
 41 42  1  0  0  0  0
 41 49  1  1  0  0  0
 43 44  1  0  0  0  0
 43 51  1  6  0  0  0
 45 46  1  0  0  0  0
 47 37  1  0  0  0  0
 47 48  1  6  0  0  0
 49 50  1  0  0  0  0
 51 52  1  0  0  0  0
M  END
>  <CHROM.1>
-133.79881769,142.90207991,-133.07517209,-178.89556533,-172.67791208,-71.57742838
-138.54481512,74.89382467,66.47856827,98.17503159,121.38733529,-60.56111954
21.89513573,-5.28236851,15.22856149,-3.12922328,-0.62436869,-2.08245630

>  <Name>
2esj_lig

>  <RI>
1.01272e+07

>  <Rbt.Current_Directory>
/home/itssahil/PROJECTS/Mol_Feturizer/New_Systems/rnas/2esj

>  <Rbt.Executable>
rbdock ($Id: //depot/dev/client3/rdock/2013.1/src/exe/rbdock.cxx#4 $)

>  <Rbt.Library>
libRbt.so (2013.1, Build901 2013/11/27)

>  <Rbt.Parameter_File>
/export/apps/rDock/src/rDock_2013.1_src/data/scripts/dock_solv.prm

>  <Rbt.Receptor>
prm/pocket_docking_3.prm

>  <SCORE>
0.842779

>  <SCORE.INTER>
-4.67374

>  <SCORE.INTER.CONST>
1

>  <SCORE.INTER.POLAR>
-0.602132

>  <SCORE.INTER.ROT>
12

>  <SCORE.INTER.SOLV>
14.2822

>  <SCORE.INTER.VDW>
-17.4695

>  <SCORE.INTER.norm>
-0.0898795

>  <SCORE.INTRA>
5.25199

>  <SCORE.INTRA.DIHEDRAL>
0.949156

>  <SCORE.INTRA.DIHEDRAL.0>
32.9766

>  <SCORE.INTRA.POLAR>
0

>  <SCORE.INTRA.POLAR.0>
0

>  <SCORE.INTRA.REPUL>
0.247168

>  <SCORE.INTRA.REPUL.0>
0

>  <SCORE.INTRA.SOLV>
3.27389

>  <SCORE.INTRA.SOLV.lig_0>
-114.358

>  <SCORE.INTRA.VDW>
1.90463

>  <SCORE.INTRA.VDW.0>
-8.24257

>  <SCORE.INTRA.norm>
0.101

>  <SCORE.RESTR>
0.264526

>  <SCORE.RESTR.CAVITY>
0.264526

>  <SCORE.RESTR.norm>
0.00508704

>  <SCORE.SYSTEM>
0

>  <SCORE.SYSTEM.CONST>
0

>  <SCORE.SYSTEM.DIHEDRAL>
0

>  <SCORE.SYSTEM.SOLV>
0

>  <SCORE.SYSTEM.norm>
0

>  <SCORE.heavy>
52

>  <SCORE.norm>
0.0162073

>  <RMSD>
2.824

$$$$
2esj_lig
 OpenBabel11021811423D
libRbt.so/2013.1/901 2013/11/27
 52 56  0  0  0  0  0  0  0  0999 V2000
   17.2567   -6.4103   18.7049 C   0  0  2  0  0  0  0  0  0  0  0  0
   17.6872   -7.7298   19.0900 O   0  0  0  0  0  0  0  0  0  0  0  0
   18.8278  -11.3844   17.1845 C   0  0  2  0  0  0  0  0  0  0  0  0
   18.8566  -12.6316   16.4028 N   0  0  0  0  0  0  0  0  0  0  0  0
   19.4256   -6.7440   15.9729 C   0  0  1  0  0  0  0  0  0  0  0  0
   23.1751   -5.6370   14.7971 C   0  0  1  0  0  0  0  0  0  0  0  0
   26.4694   -2.3264   16.4501 C   0  0  1  0  0  0  0  0  0  0  0  0
   17.9104   -5.3977   19.6909 C   0  0  2  0  0  0  0  0  0  0  0  0
   19.3684   -5.5111   19.7146 N   0  0  0  0  0  0  0  0  0  0  0  0
   17.6630  -11.4321   18.2515 C   0  0  0  0  0  0  0  0  0  0  0  0
   20.3472   -7.2957   14.8844 C   0  0  2  0  0  0  0  0  0  0  0  0
   21.3854   -8.1445   15.4201 O   0  0  0  0  0  0  0  0  0  0  0  0
   23.9642   -5.1162   16.0805 C   0  0  2  0  0  0  0  0  0  0  0  0
   23.4960   -3.7636   16.4834 N   0  0  0  0  0  0  0  0  0  0  0  0
   25.7740   -0.9730   16.3597 C   0  0  1  0  0  0  0  0  0  0  0  0
   25.6195   -0.4303   17.6863 O   0  0  0  0  0  0  0  0  0  0  0  0
   17.3411   -5.5783   21.1340 C   0  0  0  0  0  0  0  0  0  0  0  0
   17.6852  -10.1105   19.1201 C   0  0  2  0  0  0  0  0  0  0  0  0
   16.6038  -10.1235   20.1107 N   0  0  0  0  0  0  0  0  0  0  0  0
   20.8485   -6.0178   14.2762 C   0  0  2  0  0  0  0  0  0  0  0  0
   21.8260   -5.4318   15.0981 O   0  0  0  0  0  0  0  0  0  0  0  0
   25.5286   -5.2331   15.8082 C   0  0  1  0  0  0  0  0  0  0  0  0
   25.8237   -6.5633   15.3696 O   0  0  0  0  0  0  0  0  0  0  0  0
   26.4858    0.0689   15.5051 C   0  0  1  0  0  0  0  0  0  0  0  0
   25.8274    1.3207   15.7278 O   0  0  0  0  0  0  0  0  0  0  0  0
   15.7880   -5.4768   21.0784 C   0  0  2  0  0  0  0  0  0  0  0  0
   15.2086   -5.5552   22.3685 O   0  0  0  0  0  0  0  0  0  0  0  0
   17.5673   -8.8617   18.2081 C   0  0  2  0  0  0  0  0  0  0  0  0
   19.6666   -5.0282   14.3381 C   0  0  2  0  0  0  0  0  0  0  0  0
   18.9724   -5.4703   15.4937 O   0  0  0  0  0  0  0  0  0  0  0  0
   25.9833   -4.2787   14.6286 C   0  0  2  0  0  0  0  0  0  0  0  0
   25.7068   -2.9638   15.1132 O   0  0  0  0  0  0  0  0  0  0  0  0
   27.9746    0.2154   15.8243 C   0  0  2  0  0  0  0  0  0  0  0  0
   28.5571    0.9781   14.7548 O   0  0  0  0  0  0  0  0  0  0  0  0
   15.2591   -6.5954   20.1467 C   0  0  2  0  0  0  0  0  0  0  0  0
   15.8155   -6.3547   18.8225 O   0  0  0  0  0  0  0  0  0  0  0  0
   18.6181   -8.8118   17.0530 C   0  0  2  0  0  0  0  0  0  0  0  0
   18.3695   -7.6457   16.2195 O   0  0  0  0  0  0  0  0  0  0  0  0
   18.7134   -5.0305   13.1435 C   0  0  0  0  0  0  0  0  0  0  0  0
   18.2017   -6.3637   13.0012 O   0  0  0  0  0  0  0  0  0  0  0  0
   24.9931   -4.5157   13.5046 C   0  0  1  0  0  0  0  0  0  0  0  0
   23.5929   -4.8636   13.5601 O   0  0  0  0  0  0  0  0  0  0  0  0
   28.6324   -1.1400   16.0585 C   0  0  2  0  0  0  0  0  0  0  0  0
   27.9028   -2.2341   16.6351 O   0  0  0  0  0  0  0  0  0  0  0  0
   13.7780   -6.5652   19.9795 C   0  0  0  0  0  0  0  0  0  0  0  0
   13.3805   -7.8311   19.5107 O   0  0  0  0  0  0  0  0  0  0  0  0
   18.6143  -10.1490   16.2381 C   0  0  1  0  0  0  0  0  0  0  0  0
   19.7391  -10.0964   15.3208 O   0  0  0  0  0  0  0  0  0  0  0  0
   25.2723   -3.7673   12.1649 C   0  0  0  0  0  0  0  0  0  0  0  0
   24.0424   -3.3659   11.4500 N   0  0  0  0  0  0  0  0  0  0  0  0
   30.1107   -1.2995   16.4061 C   0  0  0  0  0  0  0  0  0  0  0  0
   30.3434   -0.8933   17.7807 O   0  0  0  0  0  0  0  0  0  0  0  0
  1  2  1  1  0  0  0
  1  8  1  0  0  0  0
  1 36  1  0  0  0  0
  3  4  1  6  0  0  0
  3 10  1  0  0  0  0
  3 47  1  0  0  0  0
  5 11  1  0  0  0  0
  5 30  1  0  0  0  0
  5 38  1  6  0  0  0
  6 21  1  1  0  0  0
  6 42  1  0  0  0  0
  7 15  1  0  0  0  0
  7 44  1  0  0  0  0
  7 32  1  6  0  0  0
  8  9  1  1  0  0  0
  8 17  1  0  0  0  0
 11 12  1  1  0  0  0
 11 20  1  0  0  0  0
 13  6  1  0  0  0  0
 13 14  1  6  0  0  0
 15 16  1  1  0  0  0
 15 24  1  0  0  0  0
 17 26  1  0  0  0  0
 18 10  1  0  0  0  0
 18 19  1  1  0  0  0
 20 21  1  1  0  0  0
 20 29  1  0  0  0  0
 22 13  1  0  0  0  0
 22 23  1  6  0  0  0
 24 25  1  1  0  0  0
 24 33  1  0  0  0  0
 26 27  1  1  0  0  0
 26 35  1  0  0  0  0
 28  2  1  1  0  0  0
 28 18  1  0  0  0  0
 29 30  1  0  0  0  0
 29 39  1  6  0  0  0
 31 22  1  0  0  0  0
 31 32  1  1  0  0  0
 31 41  1  0  0  0  0
 33 34  1  6  0  0  0
 33 43  1  0  0  0  0
 35 36  1  0  0  0  0
 35 45  1  6  0  0  0
 37 28  1  0  0  0  0
 37 38  1  6  0  0  0
 39 40  1  0  0  0  0
 41 42  1  0  0  0  0
 41 49  1  1  0  0  0
 43 44  1  0  0  0  0
 43 51  1  1  0  0  0
 45 46  1  0  0  0  0
 47 37  1  0  0  0  0
 47 48  1  6  0  0  0
 49 50  1  0  0  0  0
 51 52  1  0  0  0  0
M  END
>  <CHROM.1>
-163.36290653,79.35806355,-168.06683711,178.12770936,98.05999012,-161.88730411
57.31834156,63.29773971,-160.83678740,126.58117587,-146.15569506,73.76067303
21.47771774,-5.39989470,16.61248190,2.92996870,-0.57684485,-2.38889848

>  <Name>
2esj_lig

>  <RI>
0

>  <Rbt.Current_Directory>
/home/itssahil/PROJECTS/Mol_Feturizer/New_Systems/rnas/2esj

>  <Rbt.Executable>
rbdock ($Id: //depot/dev/client3/rdock/2013.1/src/exe/rbdock.cxx#4 $)

>  <Rbt.Library>
libRbt.so (2013.1, Build901 2013/11/27)

>  <Rbt.Parameter_File>
/export/apps/rDock/src/rDock_2013.1_src/data/scripts/dock_solv.prm

>  <Rbt.Receptor>
prm/pocket_docking_4.prm

>  <SCORE>
-20.5206

>  <SCORE.INTER>
-16.9668

>  <SCORE.INTER.CONST>
1

>  <SCORE.INTER.POLAR>
-1.80442

>  <SCORE.INTER.ROT>
12

>  <SCORE.INTER.SOLV>
16.9789

>  <SCORE.INTER.VDW>
-22.5561

>  <SCORE.INTER.norm>
-0.326284

>  <SCORE.INTRA>
-3.57468

>  <SCORE.INTRA.DIHEDRAL>
-9.41243

>  <SCORE.INTRA.DIHEDRAL.0>
32.9766

>  <SCORE.INTRA.POLAR>
0

>  <SCORE.INTRA.POLAR.0>
0

>  <SCORE.INTRA.REPUL>
0

>  <SCORE.INTRA.REPUL.0>
0

>  <SCORE.INTRA.SOLV>
-1.41765

>  <SCORE.INTRA.SOLV.lig_0>
-114.358

>  <SCORE.INTRA.VDW>
1.84036

>  <SCORE.INTRA.VDW.0>
-8.24257

>  <SCORE.INTRA.norm>
-0.0687439

>  <SCORE.RESTR>
0.0208169

>  <SCORE.RESTR.CAVITY>
0.0208169

>  <SCORE.RESTR.norm>
0.000400325

>  <SCORE.SYSTEM>
0

>  <SCORE.SYSTEM.CONST>
0

>  <SCORE.SYSTEM.DIHEDRAL>
0

>  <SCORE.SYSTEM.SOLV>
0

>  <SCORE.SYSTEM.norm>
0

>  <SCORE.heavy>
52

>  <SCORE.norm>
-0.394628

>  <RMSD>
2.832

$$$$
2esj_lig
 OpenBabel11021811423D
libRbt.so/2013.1/901 2013/11/27
 52 56  0  0  0  0  0  0  0  0999 V2000
   19.2735   -7.8402   17.8262 C   0  0  2  0  0  0  0  0  0  0  0  0
   18.3172   -8.9091   17.9598 O   0  0  0  0  0  0  0  0  0  0  0  0
   20.3794  -12.4716   16.8005 C   0  0  2  0  0  0  0  0  0  0  0  0
   20.7378  -13.8031   16.2846 N   0  0  0  0  0  0  0  0  0  0  0  0
   19.5177   -7.9111   15.0413 C   0  0  1  0  0  0  0  0  0  0  0  0
   21.4271   -4.2499   14.3721 C   0  0  1  0  0  0  0  0  0  0  0  0
   25.9799   -2.4916   15.2646 C   0  0  1  0  0  0  0  0  0  0  0  0
   20.4902   -8.1836   18.7355 C   0  0  2  0  0  0  0  0  0  0  0  0
   21.0755   -9.4836   18.4092 N   0  0  0  0  0  0  0  0  0  0  0  0
   19.2337  -12.5921   17.8823 C   0  0  0  0  0  0  0  0  0  0  0  0
   20.9959   -7.9081   14.6496 C   0  0  2  0  0  0  0  0  0  0  0  0
   21.8693   -8.0111   15.7950 O   0  0  0  0  0  0  0  0  0  0  0  0
   22.9607   -4.3385   13.9459 C   0  0  2  0  0  0  0  0  0  0  0  0
   23.7796   -4.9573   15.0217 N   0  0  0  0  0  0  0  0  0  0  0  0
   26.3346   -3.1643   16.5857 C   0  0  1  0  0  0  0  0  0  0  0  0
   27.4527   -4.0510   16.3804 O   0  0  0  0  0  0  0  0  0  0  0  0
   20.0864   -8.1475   20.2438 C   0  0  0  0  0  0  0  0  0  0  0  0
   18.9039  -11.1601   18.4672 C   0  0  2  0  0  0  0  0  0  0  0  0
   17.8326  -11.2423   19.4652 N   0  0  0  0  0  0  0  0  0  0  0  0
   21.0841   -6.5972   13.9230 C   0  0  2  0  0  0  0  0  0  0  0  0
   21.1095   -5.5293   14.8357 O   0  0  0  0  0  0  0  0  0  0  0  0
   23.4495   -2.8992   13.4718 C   0  0  1  0  0  0  0  0  0  0  0  0
   22.5375   -2.4020   12.4871 O   0  0  0  0  0  0  0  0  0  0  0  0
   26.6892   -2.2159   17.7246 C   0  0  1  0  0  0  0  0  0  0  0  0
   27.2156   -3.0132   18.7911 O   0  0  0  0  0  0  0  0  0  0  0  0
   19.4455   -6.7637   20.5600 C   0  0  2  0  0  0  0  0  0  0  0  0
   19.1248   -6.6333   21.9334 O   0  0  0  0  0  0  0  0  0  0  0  0
   18.5057  -10.1882   17.3261 C   0  0  2  0  0  0  0  0  0  0  0  0
   19.7376   -6.4293   13.1892 C   0  0  2  0  0  0  0  0  0  0  0  0
   18.8468   -7.1279   14.0445 O   0  0  0  0  0  0  0  0  0  0  0  0
   23.4114   -1.8545   14.6619 C   0  0  2  0  0  0  0  0  0  0  0  0
   24.3546   -2.3627   15.6067 O   0  0  0  0  0  0  0  0  0  0  0  0
   27.7117   -1.1453   17.3397 C   0  0  2  0  0  0  0  0  0  0  0  0
   27.7032   -0.1643   18.3896 O   0  0  0  0  0  0  0  0  0  0  0  0
   18.1948   -6.5891   19.6632 C   0  0  2  0  0  0  0  0  0  0  0  0
   18.6474   -6.6168   18.2793 O   0  0  0  0  0  0  0  0  0  0  0  0
   19.5430  -10.1115   16.1603 C   0  0  2  0  0  0  0  0  0  0  0  0
   19.0366   -9.2348   15.1157 O   0  0  0  0  0  0  0  0  0  0  0  0
   19.6517   -7.0167   11.7809 C   0  0  0  0  0  0  0  0  0  0  0  0
   20.5994   -6.3163   10.9618 O   0  0  0  0  0  0  0  0  0  0  0  0
   22.0517   -2.0229   15.3122 C   0  0  1  0  0  0  0  0  0  0  0  0
   21.2302   -3.2020   15.4520 O   0  0  0  0  0  0  0  0  0  0  0  0
   27.4340   -0.5802   15.9512 C   0  0  2  0  0  0  0  0  0  0  0  0
   26.8550   -1.3912   14.9174 O   0  0  0  0  0  0  0  0  0  0  0  0
   17.5229   -5.2710   19.8473 C   0  0  0  0  0  0  0  0  0  0  0  0
   18.4919   -4.2714   19.6427 O   0  0  0  0  0  0  0  0  0  0  0  0
   19.8930  -11.5431   15.6307 C   0  0  1  0  0  0  0  0  0  0  0  0
   20.9946  -11.3977   14.6954 O   0  0  0  0  0  0  0  0  0  0  0  0
   21.7058   -1.0300   16.4642 C   0  0  0  0  0  0  0  0  0  0  0  0
   21.8214   -1.6299   17.8101 N   0  0  0  0  0  0  0  0  0  0  0  0
   28.2998    0.4971   15.3018 C   0  0  0  0  0  0  0  0  0  0  0  0
   27.6629    0.9809   14.0897 O   0  0  0  0  0  0  0  0  0  0  0  0
  1  2  1  1  0  0  0
  1  8  1  0  0  0  0
  1 36  1  0  0  0  0
  3  4  1  6  0  0  0
  3 10  1  0  0  0  0
  3 47  1  0  0  0  0
  5 11  1  0  0  0  0
  5 30  1  0  0  0  0
  5 38  1  6  0  0  0
  6 21  1  1  0  0  0
  6 42  1  0  0  0  0
  7 15  1  0  0  0  0
  7 44  1  0  0  0  0
  7 32  1  1  0  0  0
  8  9  1  6  0  0  0
  8 17  1  0  0  0  0
 11 12  1  1  0  0  0
 11 20  1  0  0  0  0
 13  6  1  0  0  0  0
 13 14  1  1  0  0  0
 15 16  1  6  0  0  0
 15 24  1  0  0  0  0
 17 26  1  0  0  0  0
 18 10  1  0  0  0  0
 18 19  1  1  0  0  0
 20 21  1  1  0  0  0
 20 29  1  0  0  0  0
 22 13  1  0  0  0  0
 22 23  1  6  0  0  0
 24 25  1  1  0  0  0
 24 33  1  0  0  0  0
 26 27  1  1  0  0  0
 26 35  1  0  0  0  0
 28  2  1  1  0  0  0
 28 18  1  0  0  0  0
 29 30  1  0  0  0  0
 29 39  1  6  0  0  0
 31 22  1  0  0  0  0
 31 32  1  1  0  0  0
 31 41  1  0  0  0  0
 33 34  1  1  0  0  0
 33 43  1  0  0  0  0
 35 36  1  0  0  0  0
 35 45  1  1  0  0  0
 37 28  1  0  0  0  0
 37 38  1  6  0  0  0
 39 40  1  0  0  0  0
 41 42  1  0  0  0  0
 41 49  1  1  0  0  0
 43 44  1  0  0  0  0
 43 51  1  6  0  0  0
 45 46  1  0  0  0  0
 47 37  1  0  0  0  0
 47 48  1  6  0  0  0
 49 50  1  0  0  0  0
 51 52  1  0  0  0  0
M  END
>  <CHROM.1>
-75.58797811,67.15944773,-67.56076778,-175.97338223,168.73968995,105.71973708
-63.11106424,63.84313911,54.52296052,100.47542724,-103.28420079,-170.65594647
21.89132167,-5.77955864,16.34694675,3.12538692,-0.89860529,-1.77098228

>  <Name>
2esj_lig

>  <RI>
1.01272e+07

>  <Rbt.Current_Directory>
/home/itssahil/PROJECTS/Mol_Feturizer/New_Systems/rnas/2esj

>  <Rbt.Executable>
rbdock ($Id: //depot/dev/client3/rdock/2013.1/src/exe/rbdock.cxx#4 $)

>  <Rbt.Library>
libRbt.so (2013.1, Build901 2013/11/27)

>  <Rbt.Parameter_File>
/export/apps/rDock/src/rDock_2013.1_src/data/scripts/dock_solv.prm

>  <Rbt.Receptor>
prm/pocket_docking_3.prm

>  <SCORE>
0.108454

>  <SCORE.INTER>
-0.719996

>  <SCORE.INTER.CONST>
1

>  <SCORE.INTER.POLAR>
-0.824621

>  <SCORE.INTER.ROT>
12

>  <SCORE.INTER.SOLV>
9.10303

>  <SCORE.INTER.VDW>
-12.3656

>  <SCORE.INTER.norm>
-0.0138461

>  <SCORE.INTRA>
0.563382

>  <SCORE.INTRA.DIHEDRAL>
-13.4034

>  <SCORE.INTRA.DIHEDRAL.0>
32.9766

>  <SCORE.INTRA.POLAR>
0

>  <SCORE.INTRA.POLAR.0>
0

>  <SCORE.INTRA.REPUL>
0.00890514

>  <SCORE.INTRA.REPUL.0>
0

>  <SCORE.INTRA.SOLV>
5.4564

>  <SCORE.INTRA.SOLV.lig_0>
-114.358

>  <SCORE.INTRA.VDW>
4.49236

>  <SCORE.INTRA.VDW.0>
-8.24257

>  <SCORE.INTRA.norm>
0.0108343

>  <SCORE.RESTR>
0.265068

>  <SCORE.RESTR.CAVITY>
0.265068

>  <SCORE.RESTR.norm>
0.00509747

>  <SCORE.SYSTEM>
0

>  <SCORE.SYSTEM.CONST>
0

>  <SCORE.SYSTEM.DIHEDRAL>
0

>  <SCORE.SYSTEM.SOLV>
0

>  <SCORE.SYSTEM.norm>
0

>  <SCORE.heavy>
52

>  <SCORE.norm>
0.00208566

>  <RMSD>
2.885

$$$$
2esj_lig
 OpenBabel11021811423D
libRbt.so/2013.1/901 2013/11/27
 52 56  0  0  0  0  0  0  0  0999 V2000
   17.6500   -7.6973   19.1974 C   0  0  2  0  0  0  0  0  0  0  0  0
   17.5605   -7.8443   17.7673 O   0  0  0  0  0  0  0  0  0  0  0  0
   20.1557  -11.0848   16.7416 C   0  0  2  0  0  0  0  0  0  0  0  0
   20.7341  -12.3292   16.2084 N   0  0  0  0  0  0  0  0  0  0  0  0
   19.5196   -6.7126   14.8065 C   0  0  1  0  0  0  0  0  0  0  0  0
   21.1634   -3.0227   13.5879 C   0  0  1  0  0  0  0  0  0  0  0  0
   25.8061   -2.3096   14.8935 C   0  0  1  0  0  0  0  0  0  0  0  0
   16.7257   -6.5124   19.6056 C   0  0  2  0  0  0  0  0  0  0  0  0
   15.3458   -6.7090   19.1623 N   0  0  0  0  0  0  0  0  0  0  0  0
   18.8727  -11.4028   17.6078 C   0  0  0  0  0  0  0  0  0  0  0  0
   18.9326   -5.9469   13.6200 C   0  0  2  0  0  0  0  0  0  0  0  0
   19.4550   -6.4073   12.3549 O   0  0  0  0  0  0  0  0  0  0  0  0
   22.2318   -3.0777   12.4060 C   0  0  2  0  0  0  0  0  0  0  0  0
   23.1942   -4.1931   12.6070 N   0  0  0  0  0  0  0  0  0  0  0  0
   26.7749   -1.2577   14.3657 C   0  0  1  0  0  0  0  0  0  0  0  0
   27.3800   -0.5701   15.4791 O   0  0  0  0  0  0  0  0  0  0  0  0
   17.2740   -5.1604   19.0483 C   0  0  0  0  0  0  0  0  0  0  0  0
   18.3004  -10.0615   18.2201 C   0  0  2  0  0  0  0  0  0  0  0  0
   17.0995  -10.3275   19.0187 N   0  0  0  0  0  0  0  0  0  0  0  0
   19.3288   -4.5434   13.9766 C   0  0  2  0  0  0  0  0  0  0  0  0
   20.6913   -4.3327   13.7055 O   0  0  0  0  0  0  0  0  0  0  0  0
   22.8940   -1.6392   12.2404 C   0  0  1  0  0  0  0  0  0  0  0  0
   21.8547   -0.6624   12.1210 O   0  0  0  0  0  0  0  0  0  0  0  0
   27.8929   -1.7896   13.4773 C   0  0  1  0  0  0  0  0  0  0  0  0
   28.8214   -0.7180   13.2778 O   0  0  0  0  0  0  0  0  0  0  0  0
   18.7499   -4.9859   19.5141 C   0  0  2  0  0  0  0  0  0  0  0  0
   19.2867   -3.7399   19.1071 O   0  0  0  0  0  0  0  0  0  0  0  0
   17.9852   -9.0436   17.0932 C   0  0  2  0  0  0  0  0  0  0  0  0
   19.2359   -4.4557   15.5139 C   0  0  2  0  0  0  0  0  0  0  0  0
   19.5283   -5.7883   15.9033 O   0  0  0  0  0  0  0  0  0  0  0  0
   23.7229   -1.2324   13.5276 C   0  0  2  0  0  0  0  0  0  0  0  0
   24.7670   -2.2048   13.5956 O   0  0  0  0  0  0  0  0  0  0  0  0
   28.6284   -2.9945   14.0668 C   0  0  2  0  0  0  0  0  0  0  0  0
   29.4149   -3.5622   13.0066 O   0  0  0  0  0  0  0  0  0  0  0  0
   19.5791   -6.1719   18.9620 C   0  0  2  0  0  0  0  0  0  0  0  0
   19.0238   -7.3910   19.5334 O   0  0  0  0  0  0  0  0  0  0  0  0
   19.1799   -8.7728   16.1235 C   0  0  2  0  0  0  0  0  0  0  0  0
   18.7535   -7.8676   15.0675 O   0  0  0  0  0  0  0  0  0  0  0  0
   17.8821   -4.0452   16.0921 C   0  0  0  0  0  0  0  0  0  0  0  0
   17.6334   -2.6900   15.6906 O   0  0  0  0  0  0  0  0  0  0  0  0
   22.8165   -1.5242   14.7081 C   0  0  1  0  0  0  0  0  0  0  0  0
   21.8115   -2.5472   14.8751 O   0  0  0  0  0  0  0  0  0  0  0  0
   27.6617   -3.9732   14.7239 C   0  0  2  0  0  0  0  0  0  0  0  0
   26.4543   -3.5196   15.3550 O   0  0  0  0  0  0  0  0  0  0  0  0
   21.0074   -6.1346   19.3874 C   0  0  0  0  0  0  0  0  0  0  0  0
   21.6706   -7.1882   18.7314 O   0  0  0  0  0  0  0  0  0  0  0  0
   19.7631  -10.1162   15.5690 C   0  0  1  0  0  0  0  0  0  0  0  0
   20.9769   -9.7897   14.8413 O   0  0  0  0  0  0  0  0  0  0  0  0
   23.3540   -1.1135   16.1135 C   0  0  0  0  0  0  0  0  0  0  0  0
   23.3627   -2.2263   17.0863 N   0  0  0  0  0  0  0  0  0  0  0  0
   28.1158   -5.2625   15.4045 C   0  0  0  0  0  0  0  0  0  0  0  0
   28.5033   -6.2412   14.4041 O   0  0  0  0  0  0  0  0  0  0  0  0
  1  2  1  6  0  0  0
  1  8  1  0  0  0  0
  1 36  1  0  0  0  0
  3  4  1  6  0  0  0
  3 10  1  0  0  0  0
  3 47  1  0  0  0  0
  5 11  1  0  0  0  0
  5 30  1  0  0  0  0
  5 38  1  1  0  0  0
  6 21  1  1  0  0  0
  6 42  1  0  0  0  0
  7 15  1  0  0  0  0
  7 44  1  0  0  0  0
  7 32  1  6  0  0  0
  8  9  1  6  0  0  0
  8 17  1  0  0  0  0
 11 12  1  6  0  0  0
 11 20  1  0  0  0  0
 13  6  1  0  0  0  0
 13 14  1  1  0  0  0
 15 16  1  1  0  0  0
 15 24  1  0  0  0  0
 17 26  1  0  0  0  0
 18 10  1  0  0  0  0
 18 19  1  6  0  0  0
 20 21  1  1  0  0  0
 20 29  1  0  0  0  0
 22 13  1  0  0  0  0
 22 23  1  1  0  0  0
 24 25  1  1  0  0  0
 24 33  1  0  0  0  0
 26 27  1  6  0  0  0
 26 35  1  0  0  0  0
 28  2  1  1  0  0  0
 28 18  1  0  0  0  0
 29 30  1  0  0  0  0
 29 39  1  6  0  0  0
 31 22  1  0  0  0  0
 31 32  1  1  0  0  0
 31 41  1  0  0  0  0
 33 34  1  6  0  0  0
 33 43  1  0  0  0  0
 35 36  1  0  0  0  0
 35 45  1  1  0  0  0
 37 28  1  0  0  0  0
 37 38  1  6  0  0  0
 39 40  1  0  0  0  0
 41 42  1  0  0  0  0
 41 49  1  1  0  0  0
 43 44  1  0  0  0  0
 43 51  1  1  0  0  0
 45 46  1  0  0  0  0
 47 37  1  0  0  0  0
 47 48  1  1  0  0  0
 49 50  1  0  0  0  0
 51 52  1  0  0  0  0
M  END
>  <CHROM.1>
-162.79142328,177.21044860,-141.68729019,-85.48196291,161.22972886,7.91635405
-65.87652448,-172.49026940,-174.96667494,128.23391886,-125.47690207,-73.80440241
21.66752843,-5.18197982,15.74330902,2.48602172,-0.25963309,2.89457874

>  <Name>
2esj_lig

>  <RI>
0

>  <Rbt.Current_Directory>
/home/itssahil/PROJECTS/Mol_Feturizer/New_Systems/rnas/2esj

>  <Rbt.Executable>
rbdock ($Id: //depot/dev/client3/rdock/2013.1/src/exe/rbdock.cxx#4 $)

>  <Rbt.Library>
libRbt.so (2013.1, Build901 2013/11/27)

>  <Rbt.Parameter_File>
/export/apps/rDock/src/rDock_2013.1_src/data/scripts/dock_solv.prm

>  <Rbt.Receptor>
prm/pocket_docking_2.prm

>  <SCORE>
6.45363

>  <SCORE.INTER>
0.11459

>  <SCORE.INTER.CONST>
1

>  <SCORE.INTER.POLAR>
-1.17582

>  <SCORE.INTER.ROT>
12

>  <SCORE.INTER.SOLV>
14.3247

>  <SCORE.INTER.VDW>
-12.3791

>  <SCORE.INTER.norm>
0.00220365

>  <SCORE.INTRA>
2.44793

>  <SCORE.INTRA.DIHEDRAL>
-2.79363

>  <SCORE.INTRA.DIHEDRAL.0>
32.9766

>  <SCORE.INTRA.POLAR>
0

>  <SCORE.INTRA.POLAR.0>
0

>  <SCORE.INTRA.REPUL>
0.0130419

>  <SCORE.INTRA.REPUL.0>
0

>  <SCORE.INTRA.SOLV>
-0.41253

>  <SCORE.INTRA.SOLV.lig_0>
-114.358

>  <SCORE.INTRA.VDW>
3.9858

>  <SCORE.INTRA.VDW.0>
-8.24257

>  <SCORE.INTRA.norm>
0.0470755

>  <SCORE.RESTR>
3.89112

>  <SCORE.RESTR.CAVITY>
3.89112

>  <SCORE.RESTR.norm>
0.0748292

>  <SCORE.SYSTEM>
0

>  <SCORE.SYSTEM.CONST>
0

>  <SCORE.SYSTEM.DIHEDRAL>
0

>  <SCORE.SYSTEM.SOLV>
0

>  <SCORE.SYSTEM.norm>
0

>  <SCORE.heavy>
52

>  <SCORE.norm>
0.124108

>  <RMSD>
2.993

$$$$
2esj_lig
 OpenBabel11021811423D
libRbt.so/2013.1/901 2013/11/27
 52 56  0  0  0  0  0  0  0  0999 V2000
   17.7800   -7.6843   18.9598 C   0  0  2  0  0  0  0  0  0  0  0  0
   17.8495   -7.8039   17.5260 O   0  0  0  0  0  0  0  0  0  0  0  0
   20.1601  -11.2486   16.4853 C   0  0  2  0  0  0  0  0  0  0  0  0
   20.6230  -12.5474   15.9693 N   0  0  0  0  0  0  0  0  0  0  0  0
   19.8507   -7.2131   14.1122 C   0  0  1  0  0  0  0  0  0  0  0  0
   22.1084   -4.4191   11.9026 C   0  0  1  0  0  0  0  0  0  0  0  0
   26.1072   -2.9154   14.7538 C   0  0  1  0  0  0  0  0  0  0  0  0
   16.7351   -6.5772   19.2876 C   0  0  2  0  0  0  0  0  0  0  0  0
   15.4262   -6.8599   18.6993 N   0  0  0  0  0  0  0  0  0  0  0  0
   18.9100  -11.4476   17.4314 C   0  0  0  0  0  0  0  0  0  0  0  0
   19.1855   -6.3372   13.0498 C   0  0  2  0  0  0  0  0  0  0  0  0
   19.0732   -7.0070   11.7754 O   0  0  0  0  0  0  0  0  0  0  0  0
   23.5387   -5.0833   11.6695 C   0  0  2  0  0  0  0  0  0  0  0  0
   23.9547   -5.8848   12.8508 N   0  0  0  0  0  0  0  0  0  0  0  0
   27.3100   -2.4130   13.9636 C   0  0  1  0  0  0  0  0  0  0  0  0
   27.7793   -1.1812   14.5477 O   0  0  0  0  0  0  0  0  0  0  0  0
   17.2387   -5.1773   18.8123 C   0  0  0  0  0  0  0  0  0  0  0  0
   18.4643  -10.0498   18.0222 C   0  0  2  0  0  0  0  0  0  0  0  0
   17.2956  -10.2050   18.8944 N   0  0  0  0  0  0  0  0  0  0  0  0
   20.1144   -5.1577   13.0464 C   0  0  2  0  0  0  0  0  0  0  0  0
   21.2967   -5.4642   12.3517 O   0  0  0  0  0  0  0  0  0  0  0  0
   24.5682   -3.9520   11.2277 C   0  0  1  0  0  0  0  0  0  0  0  0
   24.0118   -3.2241   10.1280 O   0  0  0  0  0  0  0  0  0  0  0  0
   28.4881   -3.3767   13.8882 C   0  0  1  0  0  0  0  0  0  0  0  0
   29.5897   -2.6556   13.3254 O   0  0  0  0  0  0  0  0  0  0  0  0
   18.6421   -4.9103   19.4327 C   0  0  2  0  0  0  0  0  0  0  0  0
   19.1266   -3.6206   19.1039 O   0  0  0  0  0  0  0  0  0  0  0  0
   18.1542   -9.0521   16.8761 C   0  0  2  0  0  0  0  0  0  0  0  0
   20.5756   -4.9787   14.5075 C   0  0  2  0  0  0  0  0  0  0  0  0
   20.5281   -6.3097   14.9967 O   0  0  0  0  0  0  0  0  0  0  0  0
   24.7897   -2.8890   12.3811 C   0  0  2  0  0  0  0  0  0  0  0  0
   25.3750   -3.6411   13.4451 O   0  0  0  0  0  0  0  0  0  0  0  0
   28.8998   -3.9545   15.2434 C   0  0  2  0  0  0  0  0  0  0  0  0
   29.7854   -5.0540   14.9760 O   0  0  0  0  0  0  0  0  0  0  0  0
   19.6075   -6.0220   18.9518 C   0  0  2  0  0  0  0  0  0  0  0  0
   19.0859   -7.2900   19.4424 O   0  0  0  0  0  0  0  0  0  0  0  0
   19.3073   -8.8976   15.8333 C   0  0  2  0  0  0  0  0  0  0  0  0
   18.8830   -8.0020   14.7682 O   0  0  0  0  0  0  0  0  0  0  0  0
   19.7071   -4.0838   15.3910 C   0  0  0  0  0  0  0  0  0  0  0  0
   18.3855   -4.6430   15.4062 O   0  0  0  0  0  0  0  0  0  0  0  0
   23.4021   -2.5122   12.8634 C   0  0  1  0  0  0  0  0  0  0  0  0
   22.1958   -3.3030   12.9272 O   0  0  0  0  0  0  0  0  0  0  0  0
   27.6843   -4.3194   16.0883 C   0  0  2  0  0  0  0  0  0  0  0  0
   26.4589   -3.5769   15.9931 O   0  0  0  0  0  0  0  0  0  0  0  0
   20.9778   -5.8942   19.5249 C   0  0  0  0  0  0  0  0  0  0  0  0
   21.7800   -6.8822   18.9244 O   0  0  0  0  0  0  0  0  0  0  0  0
   19.7672  -10.2961   15.2996 C   0  0  1  0  0  0  0  0  0  0  0  0
   20.9567  -10.0791   14.4951 O   0  0  0  0  0  0  0  0  0  0  0  0
   23.3241   -1.3886   13.9425 C   0  0  0  0  0  0  0  0  0  0  0  0
   24.5749   -0.6119   14.0718 N   0  0  0  0  0  0  0  0  0  0  0  0
   27.7926   -4.9081   17.4931 C   0  0  0  0  0  0  0  0  0  0  0  0
   26.4685   -5.0646   18.0685 O   0  0  0  0  0  0  0  0  0  0  0  0
  1  2  1  6  0  0  0
  1  8  1  0  0  0  0
  1 36  1  0  0  0  0
  3  4  1  6  0  0  0
  3 10  1  0  0  0  0
  3 47  1  0  0  0  0
  5 11  1  0  0  0  0
  5 30  1  0  0  0  0
  5 38  1  1  0  0  0
  6 21  1  1  0  0  0
  6 42  1  0  0  0  0
  7 15  1  0  0  0  0
  7 44  1  0  0  0  0
  7 32  1  6  0  0  0
  8  9  1  6  0  0  0
  8 17  1  0  0  0  0
 11 12  1  6  0  0  0
 11 20  1  0  0  0  0
 13  6  1  0  0  0  0
 13 14  1  1  0  0  0
 15 16  1  1  0  0  0
 15 24  1  0  0  0  0
 17 26  1  0  0  0  0
 18 10  1  0  0  0  0
 18 19  1  6  0  0  0
 20 21  1  6  0  0  0
 20 29  1  0  0  0  0
 22 13  1  0  0  0  0
 22 23  1  6  0  0  0
 24 25  1  1  0  0  0
 24 33  1  0  0  0  0
 26 27  1  6  0  0  0
 26 35  1  0  0  0  0
 28  2  1  1  0  0  0
 28 18  1  0  0  0  0
 29 30  1  0  0  0  0
 29 39  1  1  0  0  0
 31 22  1  0  0  0  0
 31 32  1  1  0  0  0
 31 41  1  0  0  0  0
 33 34  1  6  0  0  0
 33 43  1  0  0  0  0
 35 36  1  0  0  0  0
 35 45  1  1  0  0  0
 37 28  1  0  0  0  0
 37 38  1  6  0  0  0
 39 40  1  0  0  0  0
 41 42  1  0  0  0  0
 41 49  1  1  0  0  0
 43 44  1  0  0  0  0
 43 51  1  1  0  0  0
 45 46  1  0  0  0  0
 47 37  1  0  0  0  0
 47 48  1  6  0  0  0
 49 50  1  0  0  0  0
 51 52  1  0  0  0  0
M  END
>  <CHROM.1>
-149.13711159,-179.14672261,159.86242286,-70.49301224,161.69987950,-4.31276229
58.59981813,165.92668941,-174.91366446,149.48107896,15.47145396,176.27471256
22.02907725,-5.70634877,15.43926390,-2.66815950,-0.44178533,-1.31087179

>  <Name>
2esj_lig

>  <RI>
0

>  <Rbt.Current_Directory>
/home/itssahil/PROJECTS/Mol_Feturizer/New_Systems/rnas/2esj

>  <Rbt.Executable>
rbdock ($Id: //depot/dev/client3/rdock/2013.1/src/exe/rbdock.cxx#4 $)

>  <Rbt.Library>
libRbt.so (2013.1, Build901 2013/11/27)

>  <Rbt.Parameter_File>
/export/apps/rDock/src/rDock_2013.1_src/data/scripts/dock_solv.prm

>  <Rbt.Receptor>
prm/pocket_docking_2.prm

>  <SCORE>
4.36523

>  <SCORE.INTER>
-2.98195

>  <SCORE.INTER.CONST>
1

>  <SCORE.INTER.POLAR>
-1.39437

>  <SCORE.INTER.ROT>
12

>  <SCORE.INTER.SOLV>
14.7829

>  <SCORE.INTER.VDW>
-13.8677

>  <SCORE.INTER.norm>
-0.0573452

>  <SCORE.INTRA>
3.54594

>  <SCORE.INTRA.DIHEDRAL>
-8.45912

>  <SCORE.INTRA.DIHEDRAL.0>
32.9766

>  <SCORE.INTRA.POLAR>
0

>  <SCORE.INTRA.POLAR.0>
0

>  <SCORE.INTRA.REPUL>
0

>  <SCORE.INTRA.REPUL.0>
0

>  <SCORE.INTRA.SOLV>
2.58134

>  <SCORE.INTRA.SOLV.lig_0>
-114.358

>  <SCORE.INTRA.VDW>
6.48484

>  <SCORE.INTRA.VDW.0>
-8.24257

>  <SCORE.INTRA.norm>
0.0681912

>  <SCORE.RESTR>
3.80124

>  <SCORE.RESTR.CAVITY>
3.80124

>  <SCORE.RESTR.norm>
0.0731007

>  <SCORE.SYSTEM>
0

>  <SCORE.SYSTEM.CONST>
0

>  <SCORE.SYSTEM.DIHEDRAL>
0

>  <SCORE.SYSTEM.SOLV>
0

>  <SCORE.SYSTEM.norm>
0

>  <SCORE.heavy>
52

>  <SCORE.norm>
0.0839467

>  <RMSD>
2.994

$$$$
2esj_lig
 OpenBabel11021811423D
libRbt.so/2013.1/901 2013/11/27
 52 56  0  0  0  0  0  0  0  0999 V2000
   18.2267   -8.3126   18.3577 C   0  0  2  0  0  0  0  0  0  0  0  0
   17.6877   -8.8173   17.1209 O   0  0  0  0  0  0  0  0  0  0  0  0
   20.8300  -11.4960   16.0078 C   0  0  2  0  0  0  0  0  0  0  0  0
   21.6774  -12.4892   15.3275 N   0  0  0  0  0  0  0  0  0  0  0  0
   20.4310   -6.8296   15.2124 C   0  0  1  0  0  0  0  0  0  0  0  0
   22.4322   -3.4392   15.7986 C   0  0  1  0  0  0  0  0  0  0  0  0
   27.2033   -1.5847   15.2915 C   0  0  1  0  0  0  0  0  0  0  0  0
   18.1838   -9.4728   19.3956 C   0  0  2  0  0  0  0  0  0  0  0  0
   18.9028  -10.6584   18.9303 N   0  0  0  0  0  0  0  0  0  0  0  0
   19.4023  -12.1046   16.3061 C   0  0  0  0  0  0  0  0  0  0  0  0
   20.2948   -5.8693   14.0301 C   0  0  2  0  0  0  0  0  0  0  0  0
   21.1909   -6.1992   12.9468 O   0  0  0  0  0  0  0  0  0  0  0  0
   22.6944   -2.1642   14.8783 C   0  0  2  0  0  0  0  0  0  0  0  0
   23.5086   -2.5232   13.6870 N   0  0  0  0  0  0  0  0  0  0  0  0
   27.4010   -1.8909   13.8114 C   0  0  1  0  0  0  0  0  0  0  0  0
   28.6471   -1.3149   13.3709 O   0  0  0  0  0  0  0  0  0  0  0  0
   16.7101   -9.8509   19.7481 C   0  0  0  0  0  0  0  0  0  0  0  0
   18.5272  -11.0450   17.0889 C   0  0  2  0  0  0  0  0  0  0  0  0
   17.1906  -11.5809   17.3666 N   0  0  0  0  0  0  0  0  0  0  0  0
   20.5965   -4.5616   14.7031 C   0  0  2  0  0  0  0  0  0  0  0  0
   21.9782   -4.4274   14.9210 O   0  0  0  0  0  0  0  0  0  0  0  0
   23.2945   -0.9937   15.7754 C   0  0  1  0  0  0  0  0  0  0  0  0
   22.4466   -0.8010   16.9123 O   0  0  0  0  0  0  0  0  0  0  0  0
   27.4127   -3.3710   13.4486 C   0  0  1  0  0  0  0  0  0  0  0  0
   27.8405   -3.4696   12.0857 O   0  0  0  0  0  0  0  0  0  0  0  0
   15.9605   -8.5690   20.2179 C   0  0  2  0  0  0  0  0  0  0  0  0
   14.6352   -8.8545   20.6283 O   0  0  0  0  0  0  0  0  0  0  0  0
   18.4230   -9.7259   16.2801 C   0  0  2  0  0  0  0  0  0  0  0  0
   20.0034   -4.6703   16.1230 C   0  0  2  0  0  0  0  0  0  0  0  0
   20.1068   -6.0618   16.3798 O   0  0  0  0  0  0  0  0  0  0  0  0
   24.7157   -1.3818   16.3576 C   0  0  2  0  0  0  0  0  0  0  0  0
   25.5406   -1.5322   15.2012 O   0  0  0  0  0  0  0  0  0  0  0  0
   28.3340   -4.2149   14.3314 C   0  0  2  0  0  0  0  0  0  0  0  0
   28.0037   -5.5910   14.0827 O   0  0  0  0  0  0  0  0  0  0  0  0
   15.9903   -7.5361   19.0642 C   0  0  2  0  0  0  0  0  0  0  0  0
   17.3877   -7.2206   18.8020 O   0  0  0  0  0  0  0  0  0  0  0  0
   19.8011   -9.1306   15.8472 C   0  0  2  0  0  0  0  0  0  0  0  0
   19.5843   -7.9434   15.0348 O   0  0  0  0  0  0  0  0  0  0  0  0
   18.5487   -4.2320   16.2888 C   0  0  0  0  0  0  0  0  0  0  0  0
   17.7590   -4.9967   15.3661 O   0  0  0  0  0  0  0  0  0  0  0  0
   24.5572   -2.7774   16.9298 C   0  0  1  0  0  0  0  0  0  0  0  0
   23.7078   -3.8639   16.5026 O   0  0  0  0  0  0  0  0  0  0  0  0
   28.2380   -3.8016   15.7958 C   0  0  2  0  0  0  0  0  0  0  0  0
   27.9700   -2.4419   16.1716 O   0  0  0  0  0  0  0  0  0  0  0  0
   15.3391   -6.2432   19.4202 C   0  0  0  0  0  0  0  0  0  0  0  0
   16.1374   -5.6243   20.3999 O   0  0  0  0  0  0  0  0  0  0  0  0
   20.6707  -10.2105   15.1193 C   0  0  1  0  0  0  0  0  0  0  0  0
   21.9925   -9.6400   14.9277 O   0  0  0  0  0  0  0  0  0  0  0  0
   25.7969   -3.3692   17.6685 C   0  0  0  0  0  0  0  0  0  0  0  0
   26.5143   -2.3776   18.4973 N   0  0  0  0  0  0  0  0  0  0  0  0
   29.0534   -4.4646   16.9036 C   0  0  0  0  0  0  0  0  0  0  0  0
   28.7861   -3.8129   18.1735 O   0  0  0  0  0  0  0  0  0  0  0  0
  1  2  1  6  0  0  0
  1  8  1  0  0  0  0
  1 36  1  0  0  0  0
  3  4  1  6  0  0  0
  3 10  1  0  0  0  0
  3 47  1  0  0  0  0
  5 11  1  0  0  0  0
  5 30  1  0  0  0  0
  5 38  1  6  0  0  0
  6 21  1  6  0  0  0
  6 42  1  0  0  0  0
  7 15  1  0  0  0  0
  7 44  1  0  0  0  0
  7 32  1  1  0  0  0
  8  9  1  6  0  0  0
  8 17  1  0  0  0  0
 11 12  1  6  0  0  0
 11 20  1  0  0  0  0
 13  6  1  0  0  0  0
 13 14  1  6  0  0  0
 15 16  1  1  0  0  0
 15 24  1  0  0  0  0
 17 26  1  0  0  0  0
 18 10  1  0  0  0  0
 18 19  1  6  0  0  0
 20 21  1  1  0  0  0
 20 29  1  0  0  0  0
 22 13  1  0  0  0  0
 22 23  1  1  0  0  0
 24 25  1  6  0  0  0
 24 33  1  0  0  0  0
 26 27  1  6  0  0  0
 26 35  1  0  0  0  0
 28  2  1  1  0  0  0
 28 18  1  0  0  0  0
 29 30  1  0  0  0  0
 29 39  1  6  0  0  0
 31 22  1  0  0  0  0
 31 32  1  6  0  0  0
 31 41  1  0  0  0  0
 33 34  1  1  0  0  0
 33 43  1  0  0  0  0
 35 36  1  0  0  0  0
 35 45  1  1  0  0  0
 37 28  1  0  0  0  0
 37 38  1  6  0  0  0
 39 40  1  0  0  0  0
 41 42  1  0  0  0  0
 41 49  1  6  0  0  0
 43 44  1  0  0  0  0
 43 51  1  1  0  0  0
 45 46  1  0  0  0  0
 47 37  1  0  0  0  0
 47 48  1  1  0  0  0
 49 50  1  0  0  0  0
 51 52  1  0  0  0  0
M  END
>  <CHROM.1>
-73.69607036,164.26866921,-91.64842090,174.53394664,-165.43107438,67.18389994
56.03947088,165.16265381,67.77819178,140.22275194,39.65312995,177.45490860
21.90844928,-5.84363134,16.32233734,2.63517901,-0.40625805,-2.94269612

>  <Name>
2esj_lig

>  <RI>
0

>  <Rbt.Current_Directory>
/home/itssahil/PROJECTS/Mol_Feturizer/New_Systems/rnas/2esj

>  <Rbt.Executable>
rbdock ($Id: //depot/dev/client3/rdock/2013.1/src/exe/rbdock.cxx#4 $)

>  <Rbt.Library>
libRbt.so (2013.1, Build901 2013/11/27)

>  <Rbt.Parameter_File>
/export/apps/rDock/src/rDock_2013.1_src/data/scripts/dock_solv.prm

>  <Rbt.Receptor>
prm/pocket_docking_2.prm

>  <SCORE>
30.2873

>  <SCORE.INTER>
7.95069

>  <SCORE.INTER.CONST>
1

>  <SCORE.INTER.POLAR>
0

>  <SCORE.INTER.ROT>
12

>  <SCORE.INTER.SOLV>
15.05

>  <SCORE.INTER.VDW>
-11.3162

>  <SCORE.INTER.norm>
0.152898

>  <SCORE.INTRA>
17.5137

>  <SCORE.INTRA.DIHEDRAL>
-13.9212

>  <SCORE.INTRA.DIHEDRAL.0>
32.9766

>  <SCORE.INTRA.POLAR>
0

>  <SCORE.INTRA.POLAR.0>
0

>  <SCORE.INTRA.REPUL>
0

>  <SCORE.INTRA.REPUL.0>
0

>  <SCORE.INTRA.SOLV>
10.0639

>  <SCORE.INTRA.SOLV.lig_0>
-114.358

>  <SCORE.INTRA.VDW>
19.4424

>  <SCORE.INTRA.VDW.0>
-8.24257

>  <SCORE.INTRA.norm>
0.336803

>  <SCORE.RESTR>
4.82284

>  <SCORE.RESTR.CAVITY>
4.82284

>  <SCORE.RESTR.norm>
0.0927469

>  <SCORE.SYSTEM>
0

>  <SCORE.SYSTEM.CONST>
0

>  <SCORE.SYSTEM.DIHEDRAL>
0

>  <SCORE.SYSTEM.SOLV>
0

>  <SCORE.SYSTEM.norm>
0

>  <SCORE.heavy>
52

>  <SCORE.norm>
0.582448

>  <RMSD>
3.008

$$$$
2esj_lig
 OpenBabel11021811423D
libRbt.so/2013.1/901 2013/11/27
 52 56  0  0  0  0  0  0  0  0999 V2000
   19.0932   -5.9304   18.7438 C   0  0  2  0  0  0  0  0  0  0  0  0
   19.2376   -6.6655   17.5135 O   0  0  0  0  0  0  0  0  0  0  0  0
   18.9237  -10.9241   17.2821 C   0  0  2  0  0  0  0  0  0  0  0  0
   18.4399  -12.3105   17.1770 N   0  0  0  0  0  0  0  0  0  0  0  0
   19.7800   -6.9147   14.4183 C   0  0  1  0  0  0  0  0  0  0  0  0
   22.0013   -3.8276   12.6659 C   0  0  1  0  0  0  0  0  0  0  0  0
   27.3162   -3.2162   12.9554 C   0  0  1  0  0  0  0  0  0  0  0  0
   17.8297   -5.0306   18.6067 C   0  0  2  0  0  0  0  0  0  0  0  0
   16.6303   -5.8054   18.2897 N   0  0  0  0  0  0  0  0  0  0  0  0
   18.2278  -10.1903   18.4965 C   0  0  0  0  0  0  0  0  0  0  0  0
   19.4583   -6.4858   12.9861 C   0  0  2  0  0  0  0  0  0  0  0  0
   20.0972   -7.3281   12.0024 O   0  0  0  0  0  0  0  0  0  0  0  0
   23.1064   -4.1675   11.5684 C   0  0  2  0  0  0  0  0  0  0  0  0
   23.9092   -5.3536   11.9678 N   0  0  0  0  0  0  0  0  0  0  0  0
   27.5240   -4.4014   13.8911 C   0  0  1  0  0  0  0  0  0  0  0  0
   28.8437   -4.9432   13.6831 O   0  0  0  0  0  0  0  0  0  0  0  0
   18.0476   -3.9250   17.5254 C   0  0  0  0  0  0  0  0  0  0  0  0
   18.8032   -8.7231   18.6297 C   0  0  2  0  0  0  0  0  0  0  0  0
   18.1630   -8.0147   19.7428 N   0  0  0  0  0  0  0  0  0  0  0  0
   19.9594   -5.0707   13.0049 C   0  0  2  0  0  0  0  0  0  0  0  0
   21.3616   -5.0439   12.9191 O   0  0  0  0  0  0  0  0  0  0  0  0
   23.9529   -2.8540   11.2631 C   0  0  1  0  0  0  0  0  0  0  0  0
   23.0527   -1.7840   10.9573 O   0  0  0  0  0  0  0  0  0  0  0  0
   27.3702   -4.0937   15.3757 C   0  0  1  0  0  0  0  0  0  0  0  0
   27.8273   -5.2437   16.0960 O   0  0  0  0  0  0  0  0  0  0  0  0
   19.3414   -3.1303   17.8721 C   0  0  2  0  0  0  0  0  0  0  0  0
   19.5583   -2.0584   16.9720 O   0  0  0  0  0  0  0  0  0  0  0  0
   18.6032   -7.9412   17.3054 C   0  0  2  0  0  0  0  0  0  0  0  0
   19.6616   -4.5356   14.4207 C   0  0  2  0  0  0  0  0  0  0  0  0
   19.7406   -5.7156   15.2044 O   0  0  0  0  0  0  0  0  0  0  0  0
   24.7677   -2.3819   12.5370 C   0  0  2  0  0  0  0  0  0  0  0  0
   25.6756   -3.4548   12.7916 O   0  0  0  0  0  0  0  0  0  0  0  0
   28.1545   -2.8632   15.8347 C   0  0  2  0  0  0  0  0  0  0  0  0
   27.6702   -2.5251   17.1446 O   0  0  0  0  0  0  0  0  0  0  0  0
   20.5338   -4.1189   17.8796 C   0  0  2  0  0  0  0  0  0  0  0  0
   20.2703   -5.1066   18.9169 O   0  0  0  0  0  0  0  0  0  0  0  0
   19.1639   -8.6694   16.0419 C   0  0  2  0  0  0  0  0  0  0  0  0
   18.8568   -7.8879   14.8539 O   0  0  0  0  0  0  0  0  0  0  0  0
   18.2962   -3.8811   14.6281 C   0  0  0  0  0  0  0  0  0  0  0  0
   17.2953   -4.8709   14.3483 O   0  0  0  0  0  0  0  0  0  0  0  0
   23.7790   -2.4027   13.6869 C   0  0  1  0  0  0  0  0  0  0  0  0
   22.6456   -3.2662   13.9200 O   0  0  0  0  0  0  0  0  0  0  0  0
   28.0611   -1.7297   14.8195 C   0  0  2  0  0  0  0  0  0  0  0  0
   27.9457   -1.9949   13.4130 O   0  0  0  0  0  0  0  0  0  0  0  0
   21.8259   -3.4734   18.2485 C   0  0  0  0  0  0  0  0  0  0  0  0
   22.0942   -2.4848   17.2837 O   0  0  0  0  0  0  0  0  0  0  0  0
   18.6215  -10.1360   15.9574 C   0  0  1  0  0  0  0  0  0  0  0  0
   19.3350  -10.7964   14.8785 O   0  0  0  0  0  0  0  0  0  0  0  0
   24.3002   -1.8760   15.0594 C   0  0  0  0  0  0  0  0  0  0  0  0
   24.9176   -0.5356   14.9771 N   0  0  0  0  0  0  0  0  0  0  0  0
   28.7547   -0.3825   15.0088 C   0  0  0  0  0  0  0  0  0  0  0  0
   28.1910    0.3085   16.1549 O   0  0  0  0  0  0  0  0  0  0  0  0
  1  2  1  6  0  0  0
  1  8  1  0  0  0  0
  1 36  1  0  0  0  0
  3  4  1  6  0  0  0
  3 10  1  0  0  0  0
  3 47  1  0  0  0  0
  5 11  1  0  0  0  0
  5 30  1  0  0  0  0
  5 38  1  1  0  0  0
  6 21  1  1  0  0  0
  6 42  1  0  0  0  0
  7 15  1  0  0  0  0
  7 44  1  0  0  0  0
  7 32  1  1  0  0  0
  8  9  1  6  0  0  0
  8 17  1  0  0  0  0
 11 12  1  6  0  0  0
 11 20  1  0  0  0  0
 13  6  1  0  0  0  0
 13 14  1  1  0  0  0
 15 16  1  1  0  0  0
 15 24  1  0  0  0  0
 17 26  1  0  0  0  0
 18 10  1  0  0  0  0
 18 19  1  1  0  0  0
 20 21  1  1  0  0  0
 20 29  1  0  0  0  0
 22 13  1  0  0  0  0
 22 23  1  1  0  0  0
 24 25  1  1  0  0  0
 24 33  1  0  0  0  0
 26 27  1  6  0  0  0
 26 35  1  0  0  0  0
 28  2  1  1  0  0  0
 28 18  1  0  0  0  0
 29 30  1  0  0  0  0
 29 39  1  6  0  0  0
 31 22  1  0  0  0  0
 31 32  1  1  0  0  0
 31 41  1  0  0  0  0
 33 34  1  1  0  0  0
 33 43  1  0  0  0  0
 35 36  1  0  0  0  0
 35 45  1  1  0  0  0
 37 28  1  0  0  0  0
 37 38  1  6  0  0  0
 39 40  1  0  0  0  0
 41 42  1  0  0  0  0
 41 49  1  1  0  0  0
 43 44  1  0  0  0  0
 43 51  1  6  0  0  0
 45 46  1  0  0  0  0
 47 37  1  0  0  0  0
 47 48  1  6  0  0  0
 49 50  1  0  0  0  0
 51 52  1  0  0  0  0
M  END
>  <CHROM.1>
-88.71172907,164.89714622,-135.73515879,150.95242749,167.92079838,-42.62261682
60.69658591,127.33456823,-61.21591723,90.07724609,52.23742413,-64.89715074
22.09398739,-4.89665119,15.33250139,3.12181078,-0.62499419,-2.06245351

>  <Name>
2esj_lig

>  <RI>
0

>  <Rbt.Current_Directory>
/home/itssahil/PROJECTS/Mol_Feturizer/New_Systems/rnas/2esj

>  <Rbt.Executable>
rbdock ($Id: //depot/dev/client3/rdock/2013.1/src/exe/rbdock.cxx#4 $)

>  <Rbt.Library>
libRbt.so (2013.1, Build901 2013/11/27)

>  <Rbt.Parameter_File>
/export/apps/rDock/src/rDock_2013.1_src/data/scripts/dock_solv.prm

>  <Rbt.Receptor>
prm/pocket_docking_2.prm

>  <SCORE>
11.9481

>  <SCORE.INTER>
-1.8958

>  <SCORE.INTER.CONST>
1

>  <SCORE.INTER.POLAR>
-1.36883

>  <SCORE.INTER.ROT>
12

>  <SCORE.INTER.SOLV>
15.7862

>  <SCORE.INTER.VDW>
-13.5632

>  <SCORE.INTER.norm>
-0.0364578

>  <SCORE.INTRA>
10.9172

>  <SCORE.INTRA.DIHEDRAL>
-1.94251

>  <SCORE.INTRA.DIHEDRAL.0>
32.9766

>  <SCORE.INTRA.POLAR>
0

>  <SCORE.INTRA.POLAR.0>
0

>  <SCORE.INTRA.REPUL>
1.07256

>  <SCORE.INTRA.REPUL.0>
0

>  <SCORE.INTRA.SOLV>
5.96778

>  <SCORE.INTRA.SOLV.lig_0>
-114.358

>  <SCORE.INTRA.VDW>
3.54177

>  <SCORE.INTRA.VDW.0>
-8.24257

>  <SCORE.INTRA.norm>
0.209946

>  <SCORE.RESTR>
2.92674

>  <SCORE.RESTR.CAVITY>
2.92674

>  <SCORE.RESTR.norm>
0.0562835

>  <SCORE.SYSTEM>
0

>  <SCORE.SYSTEM.CONST>
0

>  <SCORE.SYSTEM.DIHEDRAL>
0

>  <SCORE.SYSTEM.SOLV>
0

>  <SCORE.SYSTEM.norm>
0

>  <SCORE.heavy>
52

>  <SCORE.norm>
0.229772

>  <RMSD>
3.027

$$$$
2esj_lig
 OpenBabel11021811423D
libRbt.so/2013.1/901 2013/11/27
 52 56  0  0  0  0  0  0  0  0999 V2000
   17.6939   -6.4690   18.4351 C   0  0  2  0  0  0  0  0  0  0  0  0
   18.0771   -7.7964   18.8425 O   0  0  0  0  0  0  0  0  0  0  0  0
   18.8722  -11.6183   17.0964 C   0  0  2  0  0  0  0  0  0  0  0  0
   18.7850  -12.8942   16.3671 N   0  0  0  0  0  0  0  0  0  0  0  0
   19.9142   -7.1310   15.6681 C   0  0  1  0  0  0  0  0  0  0  0  0
   23.8328   -6.0959   14.4424 C   0  0  1  0  0  0  0  0  0  0  0  0
   26.6291   -2.3830   16.2333 C   0  0  1  0  0  0  0  0  0  0  0  0
   18.4895   -5.4606   19.3156 C   0  0  2  0  0  0  0  0  0  0  0  0
   19.9348   -5.6645   19.2218 N   0  0  0  0  0  0  0  0  0  0  0  0
   17.7060  -11.5117   18.1576 C   0  0  0  0  0  0  0  0  0  0  0  0
   20.9238   -7.9785   14.8928 C   0  0  2  0  0  0  0  0  0  0  0  0
   21.8174   -8.7047   15.7644 O   0  0  0  0  0  0  0  0  0  0  0  0
   24.6201   -5.5721   15.7258 C   0  0  2  0  0  0  0  0  0  0  0  0
   23.9500   -4.3828   16.3154 N   0  0  0  0  0  0  0  0  0  0  0  0
   26.0724   -0.9797   16.0230 C   0  0  1  0  0  0  0  0  0  0  0  0
   25.9256   -0.3318   17.3026 O   0  0  0  0  0  0  0  0  0  0  0  0
   18.0377   -5.5467   20.8081 C   0  0  0  0  0  0  0  0  0  0  0  0
   17.8508  -10.1629   18.9709 C   0  0  2  0  0  0  0  0  0  0  0  0
   16.7711  -10.0329   19.9548 N   0  0  0  0  0  0  0  0  0  0  0  0
   21.5942   -6.9188   14.0671 C   0  0  2  0  0  0  0  0  0  0  0  0
   22.4993   -6.1833   14.8509 O   0  0  0  0  0  0  0  0  0  0  0  0
   26.1510   -5.3607   15.3426 C   0  0  1  0  0  0  0  0  0  0  0  0
   26.6443   -6.5572   14.7312 O   0  0  0  0  0  0  0  0  0  0  0  0
   26.9115   -0.0734   15.1303 C   0  0  1  0  0  0  0  0  0  0  0  0
   26.3708    1.2479   15.2407 O   0  0  0  0  0  0  0  0  0  0  0  0
   16.4943   -5.3499   20.8787 C   0  0  2  0  0  0  0  0  0  0  0  0
   16.0253   -5.3395   22.2151 O   0  0  0  0  0  0  0  0  0  0  0  0
   17.8529   -8.9477   18.0074 C   0  0  2  0  0  0  0  0  0  0  0  0
   20.4924   -5.8988   13.7131 C   0  0  2  0  0  0  0  0  0  0  0  0
   19.6238   -6.0037   14.8301 O   0  0  0  0  0  0  0  0  0  0  0  0
   26.3234   -4.2190   14.2580 C   0  0  2  0  0  0  0  0  0  0  0  0
   25.8548   -3.0387   14.9120 O   0  0  0  0  0  0  0  0  0  0  0  0
   28.3956   -0.0463   15.5002 C   0  0  2  0  0  0  0  0  0  0  0  0
   29.0862    0.5799   14.4068 O   0  0  0  0  0  0  0  0  0  0  0  0
   15.8213   -6.4696   20.0467 C   0  0  2  0  0  0  0  0  0  0  0  0
   16.2741   -6.3180   18.6709 O   0  0  0  0  0  0  0  0  0  0  0  0
   18.9061   -9.0451   16.8575 C   0  0  2  0  0  0  0  0  0  0  0  0
   18.7701   -7.8966   15.9750 O   0  0  0  0  0  0  0  0  0  0  0  0
   19.7033   -6.1660   12.4319 C   0  0  0  0  0  0  0  0  0  0  0  0
   20.6413   -6.2044   11.3465 O   0  0  0  0  0  0  0  0  0  0  0  0
   25.3010   -4.5206   13.1792 C   0  0  1  0  0  0  0  0  0  0  0  0
   23.9971   -5.1319   13.2819 O   0  0  0  0  0  0  0  0  0  0  0  0
   28.9096   -1.4378   15.8523 C   0  0  2  0  0  0  0  0  0  0  0  0
   28.0574   -2.4140   16.4707 O   0  0  0  0  0  0  0  0  0  0  0  0
   14.3357   -6.3530   20.0034 C   0  0  0  0  0  0  0  0  0  0  0  0
   13.8406   -7.5045   19.3636 O   0  0  0  0  0  0  0  0  0  0  0  0
   18.7780  -10.4089   16.0985 C   0  0  1  0  0  0  0  0  0  0  0  0
   19.9045  -10.5005   15.1865 O   0  0  0  0  0  0  0  0  0  0  0  0
   25.3253   -3.5967   11.9227 C   0  0  0  0  0  0  0  0  0  0  0  0
   26.6498   -2.9938   11.6636 N   0  0  0  0  0  0  0  0  0  0  0  0
   30.3524   -1.7116   16.2707 C   0  0  0  0  0  0  0  0  0  0  0  0
   30.5025   -3.1052   16.6504 O   0  0  0  0  0  0  0  0  0  0  0  0
  1  2  1  1  0  0  0
  1  8  1  0  0  0  0
  1 36  1  0  0  0  0
  3  4  1  6  0  0  0
  3 10  1  0  0  0  0
  3 47  1  0  0  0  0
  5 11  1  0  0  0  0
  5 30  1  0  0  0  0
  5 38  1  6  0  0  0
  6 21  1  1  0  0  0
  6 42  1  0  0  0  0
  7 15  1  0  0  0  0
  7 44  1  0  0  0  0
  7 32  1  6  0  0  0
  8  9  1  1  0  0  0
  8 17  1  0  0  0  0
 11 12  1  1  0  0  0
 11 20  1  0  0  0  0
 13  6  1  0  0  0  0
 13 14  1  6  0  0  0
 15 16  1  1  0  0  0
 15 24  1  0  0  0  0
 17 26  1  0  0  0  0
 18 10  1  0  0  0  0
 18 19  1  1  0  0  0
 20 21  1  1  0  0  0
 20 29  1  0  0  0  0
 22 13  1  0  0  0  0
 22 23  1  6  0  0  0
 24 25  1  1  0  0  0
 24 33  1  0  0  0  0
 26 27  1  1  0  0  0
 26 35  1  0  0  0  0
 28  2  1  1  0  0  0
 28 18  1  0  0  0  0
 29 30  1  0  0  0  0
 29 39  1  6  0  0  0
 31 22  1  0  0  0  0
 31 32  1  1  0  0  0
 31 41  1  0  0  0  0
 33 34  1  6  0  0  0
 33 43  1  0  0  0  0
 35 36  1  0  0  0  0
 35 45  1  6  0  0  0
 37 28  1  0  0  0  0
 37 38  1  6  0  0  0
 39 40  1  0  0  0  0
 41 42  1  0  0  0  0
 41 49  1  1  0  0  0
 43 44  1  0  0  0  0
 43 51  1  1  0  0  0
 45 46  1  0  0  0  0
 47 37  1  0  0  0  0
 47 48  1  6  0  0  0
 49 50  1  0  0  0  0
 51 52  1  0  0  0  0
M  END
>  <CHROM.1>
-161.33048139,64.06901154,-164.52349472,156.70887759,124.26199752,-157.78045272
-58.56037886,65.39045094,-173.00548584,128.31709409,26.32164882,175.09610654
21.98775627,-5.63354240,16.31434099,2.93880850,-0.58129550,-2.42687960

>  <Name>
2esj_lig

>  <RI>
1.01272e+07

>  <Rbt.Current_Directory>
/home/itssahil/PROJECTS/Mol_Feturizer/New_Systems/rnas/2esj

>  <Rbt.Executable>
rbdock ($Id: //depot/dev/client3/rdock/2013.1/src/exe/rbdock.cxx#4 $)

>  <Rbt.Library>
libRbt.so (2013.1, Build901 2013/11/27)

>  <Rbt.Parameter_File>
/export/apps/rDock/src/rDock_2013.1_src/data/scripts/dock_solv.prm

>  <Rbt.Receptor>
prm/pocket_docking_3.prm

>  <SCORE>
-13.0428

>  <SCORE.INTER>
-11.6427

>  <SCORE.INTER.CONST>
1

>  <SCORE.INTER.POLAR>
-0.979796

>  <SCORE.INTER.ROT>
12

>  <SCORE.INTER.SOLV>
17.3168

>  <SCORE.INTER.VDW>
-21.8681

>  <SCORE.INTER.norm>
-0.223898

>  <SCORE.INTRA>
-1.71859

>  <SCORE.INTRA.DIHEDRAL>
-6.50121

>  <SCORE.INTRA.DIHEDRAL.0>
32.9766

>  <SCORE.INTRA.POLAR>
0

>  <SCORE.INTRA.POLAR.0>
0

>  <SCORE.INTRA.REPUL>
0

>  <SCORE.INTRA.REPUL.0>
0

>  <SCORE.INTRA.SOLV>
-1.6865

>  <SCORE.INTRA.SOLV.lig_0>
-114.358

>  <SCORE.INTRA.VDW>
2.37526

>  <SCORE.INTRA.VDW.0>
-8.24257

>  <SCORE.INTRA.norm>
-0.0330498

>  <SCORE.RESTR>
0.318461

>  <SCORE.RESTR.CAVITY>
0.318461

>  <SCORE.RESTR.norm>
0.00612425

>  <SCORE.SYSTEM>
0

>  <SCORE.SYSTEM.CONST>
0

>  <SCORE.SYSTEM.DIHEDRAL>
0

>  <SCORE.SYSTEM.SOLV>
0

>  <SCORE.SYSTEM.norm>
0

>  <SCORE.heavy>
52

>  <SCORE.norm>
-0.250824

>  <RMSD>
3.030

$$$$
2esj_lig
 OpenBabel11021811423D
libRbt.so/2013.1/901 2013/11/27
 52 56  0  0  0  0  0  0  0  0999 V2000
   17.7029   -7.8749   19.2641 C   0  0  2  0  0  0  0  0  0  0  0  0
   17.6572   -8.1195   17.8453 O   0  0  0  0  0  0  0  0  0  0  0  0
   20.0098  -11.6107   17.0940 C   0  0  2  0  0  0  0  0  0  0  0  0
   20.4940  -12.9348   16.6703 N   0  0  0  0  0  0  0  0  0  0  0  0
   19.5787   -7.3245   14.8525 C   0  0  1  0  0  0  0  0  0  0  0  0
   21.7408   -4.1518   13.4819 C   0  0  1  0  0  0  0  0  0  0  0  0
   26.2280   -2.0270   14.1588 C   0  0  1  0  0  0  0  0  0  0  0  0
   16.6748   -6.7484   19.5789 C   0  0  2  0  0  0  0  0  0  0  0  0
   15.3260   -7.0880   19.1266 N   0  0  0  0  0  0  0  0  0  0  0  0
   18.7210  -11.7603   17.9963 C   0  0  0  0  0  0  0  0  0  0  0  0
   20.6884   -7.6803   13.8624 C   0  0  2  0  0  0  0  0  0  0  0  0
   21.8860   -8.1457   14.5216 O   0  0  0  0  0  0  0  0  0  0  0  0
   22.8002   -4.2754   12.2971 C   0  0  2  0  0  0  0  0  0  0  0  0
   23.9811   -5.0753   12.7173 N   0  0  0  0  0  0  0  0  0  0  0  0
   27.3929   -2.7570   13.5003 C   0  0  1  0  0  0  0  0  0  0  0  0
   28.5921   -1.9719   13.6551 O   0  0  0  0  0  0  0  0  0  0  0  0
   17.1214   -5.3932   18.9439 C   0  0  0  0  0  0  0  0  0  0  0  0
   18.2507  -10.3332   18.4899 C   0  0  2  0  0  0  0  0  0  0  0  0
   17.0463  -10.4429   19.3195 N   0  0  0  0  0  0  0  0  0  0  0  0
   20.8480   -6.3699   13.1472 C   0  0  2  0  0  0  0  0  0  0  0  0
   21.5640   -5.4592   13.9424 O   0  0  0  0  0  0  0  0  0  0  0  0
   23.1350   -2.8185   11.7489 C   0  0  1  0  0  0  0  0  0  0  0  0
   21.9089   -2.1452   11.4457 O   0  0  0  0  0  0  0  0  0  0  0  0
   27.6730   -4.1549   14.0385 C   0  0  1  0  0  0  0  0  0  0  0  0
   28.9214   -4.5808   13.4815 O   0  0  0  0  0  0  0  0  0  0  0  0
   18.5672   -5.0660   19.4217 C   0  0  2  0  0  0  0  0  0  0  0  0
   19.0078   -3.8078   18.9434 O   0  0  0  0  0  0  0  0  0  0  0  0
   17.9891   -9.4008   17.2786 C   0  0  2  0  0  0  0  0  0  0  0  0
   19.4337   -5.7599   13.0622 C   0  0  2  0  0  0  0  0  0  0  0  0
   18.8173   -6.2810   14.2290 O   0  0  0  0  0  0  0  0  0  0  0  0
   23.8509   -1.9357   12.8523 C   0  0  2  0  0  0  0  0  0  0  0  0
   25.0809   -2.6167   13.1044 O   0  0  0  0  0  0  0  0  0  0  0  0
   27.7489   -4.2242   15.5648 C   0  0  2  0  0  0  0  0  0  0  0  0
   27.7006   -5.6152   15.9218 O   0  0  0  0  0  0  0  0  0  0  0  0
   19.5037   -6.2108   18.9619 C   0  0  2  0  0  0  0  0  0  0  0  0
   19.0389   -7.4335   19.6021 O   0  0  0  0  0  0  0  0  0  0  0  0
   19.1851   -9.3012   16.2783 C   0  0  2  0  0  0  0  0  0  0  0  0
   18.8059   -8.4666   15.1486 O   0  0  0  0  0  0  0  0  0  0  0  0
   18.6010   -6.1390   11.8380 C   0  0  0  0  0  0  0  0  0  0  0  0
   19.5066   -6.3285   10.7409 O   0  0  0  0  0  0  0  0  0  0  0  0
   23.0249   -2.1058   14.1129 C   0  0  1  0  0  0  0  0  0  0  0  0
   22.2653   -3.2422   14.5777 O   0  0  0  0  0  0  0  0  0  0  0  0
   26.6672   -3.3711   16.2179 C   0  0  2  0  0  0  0  0  0  0  0  0
   26.1937   -2.1645   15.6001 O   0  0  0  0  0  0  0  0  0  0  0  0
   20.9143   -6.0267   19.4075 C   0  0  0  0  0  0  0  0  0  0  0  0
   21.6061   -5.3847   18.3638 O   0  0  0  0  0  0  0  0  0  0  0  0
   19.6671  -10.7259   15.8422 C   0  0  1  0  0  0  0  0  0  0  0  0
   20.8894  -10.5506   15.0777 O   0  0  0  0  0  0  0  0  0  0  0  0
   23.4550   -1.2510   15.3446 C   0  0  0  0  0  0  0  0  0  0  0  0
   22.5905   -1.4496   16.5270 N   0  0  0  0  0  0  0  0  0  0  0  0
   26.5088   -3.2416   17.7311 C   0  0  0  0  0  0  0  0  0  0  0  0
   27.1300   -2.0122   18.1911 O   0  0  0  0  0  0  0  0  0  0  0  0
  1  2  1  6  0  0  0
  1  8  1  0  0  0  0
  1 36  1  0  0  0  0
  3  4  1  6  0  0  0
  3 10  1  0  0  0  0
  3 47  1  0  0  0  0
  5 11  1  0  0  0  0
  5 30  1  0  0  0  0
  5 38  1  6  0  0  0
  6 21  1  1  0  0  0
  6 42  1  0  0  0  0
  7 15  1  0  0  0  0
  7 44  1  0  0  0  0
  7 32  1  6  0  0  0
  8  9  1  6  0  0  0
  8 17  1  0  0  0  0
 11 12  1  1  0  0  0
 11 20  1  0  0  0  0
 13  6  1  0  0  0  0
 13 14  1  1  0  0  0
 15 16  1  1  0  0  0
 15 24  1  0  0  0  0
 17 26  1  0  0  0  0
 18 10  1  0  0  0  0
 18 19  1  6  0  0  0
 20 21  1  1  0  0  0
 20 29  1  0  0  0  0
 22 13  1  0  0  0  0
 22 23  1  1  0  0  0
 24 25  1  6  0  0  0
 24 33  1  0  0  0  0
 26 27  1  6  0  0  0
 26 35  1  0  0  0  0
 28  2  1  1  0  0  0
 28 18  1  0  0  0  0
 29 30  1  0  0  0  0
 29 39  1  6  0  0  0
 31 22  1  0  0  0  0
 31 32  1  1  0  0  0
 31 41  1  0  0  0  0
 33 34  1  6  0  0  0
 33 43  1  0  0  0  0
 35 36  1  0  0  0  0
 35 45  1  1  0  0  0
 37 28  1  0  0  0  0
 37 38  1  6  0  0  0
 39 40  1  0  0  0  0
 41 42  1  0  0  0  0
 41 49  1  1  0  0  0
 43 44  1  0  0  0  0
 43 51  1  1  0  0  0
 45 46  1  0  0  0  0
 47 37  1  0  0  0  0
 47 48  1  6  0  0  0
 49 50  1  0  0  0  0
 51 52  1  0  0  0  0
M  END
>  <CHROM.1>
-152.35261945,90.89915195,-72.34209534,-155.49606279,-175.94816807,4.21887284
-32.13726960,177.17552736,-94.09427890,122.54191229,178.90970312,98.73855826
21.76818672,-5.76452640,15.66197585,-2.87919344,-0.67685801,-1.68267035

>  <Name>
2esj_lig

>  <RI>
0

>  <Rbt.Current_Directory>
/home/itssahil/PROJECTS/Mol_Feturizer/New_Systems/rnas/2esj

>  <Rbt.Executable>
rbdock ($Id: //depot/dev/client3/rdock/2013.1/src/exe/rbdock.cxx#4 $)

>  <Rbt.Library>
libRbt.so (2013.1, Build901 2013/11/27)

>  <Rbt.Parameter_File>
/export/apps/rDock/src/rDock_2013.1_src/data/scripts/dock_solv.prm

>  <Rbt.Receptor>
prm/pocket_docking_2.prm

>  <SCORE>
11.4271

>  <SCORE.INTER>
-1.24086

>  <SCORE.INTER.CONST>
1

>  <SCORE.INTER.POLAR>
-1.08413

>  <SCORE.INTER.ROT>
12

>  <SCORE.INTER.SOLV>
13.5242

>  <SCORE.INTER.VDW>
-13.3215

>  <SCORE.INTER.norm>
-0.0238626

>  <SCORE.INTRA>
8.4003

>  <SCORE.INTRA.DIHEDRAL>
3.08607

>  <SCORE.INTRA.DIHEDRAL.0>
32.9766

>  <SCORE.INTRA.POLAR>
0

>  <SCORE.INTRA.POLAR.0>
0

>  <SCORE.INTRA.REPUL>
0.000115704

>  <SCORE.INTRA.REPUL.0>
0

>  <SCORE.INTRA.SOLV>
-0.177381

>  <SCORE.INTRA.SOLV.lig_0>
-114.358

>  <SCORE.INTRA.VDW>
6.94537

>  <SCORE.INTRA.VDW.0>
-8.24257

>  <SCORE.INTRA.norm>
0.161544

>  <SCORE.RESTR>
4.26768

>  <SCORE.RESTR.CAVITY>
4.26768

>  <SCORE.RESTR.norm>
0.0820707

>  <SCORE.SYSTEM>
0

>  <SCORE.SYSTEM.CONST>
0

>  <SCORE.SYSTEM.DIHEDRAL>
0

>  <SCORE.SYSTEM.SOLV>
0

>  <SCORE.SYSTEM.norm>
0

>  <SCORE.heavy>
52

>  <SCORE.norm>
0.219752

>  <RMSD>
3.099

$$$$
2esj_lig
 OpenBabel11021811423D
libRbt.so/2013.1/901 2013/11/27
 52 56  0  0  0  0  0  0  0  0999 V2000
   17.7537   -6.1642   17.7010 C   0  0  2  0  0  0  0  0  0  0  0  0
   18.4642   -7.3750   18.0238 O   0  0  0  0  0  0  0  0  0  0  0  0
   19.2556  -11.3224   16.5817 C   0  0  2  0  0  0  0  0  0  0  0  0
   19.1520  -12.6721   16.0029 N   0  0  0  0  0  0  0  0  0  0  0  0
   19.8428   -6.9987   14.5529 C   0  0  1  0  0  0  0  0  0  0  0  0
   22.8088   -5.0973   12.3723 C   0  0  1  0  0  0  0  0  0  0  0  0
   24.6392   -0.9918   14.7202 C   0  0  1  0  0  0  0  0  0  0  0  0
   18.4718   -4.9908   18.4307 C   0  0  2  0  0  0  0  0  0  0  0  0
   19.8883   -4.9034   18.0772 N   0  0  0  0  0  0  0  0  0  0  0  0
   18.2299  -11.1555   17.7723 C   0  0  0  0  0  0  0  0  0  0  0  0
   20.5947   -7.8340   13.5159 C   0  0  2  0  0  0  0  0  0  0  0  0
   21.6570   -8.6157   14.1039 O   0  0  0  0  0  0  0  0  0  0  0  0
   24.3220   -5.1195   12.8732 C   0  0  2  0  0  0  0  0  0  0  0  0
   24.3947   -5.0611   14.3572 N   0  0  0  0  0  0  0  0  0  0  0  0
   26.1276   -0.7481   14.9412 C   0  0  1  0  0  0  0  0  0  0  0  0
   26.3753    0.6717   14.9738 O   0  0  0  0  0  0  0  0  0  0  0  0
   18.3191   -5.1210   19.9796 C   0  0  0  0  0  0  0  0  0  0  0  0
   18.3969   -9.7218   18.4190 C   0  0  2  0  0  0  0  0  0  0  0  0
   17.4456   -9.5360   19.5196 N   0  0  0  0  0  0  0  0  0  0  0  0
   21.0662   -6.7549   12.5845 C   0  0  2  0  0  0  0  0  0  0  0  0
   22.1638   -6.0732   13.1367 O   0  0  0  0  0  0  0  0  0  0  0  0
   25.1345   -3.9798   12.1144 C   0  0  1  0  0  0  0  0  0  0  0  0
   24.9227   -4.1203   10.7058 O   0  0  0  0  0  0  0  0  0  0  0  0
   26.7047   -1.3558   16.2140 C   0  0  1  0  0  0  0  0  0  0  0  0
   28.0281   -0.8321   16.3709 O   0  0  0  0  0  0  0  0  0  0  0  0
   16.8054   -5.2358   20.3280 C   0  0  2  0  0  0  0  0  0  0  0  0
   16.5889   -5.2797   21.7270 O   0  0  0  0  0  0  0  0  0  0  0  0
   18.2041   -8.6186   17.3463 C   0  0  2  0  0  0  0  0  0  0  0  0
   19.9435   -5.6973   12.5602 C   0  0  2  0  0  0  0  0  0  0  0  0
   19.3847   -5.8308   13.8575 O   0  0  0  0  0  0  0  0  0  0  0  0
   24.5965   -2.5381   12.4901 C   0  0  2  0  0  0  0  0  0  0  0  0
   24.8543   -2.4201   13.8901 O   0  0  0  0  0  0  0  0  0  0  0  0
   25.8863   -1.0495   17.4696 C   0  0  2  0  0  0  0  0  0  0  0  0
   26.3631   -1.9275   18.5023 O   0  0  0  0  0  0  0  0  0  0  0  0
   16.2366   -6.4922   19.6230 C   0  0  2  0  0  0  0  0  0  0  0  0
   16.3977   -6.2941   18.1893 O   0  0  0  0  0  0  0  0  0  0  0  0
   19.1060   -8.7911   16.0823 C   0  0  2  0  0  0  0  0  0  0  0  0
   18.7908   -7.7517   15.1145 O   0  0  0  0  0  0  0  0  0  0  0  0
   18.8463   -5.8928   11.5143 C   0  0  0  0  0  0  0  0  0  0  0  0
   19.4842   -5.9982   10.2331 O   0  0  0  0  0  0  0  0  0  0  0  0
   23.0876   -2.6163   12.3585 C   0  0  1  0  0  0  0  0  0  0  0  0
   22.1932   -3.7267   12.5858 O   0  0  0  0  0  0  0  0  0  0  0  0
   24.3892   -1.1528   17.2002 C   0  0  2  0  0  0  0  0  0  0  0  0
   23.8377   -0.8272   15.9151 O   0  0  0  0  0  0  0  0  0  0  0  0
   14.7746   -6.6773   19.8485 C   0  0  0  0  0  0  0  0  0  0  0  0
   14.5862   -6.9131   21.2229 O   0  0  0  0  0  0  0  0  0  0  0  0
   18.9633  -10.2331   15.4884 C   0  0  1  0  0  0  0  0  0  0  0  0
   19.9679  -10.3708   14.4486 O   0  0  0  0  0  0  0  0  0  0  0  0
   22.3025   -1.2861   12.5748 C   0  0  0  0  0  0  0  0  0  0  0  0
   20.8494   -1.4175   12.3381 N   0  0  0  0  0  0  0  0  0  0  0  0
   23.3305   -0.8897   18.2687 C   0  0  0  0  0  0  0  0  0  0  0  0
   22.0088   -1.1704   17.7366 O   0  0  0  0  0  0  0  0  0  0  0  0
  1  2  1  1  0  0  0
  1  8  1  0  0  0  0
  1 36  1  0  0  0  0
  3  4  1  6  0  0  0
  3 10  1  0  0  0  0
  3 47  1  0  0  0  0
  5 11  1  0  0  0  0
  5 30  1  0  0  0  0
  5 38  1  6  0  0  0
  6 21  1  1  0  0  0
  6 42  1  0  0  0  0
  7 15  1  0  0  0  0
  7 44  1  0  0  0  0
  7 32  1  1  0  0  0
  8  9  1  1  0  0  0
  8 17  1  0  0  0  0
 11 12  1  1  0  0  0
 11 20  1  0  0  0  0
 13  6  1  0  0  0  0
 13 14  1  1  0  0  0
 15 16  1  1  0  0  0
 15 24  1  0  0  0  0
 17 26  1  0  0  0  0
 18 10  1  0  0  0  0
 18 19  1  1  0  0  0
 20 21  1  1  0  0  0
 20 29  1  0  0  0  0
 22 13  1  0  0  0  0
 22 23  1  6  0  0  0
 24 25  1  1  0  0  0
 24 33  1  0  0  0  0
 26 27  1  1  0  0  0
 26 35  1  0  0  0  0
 28  2  1  1  0  0  0
 28 18  1  0  0  0  0
 29 30  1  0  0  0  0
 29 39  1  6  0  0  0
 31 22  1  0  0  0  0
 31 32  1  1  0  0  0
 31 41  1  0  0  0  0
 33 34  1  1  0  0  0
 33 43  1  0  0  0  0
 35 36  1  0  0  0  0
 35 45  1  6  0  0  0
 37 28  1  0  0  0  0
 37 38  1  6  0  0  0
 39 40  1  0  0  0  0
 41 42  1  0  0  0  0
 41 49  1  1  0  0  0
 43 44  1  0  0  0  0
 43 51  1  1  0  0  0
 45 46  1  0  0  0  0
 47 37  1  0  0  0  0
 47 48  1  6  0  0  0
 49 50  1  0  0  0  0
 51 52  1  0  0  0  0
M  END
>  <CHROM.1>
-169.64424331,74.96214897,-150.22341772,-109.94107406,175.20738117,-145.47468289
-54.64349434,172.01635174,-64.56357339,130.17205115,175.94437768,-175.49829100
21.08335617,-5.21985634,15.71253358,3.07315148,-0.77673764,-2.17570396

>  <Name>
2esj_lig

>  <RI>
1.01272e+07

>  <Rbt.Current_Directory>
/home/itssahil/PROJECTS/Mol_Feturizer/New_Systems/rnas/2esj

>  <Rbt.Executable>
rbdock ($Id: //depot/dev/client3/rdock/2013.1/src/exe/rbdock.cxx#4 $)

>  <Rbt.Library>
libRbt.so (2013.1, Build901 2013/11/27)

>  <Rbt.Parameter_File>
/export/apps/rDock/src/rDock_2013.1_src/data/scripts/dock_solv.prm

>  <Rbt.Receptor>
prm/pocket_docking_3.prm

>  <SCORE>
-15.7987

>  <SCORE.INTER>
-16.4401

>  <SCORE.INTER.CONST>
1

>  <SCORE.INTER.POLAR>
-1.37858

>  <SCORE.INTER.ROT>
12

>  <SCORE.INTER.SOLV>
15.2595

>  <SCORE.INTER.VDW>
-23.0513

>  <SCORE.INTER.norm>
-0.316156

>  <SCORE.INTRA>
0.427562

>  <SCORE.INTRA.DIHEDRAL>
-4.52506

>  <SCORE.INTRA.DIHEDRAL.0>
32.9766

>  <SCORE.INTRA.POLAR>
0

>  <SCORE.INTRA.POLAR.0>
0

>  <SCORE.INTRA.REPUL>
0.003568

>  <SCORE.INTRA.REPUL.0>
0

>  <SCORE.INTRA.SOLV>
-1.92876

>  <SCORE.INTRA.SOLV.lig_0>
-114.358

>  <SCORE.INTRA.VDW>
3.63663

>  <SCORE.INTRA.VDW.0>
-8.24257

>  <SCORE.INTRA.norm>
0.00822235

>  <SCORE.RESTR>
0.213904

>  <SCORE.RESTR.CAVITY>
0.213904

>  <SCORE.RESTR.norm>
0.00411353

>  <SCORE.SYSTEM>
0

>  <SCORE.SYSTEM.CONST>
0

>  <SCORE.SYSTEM.DIHEDRAL>
0

>  <SCORE.SYSTEM.SOLV>
0

>  <SCORE.SYSTEM.norm>
0

>  <SCORE.heavy>
52

>  <SCORE.norm>
-0.30382

>  <RMSD>
3.137

$$$$
2esj_lig
 OpenBabel11021811423D
libRbt.so/2013.1/901 2013/11/27
 52 56  0  0  0  0  0  0  0  0999 V2000
   17.4567   -7.2060   20.2972 C   0  0  2  0  0  0  0  0  0  0  0  0
   16.9301   -7.4275   18.9749 O   0  0  0  0  0  0  0  0  0  0  0  0
   18.9088  -11.0499   17.8561 C   0  0  2  0  0  0  0  0  0  0  0  0
   19.2581  -12.3618   17.2868 N   0  0  0  0  0  0  0  0  0  0  0  0
   19.1776   -6.7578   15.8550 C   0  0  1  0  0  0  0  0  0  0  0  0
   21.3874   -5.0710   13.0912 C   0  0  1  0  0  0  0  0  0  0  0  0
   24.9734   -3.5126   13.2788 C   0  0  1  0  0  0  0  0  0  0  0  0
   17.0106   -5.7834   20.7469 C   0  0  2  0  0  0  0  0  0  0  0  0
   15.5579   -5.6194   20.7033 N   0  0  0  0  0  0  0  0  0  0  0  0
   17.5840  -11.1576   18.7111 C   0  0  0  0  0  0  0  0  0  0  0  0
   18.8084   -6.0509   14.5502 C   0  0  2  0  0  0  0  0  0  0  0  0
   19.1447   -6.8349   13.3851 O   0  0  0  0  0  0  0  0  0  0  0  0
   22.5582   -6.1528   13.0777 C   0  0  2  0  0  0  0  0  0  0  0  0
   23.5433   -5.8878   14.1595 N   0  0  0  0  0  0  0  0  0  0  0  0
   26.2751   -2.8991   12.7760 C   0  0  1  0  0  0  0  0  0  0  0  0
   26.2557   -1.4789   13.0232 O   0  0  0  0  0  0  0  0  0  0  0  0
   17.6948   -4.6832   19.8749 C   0  0  0  0  0  0  0  0  0  0  0  0
   17.2577   -9.7537   19.3623 C   0  0  2  0  0  0  0  0  0  0  0  0
   16.0234   -9.8231   20.1514 N   0  0  0  0  0  0  0  0  0  0  0  0
   19.6019   -4.7841   14.6909 C   0  0  2  0  0  0  0  0  0  0  0  0
   20.9602   -5.0217   14.4207 O   0  0  0  0  0  0  0  0  0  0  0  0
   23.1737   -6.2303   11.6114 C   0  0  1  0  0  0  0  0  0  0  0  0
   22.1105   -6.4237   10.6729 O   0  0  0  0  0  0  0  0  0  0  0  0
   27.5453   -3.4675   13.3971 C   0  0  1  0  0  0  0  0  0  0  0  0
   28.6290   -2.6241   12.9915 O   0  0  0  0  0  0  0  0  0  0  0  0
   19.2374   -4.8934   19.9190 C   0  0  2  0  0  0  0  0  0  0  0  0
   19.9274   -3.8804   19.2091 O   0  0  0  0  0  0  0  0  0  0  0  0
   17.1373   -8.6635   18.2659 C   0  0  2  0  0  0  0  0  0  0  0  0
   19.5756   -4.4335   16.1929 C   0  0  2  0  0  0  0  0  0  0  0  0
   19.4797   -5.7156   16.7931 O   0  0  0  0  0  0  0  0  0  0  0  0
   23.8675   -4.8662   11.2026 C   0  0  2  0  0  0  0  0  0  0  0  0
   24.9400   -4.7235   12.1352 O   0  0  0  0  0  0  0  0  0  0  0  0
   27.5049   -3.5416   14.9245 C   0  0  2  0  0  0  0  0  0  0  0  0
   28.6078   -4.3682   15.3310 O   0  0  0  0  0  0  0  0  0  0  0  0
   19.5541   -6.3012   19.3560 C   0  0  2  0  0  0  0  0  0  0  0  0
   18.9004   -7.2712   20.2236 O   0  0  0  0  0  0  0  0  0  0  0  0
   18.3673   -8.5834   17.3060 C   0  0  2  0  0  0  0  0  0  0  0  0
   18.1169   -7.5861   16.2769 O   0  0  0  0  0  0  0  0  0  0  0  0
   18.4126   -3.5638   16.6689 C   0  0  0  0  0  0  0  0  0  0  0  0
   18.3791   -2.3941   15.8381 O   0  0  0  0  0  0  0  0  0  0  0  0
   22.8722   -3.7778   11.5561 C   0  0  1  0  0  0  0  0  0  0  0  0
   21.8985   -3.7217   12.6207 O   0  0  0  0  0  0  0  0  0  0  0  0
   26.1460   -4.0179   15.4256 C   0  0  2  0  0  0  0  0  0  0  0  0
   24.9380   -3.7105   14.7130 O   0  0  0  0  0  0  0  0  0  0  0  0
   21.0071   -6.6325   19.3939 C   0  0  0  0  0  0  0  0  0  0  0  0
   21.1638   -7.9085   18.8217 O   0  0  0  0  0  0  0  0  0  0  0  0
   18.7038   -9.9929   16.7124 C   0  0  1  0  0  0  0  0  0  0  0  0
   19.9610   -9.8685   15.9960 O   0  0  0  0  0  0  0  0  0  0  0  0
   23.2654   -2.3221   11.1573 C   0  0  0  0  0  0  0  0  0  0  0  0
   22.1726   -1.5804   10.4937 N   0  0  0  0  0  0  0  0  0  0  0  0
   25.8137   -4.1775   16.9074 C   0  0  0  0  0  0  0  0  0  0  0  0
   26.2799   -5.4676   17.3839 O   0  0  0  0  0  0  0  0  0  0  0  0
  1  2  1  6  0  0  0
  1  8  1  0  0  0  0
  1 36  1  0  0  0  0
  3  4  1  6  0  0  0
  3 10  1  0  0  0  0
  3 47  1  0  0  0  0
  5 11  1  0  0  0  0
  5 30  1  0  0  0  0
  5 38  1  1  0  0  0
  6 21  1  1  0  0  0
  6 42  1  0  0  0  0
  7 15  1  0  0  0  0
  7 44  1  0  0  0  0
  7 32  1  6  0  0  0
  8  9  1  6  0  0  0
  8 17  1  0  0  0  0
 11 12  1  6  0  0  0
 11 20  1  0  0  0  0
 13  6  1  0  0  0  0
 13 14  1  1  0  0  0
 15 16  1  1  0  0  0
 15 24  1  0  0  0  0
 17 26  1  0  0  0  0
 18 10  1  0  0  0  0
 18 19  1  6  0  0  0
 20 21  1  1  0  0  0
 20 29  1  0  0  0  0
 22 13  1  0  0  0  0
 22 23  1  6  0  0  0
 24 25  1  1  0  0  0
 24 33  1  0  0  0  0
 26 27  1  6  0  0  0
 26 35  1  0  0  0  0
 28  2  1  1  0  0  0
 28 18  1  0  0  0  0
 29 30  1  0  0  0  0
 29 39  1  6  0  0  0
 31 22  1  0  0  0  0
 31 32  1  1  0  0  0
 31 41  1  0  0  0  0
 33 34  1  6  0  0  0
 33 43  1  0  0  0  0
 35 36  1  0  0  0  0
 35 45  1  1  0  0  0
 37 28  1  0  0  0  0
 37 38  1  6  0  0  0
 39 40  1  0  0  0  0
 41 42  1  0  0  0  0
 41 49  1  1  0  0  0
 43 44  1  0  0  0  0
 43 51  1  1  0  0  0
 45 46  1  0  0  0  0
 47 37  1  0  0  0  0
 47 48  1  1  0  0  0
 49 50  1  0  0  0  0
 51 52  1  0  0  0  0
M  END
>  <CHROM.1>
-178.86544325,165.48869192,-146.12193159,-120.05752361,81.08279281,29.45965427
-53.12488828,-113.44068703,-178.21576436,141.37069406,133.33245346,-83.66063490
21.27222845,-5.78071576,15.86655716,-2.53305190,-0.49100961,-1.51532504

>  <Name>
2esj_lig

>  <RI>
0

>  <Rbt.Current_Directory>
/home/itssahil/PROJECTS/Mol_Feturizer/New_Systems/rnas/2esj

>  <Rbt.Executable>
rbdock ($Id: //depot/dev/client3/rdock/2013.1/src/exe/rbdock.cxx#4 $)

>  <Rbt.Library>
libRbt.so (2013.1, Build901 2013/11/27)

>  <Rbt.Parameter_File>
/export/apps/rDock/src/rDock_2013.1_src/data/scripts/dock_solv.prm

>  <Rbt.Receptor>
prm/pocket_docking_2.prm

>  <SCORE>
9.55626

>  <SCORE.INTER>
-0.170187

>  <SCORE.INTER.CONST>
1

>  <SCORE.INTER.POLAR>
0

>  <SCORE.INTER.ROT>
12

>  <SCORE.INTER.SOLV>
17.4204

>  <SCORE.INTER.VDW>
-17.5203

>  <SCORE.INTER.norm>
-0.00327283

>  <SCORE.INTRA>
5.55729

>  <SCORE.INTRA.DIHEDRAL>
2.49421

>  <SCORE.INTRA.DIHEDRAL.0>
32.9766

>  <SCORE.INTRA.POLAR>
0

>  <SCORE.INTRA.POLAR.0>
0

>  <SCORE.INTRA.REPUL>
0.0462796

>  <SCORE.INTRA.REPUL.0>
0

>  <SCORE.INTRA.SOLV>
0.973356

>  <SCORE.INTRA.SOLV.lig_0>
-114.358

>  <SCORE.INTRA.VDW>
3.59211

>  <SCORE.INTRA.VDW.0>
-8.24257

>  <SCORE.INTRA.norm>
0.106871

>  <SCORE.RESTR>
4.16916

>  <SCORE.RESTR.CAVITY>
4.16916

>  <SCORE.RESTR.norm>
0.0801761

>  <SCORE.SYSTEM>
0

>  <SCORE.SYSTEM.CONST>
0

>  <SCORE.SYSTEM.DIHEDRAL>
0

>  <SCORE.SYSTEM.SOLV>
0

>  <SCORE.SYSTEM.norm>
0

>  <SCORE.heavy>
52

>  <SCORE.norm>
0.183774

>  <RMSD>
3.181

$$$$
2esj_lig
 OpenBabel11021811423D
libRbt.so/2013.1/901 2013/11/27
 52 56  0  0  0  0  0  0  0  0999 V2000
   17.7833   -5.9172   17.5307 C   0  0  2  0  0  0  0  0  0  0  0  0
   18.6105   -7.0763   17.7475 O   0  0  0  0  0  0  0  0  0  0  0  0
   19.2488  -11.1394   16.5760 C   0  0  2  0  0  0  0  0  0  0  0  0
   19.0893  -12.5257   16.1070 N   0  0  0  0  0  0  0  0  0  0  0  0
   19.8300   -6.9755   14.2188 C   0  0  1  0  0  0  0  0  0  0  0  0
   22.6359   -5.1308   11.8535 C   0  0  1  0  0  0  0  0  0  0  0  0
   24.3094   -1.0866   14.2879 C   0  0  1  0  0  0  0  0  0  0  0  0
   18.4651   -4.7144   18.2473 C   0  0  2  0  0  0  0  0  0  0  0  0
   19.8365   -4.5004   17.7861 N   0  0  0  0  0  0  0  0  0  0  0  0
   18.2843  -10.8581   17.7959 C   0  0  0  0  0  0  0  0  0  0  0  0
   20.4400   -7.8344   13.1104 C   0  0  2  0  0  0  0  0  0  0  0  0
   21.5048   -8.6819   13.5936 O   0  0  0  0  0  0  0  0  0  0  0  0
   24.1718   -5.1125   12.2801 C   0  0  2  0  0  0  0  0  0  0  0  0
   24.3154   -5.1023   13.7600 N   0  0  0  0  0  0  0  0  0  0  0  0
   25.4587   -0.2535   13.7323 C   0  0  1  0  0  0  0  0  0  0  0  0
   25.0790    1.1372   13.7328 O   0  0  0  0  0  0  0  0  0  0  0  0
   18.4511   -4.9082   19.7969 C   0  0  0  0  0  0  0  0  0  0  0  0
   18.5121   -9.3844   18.3231 C   0  0  2  0  0  0  0  0  0  0  0  0
   17.6180   -9.0929   19.4485 N   0  0  0  0  0  0  0  0  0  0  0  0
   20.8872   -6.7684   12.1524 C   0  0  2  0  0  0  0  0  0  0  0  0
   22.0653   -6.1561   12.6123 O   0  0  0  0  0  0  0  0  0  0  0  0
   24.9040   -3.9173   11.5248 C   0  0  1  0  0  0  0  0  0  0  0  0
   24.6283   -4.0174   10.1238 O   0  0  0  0  0  0  0  0  0  0  0  0
   26.7782   -0.3813   14.4841 C   0  0  1  0  0  0  0  0  0  0  0  0
   27.6539    0.6321   13.9776 O   0  0  0  0  0  0  0  0  0  0  0  0
   16.9850   -5.1571   20.2596 C   0  0  2  0  0  0  0  0  0  0  0  0
   16.8885   -5.2652   21.6686 O   0  0  0  0  0  0  0  0  0  0  0  0
   18.2923   -8.3605   17.1793 C   0  0  2  0  0  0  0  0  0  0  0  0
   19.8273   -5.6509   12.2389 C   0  0  2  0  0  0  0  0  0  0  0  0
   19.3783   -5.7737   13.5792 O   0  0  0  0  0  0  0  0  0  0  0  0
   24.3331   -2.5109   11.9777 C   0  0  2  0  0  0  0  0  0  0  0  0
   24.6551   -2.4312   13.3671 O   0  0  0  0  0  0  0  0  0  0  0  0
   26.6423   -0.2227   15.9995 C   0  0  2  0  0  0  0  0  0  0  0  0
   27.8781   -0.6726   16.5781 O   0  0  0  0  0  0  0  0  0  0  0  0
   16.4600   -6.4313   19.5526 C   0  0  2  0  0  0  0  0  0  0  0  0
   16.4865   -6.1730   18.1196 O   0  0  0  0  0  0  0  0  0  0  0  0
   19.1296   -8.6498   15.8923 C   0  0  2  0  0  0  0  0  0  0  0  0
   18.7911   -7.6786   14.8635 O   0  0  0  0  0  0  0  0  0  0  0  0
   18.6333   -5.7700   11.2925 C   0  0  0  0  0  0  0  0  0  0  0  0
   19.1448   -5.7924    9.9518 O   0  0  0  0  0  0  0  0  0  0  0  0
   22.8234   -2.6420   11.9159 C   0  0  1  0  0  0  0  0  0  0  0  0
   21.9822   -3.7927   12.1456 O   0  0  0  0  0  0  0  0  0  0  0  0
   25.4047   -0.9392   16.5280 C   0  0  2  0  0  0  0  0  0  0  0  0
   24.2152   -1.0596   15.7328 O   0  0  0  0  0  0  0  0  0  0  0  0
   15.0405   -6.7419   19.8858 C   0  0  0  0  0  0  0  0  0  0  0  0
   14.7246   -7.9724   19.2806 O   0  0  0  0  0  0  0  0  0  0  0  0
   18.9284  -10.1284   15.4173 C   0  0  1  0  0  0  0  0  0  0  0  0
   19.8796  -10.3687   14.3464 O   0  0  0  0  0  0  0  0  0  0  0  0
   22.0020   -1.3508   12.2175 C   0  0  0  0  0  0  0  0  0  0  0  0
   20.7367   -1.2698   11.4579 N   0  0  0  0  0  0  0  0  0  0  0  0
   25.0103   -0.9424   18.0032 C   0  0  0  0  0  0  0  0  0  0  0  0
   24.6396    0.3983   18.4201 O   0  0  0  0  0  0  0  0  0  0  0  0
  1  2  1  1  0  0  0
  1  8  1  0  0  0  0
  1 36  1  0  0  0  0
  3  4  1  6  0  0  0
  3 10  1  0  0  0  0
  3 47  1  0  0  0  0
  5 11  1  0  0  0  0
  5 30  1  0  0  0  0
  5 38  1  6  0  0  0
  6 21  1  1  0  0  0
  6 42  1  0  0  0  0
  7 15  1  0  0  0  0
  7 44  1  0  0  0  0
  7 32  1  1  0  0  0
  8  9  1  6  0  0  0
  8 17  1  0  0  0  0
 11 12  1  1  0  0  0
 11 20  1  0  0  0  0
 13  6  1  0  0  0  0
 13 14  1  1  0  0  0
 15 16  1  1  0  0  0
 15 24  1  0  0  0  0
 17 26  1  0  0  0  0
 18 10  1  0  0  0  0
 18 19  1  1  0  0  0
 20 21  1  1  0  0  0
 20 29  1  0  0  0  0
 22 13  1  0  0  0  0
 22 23  1  6  0  0  0
 24 25  1  6  0  0  0
 24 33  1  0  0  0  0
 26 27  1  1  0  0  0
 26 35  1  0  0  0  0
 28  2  1  1  0  0  0
 28 18  1  0  0  0  0
 29 30  1  0  0  0  0
 29 39  1  6  0  0  0
 31 22  1  0  0  0  0
 31 32  1  1  0  0  0
 31 41  1  0  0  0  0
 33 34  1  1  0  0  0
 33 43  1  0  0  0  0
 35 36  1  0  0  0  0
 35 45  1  1  0  0  0
 37 28  1  0  0  0  0
 37 38  1  6  0  0  0
 39 40  1  0  0  0  0
 41 42  1  0  0  0  0
 41 49  1  1  0  0  0
 43 44  1  0  0  0  0
 43 51  1  1  0  0  0
 45 46  1  0  0  0  0
 47 37  1  0  0  0  0
 47 48  1  6  0  0  0
 49 50  1  0  0  0  0
 51 52  1  0  0  0  0
M  END
>  <CHROM.1>
-177.89976992,81.41897961,-156.61941713,-76.34159791,-179.79880716,-135.47507584
-58.75307282,177.38154938,-174.95391438,128.83375138,147.30653439,66.55446924
21.15601878,-5.02823950,15.23881693,3.11849560,-0.81410138,-2.10213057

>  <Name>
2esj_lig

>  <RI>
0

>  <Rbt.Current_Directory>
/home/itssahil/PROJECTS/Mol_Feturizer/New_Systems/rnas/2esj

>  <Rbt.Executable>
rbdock ($Id: //depot/dev/client3/rdock/2013.1/src/exe/rbdock.cxx#4 $)

>  <Rbt.Library>
libRbt.so (2013.1, Build901 2013/11/27)

>  <Rbt.Parameter_File>
/export/apps/rDock/src/rDock_2013.1_src/data/scripts/dock_solv.prm

>  <Rbt.Receptor>
prm/pocket_docking_4.prm

>  <SCORE>
-20.14

>  <SCORE.INTER>
-18.1708

>  <SCORE.INTER.CONST>
1

>  <SCORE.INTER.POLAR>
-1.4688

>  <SCORE.INTER.ROT>
12

>  <SCORE.INTER.SOLV>
16.1955

>  <SCORE.INTER.VDW>
-24.2164

>  <SCORE.INTER.norm>
-0.349439

>  <SCORE.INTRA>
-2.00642

>  <SCORE.INTRA.DIHEDRAL>
-9.09156

>  <SCORE.INTRA.DIHEDRAL.0>
32.9766

>  <SCORE.INTRA.POLAR>
0

>  <SCORE.INTRA.POLAR.0>
0

>  <SCORE.INTRA.REPUL>
0

>  <SCORE.INTRA.REPUL.0>
0

>  <SCORE.INTRA.SOLV>
-1.05915

>  <SCORE.INTRA.SOLV.lig_0>
-114.358

>  <SCORE.INTRA.VDW>
3.06894

>  <SCORE.INTRA.VDW.0>
-8.24257

>  <SCORE.INTRA.norm>
-0.0385849

>  <SCORE.RESTR>
0.0372374

>  <SCORE.RESTR.CAVITY>
0.0372374

>  <SCORE.RESTR.norm>
0.000716104

>  <SCORE.SYSTEM>
0

>  <SCORE.SYSTEM.CONST>
0

>  <SCORE.SYSTEM.DIHEDRAL>
0

>  <SCORE.SYSTEM.SOLV>
0

>  <SCORE.SYSTEM.norm>
0

>  <SCORE.heavy>
52

>  <SCORE.norm>
-0.387308

>  <RMSD>
3.241

$$$$
2esj_lig
 OpenBabel11021811423D
libRbt.so/2013.1/901 2013/11/27
 52 56  0  0  0  0  0  0  0  0999 V2000
   19.1506   -6.9446   18.4133 C   0  0  2  0  0  0  0  0  0  0  0  0
   18.3871   -7.4689   17.3101 O   0  0  0  0  0  0  0  0  0  0  0  0
   19.8413  -11.4834   17.0715 C   0  0  2  0  0  0  0  0  0  0  0  0
   19.9775  -12.9378   16.8885 N   0  0  0  0  0  0  0  0  0  0  0  0
   19.8923   -7.5677   14.1268 C   0  0  1  0  0  0  0  0  0  0  0  0
   21.9562   -4.5810   11.9987 C   0  0  1  0  0  0  0  0  0  0  0  0
   26.0487   -2.2006   14.4131 C   0  0  1  0  0  0  0  0  0  0  0  0
   18.1866   -6.0863   19.2845 C   0  0  2  0  0  0  0  0  0  0  0  0
   17.0241   -6.8489   19.7387 N   0  0  0  0  0  0  0  0  0  0  0  0
   18.6967  -11.1659   18.1139 C   0  0  0  0  0  0  0  0  0  0  0  0
   19.6410   -7.3766   12.6305 C   0  0  2  0  0  0  0  0  0  0  0  0
   20.4240   -8.2804   11.8209 O   0  0  0  0  0  0  0  0  0  0  0  0
   23.4936   -4.9115   11.7373 C   0  0  2  0  0  0  0  0  0  0  0  0
   24.1020   -5.5894   12.9126 N   0  0  0  0  0  0  0  0  0  0  0  0
   27.1962   -2.2530   13.4110 C   0  0  1  0  0  0  0  0  0  0  0  0
   27.9867   -1.0537   13.5331 O   0  0  0  0  0  0  0  0  0  0  0  0
   17.7164   -4.8153   18.5082 C   0  0  0  0  0  0  0  0  0  0  0  0
   18.6054   -9.6035   18.3416 C   0  0  2  0  0  0  0  0  0  0  0  0
   17.5399   -9.2806   19.2963 N   0  0  0  0  0  0  0  0  0  0  0  0
   20.0109   -5.9301   12.4731 C   0  0  2  0  0  0  0  0  0  0  0  0
   21.4076   -5.7768   12.4698 O   0  0  0  0  0  0  0  0  0  0  0  0
   24.2356   -3.5831   11.2684 C   0  0  1  0  0  0  0  0  0  0  0  0
   23.5086   -3.0075   10.1780 O   0  0  0  0  0  0  0  0  0  0  0  0
   28.1302   -3.4487   13.5528 C   0  0  1  0  0  0  0  0  0  0  0  0
   29.2579   -3.2081   12.7039 O   0  0  0  0  0  0  0  0  0  0  0  0
   18.9705   -4.0340   18.0158 C   0  0  2  0  0  0  0  0  0  0  0  0
   18.6171   -2.8251   17.3679 O   0  0  0  0  0  0  0  0  0  0  0  0
   18.3634   -8.8736   16.9949 C   0  0  2  0  0  0  0  0  0  0  0  0
   19.5620   -5.2350   13.7750 C   0  0  2  0  0  0  0  0  0  0  0  0
   19.6876   -6.2806   14.7257 O   0  0  0  0  0  0  0  0  0  0  0  0
   24.2376   -2.4872   12.4122 C   0  0  2  0  0  0  0  0  0  0  0  0
   24.9975   -3.0803   13.4664 O   0  0  0  0  0  0  0  0  0  0  0  0
   28.6148   -3.6862   14.9842 C   0  0  2  0  0  0  0  0  0  0  0  0
   29.2097   -4.9939   15.0113 O   0  0  0  0  0  0  0  0  0  0  0  0
   19.7888   -4.9622   17.0843 C   0  0  2  0  0  0  0  0  0  0  0  0
   20.2048   -6.1118   17.8758 O   0  0  0  0  0  0  0  0  0  0  0  0
   19.3935   -9.2355   15.8773 C   0  0  2  0  0  0  0  0  0  0  0  0
   19.0299   -8.5572   14.6428 O   0  0  0  0  0  0  0  0  0  0  0  0
   18.1319   -4.6965   13.8013 C   0  0  0  0  0  0  0  0  0  0  0  0
   17.9112   -4.1189   15.0964 O   0  0  0  0  0  0  0  0  0  0  0  0
   22.8110   -2.4250   12.9230 C   0  0  1  0  0  0  0  0  0  0  0  0
   21.8132   -3.4644   13.0164 O   0  0  0  0  0  0  0  0  0  0  0  0
   27.4911   -3.4873   15.9953 C   0  0  2  0  0  0  0  0  0  0  0  0
   26.4410   -2.5351   15.7664 O   0  0  0  0  0  0  0  0  0  0  0  0
   21.0451   -4.3316   16.5876 C   0  0  0  0  0  0  0  0  0  0  0  0
   21.7096   -5.2841   15.7929 O   0  0  0  0  0  0  0  0  0  0  0  0
   19.5052  -10.7878   15.7038 C   0  0  1  0  0  0  0  0  0  0  0  0
   20.6110  -11.0403   14.7967 O   0  0  0  0  0  0  0  0  0  0  0  0
   22.5061   -1.3376   13.9988 C   0  0  0  0  0  0  0  0  0  0  0  0
   22.8945   -1.7407   15.3667 N   0  0  0  0  0  0  0  0  0  0  0  0
   27.6873   -3.6480   17.5011 C   0  0  0  0  0  0  0  0  0  0  0  0
   26.4937   -3.2145   18.2055 O   0  0  0  0  0  0  0  0  0  0  0  0
  1  2  1  6  0  0  0
  1  8  1  0  0  0  0
  1 36  1  0  0  0  0
  3  4  1  6  0  0  0
  3 10  1  0  0  0  0
  3 47  1  0  0  0  0
  5 11  1  0  0  0  0
  5 30  1  0  0  0  0
  5 38  1  1  0  0  0
  6 21  1  1  0  0  0
  6 42  1  0  0  0  0
  7 15  1  0  0  0  0
  7 44  1  0  0  0  0
  7 32  1  6  0  0  0
  8  9  1  6  0  0  0
  8 17  1  0  0  0  0
 11 12  1  6  0  0  0
 11 20  1  0  0  0  0
 13  6  1  0  0  0  0
 13 14  1  1  0  0  0
 15 16  1  1  0  0  0
 15 24  1  0  0  0  0
 17 26  1  0  0  0  0
 18 10  1  0  0  0  0
 18 19  1  1  0  0  0
 20 21  1  1  0  0  0
 20 29  1  0  0  0  0
 22 13  1  0  0  0  0
 22 23  1  6  0  0  0
 24 25  1  6  0  0  0
 24 33  1  0  0  0  0
 26 27  1  6  0  0  0
 26 35  1  0  0  0  0
 28  2  1  1  0  0  0
 28 18  1  0  0  0  0
 29 30  1  0  0  0  0
 29 39  1  6  0  0  0
 31 22  1  0  0  0  0
 31 32  1  1  0  0  0
 31 41  1  0  0  0  0
 33 34  1  6  0  0  0
 33 43  1  0  0  0  0
 35 36  1  0  0  0  0
 35 45  1  1  0  0  0
 37 28  1  0  0  0  0
 37 38  1  6  0  0  0
 39 40  1  0  0  0  0
 41 42  1  0  0  0  0
 41 49  1  1  0  0  0
 43 44  1  0  0  0  0
 43 51  1  1  0  0  0
 45 46  1  0  0  0  0
 47 37  1  0  0  0  0
 47 48  1  6  0  0  0
 49 50  1  0  0  0  0
 51 52  1  0  0  0  0
M  END
>  <CHROM.1>
-127.35156127,158.23287031,-163.84444882,-82.13940463,163.79262533,28.41018241
178.87974583,141.95946254,178.24096785,114.38367847,-81.38570386,172.06213345
21.95964543,-5.50576939,15.15650287,-2.79635847,-0.59408095,-1.51345391

>  <Name>
2esj_lig

>  <RI>
0

>  <Rbt.Current_Directory>
/home/itssahil/PROJECTS/Mol_Feturizer/New_Systems/rnas/2esj

>  <Rbt.Executable>
rbdock ($Id: //depot/dev/client3/rdock/2013.1/src/exe/rbdock.cxx#4 $)

>  <Rbt.Library>
libRbt.so (2013.1, Build901 2013/11/27)

>  <Rbt.Parameter_File>
/export/apps/rDock/src/rDock_2013.1_src/data/scripts/dock_solv.prm

>  <Rbt.Receptor>
prm/pocket_docking_2.prm

>  <SCORE>
10.8847

>  <SCORE.INTER>
2.23759

>  <SCORE.INTER.CONST>
1

>  <SCORE.INTER.POLAR>
-0.252912

>  <SCORE.INTER.ROT>
12

>  <SCORE.INTER.SOLV>
10.022

>  <SCORE.INTER.VDW>
-12.6059

>  <SCORE.INTER.norm>
0.0430306

>  <SCORE.INTRA>
5.99353

>  <SCORE.INTRA.DIHEDRAL>
1.33326

>  <SCORE.INTRA.DIHEDRAL.0>
32.9766

>  <SCORE.INTRA.POLAR>
0

>  <SCORE.INTRA.POLAR.0>
0

>  <SCORE.INTRA.REPUL>
0

>  <SCORE.INTRA.REPUL.0>
0

>  <SCORE.INTRA.SOLV>
5.56167

>  <SCORE.INTRA.SOLV.lig_0>
-114.358

>  <SCORE.INTRA.VDW>
2.54606

>  <SCORE.INTRA.VDW.0>
-8.24257

>  <SCORE.INTRA.norm>
0.11526

>  <SCORE.RESTR>
2.65356

>  <SCORE.RESTR.CAVITY>
2.65356

>  <SCORE.RESTR.norm>
0.05103

>  <SCORE.SYSTEM>
0

>  <SCORE.SYSTEM.CONST>
0

>  <SCORE.SYSTEM.DIHEDRAL>
0

>  <SCORE.SYSTEM.SOLV>
0

>  <SCORE.SYSTEM.norm>
0

>  <SCORE.heavy>
52

>  <SCORE.norm>
0.209321

>  <RMSD>
3.245

$$$$
2esj_lig
 OpenBabel11021811423D
libRbt.so/2013.1/901 2013/11/27
 52 56  0  0  0  0  0  0  0  0999 V2000
   17.9218   -5.7195   17.5350 C   0  0  2  0  0  0  0  0  0  0  0  0
   18.7434   -6.8918   17.6954 O   0  0  0  0  0  0  0  0  0  0  0  0
   19.1980  -11.0042   16.6143 C   0  0  2  0  0  0  0  0  0  0  0  0
   18.9796  -12.3876   16.1605 N   0  0  0  0  0  0  0  0  0  0  0  0
   20.0643   -6.7180   14.4167 C   0  0  1  0  0  0  0  0  0  0  0  0
   23.6585   -5.0067   12.9430 C   0  0  1  0  0  0  0  0  0  0  0  0
   24.7527   -0.4087   14.1291 C   0  0  1  0  0  0  0  0  0  0  0  0
   18.6899   -4.5194   18.1634 C   0  0  2  0  0  0  0  0  0  0  0  0
   20.0163   -4.3413   17.5733 N   0  0  0  0  0  0  0  0  0  0  0  0
   18.2021  -10.6479   17.7885 C   0  0  0  0  0  0  0  0  0  0  0  0
   21.2915   -7.5572   14.0587 C   0  0  2  0  0  0  0  0  0  0  0  0
   22.1335   -7.8172   15.2028 O   0  0  0  0  0  0  0  0  0  0  0  0
   24.3330   -4.0462   14.0218 C   0  0  2  0  0  0  0  0  0  0  0  0
   23.3150   -3.1890   14.6849 N   0  0  0  0  0  0  0  0  0  0  0  0
   25.7812    0.3265   13.2774 C   0  0  1  0  0  0  0  0  0  0  0  0
   25.9569    1.6609   13.7939 O   0  0  0  0  0  0  0  0  0  0  0  0
   18.8164   -4.6875   19.7109 C   0  0  0  0  0  0  0  0  0  0  0  0
   18.4913   -9.1801   18.3020 C   0  0  2  0  0  0  0  0  0  0  0  0
   17.5702   -8.8192   19.3845 N   0  0  0  0  0  0  0  0  0  0  0  0
   21.9243   -6.6850   13.0132 C   0  0  2  0  0  0  0  0  0  0  0  0
   22.5838   -5.5984   13.6120 O   0  0  0  0  0  0  0  0  0  0  0  0
   25.5320   -3.2567   13.3333 C   0  0  1  0  0  0  0  0  0  0  0  0
   26.3934   -4.1978   12.6844 O   0  0  0  0  0  0  0  0  0  0  0  0
   27.1531   -0.3325   13.1999 C   0  0  1  0  0  0  0  0  0  0  0  0
   28.0366    0.6016   12.5700 O   0  0  0  0  0  0  0  0  0  0  0  0
   17.3951   -4.8985   20.3118 C   0  0  2  0  0  0  0  0  0  0  0  0
   17.4280   -4.9815   21.7254 O   0  0  0  0  0  0  0  0  0  0  0  0
   18.3765   -8.1660   17.1343 C   0  0  2  0  0  0  0  0  0  0  0  0
   20.7570   -6.0346   12.2424 C   0  0  2  0  0  0  0  0  0  0  0  0
   19.7500   -5.9616   13.2392 O   0  0  0  0  0  0  0  0  0  0  0  0
   25.0088   -2.2916   12.1913 C   0  0  2  0  0  0  0  0  0  0  0  0
   24.1833   -1.3494   12.8776 O   0  0  0  0  0  0  0  0  0  0  0  0
   27.7237   -0.7304   14.5623 C   0  0  2  0  0  0  0  0  0  0  0  0
   28.8394   -1.5998   14.3091 O   0  0  0  0  0  0  0  0  0  0  0  0
   16.7827   -6.1731   19.6798 C   0  0  2  0  0  0  0  0  0  0  0  0
   16.6807   -5.9389   18.2461 O   0  0  0  0  0  0  0  0  0  0  0  0
   19.2477   -8.5244   15.8880 C   0  0  2  0  0  0  0  0  0  0  0  0
   19.0068   -7.5542   14.8311 O   0  0  0  0  0  0  0  0  0  0  0  0
   20.2214   -6.8081   11.0380 C   0  0  0  0  0  0  0  0  0  0  0  0
   19.2102   -5.9990   10.4195 O   0  0  0  0  0  0  0  0  0  0  0  0
   24.0621   -3.1267   11.3506 C   0  0  1  0  0  0  0  0  0  0  0  0
   23.1936   -4.2139   11.7354 O   0  0  0  0  0  0  0  0  0  0  0  0
   26.6514   -1.3325   15.4636 C   0  0  2  0  0  0  0  0  0  0  0  0
   25.2823   -0.9076   15.3812 O   0  0  0  0  0  0  0  0  0  0  0  0
   15.3947   -6.4490   20.1487 C   0  0  0  0  0  0  0  0  0  0  0  0
   14.6749   -6.9656   19.0555 O   0  0  0  0  0  0  0  0  0  0  0  0
   18.9827   -9.9976   15.4278 C   0  0  1  0  0  0  0  0  0  0  0  0
   19.9615  -10.3097   14.4012 O   0  0  0  0  0  0  0  0  0  0  0  0
   23.4755   -2.4408   10.0785 C   0  0  0  0  0  0  0  0  0  0  0  0
   23.6722   -0.9760   10.0584 N   0  0  0  0  0  0  0  0  0  0  0  0
   26.9314   -1.8106   16.8865 C   0  0  0  0  0  0  0  0  0  0  0  0
   27.0068   -0.6730   17.7859 O   0  0  0  0  0  0  0  0  0  0  0  0
  1  2  1  1  0  0  0
  1  8  1  0  0  0  0
  1 36  1  0  0  0  0
  3  4  1  6  0  0  0
  3 10  1  0  0  0  0
  3 47  1  0  0  0  0
  5 11  1  0  0  0  0
  5 30  1  0  0  0  0
  5 38  1  6  0  0  0
  6 21  1  1  0  0  0
  6 42  1  0  0  0  0
  7 15  1  0  0  0  0
  7 44  1  0  0  0  0
  7 32  1  6  0  0  0
  8  9  1  6  0  0  0
  8 17  1  0  0  0  0
 11 12  1  1  0  0  0
 11 20  1  0  0  0  0
 13  6  1  0  0  0  0
 13 14  1  6  0  0  0
 15 16  1  1  0  0  0
 15 24  1  0  0  0  0
 17 26  1  0  0  0  0
 18 10  1  0  0  0  0
 18 19  1  1  0  0  0
 20 21  1  1  0  0  0
 20 29  1  0  0  0  0
 22 13  1  0  0  0  0
 22 23  1  6  0  0  0
 24 25  1  1  0  0  0
 24 33  1  0  0  0  0
 26 27  1  1  0  0  0
 26 35  1  0  0  0  0
 28  2  1  1  0  0  0
 28 18  1  0  0  0  0
 29 30  1  0  0  0  0
 29 39  1  6  0  0  0
 31 22  1  0  0  0  0
 31 32  1  1  0  0  0
 31 41  1  0  0  0  0
 33 34  1  6  0  0  0
 33 43  1  0  0  0  0
 35 36  1  0  0  0  0
 35 45  1  1  0  0  0
 37 28  1  0  0  0  0
 37 38  1  6  0  0  0
 39 40  1  0  0  0  0
 41 42  1  0  0  0  0
 41 49  1  1  0  0  0
 43 44  1  0  0  0  0
 43 51  1  1  0  0  0
 45 46  1  0  0  0  0
 47 37  1  0  0  0  0
 47 48  1  6  0  0  0
 49 50  1  0  0  0  0
 51 52  1  0  0  0  0
M  END
>  <CHROM.1>
-175.23878485,52.82402107,-168.52994217,62.78000435,153.57795951,-129.25352913
-176.38208436,57.26467105,143.31632797,115.46331496,-14.01605789,77.83941594
21.73594178,-4.90567506,15.19122550,-3.13787336,-0.76979507,-2.14776904

>  <Name>
2esj_lig

>  <RI>
0

>  <Rbt.Current_Directory>
/home/itssahil/PROJECTS/Mol_Feturizer/New_Systems/rnas/2esj

>  <Rbt.Executable>
rbdock ($Id: //depot/dev/client3/rdock/2013.1/src/exe/rbdock.cxx#4 $)

>  <Rbt.Library>
libRbt.so (2013.1, Build901 2013/11/27)

>  <Rbt.Parameter_File>
/export/apps/rDock/src/rDock_2013.1_src/data/scripts/dock_solv.prm

>  <Rbt.Receptor>
prm/pocket_docking_4.prm

>  <SCORE>
-17.7899

>  <SCORE.INTER>
-18.6614

>  <SCORE.INTER.CONST>
1

>  <SCORE.INTER.POLAR>
-2.36211

>  <SCORE.INTER.ROT>
12

>  <SCORE.INTER.SOLV>
12.2605

>  <SCORE.INTER.VDW>
-20.254

>  <SCORE.INTER.norm>
-0.358873

>  <SCORE.INTRA>
0.865431

>  <SCORE.INTRA.DIHEDRAL>
-6.25465

>  <SCORE.INTRA.DIHEDRAL.0>
32.9766

>  <SCORE.INTRA.POLAR>
0

>  <SCORE.INTRA.POLAR.0>
0

>  <SCORE.INTRA.REPUL>
0

>  <SCORE.INTRA.REPUL.0>
0

>  <SCORE.INTRA.SOLV>
3.08983

>  <SCORE.INTRA.SOLV.lig_0>
-114.358

>  <SCORE.INTRA.VDW>
2.44784

>  <SCORE.INTRA.VDW.0>
-8.24257

>  <SCORE.INTRA.norm>
0.0166429

>  <SCORE.RESTR>
0.00606026

>  <SCORE.RESTR.CAVITY>
0.00606026

>  <SCORE.RESTR.norm>
0.000116544

>  <SCORE.SYSTEM>
0

>  <SCORE.SYSTEM.CONST>
0

>  <SCORE.SYSTEM.DIHEDRAL>
0

>  <SCORE.SYSTEM.SOLV>
0

>  <SCORE.SYSTEM.norm>
0

>  <SCORE.heavy>
52

>  <SCORE.norm>
-0.342113

>  <RMSD>
3.414

$$$$
2esj_lig
 OpenBabel11021811423D
libRbt.so/2013.1/901 2013/11/27
 52 56  0  0  0  0  0  0  0  0999 V2000
   18.8925   -7.0349   18.5750 C   0  0  2  0  0  0  0  0  0  0  0  0
   17.8148   -7.5950   17.8005 O   0  0  0  0  0  0  0  0  0  0  0  0
   19.3147  -11.5666   17.2863 C   0  0  2  0  0  0  0  0  0  0  0  0
   19.4738  -12.9979   16.9807 N   0  0  0  0  0  0  0  0  0  0  0  0
   19.5434   -7.4482   14.6752 C   0  0  1  0  0  0  0  0  0  0  0  0
   21.9062   -4.7386   13.1176 C   0  0  1  0  0  0  0  0  0  0  0  0
   26.0782   -2.4268   13.6851 C   0  0  1  0  0  0  0  0  0  0  0  0
   18.2695   -6.0247   19.5830 C   0  0  2  0  0  0  0  0  0  0  0  0
   17.2526   -6.6454   20.4315 N   0  0  0  0  0  0  0  0  0  0  0  0
   18.1078  -11.3489   18.2829 C   0  0  0  0  0  0  0  0  0  0  0  0
   20.7822   -8.1050   14.0648 C   0  0  2  0  0  0  0  0  0  0  0  0
   21.7830   -8.4211   15.0567 O   0  0  0  0  0  0  0  0  0  0  0  0
   22.9554   -4.9404   11.9345 C   0  0  2  0  0  0  0  0  0  0  0  0
   24.1982   -5.5911   12.4274 N   0  0  0  0  0  0  0  0  0  0  0  0
   27.3862   -2.6324   12.9299 C   0  0  1  0  0  0  0  0  0  0  0  0
   28.3270   -1.6144   13.3262 O   0  0  0  0  0  0  0  0  0  0  0  0
   17.6588   -4.7967   18.8358 C   0  0  0  0  0  0  0  0  0  0  0  0
   17.9898   -9.8139   18.6455 C   0  0  2  0  0  0  0  0  0  0  0  0
   16.8670   -9.5825   19.5602 N   0  0  0  0  0  0  0  0  0  0  0  0
   21.1985   -7.0467   13.0846 C   0  0  2  0  0  0  0  0  0  0  0  0
   21.8334   -5.9834   13.7484 O   0  0  0  0  0  0  0  0  0  0  0  0
   23.1733   -3.5480   11.1936 C   0  0  1  0  0  0  0  0  0  0  0  0
   21.8965   -3.0104   10.8342 O   0  0  0  0  0  0  0  0  0  0  0  0
   28.0486   -3.9898   13.1326 C   0  0  1  0  0  0  0  0  0  0  0  0
   29.3554   -3.9141   12.5524 O   0  0  0  0  0  0  0  0  0  0  0  0
   18.7530   -4.1684   17.9227 C   0  0  2  0  0  0  0  0  0  0  0  0
   18.2881   -2.9996   17.2715 O   0  0  0  0  0  0  0  0  0  0  0  0
   17.8218   -8.9653   17.3584 C   0  0  2  0  0  0  0  0  0  0  0  0
   19.8905   -6.4263   12.5516 C   0  0  2  0  0  0  0  0  0  0  0  0
   19.0170   -6.5843   13.6584 O   0  0  0  0  0  0  0  0  0  0  0  0
   23.8367   -2.4786   12.1557 C   0  0  2  0  0  0  0  0  0  0  0  0
   25.1174   -3.0303   12.4653 O   0  0  0  0  0  0  0  0  0  0  0  0
   28.1688   -4.4042   14.6002 C   0  0  2  0  0  0  0  0  0  0  0  0
   28.5101   -5.7999   14.6126 O   0  0  0  0  0  0  0  0  0  0  0  0
   19.2157   -5.2418   16.9065 C   0  0  2  0  0  0  0  0  0  0  0  0
   19.7852   -6.3434   17.6700 O   0  0  0  0  0  0  0  0  0  0  0  0
   18.9192   -9.2208   16.2762 C   0  0  2  0  0  0  0  0  0  0  0  0
   18.6235   -8.4342   15.0886 O   0  0  0  0  0  0  0  0  0  0  0  0
   19.2735   -7.0908   11.3213 C   0  0  0  0  0  0  0  0  0  0  0  0
   19.3873   -6.1676   10.2285 O   0  0  0  0  0  0  0  0  0  0  0  0
   23.0432   -2.5404   13.4467 C   0  0  1  0  0  0  0  0  0  0  0  0
   22.3767   -3.6575   14.0731 O   0  0  0  0  0  0  0  0  0  0  0  0
   26.9069   -4.0601   15.3836 C   0  0  2  0  0  0  0  0  0  0  0  0
   26.1095   -2.9139   15.0486 O   0  0  0  0  0  0  0  0  0  0  0  0
   20.3029   -4.7636   16.0056 C   0  0  0  0  0  0  0  0  0  0  0  0
   21.4203   -5.5926   16.2160 O   0  0  0  0  0  0  0  0  0  0  0  0
   19.0541  -10.7505   15.9696 C   0  0  1  0  0  0  0  0  0  0  0  0
   20.2138  -10.9161   15.1111 O   0  0  0  0  0  0  0  0  0  0  0  0
   23.4256   -1.5024   14.5463 C   0  0  0  0  0  0  0  0  0  0  0  0
   23.2974   -0.0996   14.0986 N   0  0  0  0  0  0  0  0  0  0  0  0
   26.7471   -4.3493   16.8744 C   0  0  0  0  0  0  0  0  0  0  0  0
   25.9670   -5.5595   17.0638 O   0  0  0  0  0  0  0  0  0  0  0  0
  1  2  1  6  0  0  0
  1  8  1  0  0  0  0
  1 36  1  0  0  0  0
  3  4  1  6  0  0  0
  3 10  1  0  0  0  0
  3 47  1  0  0  0  0
  5 11  1  0  0  0  0
  5 30  1  0  0  0  0
  5 38  1  6  0  0  0
  6 21  1  1  0  0  0
  6 42  1  0  0  0  0
  7 15  1  0  0  0  0
  7 44  1  0  0  0  0
  7 32  1  6  0  0  0
  8  9  1  6  0  0  0
  8 17  1  0  0  0  0
 11 12  1  1  0  0  0
 11 20  1  0  0  0  0
 13  6  1  0  0  0  0
 13 14  1  1  0  0  0
 15 16  1  1  0  0  0
 15 24  1  0  0  0  0
 17 26  1  0  0  0  0
 18 10  1  0  0  0  0
 18 19  1  1  0  0  0
 20 21  1  1  0  0  0
 20 29  1  0  0  0  0
 22 13  1  0  0  0  0
 22 23  1  1  0  0  0
 24 25  1  1  0  0  0
 24 33  1  0  0  0  0
 26 27  1  6  0  0  0
 26 35  1  0  0  0  0
 28  2  1  1  0  0  0
 28 18  1  0  0  0  0
 29 30  1  0  0  0  0
 29 39  1  6  0  0  0
 31 22  1  0  0  0  0
 31 32  1  1  0  0  0
 31 41  1  0  0  0  0
 33 34  1  6  0  0  0
 33 43  1  0  0  0  0
 35 36  1  0  0  0  0
 35 45  1  6  0  0  0
 37 28  1  0  0  0  0
 37 38  1  6  0  0  0
 39 40  1  0  0  0  0
 41 42  1  0  0  0  0
 41 49  1  1  0  0  0
 43 44  1  0  0  0  0
 43 51  1  1  0  0  0
 45 46  1  0  0  0  0
 47 37  1  0  0  0  0
 47 48  1  6  0  0  0
 49 50  1  0  0  0  0
 51 52  1  0  0  0  0
M  END
>  <CHROM.1>
-144.56291734,73.12234528,-71.14542572,-142.71792436,-159.47306907,56.03382549
-112.04024129,-167.46551006,119.32379365,117.82760409,58.66146803,-100.03560202
21.83587788,-5.84056628,15.08596081,-3.00300517,-0.70011083,-1.98373263

>  <Name>
2esj_lig

>  <RI>
0

>  <Rbt.Current_Directory>
/home/itssahil/PROJECTS/Mol_Feturizer/New_Systems/rnas/2esj

>  <Rbt.Executable>
rbdock ($Id: //depot/dev/client3/rdock/2013.1/src/exe/rbdock.cxx#4 $)

>  <Rbt.Library>
libRbt.so (2013.1, Build901 2013/11/27)

>  <Rbt.Parameter_File>
/export/apps/rDock/src/rDock_2013.1_src/data/scripts/dock_solv.prm

>  <Rbt.Receptor>
prm/pocket_docking_2.prm

>  <SCORE>
13.8397

>  <SCORE.INTER>
-0.275424

>  <SCORE.INTER.CONST>
1

>  <SCORE.INTER.POLAR>
-0.815766

>  <SCORE.INTER.ROT>
12

>  <SCORE.INTER.SOLV>
15.3474

>  <SCORE.INTER.VDW>
-14.1802

>  <SCORE.INTER.norm>
-0.00529661

>  <SCORE.INTRA>
8.32662

>  <SCORE.INTRA.DIHEDRAL>
3.86124

>  <SCORE.INTRA.DIHEDRAL.0>
32.9766

>  <SCORE.INTRA.POLAR>
0

>  <SCORE.INTRA.POLAR.0>
0

>  <SCORE.INTRA.REPUL>
0

>  <SCORE.INTRA.REPUL.0>
0

>  <SCORE.INTRA.SOLV>
2.58682

>  <SCORE.INTRA.SOLV.lig_0>
-114.358

>  <SCORE.INTRA.VDW>
5.10259

>  <SCORE.INTRA.VDW.0>
-8.24257

>  <SCORE.INTRA.norm>
0.160127

>  <SCORE.RESTR>
5.78853

>  <SCORE.RESTR.CAVITY>
5.78853

>  <SCORE.RESTR.norm>
0.111318

>  <SCORE.SYSTEM>
0

>  <SCORE.SYSTEM.CONST>
0

>  <SCORE.SYSTEM.DIHEDRAL>
0

>  <SCORE.SYSTEM.SOLV>
0

>  <SCORE.SYSTEM.norm>
0

>  <SCORE.heavy>
52

>  <SCORE.norm>
0.266149

>  <RMSD>
3.545

$$$$
2esj_lig
 OpenBabel11021811423D
libRbt.so/2013.1/901 2013/11/27
 52 56  0  0  0  0  0  0  0  0999 V2000
   17.3612   -6.0591   18.9951 C   0  0  2  0  0  0  0  0  0  0  0  0
   17.7790   -7.4129   19.2551 O   0  0  0  0  0  0  0  0  0  0  0  0
   19.1554  -10.8233   17.0727 C   0  0  2  0  0  0  0  0  0  0  0  0
   19.2849  -11.9649   16.1523 N   0  0  0  0  0  0  0  0  0  0  0  0
   19.9541   -6.1461   16.4069 C   0  0  1  0  0  0  0  0  0  0  0  0
   22.8746   -3.3742   16.2048 C   0  0  1  0  0  0  0  0  0  0  0  0
   25.8162   -2.8371   13.3089 C   0  0  1  0  0  0  0  0  0  0  0  0
   17.7390   -5.2047   20.2410 C   0  0  2  0  0  0  0  0  0  0  0  0
   19.1651   -5.2850   20.5553 N   0  0  0  0  0  0  0  0  0  0  0  0
   17.8619  -10.9826   17.9665 C   0  0  0  0  0  0  0  0  0  0  0  0
   19.6814   -5.0452   15.3811 C   0  0  2  0  0  0  0  0  0  0  0  0
   20.0150   -5.4512   14.0360 O   0  0  0  0  0  0  0  0  0  0  0  0
   22.7490   -1.9723   15.4565 C   0  0  2  0  0  0  0  0  0  0  0  0
   22.7286   -2.1539   13.9808 N   0  0  0  0  0  0  0  0  0  0  0  0
   25.4902   -2.1976   11.9642 C   0  0  1  0  0  0  0  0  0  0  0  0
   26.3839   -2.7214   10.9616 O   0  0  0  0  0  0  0  0  0  0  0  0
   16.8970   -5.6311   21.4853 C   0  0  0  0  0  0  0  0  0  0  0  0
   17.7718   -9.7787   18.9883 C   0  0  2  0  0  0  0  0  0  0  0  0
   16.5709   -9.8956   19.8220 N   0  0  0  0  0  0  0  0  0  0  0  0
   20.5452   -3.9441   15.9248 C   0  0  2  0  0  0  0  0  0  0  0  0
   21.8960   -4.1819   15.6194 O   0  0  0  0  0  0  0  0  0  0  0  0
   23.8821   -0.9937   15.9982 C   0  0  1  0  0  0  0  0  0  0  0  0
   23.8241   -0.9654   17.4281 O   0  0  0  0  0  0  0  0  0  0  0  0
   24.0617   -2.4029   11.4748 C   0  0  1  0  0  0  0  0  0  0  0  0
   24.0097   -1.9492   10.1177 O   0  0  0  0  0  0  0  0  0  0  0  0
   15.3851   -5.5596   21.1183 C   0  0  2  0  0  0  0  0  0  0  0  0
   14.5588   -5.8606   22.2286 O   0  0  0  0  0  0  0  0  0  0  0  0
   17.7740   -8.4252   18.2312 C   0  0  2  0  0  0  0  0  0  0  0  0
   20.4808   -4.0756   17.4604 C   0  0  2  0  0  0  0  0  0  0  0  0
   20.2823   -5.4703   17.6287 O   0  0  0  0  0  0  0  0  0  0  0  0
   25.3289   -1.5271   15.6354 C   0  0  2  0  0  0  0  0  0  0  0  0
   25.3625   -1.5097   14.2075 O   0  0  0  0  0  0  0  0  0  0  0  0
   23.5901   -3.8566   11.5417 C   0  0  2  0  0  0  0  0  0  0  0  0
   22.1653   -3.8415   11.3558 O   0  0  0  0  0  0  0  0  0  0  0  0
   15.1243   -6.5244   19.9350 C   0  0  2  0  0  0  0  0  0  0  0  0
   15.9258   -6.0583   18.8119 O   0  0  0  0  0  0  0  0  0  0  0  0
   18.9660   -8.2509   17.2363 C   0  0  2  0  0  0  0  0  0  0  0  0
   18.8285   -6.9870   16.5293 O   0  0  0  0  0  0  0  0  0  0  0  0
   19.3555   -3.3161   18.1623 C   0  0  0  0  0  0  0  0  0  0  0  0
   18.1262   -3.6629   17.5080 O   0  0  0  0  0  0  0  0  0  0  0  0
   25.3354   -2.9926   16.0256 C   0  0  1  0  0  0  0  0  0  0  0  0
   24.2627   -3.9589   16.0189 O   0  0  0  0  0  0  0  0  0  0  0  0
   24.0475   -4.5343   12.8285 C   0  0  2  0  0  0  0  0  0  0  0  0
   25.2855   -4.1759   13.4616 O   0  0  0  0  0  0  0  0  0  0  0  0
   13.7098   -6.5033   19.4645 C   0  0  0  0  0  0  0  0  0  0  0  0
   12.9229   -7.0999   20.4670 O   0  0  0  0  0  0  0  0  0  0  0  0
   19.0674   -9.4773   16.2678 C   0  0  1  0  0  0  0  0  0  0  0  0
   20.3018   -9.3307   15.5167 O   0  0  0  0  0  0  0  0  0  0  0  0
   26.6918   -3.7464   15.8680 C   0  0  0  0  0  0  0  0  0  0  0  0
   26.8108   -4.9294   16.7461 N   0  0  0  0  0  0  0  0  0  0  0  0
   23.7306   -5.9905   13.1613 C   0  0  0  0  0  0  0  0  0  0  0  0
   22.4480   -6.0768   13.8369 O   0  0  0  0  0  0  0  0  0  0  0  0
  1  2  1  1  0  0  0
  1  8  1  0  0  0  0
  1 36  1  0  0  0  0
  3  4  1  6  0  0  0
  3 10  1  0  0  0  0
  3 47  1  0  0  0  0
  5 11  1  0  0  0  0
  5 30  1  0  0  0  0
  5 38  1  1  0  0  0
  6 21  1  6  0  0  0
  6 42  1  0  0  0  0
  7 15  1  0  0  0  0
  7 44  1  0  0  0  0
  7 32  1  1  0  0  0
  8  9  1  1  0  0  0
  8 17  1  0  0  0  0
 11 12  1  6  0  0  0
 11 20  1  0  0  0  0
 13  6  1  0  0  0  0
 13 14  1  6  0  0  0
 15 16  1  6  0  0  0
 15 24  1  0  0  0  0
 17 26  1  0  0  0  0
 18 10  1  0  0  0  0
 18 19  1  6  0  0  0
 20 21  1  6  0  0  0
 20 29  1  0  0  0  0
 22 13  1  0  0  0  0
 22 23  1  1  0  0  0
 24 25  1  6  0  0  0
 24 33  1  0  0  0  0
 26 27  1  1  0  0  0
 26 35  1  0  0  0  0
 28  2  1  1  0  0  0
 28 18  1  0  0  0  0
 29 30  1  0  0  0  0
 29 39  1  6  0  0  0
 31 22  1  0  0  0  0
 31 32  1  6  0  0  0
 31 41  1  0  0  0  0
 33 34  1  1  0  0  0
 33 43  1  0  0  0  0
 35 36  1  0  0  0  0
 35 45  1  6  0  0  0
 37 28  1  0  0  0  0
 37 38  1  6  0  0  0
 39 40  1  0  0  0  0
 41 42  1  0  0  0  0
 41 49  1  6  0  0  0
 43 44  1  0  0  0  0
 43 51  1  6  0  0  0
 45 46  1  0  0  0  0
 47 37  1  0  0  0  0
 47 48  1  1  0  0  0
 49 50  1  0  0  0  0
 51 52  1  0  0  0  0
M  END
>  <CHROM.1>
-170.01919703,167.36353994,-73.02723231,174.38426432,-170.77823627,-159.81306926
51.47021335,-128.42031366,-69.76514537,133.61965524,155.84237886,-87.66330348
20.75253471,-5.23772210,16.36328419,3.02139946,-0.72923436,-2.67441020

>  <Name>
2esj_lig

>  <RI>
0

>  <Rbt.Current_Directory>
/home/itssahil/PROJECTS/Mol_Feturizer/New_Systems/rnas/2esj

>  <Rbt.Executable>
rbdock ($Id: //depot/dev/client3/rdock/2013.1/src/exe/rbdock.cxx#4 $)

>  <Rbt.Library>
libRbt.so (2013.1, Build901 2013/11/27)

>  <Rbt.Parameter_File>
/export/apps/rDock/src/rDock_2013.1_src/data/scripts/dock_solv.prm

>  <Rbt.Receptor>
prm/pocket_docking_2.prm

>  <SCORE>
-10.2628

>  <SCORE.INTER>
-13.665

>  <SCORE.INTER.CONST>
1

>  <SCORE.INTER.POLAR>
-0.979796

>  <SCORE.INTER.ROT>
12

>  <SCORE.INTER.SOLV>
14.5382

>  <SCORE.INTER.VDW>
-22.29

>  <SCORE.INTER.norm>
-0.262788

>  <SCORE.INTRA>
1.98611

>  <SCORE.INTRA.DIHEDRAL>
-9.56441

>  <SCORE.INTRA.DIHEDRAL.0>
32.9766

>  <SCORE.INTRA.POLAR>
0

>  <SCORE.INTRA.POLAR.0>
0

>  <SCORE.INTRA.REPUL>
0.0392452

>  <SCORE.INTRA.REPUL.0>
0

>  <SCORE.INTRA.SOLV>
8.20845

>  <SCORE.INTRA.SOLV.lig_0>
-114.358

>  <SCORE.INTRA.VDW>
2.46787

>  <SCORE.INTRA.VDW.0>
-8.24257

>  <SCORE.INTRA.norm>
0.0381945

>  <SCORE.RESTR>
1.41608

>  <SCORE.RESTR.CAVITY>
1.41608

>  <SCORE.RESTR.norm>
0.0272323

>  <SCORE.SYSTEM>
0

>  <SCORE.SYSTEM.CONST>
0

>  <SCORE.SYSTEM.DIHEDRAL>
0

>  <SCORE.SYSTEM.SOLV>
0

>  <SCORE.SYSTEM.norm>
0

>  <SCORE.heavy>
52

>  <SCORE.norm>
-0.197361

>  <RMSD>
3.550

$$$$
2esj_lig
 OpenBabel11021811423D
libRbt.so/2013.1/901 2013/11/27
 52 56  0  0  0  0  0  0  0  0999 V2000
   17.2801   -7.4361   19.9584 C   0  0  2  0  0  0  0  0  0  0  0  0
   17.4590   -6.5531   18.8344 O   0  0  0  0  0  0  0  0  0  0  0  0
   19.6747   -2.9127   18.4791 C   0  0  2  0  0  0  0  0  0  0  0  0
   20.7369   -1.8957   18.4095 N   0  0  0  0  0  0  0  0  0  0  0  0
   19.8350   -5.8734   15.3440 C   0  0  1  0  0  0  0  0  0  0  0  0
   22.4498   -5.2689   12.7404 C   0  0  1  0  0  0  0  0  0  0  0  0
   27.1061   -3.7902   13.8412 C   0  0  1  0  0  0  0  0  0  0  0  0
   16.6232   -8.7441   19.4269 C   0  0  2  0  0  0  0  0  0  0  0  0
   17.4113   -9.3667   18.3636 N   0  0  0  0  0  0  0  0  0  0  0  0
   19.7691   -3.7131   19.8385 C   0  0  0  0  0  0  0  0  0  0  0  0
   19.9710   -7.1756   14.5539 C   0  0  2  0  0  0  0  0  0  0  0  0
   20.8041   -8.1438   15.2276 O   0  0  0  0  0  0  0  0  0  0  0  0
   23.9916   -5.6249   12.5478 C   0  0  2  0  0  0  0  0  0  0  0  0
   24.6017   -6.0692   13.8289 N   0  0  0  0  0  0  0  0  0  0  0  0
   27.1311   -4.6701   15.0857 C   0  0  1  0  0  0  0  0  0  0  0  0
   28.1659   -5.6636   14.9425 O   0  0  0  0  0  0  0  0  0  0  0  0
   15.1710   -8.4725   18.9206 C   0  0  0  0  0  0  0  0  0  0  0  0
   18.5858   -4.7593   19.9211 C   0  0  2  0  0  0  0  0  0  0  0  0
   18.6585   -5.5260   21.1692 N   0  0  0  0  0  0  0  0  0  0  0  0
   20.5457   -6.6568   13.2676 C   0  0  2  0  0  0  0  0  0  0  0  0
   21.9114   -6.3640   13.4213 O   0  0  0  0  0  0  0  0  0  0  0  0
   24.7219   -4.3969   11.8450 C   0  0  1  0  0  0  0  0  0  0  0  0
   23.9939   -4.0389   10.6658 O   0  0  0  0  0  0  0  0  0  0  0  0
   27.3643   -3.9337   16.3993 C   0  0  1  0  0  0  0  0  0  0  0  0
   27.5915   -4.9258   17.4064 O   0  0  0  0  0  0  0  0  0  0  0  0
   14.3601   -7.7892   20.0614 C   0  0  2  0  0  0  0  0  0  0  0  0
   13.0073   -7.5834   19.6956 O   0  0  0  0  0  0  0  0  0  0  0  0
   18.6204   -5.7130   18.6986 C   0  0  2  0  0  0  0  0  0  0  0  0
   19.8919   -5.2785   13.0381 C   0  0  2  0  0  0  0  0  0  0  0  0
   19.6570   -4.8390   14.3664 O   0  0  0  0  0  0  0  0  0  0  0  0
   24.7076   -3.1100   12.7685 C   0  0  2  0  0  0  0  0  0  0  0  0
   25.4689   -3.4914   13.9155 O   0  0  0  0  0  0  0  0  0  0  0  0
   28.5501   -2.9680   16.3625 C   0  0  2  0  0  0  0  0  0  0  0  0
   28.4493   -2.1395   17.5322 O   0  0  0  0  0  0  0  0  0  0  0  0
   15.0608   -6.4573   20.4277 C   0  0  2  0  0  0  0  0  0  0  0  0
   16.3968   -6.7881   20.9038 O   0  0  0  0  0  0  0  0  0  0  0  0
   18.6503   -4.9821   17.3181 C   0  0  2  0  0  0  0  0  0  0  0  0
   18.7580   -5.9641   16.2502 O   0  0  0  0  0  0  0  0  0  0  0  0
   18.5753   -5.2701   12.2621 C   0  0  0  0  0  0  0  0  0  0  0  0
   17.7396   -6.2963   12.8174 O   0  0  0  0  0  0  0  0  0  0  0  0
   23.2782   -2.9708   13.2558 C   0  0  1  0  0  0  0  0  0  0  0  0
   22.2907   -3.9863   13.5357 O   0  0  0  0  0  0  0  0  0  0  0  0
   28.6016   -2.1953   15.0492 C   0  0  2  0  0  0  0  0  0  0  0  0
   28.1441   -2.7805   13.8204 O   0  0  0  0  0  0  0  0  0  0  0  0
   14.3943   -5.7353   21.5488 C   0  0  0  0  0  0  0  0  0  0  0  0
   14.2070   -6.6592   22.5935 O   0  0  0  0  0  0  0  0  0  0  0  0
   19.7966   -3.9160   17.2766 C   0  0  1  0  0  0  0  0  0  0  0  0
   19.6326   -3.1563   16.0497 O   0  0  0  0  0  0  0  0  0  0  0  0
   22.9574   -1.7080   14.1132 C   0  0  0  0  0  0  0  0  0  0  0  0
   22.0124   -0.7790   13.4583 N   0  0  0  0  0  0  0  0  0  0  0  0
   29.6849   -1.1678   14.7291 C   0  0  0  0  0  0  0  0  0  0  0  0
   29.2666   -0.3377   13.6135 O   0  0  0  0  0  0  0  0  0  0  0  0
  1  2  1  6  0  0  0
  1  8  1  0  0  0  0
  1 36  1  0  0  0  0
  3  4  1  1  0  0  0
  3 10  1  0  0  0  0
  3 47  1  0  0  0  0
  5 11  1  0  0  0  0
  5 30  1  0  0  0  0
  5 38  1  1  0  0  0
  6 21  1  1  0  0  0
  6 42  1  0  0  0  0
  7 15  1  0  0  0  0
  7 44  1  0  0  0  0
  7 32  1  1  0  0  0
  8  9  1  6  0  0  0
  8 17  1  0  0  0  0
 11 12  1  1  0  0  0
 11 20  1  0  0  0  0
 13  6  1  0  0  0  0
 13 14  1  1  0  0  0
 15 16  1  6  0  0  0
 15 24  1  0  0  0  0
 17 26  1  0  0  0  0
 18 10  1  0  0  0  0
 18 19  1  1  0  0  0
 20 21  1  1  0  0  0
 20 29  1  0  0  0  0
 22 13  1  0  0  0  0
 22 23  1  6  0  0  0
 24 25  1  1  0  0  0
 24 33  1  0  0  0  0
 26 27  1  6  0  0  0
 26 35  1  0  0  0  0
 28  2  1  6  0  0  0
 28 18  1  0  0  0  0
 29 30  1  0  0  0  0
 29 39  1  6  0  0  0
 31 22  1  0  0  0  0
 31 32  1  1  0  0  0
 31 41  1  0  0  0  0
 33 34  1  1  0  0  0
 33 43  1  0  0  0  0
 35 36  1  0  0  0  0
 35 45  1  1  0  0  0
 37 28  1  0  0  0  0
 37 38  1  6  0  0  0
 39 40  1  0  0  0  0
 41 42  1  0  0  0  0
 41 49  1  1  0  0  0
 43 44  1  0  0  0  0
 43 51  1  6  0  0  0
 45 46  1  0  0  0  0
 47 37  1  0  0  0  0
 47 48  1  6  0  0  0
 49 50  1  0  0  0  0
 51 52  1  0  0  0  0
M  END
>  <CHROM.1>
-142.19727425,165.12072024,-153.39765186,-156.87104627,-144.38059476,-62.05859751
46.84743327,67.54491455,49.77617228,-123.11931569,114.54009956,-163.56541700
21.43174867,-4.92211590,16.14332996,-2.74653562,-0.37545491,-1.69409073

>  <Name>
2esj_lig

>  <RI>
0

>  <Rbt.Current_Directory>
/home/itssahil/PROJECTS/Mol_Feturizer/New_Systems/rnas/2esj

>  <Rbt.Executable>
rbdock ($Id: //depot/dev/client3/rdock/2013.1/src/exe/rbdock.cxx#4 $)

>  <Rbt.Library>
libRbt.so (2013.1, Build901 2013/11/27)

>  <Rbt.Parameter_File>
/export/apps/rDock/src/rDock_2013.1_src/data/scripts/dock_solv.prm

>  <Rbt.Receptor>
prm/pocket_docking_2.prm

>  <SCORE>
5.7942

>  <SCORE.INTER>
-6.26969

>  <SCORE.INTER.CONST>
1

>  <SCORE.INTER.POLAR>
-0.586281

>  <SCORE.INTER.ROT>
12

>  <SCORE.INTER.SOLV>
16.4193

>  <SCORE.INTER.VDW>
-19.2986

>  <SCORE.INTER.norm>
-0.120571

>  <SCORE.INTRA>
8.97035

>  <SCORE.INTRA.DIHEDRAL>
-3.24723

>  <SCORE.INTRA.DIHEDRAL.0>
32.9766

>  <SCORE.INTRA.POLAR>
0

>  <SCORE.INTRA.POLAR.0>
0

>  <SCORE.INTRA.REPUL>
0

>  <SCORE.INTRA.REPUL.0>
0

>  <SCORE.INTRA.SOLV>
0.0165732

>  <SCORE.INTRA.SOLV.lig_0>
-114.358

>  <SCORE.INTRA.VDW>
10.5857

>  <SCORE.INTRA.VDW.0>
-8.24257

>  <SCORE.INTRA.norm>
0.172507

>  <SCORE.RESTR>
3.09353

>  <SCORE.RESTR.CAVITY>
3.09353

>  <SCORE.RESTR.norm>
0.059491

>  <SCORE.SYSTEM>
0

>  <SCORE.SYSTEM.CONST>
0

>  <SCORE.SYSTEM.DIHEDRAL>
0

>  <SCORE.SYSTEM.SOLV>
0

>  <SCORE.SYSTEM.norm>
0

>  <SCORE.heavy>
52

>  <SCORE.norm>
0.111427

>  <RMSD>
3.553

$$$$
2esj_lig
 OpenBabel11021811423D
libRbt.so/2013.1/901 2013/11/27
 52 56  0  0  0  0  0  0  0  0999 V2000
   19.2818   -5.4486   18.5870 C   0  0  2  0  0  0  0  0  0  0  0  0
   19.6825   -6.3616   17.5475 O   0  0  0  0  0  0  0  0  0  0  0  0
   19.1874  -10.5605   16.9054 C   0  0  2  0  0  0  0  0  0  0  0  0
   18.6444  -11.9167   16.7233 N   0  0  0  0  0  0  0  0  0  0  0  0
   19.8392   -6.5220   14.1446 C   0  0  1  0  0  0  0  0  0  0  0  0
   22.1786   -4.1464   11.6744 C   0  0  1  0  0  0  0  0  0  0  0  0
   26.0065   -2.1632   14.5124 C   0  0  1  0  0  0  0  0  0  0  0  0
   17.9008   -4.8539   18.1818 C   0  0  2  0  0  0  0  0  0  0  0  0
   16.8973   -5.8926   17.9509 N   0  0  0  0  0  0  0  0  0  0  0  0
   18.7005   -9.9543   18.2812 C   0  0  0  0  0  0  0  0  0  0  0  0
   19.4783   -6.4772   12.6593 C   0  0  2  0  0  0  0  0  0  0  0  0
   20.0172   -7.5995   11.9276 O   0  0  0  0  0  0  0  0  0  0  0  0
   23.6711   -4.6758   11.4912 C   0  0  2  0  0  0  0  0  0  0  0  0
   24.1370   -5.3928   12.7077 N   0  0  0  0  0  0  0  0  0  0  0  0
   27.1031   -1.5293   13.6643 C   0  0  1  0  0  0  0  0  0  0  0  0
   27.4348   -0.2362   14.2085 O   0  0  0  0  0  0  0  0  0  0  0  0
   18.0327   -3.9528   16.9131 C   0  0  0  0  0  0  0  0  0  0  0  0
   19.3409   -8.5227   18.4862 C   0  0  2  0  0  0  0  0  0  0  0  0
   18.8935   -7.9315   19.7515 N   0  0  0  0  0  0  0  0  0  0  0  0
   20.0665   -5.1505   12.2743 C   0  0  2  0  0  0  0  0  0  0  0  0
   21.4622   -5.2497   12.1455 O   0  0  0  0  0  0  0  0  0  0  0  0
   24.5959   -3.4653   11.0282 C   0  0  1  0  0  0  0  0  0  0  0  0
   23.9957   -2.8324    9.8933 O   0  0  0  0  0  0  0  0  0  0  0  0
   28.3902   -2.3377   13.5543 C   0  0  1  0  0  0  0  0  0  0  0  0
   29.3678   -1.4951   12.9342 O   0  0  0  0  0  0  0  0  0  0  0  0
   19.1221   -2.8710   17.1754 C   0  0  2  0  0  0  0  0  0  0  0  0
   19.2398   -1.9683   16.0903 O   0  0  0  0  0  0  0  0  0  0  0  0
   18.9798   -7.5934   17.2983 C   0  0  2  0  0  0  0  0  0  0  0  0
   19.8688   -4.2300   13.4963 C   0  0  2  0  0  0  0  0  0  0  0  0
   19.9109   -5.1545   14.5716 O   0  0  0  0  0  0  0  0  0  0  0  0
   24.6888   -2.3476   12.1468 C   0  0  2  0  0  0  0  0  0  0  0  0
   25.3209   -3.0030   13.2475 O   0  0  0  0  0  0  0  0  0  0  0  0
   28.9258   -2.8303   14.8999 C   0  0  2  0  0  0  0  0  0  0  0  0
   29.9328   -3.8143   14.6127 O   0  0  0  0  0  0  0  0  0  0  0  0
   20.4627   -3.5896   17.4675 C   0  0  2  0  0  0  0  0  0  0  0  0
   20.2700   -4.3944   18.6658 O   0  0  0  0  0  0  0  0  0  0  0  0
   19.3261   -8.1859   15.8947 C   0  0  2  0  0  0  0  0  0  0  0  0
   18.8787   -7.2702   14.8565 O   0  0  0  0  0  0  0  0  0  0  0  0
   18.5577   -3.4467   13.5537 C   0  0  0  0  0  0  0  0  0  0  0  0
   17.4839   -4.3985   13.5277 O   0  0  0  0  0  0  0  0  0  0  0  0
   23.2612   -2.0914   12.5901 C   0  0  1  0  0  0  0  0  0  0  0  0
   22.1358   -2.9932   12.6600 O   0  0  0  0  0  0  0  0  0  0  0  0
   27.8013   -3.3281   15.8011 C   0  0  2  0  0  0  0  0  0  0  0  0
   26.4887   -2.7487   15.7460 O   0  0  0  0  0  0  0  0  0  0  0  0
   21.5744   -2.6475   17.7820 C   0  0  0  0  0  0  0  0  0  0  0  0
   22.7360   -3.4167   17.9799 O   0  0  0  0  0  0  0  0  0  0  0  0
   18.7254   -9.6230   15.7328 C   0  0  1  0  0  0  0  0  0  0  0  0
   19.2518  -10.1718   14.4954 O   0  0  0  0  0  0  0  0  0  0  0  0
   23.0518   -0.9451   13.6268 C   0  0  0  0  0  0  0  0  0  0  0  0
   22.8290    0.3763   13.0031 N   0  0  0  0  0  0  0  0  0  0  0  0
   28.0397   -3.8688   17.2091 C   0  0  0  0  0  0  0  0  0  0  0  0
   29.1199   -4.8392   17.1912 O   0  0  0  0  0  0  0  0  0  0  0  0
  1  2  1  6  0  0  0
  1  8  1  0  0  0  0
  1 36  1  0  0  0  0
  3  4  1  6  0  0  0
  3 10  1  0  0  0  0
  3 47  1  0  0  0  0
  5 11  1  0  0  0  0
  5 30  1  0  0  0  0
  5 38  1  1  0  0  0
  6 21  1  1  0  0  0
  6 42  1  0  0  0  0
  7 15  1  0  0  0  0
  7 44  1  0  0  0  0
  7 32  1  6  0  0  0
  8  9  1  6  0  0  0
  8 17  1  0  0  0  0
 11 12  1  6  0  0  0
 11 20  1  0  0  0  0
 13  6  1  0  0  0  0
 13 14  1  1  0  0  0
 15 16  1  1  0  0  0
 15 24  1  0  0  0  0
 17 26  1  0  0  0  0
 18 10  1  0  0  0  0
 18 19  1  1  0  0  0
 20 21  1  1  0  0  0
 20 29  1  0  0  0  0
 22 13  1  0  0  0  0
 22 23  1  6  0  0  0
 24 25  1  1  0  0  0
 24 33  1  0  0  0  0
 26 27  1  6  0  0  0
 26 35  1  0  0  0  0
 28  2  1  1  0  0  0
 28 18  1  0  0  0  0
 29 30  1  0  0  0  0
 29 39  1  6  0  0  0
 31 22  1  0  0  0  0
 31 32  1  1  0  0  0
 31 41  1  0  0  0  0
 33 34  1  6  0  0  0
 33 43  1  0  0  0  0
 35 36  1  0  0  0  0
 35 45  1  1  0  0  0
 37 28  1  0  0  0  0
 37 38  1  6  0  0  0
 39 40  1  0  0  0  0
 41 42  1  0  0  0  0
 41 49  1  1  0  0  0
 43 44  1  0  0  0  0
 43 51  1  1  0  0  0
 45 46  1  0  0  0  0
 47 37  1  0  0  0  0
 47 48  1  6  0  0  0
 49 50  1  0  0  0  0
 51 52  1  0  0  0  0
M  END
>  <CHROM.1>
-67.35363484,138.71414519,-173.21697767,-65.73713793,174.27729358,-72.18149309
58.30764740,163.35861387,-178.00000915,107.01348310,89.52063824,-48.30739195
22.16069969,-4.70752918,14.97660459,-2.65122185,-0.36768463,-1.08666649

>  <Name>
2esj_lig

>  <RI>
1.62275e+07

>  <Rbt.Current_Directory>
/home/itssahil/PROJECTS/Mol_Feturizer/New_Systems/rnas/2esj

>  <Rbt.Executable>
rbdock ($Id: //depot/dev/client3/rdock/2013.1/src/exe/rbdock.cxx#4 $)

>  <Rbt.Library>
libRbt.so (2013.1, Build901 2013/11/27)

>  <Rbt.Parameter_File>
/export/apps/rDock/src/rDock_2013.1_src/data/scripts/dock_solv.prm

>  <Rbt.Receptor>
prm/pocket_docking_5.prm

>  <SCORE>
-6.87064

>  <SCORE.INTER>
-4.12864

>  <SCORE.INTER.CONST>
1

>  <SCORE.INTER.POLAR>
-1.38314

>  <SCORE.INTER.ROT>
12

>  <SCORE.INTER.SOLV>
16.7041

>  <SCORE.INTER.VDW>
-15.31

>  <SCORE.INTER.norm>
-0.079397

>  <SCORE.INTRA>
-2.742

>  <SCORE.INTRA.DIHEDRAL>
-13.0636

>  <SCORE.INTRA.DIHEDRAL.0>
32.9766

>  <SCORE.INTRA.POLAR>
0

>  <SCORE.INTRA.POLAR.0>
0

>  <SCORE.INTRA.REPUL>
0.269788

>  <SCORE.INTRA.REPUL.0>
0

>  <SCORE.INTRA.SOLV>
0.93827

>  <SCORE.INTRA.SOLV.lig_0>
-114.358

>  <SCORE.INTRA.VDW>
1.97174

>  <SCORE.INTRA.VDW.0>
-8.24257

>  <SCORE.INTRA.norm>
-0.0527307

>  <SCORE.RESTR>
0

>  <SCORE.RESTR.CAVITY>
0

>  <SCORE.RESTR.norm>
0

>  <SCORE.SYSTEM>
0

>  <SCORE.SYSTEM.CONST>
0

>  <SCORE.SYSTEM.DIHEDRAL>
0

>  <SCORE.SYSTEM.SOLV>
0

>  <SCORE.SYSTEM.norm>
0

>  <SCORE.heavy>
52

>  <SCORE.norm>
-0.132128

>  <RMSD>
3.694

$$$$
2esj_lig
 OpenBabel11021811423D
libRbt.so/2013.1/901 2013/11/27
 52 56  0  0  0  0  0  0  0  0999 V2000
   17.7160   -6.0242   17.8385 C   0  0  2  0  0  0  0  0  0  0  0  0
   18.5238   -7.1987   18.0458 O   0  0  0  0  0  0  0  0  0  0  0  0
   19.9931  -10.4586   15.7001 C   0  0  2  0  0  0  0  0  0  0  0  0
   20.1244  -11.6672   14.8697 N   0  0  0  0  0  0  0  0  0  0  0  0
   19.0242   -5.8197   14.6835 C   0  0  1  0  0  0  0  0  0  0  0  0
   21.1420   -2.7253   12.8389 C   0  0  1  0  0  0  0  0  0  0  0  0
   25.0425   -0.1454   14.4176 C   0  0  1  0  0  0  0  0  0  0  0  0
   18.3044   -4.8881   18.7263 C   0  0  2  0  0  0  0  0  0  0  0  0
   19.7165   -4.6370   18.4398 N   0  0  0  0  0  0  0  0  0  0  0  0
   19.2165  -10.7917   17.0356 C   0  0  0  0  0  0  0  0  0  0  0  0
   20.0913   -6.1744   13.6472 C   0  0  2  0  0  0  0  0  0  0  0  0
   21.3567   -6.5146   14.2543 O   0  0  0  0  0  0  0  0  0  0  0  0
   22.7343   -2.6575   12.8764 C   0  0  2  0  0  0  0  0  0  0  0  0
   23.2463   -2.8781   14.2548 N   0  0  0  0  0  0  0  0  0  0  0  0
   25.1860    1.3340   14.0797 C   0  0  1  0  0  0  0  0  0  0  0  0
   26.3261    1.8713   14.7796 O   0  0  0  0  0  0  0  0  0  0  0  0
   18.1210   -5.2142   20.2426 C   0  0  0  0  0  0  0  0  0  0  0  0
   19.1374   -9.4966   17.9401 C   0  0  2  0  0  0  0  0  0  0  0  0
   18.4085   -9.7758   19.1817 N   0  0  0  0  0  0  0  0  0  0  0  0
   20.1165   -4.9111   12.8364 C   0  0  2  0  0  0  0  0  0  0  0  0
   20.8173   -3.9023   13.5186 O   0  0  0  0  0  0  0  0  0  0  0  0
   23.2102   -1.3015   12.1910 C   0  0  1  0  0  0  0  0  0  0  0  0
   22.5935   -1.1923   10.9039 O   0  0  0  0  0  0  0  0  0  0  0  0
   25.3514    1.6503   12.5982 C   0  0  1  0  0  0  0  0  0  0  0  0
   25.7053    3.0341   12.4976 O   0  0  0  0  0  0  0  0  0  0  0  0
   16.6148   -5.5002   20.5171 C   0  0  2  0  0  0  0  0  0  0  0  0
   16.3642   -5.7286   21.8923 O   0  0  0  0  0  0  0  0  0  0  0  0
   18.4603   -8.3362   17.1654 C   0  0  2  0  0  0  0  0  0  0  0  0
   18.6614   -4.3996   12.8057 C   0  0  2  0  0  0  0  0  0  0  0  0
   18.1562   -4.8739   14.0438 O   0  0  0  0  0  0  0  0  0  0  0  0
   22.7237   -0.0368   13.0114 C   0  0  2  0  0  0  0  0  0  0  0  0
   23.3830   -0.1605   14.2725 O   0  0  0  0  0  0  0  0  0  0  0  0
   26.4176    0.8026   11.9020 C   0  0  2  0  0  0  0  0  0  0  0  0
   26.2387    0.9864   10.4882 O   0  0  0  0  0  0  0  0  0  0  0  0
   16.1818   -6.7084   19.6501 C   0  0  2  0  0  0  0  0  0  0  0  0
   16.3643   -6.3281   18.2562 O   0  0  0  0  0  0  0  0  0  0  0  0
   19.1065   -8.0321   15.7759 C   0  0  2  0  0  0  0  0  0  0  0  0
   18.3508   -6.9844   15.1070 O   0  0  0  0  0  0  0  0  0  0  0  0
   17.7814   -4.9174   11.6685 C   0  0  0  0  0  0  0  0  0  0  0  0
   18.3486   -4.4501   10.4358 O   0  0  0  0  0  0  0  0  0  0  0  0
   21.2528   -0.2733   13.2953 C   0  0  1  0  0  0  0  0  0  0  0  0
   20.5372   -1.5081   13.5139 O   0  0  0  0  0  0  0  0  0  0  0  0
   26.3615   -0.6513   12.3576 C   0  0  2  0  0  0  0  0  0  0  0  0
   25.9570   -1.0009   13.6902 O   0  0  0  0  0  0  0  0  0  0  0  0
   14.7369   -7.0448   19.7963 C   0  0  0  0  0  0  0  0  0  0  0  0
   14.5670   -7.6337   21.0630 O   0  0  0  0  0  0  0  0  0  0  0  0
   19.2214   -9.3366   14.9172 C   0  0  1  0  0  0  0  0  0  0  0  0
   20.0005   -9.0067   13.7367 O   0  0  0  0  0  0  0  0  0  0  0  0
   20.4899    0.8832   14.0118 C   0  0  0  0  0  0  0  0  0  0  0  0
   19.1122    1.0750   13.5120 N   0  0  0  0  0  0  0  0  0  0  0  0
   27.3148   -1.7247   11.8373 C   0  0  0  0  0  0  0  0  0  0  0  0
   27.0168   -2.0208   10.4472 O   0  0  0  0  0  0  0  0  0  0  0  0
  1  2  1  1  0  0  0
  1  8  1  0  0  0  0
  1 36  1  0  0  0  0
  3  4  1  6  0  0  0
  3 10  1  0  0  0  0
  3 47  1  0  0  0  0
  5 11  1  0  0  0  0
  5 30  1  0  0  0  0
  5 38  1  6  0  0  0
  6 21  1  1  0  0  0
  6 42  1  0  0  0  0
  7 15  1  0  0  0  0
  7 44  1  0  0  0  0
  7 32  1  6  0  0  0
  8  9  1  1  0  0  0
  8 17  1  0  0  0  0
 11 12  1  1  0  0  0
 11 20  1  0  0  0  0
 13  6  1  0  0  0  0
 13 14  1  1  0  0  0
 15 16  1  1  0  0  0
 15 24  1  0  0  0  0
 17 26  1  0  0  0  0
 18 10  1  0  0  0  0
 18 19  1  1  0  0  0
 20 21  1  1  0  0  0
 20 29  1  0  0  0  0
 22 13  1  0  0  0  0
 22 23  1  6  0  0  0
 24 25  1  1  0  0  0
 24 33  1  0  0  0  0
 26 27  1  1  0  0  0
 26 35  1  0  0  0  0
 28  2  1  1  0  0  0
 28 18  1  0  0  0  0
 29 30  1  0  0  0  0
 29 39  1  6  0  0  0
 31 22  1  0  0  0  0
 31 32  1  1  0  0  0
 31 41  1  0  0  0  0
 33 34  1  6  0  0  0
 33 43  1  0  0  0  0
 35 36  1  0  0  0  0
 35 45  1  6  0  0  0
 37 28  1  0  0  0  0
 37 38  1  6  0  0  0
 39 40  1  0  0  0  0
 41 42  1  0  0  0  0
 41 49  1  1  0  0  0
 43 44  1  0  0  0  0
 43 51  1  1  0  0  0
 45 46  1  0  0  0  0
 47 37  1  0  0  0  0
 47 48  1  6  0  0  0
 49 50  1  0  0  0  0
 51 52  1  0  0  0  0
M  END
>  <CHROM.1>
-165.39188719,62.00784366,-119.46569679,70.49190438,169.47763776,-164.09051168
-63.41972092,61.88182162,-72.68340646,124.19122780,141.56805374,-69.93642712
20.79889447,-4.07400472,14.93416858,2.75145595,-0.86498307,-2.68201755

>  <Name>
2esj_lig

>  <RI>
0

>  <Rbt.Current_Directory>
/home/itssahil/PROJECTS/Mol_Feturizer/New_Systems/rnas/2esj

>  <Rbt.Executable>
rbdock ($Id: //depot/dev/client3/rdock/2013.1/src/exe/rbdock.cxx#4 $)

>  <Rbt.Library>
libRbt.so (2013.1, Build901 2013/11/27)

>  <Rbt.Parameter_File>
/export/apps/rDock/src/rDock_2013.1_src/data/scripts/dock_solv.prm

>  <Rbt.Receptor>
prm/pocket_docking_8.prm

>  <SCORE>
-21.9513

>  <SCORE.INTER>
-17.7345

>  <SCORE.INTER.CONST>
1

>  <SCORE.INTER.POLAR>
-1.47379

>  <SCORE.INTER.ROT>
12

>  <SCORE.INTER.SOLV>
17.7879

>  <SCORE.INTER.VDW>
-24.4396

>  <SCORE.INTER.norm>
-0.341047

>  <SCORE.INTRA>
-4.21685

>  <SCORE.INTRA.DIHEDRAL>
-9.52278

>  <SCORE.INTRA.DIHEDRAL.0>
32.9766

>  <SCORE.INTRA.POLAR>
0

>  <SCORE.INTRA.POLAR.0>
0

>  <SCORE.INTRA.REPUL>
0

>  <SCORE.INTRA.REPUL.0>
0

>  <SCORE.INTRA.SOLV>
-1.89525

>  <SCORE.INTRA.SOLV.lig_0>
-114.358

>  <SCORE.INTRA.VDW>
1.49216

>  <SCORE.INTRA.VDW.0>
-8.24257

>  <SCORE.INTRA.norm>
-0.0810933

>  <SCORE.RESTR>
0

>  <SCORE.RESTR.CAVITY>
0

>  <SCORE.RESTR.norm>
0

>  <SCORE.SYSTEM>
0

>  <SCORE.SYSTEM.CONST>
0

>  <SCORE.SYSTEM.DIHEDRAL>
0

>  <SCORE.SYSTEM.SOLV>
0

>  <SCORE.SYSTEM.norm>
0

>  <SCORE.heavy>
52

>  <SCORE.norm>
-0.422141

>  <RMSD>
3.697

$$$$
2esj_lig
 OpenBabel11021811423D
libRbt.so/2013.1/901 2013/11/27
 52 56  0  0  0  0  0  0  0  0999 V2000
   17.8014   -5.2870   17.6280 C   0  0  2  0  0  0  0  0  0  0  0  0
   18.6628   -6.4051   17.3404 O   0  0  0  0  0  0  0  0  0  0  0  0
   18.5400  -10.6796   17.3814 C   0  0  2  0  0  0  0  0  0  0  0  0
   18.1412  -12.0918   17.2630 N   0  0  0  0  0  0  0  0  0  0  0  0
   20.1216   -6.9581   14.4802 C   0  0  1  0  0  0  0  0  0  0  0  0
   23.7209   -5.0777   13.2709 C   0  0  1  0  0  0  0  0  0  0  0  0
   25.2383   -0.9600   15.4258 C   0  0  1  0  0  0  0  0  0  0  0  0
   18.4853   -4.0097   17.0573 C   0  0  2  0  0  0  0  0  0  0  0  0
   18.7695   -4.1261   15.6274 N   0  0  0  0  0  0  0  0  0  0  0  0
   17.5191   -9.8958   18.2983 C   0  0  0  0  0  0  0  0  0  0  0  0
   21.3729   -7.7592   14.1181 C   0  0  2  0  0  0  0  0  0  0  0  0
   22.1667   -8.0941   15.2770 O   0  0  0  0  0  0  0  0  0  0  0  0
   24.5437   -4.4528   14.4849 C   0  0  2  0  0  0  0  0  0  0  0  0
   23.6440   -3.7381   15.4286 N   0  0  0  0  0  0  0  0  0  0  0  0
   26.2418   -0.0979   14.6686 C   0  0  1  0  0  0  0  0  0  0  0  0
   26.5546    1.0678   15.4570 O   0  0  0  0  0  0  0  0  0  0  0  0
   19.8008   -3.6873   17.8348 C   0  0  0  0  0  0  0  0  0  0  0  0
   17.9961   -8.3967   18.4618 C   0  0  2  0  0  0  0  0  0  0  0  0
   17.0570   -7.6426   19.2987 N   0  0  0  0  0  0  0  0  0  0  0  0
   22.0409   -6.8087   13.1671 C   0  0  2  0  0  0  0  0  0  0  0  0
   22.6610   -5.7626   13.8711 O   0  0  0  0  0  0  0  0  0  0  0  0
   25.7399   -3.5780   13.9028 C   0  0  1  0  0  0  0  0  0  0  0  0
   26.4789   -4.3695   12.9667 O   0  0  0  0  0  0  0  0  0  0  0  0
   27.5520   -0.7880   14.3087 C   0  0  1  0  0  0  0  0  0  0  0  0
   28.4441    0.2226   13.8260 O   0  0  0  0  0  0  0  0  0  0  0  0
   19.4761   -3.5916   19.3551 C   0  0  2  0  0  0  0  0  0  0  0  0
   20.6139   -3.2242   20.1145 O   0  0  0  0  0  0  0  0  0  0  0  0
   18.1444   -7.7217   17.0735 C   0  0  2  0  0  0  0  0  0  0  0  0
   20.9013   -6.1141   12.3935 C   0  0  2  0  0  0  0  0  0  0  0  0
   19.8507   -6.1215   13.3471 O   0  0  0  0  0  0  0  0  0  0  0  0
   25.2012   -2.3330   13.0849 C   0  0  2  0  0  0  0  0  0  0  0  0
   24.5009   -1.5516   14.0541 O   0  0  0  0  0  0  0  0  0  0  0  0
   28.2046   -1.5220   15.4815 C   0  0  2  0  0  0  0  0  0  0  0  0
   29.2306   -2.3623   14.9282 O   0  0  0  0  0  0  0  0  0  0  0  0
   18.8972   -4.9520   19.8167 C   0  0  2  0  0  0  0  0  0  0  0  0
   17.6704   -5.1776   19.0650 O   0  0  0  0  0  0  0  0  0  0  0  0
   19.0485   -8.5100   16.0724 C   0  0  2  0  0  0  0  0  0  0  0  0
   19.0566   -7.8308   14.7859 O   0  0  0  0  0  0  0  0  0  0  0  0
   20.4280   -6.8031   11.1141 C   0  0  0  0  0  0  0  0  0  0  0  0
   19.4095   -5.9778   10.5300 O   0  0  0  0  0  0  0  0  0  0  0  0
   24.1352   -2.8823   12.1565 C   0  0  1  0  0  0  0  0  0  0  0  0
   23.2227   -3.9858   12.3421 O   0  0  0  0  0  0  0  0  0  0  0  0
   27.1712   -2.2643   16.3214 C   0  0  2  0  0  0  0  0  0  0  0  0
   25.8337   -1.7643   16.4726 O   0  0  0  0  0  0  0  0  0  0  0  0
   18.5033   -4.9619   21.2545 C   0  0  0  0  0  0  0  0  0  0  0  0
   18.0328   -6.2538   21.5542 O   0  0  0  0  0  0  0  0  0  0  0  0
   18.5900  -10.0034   15.9645 C   0  0  1  0  0  0  0  0  0  0  0  0
   19.5888  -10.7036   15.1763 O   0  0  0  0  0  0  0  0  0  0  0  0
   23.5033   -1.8715   11.1506 C   0  0  0  0  0  0  0  0  0  0  0  0
   22.3016   -2.3963   10.4687 N   0  0  0  0  0  0  0  0  0  0  0  0
   27.5342   -3.0760   17.5628 C   0  0  0  0  0  0  0  0  0  0  0  0
   26.4147   -3.9156   17.9510 O   0  0  0  0  0  0  0  0  0  0  0  0
  1  2  1  1  0  0  0
  1  8  1  0  0  0  0
  1 36  1  0  0  0  0
  3  4  1  6  0  0  0
  3 10  1  0  0  0  0
  3 47  1  0  0  0  0
  5 11  1  0  0  0  0
  5 30  1  0  0  0  0
  5 38  1  6  0  0  0
  6 21  1  1  0  0  0
  6 42  1  0  0  0  0
  7 15  1  0  0  0  0
  7 44  1  0  0  0  0
  7 32  1  6  0  0  0
  8  9  1  6  0  0  0
  8 17  1  0  0  0  0
 11 12  1  1  0  0  0
 11 20  1  0  0  0  0
 13  6  1  0  0  0  0
 13 14  1  6  0  0  0
 15 16  1  1  0  0  0
 15 24  1  0  0  0  0
 17 26  1  0  0  0  0
 18 10  1  0  0  0  0
 18 19  1  1  0  0  0
 20 21  1  1  0  0  0
 20 29  1  0  0  0  0
 22 13  1  0  0  0  0
 22 23  1  6  0  0  0
 24 25  1  1  0  0  0
 24 33  1  0  0  0  0
 26 27  1  1  0  0  0
 26 35  1  0  0  0  0
 28  2  1  1  0  0  0
 28 18  1  0  0  0  0
 29 30  1  0  0  0  0
 29 39  1  6  0  0  0
 31 22  1  0  0  0  0
 31 32  1  1  0  0  0
 31 41  1  0  0  0  0
 33 34  1  6  0  0  0
 33 43  1  0  0  0  0
 35 36  1  0  0  0  0
 35 45  1  1  0  0  0
 37 28  1  0  0  0  0
 37 38  1  6  0  0  0
 39 40  1  0  0  0  0
 41 42  1  0  0  0  0
 41 49  1  1  0  0  0
 43 44  1  0  0  0  0
 43 51  1  1  0  0  0
 45 46  1  0  0  0  0
 47 37  1  0  0  0  0
 47 48  1  6  0  0  0
 49 50  1  0  0  0  0
 51 52  1  0  0  0  0
M  END
>  <CHROM.1>
-147.36118486,76.04791699,-156.74953030,61.99799706,156.27490270,-87.21310514
-177.93812882,58.41548245,-178.36627751,97.08493938,-168.65870418,-166.21887144
22.04331287,-4.92743132,15.58462533,-3.07588437,-0.70269051,-1.94119250

>  <Name>
2esj_lig

>  <RI>
1.01272e+07

>  <Rbt.Current_Directory>
/home/itssahil/PROJECTS/Mol_Feturizer/New_Systems/rnas/2esj

>  <Rbt.Executable>
rbdock ($Id: //depot/dev/client3/rdock/2013.1/src/exe/rbdock.cxx#4 $)

>  <Rbt.Library>
libRbt.so (2013.1, Build901 2013/11/27)

>  <Rbt.Parameter_File>
/export/apps/rDock/src/rDock_2013.1_src/data/scripts/dock_solv.prm

>  <Rbt.Receptor>
prm/pocket_docking_3.prm

>  <SCORE>
-7.92703

>  <SCORE.INTER>
-6.60342

>  <SCORE.INTER.CONST>
1

>  <SCORE.INTER.POLAR>
-0.504181

>  <SCORE.INTER.ROT>
12

>  <SCORE.INTER.SOLV>
11.6751

>  <SCORE.INTER.VDW>
-18.2134

>  <SCORE.INTER.norm>
-0.126989

>  <SCORE.INTRA>
-1.54062

>  <SCORE.INTRA.DIHEDRAL>
-9.77851

>  <SCORE.INTRA.DIHEDRAL.0>
32.9766

>  <SCORE.INTRA.POLAR>
0

>  <SCORE.INTRA.POLAR.0>
0

>  <SCORE.INTRA.REPUL>
0.0517827

>  <SCORE.INTRA.REPUL.0>
0

>  <SCORE.INTRA.SOLV>
3.7662

>  <SCORE.INTRA.SOLV.lig_0>
-114.358

>  <SCORE.INTRA.VDW>
1.20662

>  <SCORE.INTRA.VDW.0>
-8.24257

>  <SCORE.INTRA.norm>
-0.0296273

>  <SCORE.RESTR>
0.217003

>  <SCORE.RESTR.CAVITY>
0.217003

>  <SCORE.RESTR.norm>
0.00417314

>  <SCORE.SYSTEM>
0

>  <SCORE.SYSTEM.CONST>
0

>  <SCORE.SYSTEM.DIHEDRAL>
0

>  <SCORE.SYSTEM.SOLV>
0

>  <SCORE.SYSTEM.norm>
0

>  <SCORE.heavy>
52

>  <SCORE.norm>
-0.152443

>  <RMSD>
3.733

$$$$
2esj_lig
 OpenBabel11021811423D
libRbt.so/2013.1/901 2013/11/27
 52 56  0  0  0  0  0  0  0  0999 V2000
   17.5095   -5.7652   17.7677 C   0  0  2  0  0  0  0  0  0  0  0  0
   18.3913   -6.8098   17.3137 O   0  0  0  0  0  0  0  0  0  0  0  0
   18.7740  -10.9924   18.1184 C   0  0  2  0  0  0  0  0  0  0  0  0
   18.5346  -12.4345   18.2930 N   0  0  0  0  0  0  0  0  0  0  0  0
   19.7404   -7.8775   14.4031 C   0  0  1  0  0  0  0  0  0  0  0  0
   22.4383   -5.8328   11.9242 C   0  0  1  0  0  0  0  0  0  0  0  0
   24.0341   -1.4254   14.2186 C   0  0  1  0  0  0  0  0  0  0  0  0
   17.8448   -4.4816   16.9522 C   0  0  2  0  0  0  0  0  0  0  0  0
   17.7370   -4.6985   15.5098 N   0  0  0  0  0  0  0  0  0  0  0  0
   17.7508  -10.1570   18.9860 C   0  0  0  0  0  0  0  0  0  0  0  0
   19.9640   -8.3623   12.9701 C   0  0  2  0  0  0  0  0  0  0  0  0
   20.9255   -9.4372   12.8962 O   0  0  0  0  0  0  0  0  0  0  0  0
   23.8628   -5.7265   12.6319 C   0  0  2  0  0  0  0  0  0  0  0  0
   23.7184   -5.5830   14.1048 N   0  0  0  0  0  0  0  0  0  0  0  0
   25.5485   -1.2630   14.2791 C   0  0  1  0  0  0  0  0  0  0  0  0
   25.8816    0.1315   14.1281 O   0  0  0  0  0  0  0  0  0  0  0  0
   19.2724   -3.9550   17.3039 C   0  0  0  0  0  0  0  0  0  0  0  0
   18.0611   -8.6138   18.8319 C   0  0  2  0  0  0  0  0  0  0  0  0
   17.1156   -7.8143   19.6177 N   0  0  0  0  0  0  0  0  0  0  0  0
   20.4132   -7.0874   12.3165 C   0  0  2  0  0  0  0  0  0  0  0  0
   21.7487   -6.8068   12.6511 O   0  0  0  0  0  0  0  0  0  0  0  0
   24.7076   -4.5777   11.9236 C   0  0  1  0  0  0  0  0  0  0  0  0
   24.7085   -4.8082   10.5110 O   0  0  0  0  0  0  0  0  0  0  0  0
   26.2070   -1.7683   15.5571 C   0  0  1  0  0  0  0  0  0  0  0  0
   27.5679   -1.3237   15.5366 O   0  0  0  0  0  0  0  0  0  0  0  0
   19.3690   -3.7546   18.8453 C   0  0  2  0  0  0  0  0  0  0  0  0
   20.6166   -3.2035   19.2276 O   0  0  0  0  0  0  0  0  0  0  0  0
   18.0097   -8.1980   17.3388 C   0  0  2  0  0  0  0  0  0  0  0  0
   19.6125   -5.9584   12.9976 C   0  0  2  0  0  0  0  0  0  0  0  0
   19.4066   -6.4865   14.2983 O   0  0  0  0  0  0  0  0  0  0  0  0
   24.0377   -3.1570   12.1287 C   0  0  2  0  0  0  0  0  0  0  0  0
   24.0847   -2.9463   13.5408 O   0  0  0  0  0  0  0  0  0  0  0  0
   25.5309   -1.2725   16.8366 C   0  0  2  0  0  0  0  0  0  0  0  0
   26.0509   -2.0649   17.9167 O   0  0  0  0  0  0  0  0  0  0  0  0
   19.1141   -5.1195   19.5316 C   0  0  2  0  0  0  0  0  0  0  0  0
   17.7662   -5.5387   19.1736 O   0  0  0  0  0  0  0  0  0  0  0  0
   18.9106   -9.0650   16.4021 C   0  0  2  0  0  0  0  0  0  0  0  0
   18.7286   -8.6401   15.0227 O   0  0  0  0  0  0  0  0  0  0  0  0
   18.2617   -5.6096   12.3736 C   0  0  0  0  0  0  0  0  0  0  0  0
   18.4611   -5.4735   10.9590 O   0  0  0  0  0  0  0  0  0  0  0  0
   22.5705   -3.3431   11.7929 C   0  0  1  0  0  0  0  0  0  0  0  0
   21.7193   -4.4969   11.9626 O   0  0  0  0  0  0  0  0  0  0  0  0
   24.0116   -1.3004   16.7133 C   0  0  2  0  0  0  0  0  0  0  0  0
   23.3608   -1.0779   15.4528 O   0  0  0  0  0  0  0  0  0  0  0  0
   19.1353   -5.0383   21.0201 C   0  0  0  0  0  0  0  0  0  0  0  0
   17.9973   -4.3133   21.4193 O   0  0  0  0  0  0  0  0  0  0  0  0
   18.6226  -10.5905   16.6075 C   0  0  1  0  0  0  0  0  0  0  0  0
   19.6252  -11.3224   15.8536 O   0  0  0  0  0  0  0  0  0  0  0  0
   21.6858   -2.0587   11.8130 C   0  0  0  0  0  0  0  0  0  0  0  0
   21.1999   -1.7023   13.1627 N   0  0  0  0  0  0  0  0  0  0  0  0
   23.0765   -0.8509   17.8336 C   0  0  0  0  0  0  0  0  0  0  0  0
   21.7200   -1.2860   17.5516 O   0  0  0  0  0  0  0  0  0  0  0  0
  1  2  1  6  0  0  0
  1  8  1  0  0  0  0
  1 36  1  0  0  0  0
  3  4  1  6  0  0  0
  3 10  1  0  0  0  0
  3 47  1  0  0  0  0
  5 11  1  0  0  0  0
  5 30  1  0  0  0  0
  5 38  1  6  0  0  0
  6 21  1  1  0  0  0
  6 42  1  0  0  0  0
  7 15  1  0  0  0  0
  7 44  1  0  0  0  0
  7 32  1  1  0  0  0
  8  9  1  6  0  0  0
  8 17  1  0  0  0  0
 11 12  1  1  0  0  0
 11 20  1  0  0  0  0
 13  6  1  0  0  0  0
 13 14  1  1  0  0  0
 15 16  1  1  0  0  0
 15 24  1  0  0  0  0
 17 26  1  0  0  0  0
 18 10  1  0  0  0  0
 18 19  1  1  0  0  0
 20 21  1  1  0  0  0
 20 29  1  0  0  0  0
 22 13  1  0  0  0  0
 22 23  1  6  0  0  0
 24 25  1  1  0  0  0
 24 33  1  0  0  0  0
 26 27  1  6  0  0  0
 26 35  1  0  0  0  0
 28  2  1  1  0  0  0
 28 18  1  0  0  0  0
 29 30  1  0  0  0  0
 29 39  1  6  0  0  0
 31 22  1  0  0  0  0
 31 32  1  1  0  0  0
 31 41  1  0  0  0  0
 33 34  1  1  0  0  0
 33 43  1  0  0  0  0
 35 36  1  0  0  0  0
 35 45  1  1  0  0  0
 37 28  1  0  0  0  0
 37 38  1  6  0  0  0
 39 40  1  0  0  0  0
 41 42  1  0  0  0  0
 41 49  1  1  0  0  0
 43 44  1  0  0  0  0
 43 51  1  1  0  0  0
 45 46  1  0  0  0  0
 47 37  1  0  0  0  0
 47 48  1  6  0  0  0
 49 50  1  0  0  0  0
 51 52  1  0  0  0  0
M  END
>  <CHROM.1>
-150.18563512,138.02786870,176.60730309,-92.92854690,166.34941863,-73.61892669
-47.91124150,156.84147348,69.12220448,105.11646763,-83.69726004,-166.45558393
21.08024673,-5.18906060,15.50760772,3.09953221,-0.85584715,-2.10351734

>  <Name>
2esj_lig

>  <RI>
1.01272e+07

>  <Rbt.Current_Directory>
/home/itssahil/PROJECTS/Mol_Feturizer/New_Systems/rnas/2esj

>  <Rbt.Executable>
rbdock ($Id: //depot/dev/client3/rdock/2013.1/src/exe/rbdock.cxx#4 $)

>  <Rbt.Library>
libRbt.so (2013.1, Build901 2013/11/27)

>  <Rbt.Parameter_File>
/export/apps/rDock/src/rDock_2013.1_src/data/scripts/dock_solv.prm

>  <Rbt.Receptor>
prm/pocket_docking_3.prm

>  <SCORE>
-4.74255

>  <SCORE.INTER>
-9.2302

>  <SCORE.INTER.CONST>
1

>  <SCORE.INTER.POLAR>
-0.107689

>  <SCORE.INTER.ROT>
12

>  <SCORE.INTER.SOLV>
13.1019

>  <SCORE.INTER.VDW>
-21.7618

>  <SCORE.INTER.norm>
-0.177504

>  <SCORE.INTRA>
4.45393

>  <SCORE.INTRA.DIHEDRAL>
-3.31631

>  <SCORE.INTRA.DIHEDRAL.0>
32.9766

>  <SCORE.INTRA.POLAR>
0

>  <SCORE.INTRA.POLAR.0>
0

>  <SCORE.INTRA.REPUL>
0.21714

>  <SCORE.INTRA.REPUL.0>
0

>  <SCORE.INTRA.SOLV>
5.26695

>  <SCORE.INTRA.SOLV.lig_0>
-114.358

>  <SCORE.INTRA.VDW>
2.39291

>  <SCORE.INTRA.VDW.0>
-8.24257

>  <SCORE.INTRA.norm>
0.0856525

>  <SCORE.RESTR>
0.0337286

>  <SCORE.RESTR.CAVITY>
0.0337286

>  <SCORE.RESTR.norm>
0.000648627

>  <SCORE.SYSTEM>
0

>  <SCORE.SYSTEM.CONST>
0

>  <SCORE.SYSTEM.DIHEDRAL>
0

>  <SCORE.SYSTEM.SOLV>
0

>  <SCORE.SYSTEM.norm>
0

>  <SCORE.heavy>
52

>  <SCORE.norm>
-0.0912028

>  <RMSD>
3.738

$$$$
2esj_lig
 OpenBabel11021811423D
libRbt.so/2013.1/901 2013/11/27
 52 56  0  0  0  0  0  0  0  0999 V2000
   19.2337   -5.5541   18.4430 C   0  0  2  0  0  0  0  0  0  0  0  0
   19.6076   -6.3745   17.3197 O   0  0  0  0  0  0  0  0  0  0  0  0
   19.1546  -10.5724   16.6415 C   0  0  2  0  0  0  0  0  0  0  0  0
   18.6246  -11.9267   16.4126 N   0  0  0  0  0  0  0  0  0  0  0  0
   20.0391   -6.4146   14.0655 C   0  0  1  0  0  0  0  0  0  0  0  0
   22.9973   -4.2663   12.1293 C   0  0  1  0  0  0  0  0  0  0  0  0
   27.5927   -2.0812   13.3327 C   0  0  1  0  0  0  0  0  0  0  0  0
   17.8236   -4.9648   18.1442 C   0  0  2  0  0  0  0  0  0  0  0  0
   16.8335   -6.0074   17.8761 N   0  0  0  0  0  0  0  0  0  0  0  0
   18.5466   -9.9615   17.9661 C   0  0  0  0  0  0  0  0  0  0  0  0
   21.1612   -7.2167   13.4052 C   0  0  2  0  0  0  0  0  0  0  0  0
   22.1844   -7.6090   14.3457 O   0  0  0  0  0  0  0  0  0  0  0  0
   24.5452   -4.6464   12.1024 C   0  0  2  0  0  0  0  0  0  0  0  0
   25.0668   -4.8617   13.4781 N   0  0  0  0  0  0  0  0  0  0  0  0
   27.9574   -3.4863   12.8678 C   0  0  1  0  0  0  0  0  0  0  0  0
   29.2339   -3.4474   12.1988 O   0  0  0  0  0  0  0  0  0  0  0  0
   17.8797   -3.9661   16.9447 C   0  0  0  0  0  0  0  0  0  0  0  0
   19.1719   -8.5323   18.2265 C   0  0  2  0  0  0  0  0  0  0  0  0
   18.6133   -7.9367   19.4447 N   0  0  0  0  0  0  0  0  0  0  0  0
   21.6227   -6.2371   12.3652 C   0  0  2  0  0  0  0  0  0  0  0  0
   22.4061   -5.2290   12.9518 O   0  0  0  0  0  0  0  0  0  0  0  0
   25.3305   -3.5561   11.2482 C   0  0  1  0  0  0  0  0  0  0  0  0
   24.6838   -3.4085    9.9798 O   0  0  0  0  0  0  0  0  0  0  0  0
   28.0351   -4.5368   13.9691 C   0  0  1  0  0  0  0  0  0  0  0  0
   28.6119   -5.7134   13.3919 O   0  0  0  0  0  0  0  0  0  0  0  0
   18.9559   -2.8808   17.2437 C   0  0  2  0  0  0  0  0  0  0  0  0
   19.0060   -1.8949   16.2280 O   0  0  0  0  0  0  0  0  0  0  0  0
   18.9252   -7.6038   17.0092 C   0  0  2  0  0  0  0  0  0  0  0  0
   20.3555   -5.4966   11.8903 C   0  0  2  0  0  0  0  0  0  0  0  0
   19.5423   -5.5290   13.0525 O   0  0  0  0  0  0  0  0  0  0  0  0
   25.2677   -2.1293   11.9334 C   0  0  2  0  0  0  0  0  0  0  0  0
   25.9494   -2.3055   13.1762 O   0  0  0  0  0  0  0  0  0  0  0  0
   28.8685   -4.1037   15.1765 C   0  0  2  0  0  0  0  0  0  0  0  0
   28.5920   -5.0397   16.2311 O   0  0  0  0  0  0  0  0  0  0  0  0
   20.3234   -3.5859   17.4221 C   0  0  2  0  0  0  0  0  0  0  0  0
   20.2014   -4.4847   18.5614 O   0  0  0  0  0  0  0  0  0  0  0  0
   19.3958   -8.2004   15.6440 C   0  0  2  0  0  0  0  0  0  0  0  0
   19.0494   -7.2848   14.5679 O   0  0  0  0  0  0  0  0  0  0  0  0
   19.5956   -6.1265   10.7235 C   0  0  0  0  0  0  0  0  0  0  0  0
   19.1869   -7.4400   11.1325 O   0  0  0  0  0  0  0  0  0  0  0  0
   23.8109   -1.9118   12.2947 C   0  0  1  0  0  0  0  0  0  0  0  0
   22.7983   -2.8662   12.6799 O   0  0  0  0  0  0  0  0  0  0  0  0
   28.6049   -2.6479   15.5449 C   0  0  2  0  0  0  0  0  0  0  0  0
   28.2731   -1.6730   14.5442 O   0  0  0  0  0  0  0  0  0  0  0  0
   21.4273   -2.6432   17.7613 C   0  0  0  0  0  0  0  0  0  0  0  0
   21.5134   -1.7017   16.7190 O   0  0  0  0  0  0  0  0  0  0  0  0
   18.8061   -9.6352   15.4301 C   0  0  1  0  0  0  0  0  0  0  0  0
   19.4410  -10.1887   14.2469 O   0  0  0  0  0  0  0  0  0  0  0  0
   23.4463   -0.5208   12.8989 C   0  0  0  0  0  0  0  0  0  0  0  0
   22.0293   -0.4109   13.3048 N   0  0  0  0  0  0  0  0  0  0  0  0
   29.3051   -1.9419   16.7037 C   0  0  0  0  0  0  0  0  0  0  0  0
   28.7430   -2.3857   17.9669 O   0  0  0  0  0  0  0  0  0  0  0  0
  1  2  1  6  0  0  0
  1  8  1  0  0  0  0
  1 36  1  0  0  0  0
  3  4  1  6  0  0  0
  3 10  1  0  0  0  0
  3 47  1  0  0  0  0
  5 11  1  0  0  0  0
  5 30  1  0  0  0  0
  5 38  1  6  0  0  0
  6 21  1  1  0  0  0
  6 42  1  0  0  0  0
  7 15  1  0  0  0  0
  7 44  1  0  0  0  0
  7 32  1  1  0  0  0
  8  9  1  6  0  0  0
  8 17  1  0  0  0  0
 11 12  1  1  0  0  0
 11 20  1  0  0  0  0
 13  6  1  0  0  0  0
 13 14  1  1  0  0  0
 15 16  1  1  0  0  0
 15 24  1  0  0  0  0
 17 26  1  0  0  0  0
 18 10  1  0  0  0  0
 18 19  1  1  0  0  0
 20 21  1  1  0  0  0
 20 29  1  0  0  0  0
 22 13  1  0  0  0  0
 22 23  1  6  0  0  0
 24 25  1  6  0  0  0
 24 33  1  0  0  0  0
 26 27  1  6  0  0  0
 26 35  1  0  0  0  0
 28  2  1  1  0  0  0
 28 18  1  0  0  0  0
 29 30  1  0  0  0  0
 29 39  1  6  0  0  0
 31 22  1  0  0  0  0
 31 32  1  1  0  0  0
 31 41  1  0  0  0  0
 33 34  1  1  0  0  0
 33 43  1  0  0  0  0
 35 36  1  0  0  0  0
 35 45  1  1  0  0  0
 37 28  1  0  0  0  0
 37 38  1  6  0  0  0
 39 40  1  0  0  0  0
 41 42  1  0  0  0  0
 41 49  1  1  0  0  0
 43 44  1  0  0  0  0
 43 51  1  6  0  0  0
 45 46  1  0  0  0  0
 47 37  1  0  0  0  0
 47 48  1  6  0  0  0
 49 50  1  0  0  0  0
 51 52  1  0  0  0  0
M  END
>  <CHROM.1>
-67.63412818,64.55416932,-106.41880459,-84.39936092,176.12660457,-62.93568336
59.95294033,89.35321083,-58.89162732,98.71618359,-176.36548691,-75.21983834
22.50615426,-4.99980876,14.78123600,-3.08080443,-0.54910650,-1.97673481

>  <Name>
2esj_lig

>  <RI>
1.01272e+07

>  <Rbt.Current_Directory>
/home/itssahil/PROJECTS/Mol_Feturizer/New_Systems/rnas/2esj

>  <Rbt.Executable>
rbdock ($Id: //depot/dev/client3/rdock/2013.1/src/exe/rbdock.cxx#4 $)

>  <Rbt.Library>
libRbt.so (2013.1, Build901 2013/11/27)

>  <Rbt.Parameter_File>
/export/apps/rDock/src/rDock_2013.1_src/data/scripts/dock_solv.prm

>  <Rbt.Receptor>
prm/pocket_docking_3.prm

>  <SCORE>
-7.4142

>  <SCORE.INTER>
-8.40413

>  <SCORE.INTER.CONST>
1

>  <SCORE.INTER.POLAR>
-1.49111

>  <SCORE.INTER.ROT>
12

>  <SCORE.INTER.SOLV>
17.7348

>  <SCORE.INTER.VDW>
-18.144

>  <SCORE.INTER.norm>
-0.161618

>  <SCORE.INTRA>
0.980499

>  <SCORE.INTRA.DIHEDRAL>
-10.0596

>  <SCORE.INTRA.DIHEDRAL.0>
32.9766

>  <SCORE.INTRA.POLAR>
0

>  <SCORE.INTRA.POLAR.0>
0

>  <SCORE.INTRA.REPUL>
0.00021627

>  <SCORE.INTRA.REPUL.0>
0

>  <SCORE.INTRA.SOLV>
4.08555

>  <SCORE.INTRA.SOLV.lig_0>
-114.358

>  <SCORE.INTRA.VDW>
3.96644

>  <SCORE.INTRA.VDW.0>
-8.24257

>  <SCORE.INTRA.norm>
0.0188558

>  <SCORE.RESTR>
0.009434

>  <SCORE.RESTR.CAVITY>
0.009434

>  <SCORE.RESTR.norm>
0.000181423

>  <SCORE.SYSTEM>
0

>  <SCORE.SYSTEM.CONST>
0

>  <SCORE.SYSTEM.DIHEDRAL>
0

>  <SCORE.SYSTEM.SOLV>
0

>  <SCORE.SYSTEM.norm>
0

>  <SCORE.heavy>
52

>  <SCORE.norm>
-0.142581

>  <RMSD>
3.796

$$$$
2esj_lig
 OpenBabel11021811423D
libRbt.so/2013.1/901 2013/11/27
 52 56  0  0  0  0  0  0  0  0999 V2000
   19.4101   -7.0005   17.2044 C   0  0  2  0  0  0  0  0  0  0  0  0
   18.4019   -7.6800   16.4319 O   0  0  0  0  0  0  0  0  0  0  0  0
   20.5355  -11.2674   15.5011 C   0  0  2  0  0  0  0  0  0  0  0  0
   20.9245  -12.6147   15.0529 N   0  0  0  0  0  0  0  0  0  0  0  0
   19.9719   -6.9457   13.3036 C   0  0  1  0  0  0  0  0  0  0  0  0
   22.1082   -3.7597   11.7524 C   0  0  1  0  0  0  0  0  0  0  0  0
   26.8285   -2.1150   11.6474 C   0  0  1  0  0  0  0  0  0  0  0  0
   18.6952   -6.3078   18.4020 C   0  0  2  0  0  0  0  0  0  0  0  0
   17.9317   -7.2551   19.2137 N   0  0  0  0  0  0  0  0  0  0  0  0
   19.3446  -11.3557   16.5363 C   0  0  0  0  0  0  0  0  0  0  0  0
   21.0191   -7.2645   12.2357 C   0  0  2  0  0  0  0  0  0  0  0  0
   22.2687   -7.7103   12.8058 O   0  0  0  0  0  0  0  0  0  0  0  0
   23.5086   -3.9094   11.0056 C   0  0  2  0  0  0  0  0  0  0  0  0
   24.5163   -4.5595   11.8847 N   0  0  0  0  0  0  0  0  0  0  0  0
   27.4083   -2.9034   12.8160 C   0  0  1  0  0  0  0  0  0  0  0  0
   28.4369   -3.7873   12.3271 O   0  0  0  0  0  0  0  0  0  0  0  0
   17.7590   -5.1611   17.9044 C   0  0  0  0  0  0  0  0  0  0  0  0
   18.9805   -9.9050   17.0506 C   0  0  2  0  0  0  0  0  0  0  0  0
   17.8673   -9.9577   18.0039 N   0  0  0  0  0  0  0  0  0  0  0  0
   21.1008   -5.9425   11.5288 C   0  0  2  0  0  0  0  0  0  0  0  0
   21.8493   -5.0251   12.2856 O   0  0  0  0  0  0  0  0  0  0  0  0
   23.9385   -2.4910   10.4239 C   0  0  1  0  0  0  0  0  0  0  0  0
   22.8549   -1.9586    9.6550 O   0  0  0  0  0  0  0  0  0  0  0  0
   28.0053   -2.0613   13.9371 C   0  0  1  0  0  0  0  0  0  0  0  0
   28.7007   -2.9549   14.8136 O   0  0  0  0  0  0  0  0  0  0  0  0
   18.5891   -4.1800   17.0246 C   0  0  2  0  0  0  0  0  0  0  0  0
   17.8173   -3.0702   16.6016 O   0  0  0  0  0  0  0  0  0  0  0  0
   18.6260   -8.9808   15.8568 C   0  0  2  0  0  0  0  0  0  0  0  0
   19.6710   -5.3638   11.5481 C   0  0  2  0  0  0  0  0  0  0  0  0
   19.1472   -5.9124   12.7471 O   0  0  0  0  0  0  0  0  0  0  0  0
   24.1992   -1.4447   11.5843 C   0  0  2  0  0  0  0  0  0  0  0  0
   25.3041   -1.9895   12.3075 O   0  0  0  0  0  0  0  0  0  0  0  0
   28.9690   -0.9784   13.4485 C   0  0  2  0  0  0  0  0  0  0  0  0
   29.1940   -0.0904   14.5556 O   0  0  0  0  0  0  0  0  0  0  0  0
   19.1611   -4.9691   15.8207 C   0  0  2  0  0  0  0  0  0  0  0  0
   20.0319   -6.0057   16.3573 O   0  0  0  0  0  0  0  0  0  0  0  0
   19.7125   -8.9404   14.7347 C   0  0  2  0  0  0  0  0  0  0  0  0
   19.2463   -8.1084   13.6362 O   0  0  0  0  0  0  0  0  0  0  0  0
   18.7653   -5.7473   10.3784 C   0  0  0  0  0  0  0  0  0  0  0  0
   19.1622   -4.9581    9.2474 O   0  0  0  0  0  0  0  0  0  0  0  0
   23.0069   -1.5587   12.5147 C   0  0  1  0  0  0  0  0  0  0  0  0
   22.1902   -2.7041   12.8397 O   0  0  0  0  0  0  0  0  0  0  0  0
   28.4484   -0.2928   12.1903 C   0  0  2  0  0  0  0  0  0  0  0  0
   27.6557   -1.0033   11.2266 O   0  0  0  0  0  0  0  0  0  0  0  0
   20.0180   -4.1359   14.9297 C   0  0  0  0  0  0  0  0  0  0  0  0
   21.1251   -3.7100   15.6869 O   0  0  0  0  0  0  0  0  0  0  0  0
   20.0944  -10.3883   14.2764 C   0  0  1  0  0  0  0  0  0  0  0  0
   21.2346  -10.2700   13.3847 O   0  0  0  0  0  0  0  0  0  0  0  0
   22.9572   -0.5520   13.7050 C   0  0  0  0  0  0  0  0  0  0  0  0
   21.8363    0.4073   13.6153 N   0  0  0  0  0  0  0  0  0  0  0  0
   29.2077    0.8218   11.4741 C   0  0  0  0  0  0  0  0  0  0  0  0
   29.1410    2.0462   12.2519 O   0  0  0  0  0  0  0  0  0  0  0  0
  1  2  1  6  0  0  0
  1  8  1  0  0  0  0
  1 36  1  0  0  0  0
  3  4  1  6  0  0  0
  3 10  1  0  0  0  0
  3 47  1  0  0  0  0
  5 11  1  0  0  0  0
  5 30  1  0  0  0  0
  5 38  1  6  0  0  0
  6 21  1  1  0  0  0
  6 42  1  0  0  0  0
  7 15  1  0  0  0  0
  7 44  1  0  0  0  0
  7 32  1  1  0  0  0
  8  9  1  6  0  0  0
  8 17  1  0  0  0  0
 11 12  1  1  0  0  0
 11 20  1  0  0  0  0
 13  6  1  0  0  0  0
 13 14  1  1  0  0  0
 15 16  1  6  0  0  0
 15 24  1  0  0  0  0
 17 26  1  0  0  0  0
 18 10  1  0  0  0  0
 18 19  1  1  0  0  0
 20 21  1  1  0  0  0
 20 29  1  0  0  0  0
 22 13  1  0  0  0  0
 22 23  1  6  0  0  0
 24 25  1  1  0  0  0
 24 33  1  0  0  0  0
 26 27  1  6  0  0  0
 26 35  1  0  0  0  0
 28  2  1  1  0  0  0
 28 18  1  0  0  0  0
 29 30  1  0  0  0  0
 29 39  1  6  0  0  0
 31 22  1  0  0  0  0
 31 32  1  1  0  0  0
 31 41  1  0  0  0  0
 33 34  1  1  0  0  0
 33 43  1  0  0  0  0
 35 36  1  0  0  0  0
 35 45  1  6  0  0  0
 37 28  1  0  0  0  0
 37 38  1  6  0  0  0
 39 40  1  0  0  0  0
 41 42  1  0  0  0  0
 41 49  1  1  0  0  0
 43 44  1  0  0  0  0
 43 51  1  6  0  0  0
 45 46  1  0  0  0  0
 47 37  1  0  0  0  0
 47 48  1  6  0  0  0
 49 50  1  0  0  0  0
 51 52  1  0  0  0  0
M  END
>  <CHROM.1>
-140.19601538,91.48848785,-92.03656272,-172.94695528,176.04113495,57.94478978
-76.85394351,66.87064045,62.92503838,117.95568573,113.94925856,-72.76359628
22.28287187,-4.84016029,13.77862700,2.63213731,-0.62875754,-2.76513646

>  <Name>
2esj_lig

>  <RI>
1.62275e+07

>  <Rbt.Current_Directory>
/home/itssahil/PROJECTS/Mol_Feturizer/New_Systems/rnas/2esj

>  <Rbt.Executable>
rbdock ($Id: //depot/dev/client3/rdock/2013.1/src/exe/rbdock.cxx#4 $)

>  <Rbt.Library>
libRbt.so (2013.1, Build901 2013/11/27)

>  <Rbt.Parameter_File>
/export/apps/rDock/src/rDock_2013.1_src/data/scripts/dock_solv.prm

>  <Rbt.Receptor>
prm/pocket_docking_5.prm

>  <SCORE>
-5.52802

>  <SCORE.INTER>
-3.64235

>  <SCORE.INTER.CONST>
1

>  <SCORE.INTER.POLAR>
-0.592435

>  <SCORE.INTER.ROT>
12

>  <SCORE.INTER.SOLV>
17.0815

>  <SCORE.INTER.VDW>
-17.7473

>  <SCORE.INTER.norm>
-0.0700453

>  <SCORE.INTRA>
-1.88567

>  <SCORE.INTRA.DIHEDRAL>
-5.77386

>  <SCORE.INTRA.DIHEDRAL.0>
32.9766

>  <SCORE.INTRA.POLAR>
0

>  <SCORE.INTRA.POLAR.0>
0

>  <SCORE.INTRA.REPUL>
0

>  <SCORE.INTRA.REPUL.0>
0

>  <SCORE.INTRA.SOLV>
0.806141

>  <SCORE.INTRA.SOLV.lig_0>
-114.358

>  <SCORE.INTRA.VDW>
0.598193

>  <SCORE.INTRA.VDW.0>
-8.24257

>  <SCORE.INTRA.norm>
-0.0362628

>  <SCORE.RESTR>
0

>  <SCORE.RESTR.CAVITY>
0

>  <SCORE.RESTR.norm>
0

>  <SCORE.SYSTEM>
0

>  <SCORE.SYSTEM.CONST>
0

>  <SCORE.SYSTEM.DIHEDRAL>
0

>  <SCORE.SYSTEM.SOLV>
0

>  <SCORE.SYSTEM.norm>
0

>  <SCORE.heavy>
52

>  <SCORE.norm>
-0.106308

>  <RMSD>
3.850

$$$$
2esj_lig
 OpenBabel11021811423D
libRbt.so/2013.1/901 2013/11/27
 52 56  0  0  0  0  0  0  0  0999 V2000
   20.1675   -7.4543   16.8454 C   0  0  2  0  0  0  0  0  0  0  0  0
   21.0619   -8.3487   17.5345 O   0  0  0  0  0  0  0  0  0  0  0  0
   23.2400  -11.9119   16.6138 C   0  0  2  0  0  0  0  0  0  0  0  0
   23.6360  -13.2885   16.2739 N   0  0  0  0  0  0  0  0  0  0  0  0
   21.6245   -7.8677   14.2597 C   0  0  1  0  0  0  0  0  0  0  0  0
   23.1280   -4.3764   12.5258 C   0  0  1  0  0  0  0  0  0  0  0  0
   25.8871   -0.5648   14.3289 C   0  0  1  0  0  0  0  0  0  0  0  0
   20.3452   -6.0396   17.4714 C   0  0  2  0  0  0  0  0  0  0  0  0
   21.7318   -5.5782   17.4115 N   0  0  0  0  0  0  0  0  0  0  0  0
   22.3358  -11.9049   17.9100 C   0  0  0  0  0  0  0  0  0  0  0  0
   23.0607   -7.8677   13.7346 C   0  0  2  0  0  0  0  0  0  0  0  0
   24.0284   -7.6219   14.7779 O   0  0  0  0  0  0  0  0  0  0  0  0
   24.6777   -4.3349   12.1543 C   0  0  2  0  0  0  0  0  0  0  0  0
   25.5226   -4.5040   13.3662 N   0  0  0  0  0  0  0  0  0  0  0  0
   27.2865   -1.0067   14.7412 C   0  0  1  0  0  0  0  0  0  0  0  0
   28.0572    0.1518   15.1183 O   0  0  0  0  0  0  0  0  0  0  0  0
   19.8424   -6.0172   18.9498 C   0  0  0  0  0  0  0  0  0  0  0  0
   21.9700  -10.4147   18.2932 C   0  0  2  0  0  0  0  0  0  0  0  0
   21.1187  -10.3809   19.4869 N   0  0  0  0  0  0  0  0  0  0  0  0
   22.9755   -6.7794   12.7039 C   0  0  2  0  0  0  0  0  0  0  0  0
   22.9802   -5.5165   13.3200 O   0  0  0  0  0  0  0  0  0  0  0  0
   24.9714   -3.0188   11.3077 C   0  0  1  0  0  0  0  0  0  0  0  0
   24.0480   -2.9553   10.2160 O   0  0  0  0  0  0  0  0  0  0  0  0
   27.3415   -2.0036   15.8926 C   0  0  1  0  0  0  0  0  0  0  0  0
   28.7125   -2.1158   16.2903 O   0  0  0  0  0  0  0  0  0  0  0  0
   18.3738   -6.5340   18.9896 C   0  0  2  0  0  0  0  0  0  0  0  0
   17.8272   -6.4675   20.2946 O   0  0  0  0  0  0  0  0  0  0  0  0
   21.2644   -9.7085   17.1064 C   0  0  2  0  0  0  0  0  0  0  0  0
   21.5653   -6.8894   12.0886 C   0  0  2  0  0  0  0  0  0  0  0  0
   20.8101   -7.4062   13.1729 O   0  0  0  0  0  0  0  0  0  0  0  0
   24.7172   -1.7111   12.1648 C   0  0  2  0  0  0  0  0  0  0  0  0
   25.6751   -1.7911   13.2214 O   0  0  0  0  0  0  0  0  0  0  0  0
   26.4949   -1.5979   17.1004 C   0  0  2  0  0  0  0  0  0  0  0  0
   26.3974   -2.7539   17.9482 O   0  0  0  0  0  0  0  0  0  0  0  0
   18.3503   -7.9798   18.4345 C   0  0  2  0  0  0  0  0  0  0  0  0
   18.8140   -7.9212   17.0552 O   0  0  0  0  0  0  0  0  0  0  0  0
   22.0516   -9.7821   15.7589 C   0  0  2  0  0  0  0  0  0  0  0  0
   21.2684   -9.1583   14.7035 O   0  0  0  0  0  0  0  0  0  0  0  0
   21.4189   -7.8170   10.8828 C   0  0  0  0  0  0  0  0  0  0  0  0
   22.4003   -7.4230    9.9126 O   0  0  0  0  0  0  0  0  0  0  0  0
   23.3657   -1.9090   12.8238 C   0  0  1  0  0  0  0  0  0  0  0  0
   22.7222   -3.1203   13.2746 O   0  0  0  0  0  0  0  0  0  0  0  0
   25.1511   -1.0189   16.6722 C   0  0  2  0  0  0  0  0  0  0  0  0
   25.0117   -0.2826   15.4474 O   0  0  0  0  0  0  0  0  0  0  0  0
   16.9794   -8.5630   18.3805 C   0  0  0  0  0  0  0  0  0  0  0  0
   16.5395   -8.7300   19.7067 O   0  0  0  0  0  0  0  0  0  0  0  0
   22.4475  -11.2599   15.4247 C   0  0  1  0  0  0  0  0  0  0  0  0
   23.3332  -11.2178   14.2745 O   0  0  0  0  0  0  0  0  0  0  0  0
   22.8172   -0.7091   13.6557 C   0  0  0  0  0  0  0  0  0  0  0  0
   21.3469   -0.5725   13.5889 N   0  0  0  0  0  0  0  0  0  0  0  0
   24.1044   -0.5200   17.6658 C   0  0  0  0  0  0  0  0  0  0  0  0
   23.8130   -1.5559   18.6409 O   0  0  0  0  0  0  0  0  0  0  0  0
  1  2  1  1  0  0  0
  1  8  1  0  0  0  0
  1 36  1  0  0  0  0
  3  4  1  6  0  0  0
  3 10  1  0  0  0  0
  3 47  1  0  0  0  0
  5 11  1  0  0  0  0
  5 30  1  0  0  0  0
  5 38  1  6  0  0  0
  6 21  1  1  0  0  0
  6 42  1  0  0  0  0
  7 15  1  0  0  0  0
  7 44  1  0  0  0  0
  7 32  1  1  0  0  0
  8  9  1  1  0  0  0
  8 17  1  0  0  0  0
 11 12  1  1  0  0  0
 11 20  1  0  0  0  0
 13  6  1  0  0  0  0
 13 14  1  1  0  0  0
 15 16  1  1  0  0  0
 15 24  1  0  0  0  0
 17 26  1  0  0  0  0
 18 10  1  0  0  0  0
 18 19  1  1  0  0  0
 20 21  1  1  0  0  0
 20 29  1  0  0  0  0
 22 13  1  0  0  0  0
 22 23  1  6  0  0  0
 24 25  1  1  0  0  0
 24 33  1  0  0  0  0
 26 27  1  1  0  0  0
 26 35  1  0  0  0  0
 28  2  1  1  0  0  0
 28 18  1  0  0  0  0
 29 30  1  0  0  0  0
 29 39  1  6  0  0  0
 31 22  1  0  0  0  0
 31 32  1  1  0  0  0
 31 41  1  0  0  0  0
 33 34  1  1  0  0  0
 33 43  1  0  0  0  0
 35 36  1  0  0  0  0
 35 45  1  6  0  0  0
 37 28  1  0  0  0  0
 37 38  1  6  0  0  0
 39 40  1  0  0  0  0
 41 42  1  0  0  0  0
 41 49  1  1  0  0  0
 43 44  1  0  0  0  0
 43 51  1  1  0  0  0
 45 46  1  0  0  0  0
 47 37  1  0  0  0  0
 47 48  1  6  0  0  0
 49 50  1  0  0  0  0
 51 52  1  0  0  0  0
M  END
>  <CHROM.1>
-172.82901284,58.92162869,-76.33038477,-159.35856600,169.61753442,-165.30663463
-53.36624136,174.81611772,-67.21842764,103.57159323,145.58799067,-53.48157266
22.78512261,-5.67104077,15.38633182,2.75272107,-0.97619461,-2.37883504

>  <Name>
2esj_lig

>  <RI>
1.62275e+07

>  <Rbt.Current_Directory>
/home/itssahil/PROJECTS/Mol_Feturizer/New_Systems/rnas/2esj

>  <Rbt.Executable>
rbdock ($Id: //depot/dev/client3/rdock/2013.1/src/exe/rbdock.cxx#4 $)

>  <Rbt.Library>
libRbt.so (2013.1, Build901 2013/11/27)

>  <Rbt.Parameter_File>
/export/apps/rDock/src/rDock_2013.1_src/data/scripts/dock_solv.prm

>  <Rbt.Receptor>
prm/pocket_docking_5.prm

>  <SCORE>
-12.2252

>  <SCORE.INTER>
-5.70973

>  <SCORE.INTER.CONST>
1

>  <SCORE.INTER.POLAR>
-0.894427

>  <SCORE.INTER.ROT>
12

>  <SCORE.INTER.SOLV>
12.0374

>  <SCORE.INTER.VDW>
-16.4375

>  <SCORE.INTER.norm>
-0.109803

>  <SCORE.INTRA>
-6.51551

>  <SCORE.INTRA.DIHEDRAL>
-16.3582

>  <SCORE.INTRA.DIHEDRAL.0>
32.9766

>  <SCORE.INTRA.POLAR>
0

>  <SCORE.INTRA.POLAR.0>
0

>  <SCORE.INTRA.REPUL>
0

>  <SCORE.INTRA.REPUL.0>
0

>  <SCORE.INTRA.SOLV>
-1.89192

>  <SCORE.INTRA.SOLV.lig_0>
-114.358

>  <SCORE.INTRA.VDW>
2.60954

>  <SCORE.INTRA.VDW.0>
-8.24257

>  <SCORE.INTRA.norm>
-0.125298

>  <SCORE.RESTR>
0

>  <SCORE.RESTR.CAVITY>
0

>  <SCORE.RESTR.norm>
0

>  <SCORE.SYSTEM>
0

>  <SCORE.SYSTEM.CONST>
0

>  <SCORE.SYSTEM.DIHEDRAL>
0

>  <SCORE.SYSTEM.SOLV>
0

>  <SCORE.SYSTEM.norm>
0

>  <SCORE.heavy>
52

>  <SCORE.norm>
-0.235101

>  <RMSD>
3.882

$$$$
2esj_lig
 OpenBabel11021811423D
libRbt.so/2013.1/901 2013/11/27
 52 56  0  0  0  0  0  0  0  0999 V2000
   17.7331   -5.1019   16.8387 C   0  0  2  0  0  0  0  0  0  0  0  0
   18.5048   -6.2617   16.4723 O   0  0  0  0  0  0  0  0  0  0  0  0
   18.2975  -10.2544   17.9900 C   0  0  2  0  0  0  0  0  0  0  0  0
   17.8880  -11.6274   18.3284 N   0  0  0  0  0  0  0  0  0  0  0  0
   19.8788   -7.3608   14.1744 C   0  0  1  0  0  0  0  0  0  0  0  0
   22.4807   -4.5986   12.2894 C   0  0  1  0  0  0  0  0  0  0  0  0
   27.0725   -2.7123   13.7658 C   0  0  1  0  0  0  0  0  0  0  0  0
   17.4749   -4.2815   15.5405 C   0  0  2  0  0  0  0  0  0  0  0  0
   16.8102   -5.0753   14.5074 N   0  0  0  0  0  0  0  0  0  0  0  0
   17.1945   -9.2223   18.4543 C   0  0  0  0  0  0  0  0  0  0  0  0
   21.0987   -7.8143   13.3715 C   0  0  2  0  0  0  0  0  0  0  0  0
   22.2559   -8.0359   14.2065 O   0  0  0  0  0  0  0  0  0  0  0  0
   24.0160   -5.0241   12.3443 C   0  0  2  0  0  0  0  0  0  0  0  0
   24.4505   -5.2784   13.7434 N   0  0  0  0  0  0  0  0  0  0  0  0
   27.2684   -4.1972   13.4827 C   0  0  1  0  0  0  0  0  0  0  0  0
   28.5663   -4.3988   12.8883 O   0  0  0  0  0  0  0  0  0  0  0  0
   18.8077   -3.6911   14.9800 C   0  0  0  0  0  0  0  0  0  0  0  0
   17.6782   -7.7504   18.1362 C   0  0  2  0  0  0  0  0  0  0  0  0
   16.6649   -6.7724   18.5457 N   0  0  0  0  0  0  0  0  0  0  0  0
   21.2396   -6.6658   12.4149 C   0  0  2  0  0  0  0  0  0  0  0  0
   21.8154   -5.5572   13.0582 O   0  0  0  0  0  0  0  0  0  0  0  0
   24.8805   -3.9432   11.5573 C   0  0  1  0  0  0  0  0  0  0  0  0
   24.3130   -3.7546   10.2569 O   0  0  0  0  0  0  0  0  0  0  0  0
   27.1600   -5.1113   14.6972 C   0  0  1  0  0  0  0  0  0  0  0  0
   27.6008   -6.4112   14.2895 O   0  0  0  0  0  0  0  0  0  0  0  0
   19.5067   -2.8709   16.1044 C   0  0  2  0  0  0  0  0  0  0  0  0
   20.6875   -2.2412   15.6404 O   0  0  0  0  0  0  0  0  0  0  0  0
   17.9951   -7.5995   16.6257 C   0  0  2  0  0  0  0  0  0  0  0  0
   19.8029   -6.2057   12.0924 C   0  0  2  0  0  0  0  0  0  0  0  0
   19.1137   -6.5313   13.2890 O   0  0  0  0  0  0  0  0  0  0  0  0
   24.8191   -2.5271   12.2646 C   0  0  2  0  0  0  0  0  0  0  0  0
   25.4222   -2.7448   13.5410 O   0  0  0  0  0  0  0  0  0  0  0  0
   27.9910   -4.6468   15.8946 C   0  0  2  0  0  0  0  0  0  0  0  0
   27.5489   -5.4091   17.0296 O   0  0  0  0  0  0  0  0  0  0  0  0
   19.7962   -3.8208   17.2930 C   0  0  2  0  0  0  0  0  0  0  0  0
   18.5138   -4.3181   17.7716 O   0  0  0  0  0  0  0  0  0  0  0  0
   18.9916   -8.6677   16.0716 C   0  0  2  0  0  0  0  0  0  0  0  0
   19.1577   -8.4805   14.6385 O   0  0  0  0  0  0  0  0  0  0  0  0
   19.1173   -6.8915   10.9112 C   0  0  0  0  0  0  0  0  0  0  0  0
   19.6602   -6.3266    9.7087 O   0  0  0  0  0  0  0  0  0  0  0  0
   23.3506   -2.2725   12.5456 C   0  0  1  0  0  0  0  0  0  0  0  0
   22.2904   -3.2028   12.8539 O   0  0  0  0  0  0  0  0  0  0  0  0
   27.9059   -3.1361   16.0821 C   0  0  2  0  0  0  0  0  0  0  0  0
   27.7485   -2.2526   14.9612 O   0  0  0  0  0  0  0  0  0  0  0  0
   20.4256   -3.1293   18.4540 C   0  0  0  0  0  0  0  0  0  0  0  0
   19.6825   -1.9604   18.7024 O   0  0  0  0  0  0  0  0  0  0  0  0
   18.5200  -10.1145   16.4413 C   0  0  1  0  0  0  0  0  0  0  0  0
   19.5882  -11.0238   16.0651 O   0  0  0  0  0  0  0  0  0  0  0  0
   22.9917   -0.8819   13.1540 C   0  0  0  0  0  0  0  0  0  0  0  0
   24.0750    0.1146   13.0192 N   0  0  0  0  0  0  0  0  0  0  0  0
   28.6430   -2.3918   17.1931 C   0  0  0  0  0  0  0  0  0  0  0  0
   27.7269   -1.5046   17.8877 O   0  0  0  0  0  0  0  0  0  0  0  0
  1  2  1  6  0  0  0
  1  8  1  0  0  0  0
  1 36  1  0  0  0  0
  3  4  1  6  0  0  0
  3 10  1  0  0  0  0
  3 47  1  0  0  0  0
  5 11  1  0  0  0  0
  5 30  1  0  0  0  0
  5 38  1  6  0  0  0
  6 21  1  1  0  0  0
  6 42  1  0  0  0  0
  7 15  1  0  0  0  0
  7 44  1  0  0  0  0
  7 32  1  1  0  0  0
  8  9  1  6  0  0  0
  8 17  1  0  0  0  0
 11 12  1  1  0  0  0
 11 20  1  0  0  0  0
 13  6  1  0  0  0  0
 13 14  1  1  0  0  0
 15 16  1  1  0  0  0
 15 24  1  0  0  0  0
 17 26  1  0  0  0  0
 18 10  1  0  0  0  0
 18 19  1  6  0  0  0
 20 21  1  1  0  0  0
 20 29  1  0  0  0  0
 22 13  1  0  0  0  0
 22 23  1  6  0  0  0
 24 25  1  6  0  0  0
 24 33  1  0  0  0  0
 26 27  1  6  0  0  0
 26 35  1  0  0  0  0
 28  2  1  1  0  0  0
 28 18  1  0  0  0  0
 29 30  1  0  0  0  0
 29 39  1  6  0  0  0
 31 22  1  0  0  0  0
 31 32  1  1  0  0  0
 31 41  1  0  0  0  0
 33 34  1  1  0  0  0
 33 43  1  0  0  0  0
 35 36  1  0  0  0  0
 35 45  1  1  0  0  0
 37 28  1  0  0  0  0
 37 38  1  6  0  0  0
 39 40  1  0  0  0  0
 41 42  1  0  0  0  0
 41 49  1  1  0  0  0
 43 44  1  0  0  0  0
 43 51  1  6  0  0  0
 45 46  1  0  0  0  0
 47 37  1  0  0  0  0
 47 48  1  1  0  0  0
 49 50  1  0  0  0  0
 51 52  1  0  0  0  0
M  END
>  <CHROM.1>
-116.43570317,119.38830147,-95.12936596,-89.46705856,156.30622738,-58.99528830
-76.86437539,83.49073800,47.74177292,71.46324867,16.10657786,-130.64304616
22.00585007,-5.21095587,14.85094641,-3.00227982,-0.50951488,-1.74053376

>  <Name>
2esj_lig

>  <RI>
1.62275e+07

>  <Rbt.Current_Directory>
/home/itssahil/PROJECTS/Mol_Feturizer/New_Systems/rnas/2esj

>  <Rbt.Executable>
rbdock ($Id: //depot/dev/client3/rdock/2013.1/src/exe/rbdock.cxx#4 $)

>  <Rbt.Library>
libRbt.so (2013.1, Build901 2013/11/27)

>  <Rbt.Parameter_File>
/export/apps/rDock/src/rDock_2013.1_src/data/scripts/dock_solv.prm

>  <Rbt.Receptor>
prm/pocket_docking_5.prm

>  <SCORE>
-10.827

>  <SCORE.INTER>
-16.9914

>  <SCORE.INTER.CONST>
1

>  <SCORE.INTER.POLAR>
-2.43518

>  <SCORE.INTER.ROT>
12

>  <SCORE.INTER.SOLV>
19.97

>  <SCORE.INTER.VDW>
-21.467

>  <SCORE.INTER.norm>
-0.326758

>  <SCORE.INTRA>
6.16439

>  <SCORE.INTRA.DIHEDRAL>
2.81323

>  <SCORE.INTRA.DIHEDRAL.0>
32.9766

>  <SCORE.INTRA.POLAR>
0

>  <SCORE.INTRA.POLAR.0>
0

>  <SCORE.INTRA.REPUL>
0.0960281

>  <SCORE.INTRA.REPUL.0>
0

>  <SCORE.INTRA.SOLV>
3.64466

>  <SCORE.INTRA.SOLV.lig_0>
-114.358

>  <SCORE.INTRA.VDW>
2.45531

>  <SCORE.INTRA.VDW.0>
-8.24257

>  <SCORE.INTRA.norm>
0.118546

>  <SCORE.RESTR>
0

>  <SCORE.RESTR.CAVITY>
0

>  <SCORE.RESTR.norm>
0

>  <SCORE.SYSTEM>
0

>  <SCORE.SYSTEM.CONST>
0

>  <SCORE.SYSTEM.DIHEDRAL>
0

>  <SCORE.SYSTEM.SOLV>
0

>  <SCORE.SYSTEM.norm>
0

>  <SCORE.heavy>
52

>  <SCORE.norm>
-0.208212

>  <RMSD>
3.896

$$$$
2esj_lig
 OpenBabel11021811423D
libRbt.so/2013.1/901 2013/11/27
 52 56  0  0  0  0  0  0  0  0999 V2000
   19.4859   -5.2087   17.8260 C   0  0  2  0  0  0  0  0  0  0  0  0
   19.7838   -6.1634   16.7894 O   0  0  0  0  0  0  0  0  0  0  0  0
   19.3720  -10.4163   16.6115 C   0  0  2  0  0  0  0  0  0  0  0  0
   18.8571  -11.7954   16.5929 N   0  0  0  0  0  0  0  0  0  0  0  0
   19.6937   -6.3005   13.7516 C   0  0  1  0  0  0  0  0  0  0  0  0
   22.5562   -3.7482   11.9432 C   0  0  1  0  0  0  0  0  0  0  0  0
   27.0725   -2.0545   13.7817 C   0  0  1  0  0  0  0  0  0  0  0  0
   18.0093   -4.7532   17.6333 C   0  0  2  0  0  0  0  0  0  0  0  0
   17.0767   -5.8798   17.6444 N   0  0  0  0  0  0  0  0  0  0  0  0
   18.9164   -9.6779   17.9324 C   0  0  0  0  0  0  0  0  0  0  0  0
   21.0154   -6.8254   13.1896 C   0  0  2  0  0  0  0  0  0  0  0  0
   22.0419   -6.9269   14.2003 O   0  0  0  0  0  0  0  0  0  0  0  0
   23.8960   -4.5633   11.6574 C   0  0  2  0  0  0  0  0  0  0  0  0
   24.4471   -5.1424   12.9112 N   0  0  0  0  0  0  0  0  0  0  0  0
   27.5217   -3.2406   14.6274 C   0  0  1  0  0  0  0  0  0  0  0  0
   28.8753   -3.0197   15.0718 O   0  0  0  0  0  0  0  0  0  0  0  0
   17.8448   -3.9418   16.3091 C   0  0  0  0  0  0  0  0  0  0  0  0
   19.5275   -8.2194   17.9622 C   0  0  2  0  0  0  0  0  0  0  0  0
   19.1080   -7.5068   19.1735 N   0  0  0  0  0  0  0  0  0  0  0  0
   21.2914   -5.7961   12.1320 C   0  0  2  0  0  0  0  0  0  0  0  0
   21.7699   -4.6095   12.7129 O   0  0  0  0  0  0  0  0  0  0  0  0
   24.9030   -3.6347   10.8458 C   0  0  1  0  0  0  0  0  0  0  0  0
   24.2223   -3.0993    9.7062 O   0  0  0  0  0  0  0  0  0  0  0  0
   26.6645   -3.5272   15.8543 C   0  0  1  0  0  0  0  0  0  0  0  0
   27.3610   -4.5013   16.6393 O   0  0  0  0  0  0  0  0  0  0  0  0
   18.8631   -2.7634   16.3112 C   0  0  2  0  0  0  0  0  0  0  0  0
   18.7156   -1.9377   15.1698 O   0  0  0  0  0  0  0  0  0  0  0  0
   19.1041   -7.4293   16.6967 C   0  0  2  0  0  0  0  0  0  0  0  0
   19.9154   -5.4018   11.5567 C   0  0  2  0  0  0  0  0  0  0  0  0
   19.0626   -5.5948   12.6741 O   0  0  0  0  0  0  0  0  0  0  0  0
   25.3564   -2.3836   11.7051 C   0  0  2  0  0  0  0  0  0  0  0  0
   26.0588   -2.9522   12.8112 O   0  0  0  0  0  0  0  0  0  0  0  0
   26.3830   -2.2922   16.7119 C   0  0  2  0  0  0  0  0  0  0  0  0
   25.3326   -2.6494   17.6250 O   0  0  0  0  0  0  0  0  0  0  0  0
   20.2919   -3.3537   16.4073 C   0  0  2  0  0  0  0  0  0  0  0  0
   20.3764   -4.0792   17.6672 O   0  0  0  0  0  0  0  0  0  0  0  0
   19.4179   -8.1600   15.3519 C   0  0  2  0  0  0  0  0  0  0  0  0
   18.9136   -7.3694   14.2397 O   0  0  0  0  0  0  0  0  0  0  0  0
   19.4049   -6.2342   10.3810 C   0  0  0  0  0  0  0  0  0  0  0  0
   18.1499   -5.6743    9.9676 O   0  0  0  0  0  0  0  0  0  0  0  0
   24.0820   -1.8022   12.2867 C   0  0  1  0  0  0  0  0  0  0  0  0
   22.8601   -2.4599   12.6854 O   0  0  0  0  0  0  0  0  0  0  0  0
   26.0775   -1.0714   15.8512 C   0  0  2  0  0  0  0  0  0  0  0  0
   26.6826   -0.8976   14.5607 O   0  0  0  0  0  0  0  0  0  0  0  0
   21.3534   -2.3085   16.4653 C   0  0  0  0  0  0  0  0  0  0  0  0
   21.2594   -1.5459   15.2865 O   0  0  0  0  0  0  0  0  0  0  0  0
   18.8481   -9.6185   15.3639 C   0  0  1  0  0  0  0  0  0  0  0  0
   19.3464  -10.2844   14.1733 O   0  0  0  0  0  0  0  0  0  0  0  0
   24.2316   -0.4817   13.1033 C   0  0  0  0  0  0  0  0  0  0  0  0
   23.1513    0.4934   12.8446 N   0  0  0  0  0  0  0  0  0  0  0  0
   25.7686    0.3046   16.4369 C   0  0  0  0  0  0  0  0  0  0  0  0
   26.9625    0.8635   17.0460 O   0  0  0  0  0  0  0  0  0  0  0  0
  1  2  1  6  0  0  0
  1  8  1  0  0  0  0
  1 36  1  0  0  0  0
  3  4  1  1  0  0  0
  3 10  1  0  0  0  0
  3 47  1  0  0  0  0
  5 11  1  0  0  0  0
  5 30  1  0  0  0  0
  5 38  1  6  0  0  0
  6 21  1  1  0  0  0
  6 42  1  0  0  0  0
  7 15  1  0  0  0  0
  7 44  1  0  0  0  0
  7 32  1  1  0  0  0
  8  9  1  6  0  0  0
  8 17  1  0  0  0  0
 11 12  1  1  0  0  0
 11 20  1  0  0  0  0
 13  6  1  0  0  0  0
 13 14  1  1  0  0  0
 15 16  1  1  0  0  0
 15 24  1  0  0  0  0
 17 26  1  0  0  0  0
 18 10  1  0  0  0  0
 18 19  1  1  0  0  0
 20 21  1  1  0  0  0
 20 29  1  0  0  0  0
 22 13  1  0  0  0  0
 22 23  1  6  0  0  0
 24 25  1  1  0  0  0
 24 33  1  0  0  0  0
 26 27  1  6  0  0  0
 26 35  1  0  0  0  0
 28  2  1  6  0  0  0
 28 18  1  0  0  0  0
 29 30  1  0  0  0  0
 29 39  1  6  0  0  0
 31 22  1  0  0  0  0
 31 32  1  1  0  0  0
 31 41  1  0  0  0  0
 33 34  1  1  0  0  0
 33 43  1  0  0  0  0
 35 36  1  0  0  0  0
 35 45  1  1  0  0  0
 37 28  1  0  0  0  0
 37 38  1  6  0  0  0
 39 40  1  0  0  0  0
 41 42  1  0  0  0  0
 41 49  1  1  0  0  0
 43 44  1  0  0  0  0
 43 51  1  1  0  0  0
 45 46  1  0  0  0  0
 47 37  1  0  0  0  0
 47 48  1  6  0  0  0
 49 50  1  0  0  0  0
 51 52  1  0  0  0  0
M  END
>  <CHROM.1>
-63.66352839,63.01639650,-65.99746755,-176.34489967,155.28210268,-65.79736738
-177.71181337,163.29044458,-60.08561075,82.51007357,139.31057881,69.21431585
22.08907545,-4.53470922,14.69686816,-3.00188431,-0.69903259,-1.59009913

>  <Name>
2esj_lig

>  <RI>
0

>  <Rbt.Current_Directory>
/home/itssahil/PROJECTS/Mol_Feturizer/New_Systems/rnas/2esj

>  <Rbt.Executable>
rbdock ($Id: //depot/dev/client3/rdock/2013.1/src/exe/rbdock.cxx#4 $)

>  <Rbt.Library>
libRbt.so (2013.1, Build901 2013/11/27)

>  <Rbt.Parameter_File>
/export/apps/rDock/src/rDock_2013.1_src/data/scripts/dock_solv.prm

>  <Rbt.Receptor>
prm/pocket_docking_6.prm

>  <SCORE>
-13.3788

>  <SCORE.INTER>
-7.41979

>  <SCORE.INTER.CONST>
1

>  <SCORE.INTER.POLAR>
-1.39951

>  <SCORE.INTER.ROT>
12

>  <SCORE.INTER.SOLV>
16.2913

>  <SCORE.INTER.VDW>
-17.3119

>  <SCORE.INTER.norm>
-0.142688

>  <SCORE.INTRA>
-5.95899

>  <SCORE.INTRA.DIHEDRAL>
-21.039

>  <SCORE.INTRA.DIHEDRAL.0>
32.9766

>  <SCORE.INTRA.POLAR>
0

>  <SCORE.INTRA.POLAR.0>
0

>  <SCORE.INTRA.REPUL>
0

>  <SCORE.INTRA.REPUL.0>
0

>  <SCORE.INTRA.SOLV>
3.63042

>  <SCORE.INTRA.SOLV.lig_0>
-114.358

>  <SCORE.INTRA.VDW>
2.74529

>  <SCORE.INTRA.VDW.0>
-8.24257

>  <SCORE.INTRA.norm>
-0.114596

>  <SCORE.RESTR>
0

>  <SCORE.RESTR.CAVITY>
0

>  <SCORE.RESTR.norm>
0

>  <SCORE.SYSTEM>
0

>  <SCORE.SYSTEM.CONST>
0

>  <SCORE.SYSTEM.DIHEDRAL>
0

>  <SCORE.SYSTEM.SOLV>
0

>  <SCORE.SYSTEM.norm>
0

>  <SCORE.heavy>
52

>  <SCORE.norm>
-0.257284

>  <RMSD>
3.954

$$$$
2esj_lig
 OpenBabel11021811423D
libRbt.so/2013.1/901 2013/11/27
 52 56  0  0  0  0  0  0  0  0999 V2000
   17.6412   -5.2130   17.6289 C   0  0  2  0  0  0  0  0  0  0  0  0
   18.3866   -6.4294   17.4303 O   0  0  0  0  0  0  0  0  0  0  0  0
   17.9306  -10.4250   18.8847 C   0  0  2  0  0  0  0  0  0  0  0  0
   17.4309  -11.7704   19.2125 N   0  0  0  0  0  0  0  0  0  0  0  0
   19.5934   -7.5748   15.0701 C   0  0  1  0  0  0  0  0  0  0  0  0
   22.5703   -4.8896   13.7281 C   0  0  1  0  0  0  0  0  0  0  0  0
   26.8587   -3.2000   15.9667 C   0  0  1  0  0  0  0  0  0  0  0  0
   17.6715   -4.4206   16.2886 C   0  0  2  0  0  0  0  0  0  0  0  0
   17.1487   -5.2048   15.1702 N   0  0  0  0  0  0  0  0  0  0  0  0
   16.9224   -9.3237   19.4025 C   0  0  0  0  0  0  0  0  0  0  0  0
   21.0803   -7.8712   15.2692 C   0  0  2  0  0  0  0  0  0  0  0  0
   21.5535   -7.4637   16.5713 O   0  0  0  0  0  0  0  0  0  0  0  0
   24.0247   -5.3770   14.1623 C   0  0  2  0  0  0  0  0  0  0  0  0
   24.1319   -5.4879   15.6411 N   0  0  0  0  0  0  0  0  0  0  0  0
   27.3025   -1.8167   15.5052 C   0  0  1  0  0  0  0  0  0  0  0  0
   28.3081   -1.3160   16.4088 O   0  0  0  0  0  0  0  0  0  0  0  0
   19.1186   -3.9320   15.9628 C   0  0  0  0  0  0  0  0  0  0  0  0
   17.5040   -7.8855   19.0943 C   0  0  2  0  0  0  0  0  0  0  0  0
   16.5796   -6.8436   19.5535 N   0  0  0  0  0  0  0  0  0  0  0  0
   21.6698   -7.0938   14.1280 C   0  0  2  0  0  0  0  0  0  0  0  0
   21.6904   -5.7209   14.4263 O   0  0  0  0  0  0  0  0  0  0  0  0
   25.1111   -4.4357   13.4777 C   0  0  1  0  0  0  0  0  0  0  0  0
   24.8486   -4.3723   12.0721 O   0  0  0  0  0  0  0  0  0  0  0  0
   27.8665   -1.7520   14.0910 C   0  0  1  0  0  0  0  0  0  0  0  0
   28.4402   -0.4509   13.9230 O   0  0  0  0  0  0  0  0  0  0  0  0
   19.6609   -3.1206   17.1766 C   0  0  2  0  0  0  0  0  0  0  0  0
   20.9443   -2.5802   16.9178 O   0  0  0  0  0  0  0  0  0  0  0  0
   17.7839   -7.7288   17.5770 C   0  0  2  0  0  0  0  0  0  0  0  0
   20.6570   -7.2092   12.9702 C   0  0  2  0  0  0  0  0  0  0  0  0
   19.4268   -7.3331   13.6661 O   0  0  0  0  0  0  0  0  0  0  0  0
   25.0004   -2.9461   14.0050 C   0  0  2  0  0  0  0  0  0  0  0  0
   25.3007   -3.0427   15.3982 O   0  0  0  0  0  0  0  0  0  0  0  0
   28.9276   -2.8151   13.8012 C   0  0  2  0  0  0  0  0  0  0  0  0
   29.1250   -2.8298   12.3780 O   0  0  0  0  0  0  0  0  0  0  0  0
   19.6719   -4.0477   18.4173 C   0  0  2  0  0  0  0  0  0  0  0  0
   18.2949   -4.4492   18.6696 O   0  0  0  0  0  0  0  0  0  0  0  0
   18.6803   -8.8565   16.9723 C   0  0  2  0  0  0  0  0  0  0  0  0
   18.8151   -8.6539   15.5380 O   0  0  0  0  0  0  0  0  0  0  0  0
   20.8293   -8.4024   12.0310 C   0  0  0  0  0  0  0  0  0  0  0  0
   20.5036   -9.5871   12.7727 O   0  0  0  0  0  0  0  0  0  0  0  0
   23.5275   -2.5925   13.9290 C   0  0  1  0  0  0  0  0  0  0  0  0
   22.3630   -3.4306   14.0908 O   0  0  0  0  0  0  0  0  0  0  0  0
   28.5430   -4.1656   14.3951 C   0  0  2  0  0  0  0  0  0  0  0  0
   27.7808   -4.2577   15.6085 O   0  0  0  0  0  0  0  0  0  0  0  0
   20.1308   -3.3591   19.6574 C   0  0  0  0  0  0  0  0  0  0  0  0
   20.3090   -4.3447   20.6458 O   0  0  0  0  0  0  0  0  0  0  0  0
   18.1144  -10.2715   17.3322 C   0  0  1  0  0  0  0  0  0  0  0  0
   19.0996  -11.2496   16.9056 O   0  0  0  0  0  0  0  0  0  0  0  0
   23.1463   -1.1258   14.2978 C   0  0  0  0  0  0  0  0  0  0  0  0
   24.1640   -0.4459   15.1265 N   0  0  0  0  0  0  0  0  0  0  0  0
   29.4192   -5.4101   14.2711 C   0  0  0  0  0  0  0  0  0  0  0  0
   29.4101   -5.8882   12.9000 O   0  0  0  0  0  0  0  0  0  0  0  0
  1  2  1  6  0  0  0
  1  8  1  0  0  0  0
  1 36  1  0  0  0  0
  3  4  1  6  0  0  0
  3 10  1  0  0  0  0
  3 47  1  0  0  0  0
  5 11  1  0  0  0  0
  5 30  1  0  0  0  0
  5 38  1  6  0  0  0
  6 21  1  1  0  0  0
  6 42  1  0  0  0  0
  7 15  1  0  0  0  0
  7 44  1  0  0  0  0
  7 32  1  6  0  0  0
  8  9  1  6  0  0  0
  8 17  1  0  0  0  0
 11 12  1  1  0  0  0
 11 20  1  0  0  0  0
 13  6  1  0  0  0  0
 13 14  1  1  0  0  0
 15 16  1  1  0  0  0
 15 24  1  0  0  0  0
 17 26  1  0  0  0  0
 18 10  1  0  0  0  0
 18 19  1  6  0  0  0
 20 21  1  1  0  0  0
 20 29  1  0  0  0  0
 22 13  1  0  0  0  0
 22 23  1  6  0  0  0
 24 25  1  1  0  0  0
 24 33  1  0  0  0  0
 26 27  1  6  0  0  0
 26 35  1  0  0  0  0
 28  2  1  1  0  0  0
 28 18  1  0  0  0  0
 29 30  1  0  0  0  0
 29 39  1  1  0  0  0
 31 22  1  0  0  0  0
 31 32  1  1  0  0  0
 31 41  1  0  0  0  0
 33 34  1  6  0  0  0
 33 43  1  0  0  0  0
 35 36  1  0  0  0  0
 35 45  1  1  0  0  0
 37 28  1  0  0  0  0
 37 38  1  6  0  0  0
 39 40  1  0  0  0  0
 41 42  1  0  0  0  0
 41 49  1  1  0  0  0
 43 44  1  0  0  0  0
 43 51  1  1  0  0  0
 45 46  1  0  0  0  0
 47 37  1  0  0  0  0
 47 48  1  1  0  0  0
 49 50  1  0  0  0  0
 51 52  1  0  0  0  0
M  END
>  <CHROM.1>
-119.28499594,73.54285677,-65.41722006,66.15848604,159.06890996,-69.60019548
68.60359531,77.82685580,-170.37976692,70.93808602,-21.28661649,-70.66325617
22.18052967,-5.38047105,15.68707713,2.86196773,-0.51487822,-2.67903796

>  <Name>
2esj_lig

>  <RI>
1.01272e+07

>  <Rbt.Current_Directory>
/home/itssahil/PROJECTS/Mol_Feturizer/New_Systems/rnas/2esj

>  <Rbt.Executable>
rbdock ($Id: //depot/dev/client3/rdock/2013.1/src/exe/rbdock.cxx#4 $)

>  <Rbt.Library>
libRbt.so (2013.1, Build901 2013/11/27)

>  <Rbt.Parameter_File>
/export/apps/rDock/src/rDock_2013.1_src/data/scripts/dock_solv.prm

>  <Rbt.Receptor>
prm/pocket_docking_3.prm

>  <SCORE>
-13.6066

>  <SCORE.INTER>
-9.76916

>  <SCORE.INTER.CONST>
1

>  <SCORE.INTER.POLAR>
-1.44125

>  <SCORE.INTER.ROT>
12

>  <SCORE.INTER.SOLV>
16.5738

>  <SCORE.INTER.VDW>
-18.8332

>  <SCORE.INTER.norm>
-0.187868

>  <SCORE.INTRA>
-4.24515

>  <SCORE.INTRA.DIHEDRAL>
-14.5935

>  <SCORE.INTRA.DIHEDRAL.0>
32.9766

>  <SCORE.INTRA.POLAR>
0

>  <SCORE.INTRA.POLAR.0>
0

>  <SCORE.INTRA.REPUL>
0

>  <SCORE.INTRA.REPUL.0>
0

>  <SCORE.INTRA.SOLV>
4.44686

>  <SCORE.INTRA.SOLV.lig_0>
-114.358

>  <SCORE.INTRA.VDW>
0.82816

>  <SCORE.INTRA.VDW.0>
-8.24257

>  <SCORE.INTRA.norm>
-0.0816375

>  <SCORE.RESTR>
0.407685

>  <SCORE.RESTR.CAVITY>
0.407685

>  <SCORE.RESTR.norm>
0.0078401

>  <SCORE.SYSTEM>
0

>  <SCORE.SYSTEM.CONST>
0

>  <SCORE.SYSTEM.DIHEDRAL>
0

>  <SCORE.SYSTEM.SOLV>
0

>  <SCORE.SYSTEM.norm>
0

>  <SCORE.heavy>
52

>  <SCORE.norm>
-0.261666

>  <RMSD>
3.963

$$$$
2esj_lig
 OpenBabel11021811423D
libRbt.so/2013.1/901 2013/11/27
 52 56  0  0  0  0  0  0  0  0999 V2000
   18.0539   -7.6997   19.2845 C   0  0  2  0  0  0  0  0  0  0  0  0
   18.6994   -7.9819   18.0281 O   0  0  0  0  0  0  0  0  0  0  0  0
   20.0689  -11.7582   16.5612 C   0  0  2  0  0  0  0  0  0  0  0  0
   20.1630  -13.1209   16.0120 N   0  0  0  0  0  0  0  0  0  0  0  0
   19.4445   -7.1443   14.8723 C   0  0  1  0  0  0  0  0  0  0  0  0
   22.5442   -4.9426   14.9200 C   0  0  1  0  0  0  0  0  0  0  0  0
   24.7222   -0.3994   15.6407 C   0  0  1  0  0  0  0  0  0  0  0  0
   17.3813   -6.3006   19.1620 C   0  0  2  0  0  0  0  0  0  0  0  0
   16.4453   -6.2329   18.0401 N   0  0  0  0  0  0  0  0  0  0  0  0
   19.1503  -11.7468   17.8470 C   0  0  0  0  0  0  0  0  0  0  0  0
   20.8488   -7.3720   14.3114 C   0  0  2  0  0  0  0  0  0  0  0  0
   21.8389   -7.5255   15.3515 O   0  0  0  0  0  0  0  0  0  0  0  0
   22.4611   -3.6362   15.8298 C   0  0  2  0  0  0  0  0  0  0  0  0
   21.9455   -2.4769   15.0545 N   0  0  0  0  0  0  0  0  0  0  0  0
   26.2222   -0.2653   15.4052 C   0  0  1  0  0  0  0  0  0  0  0  0
   26.5602    1.1314   15.2885 O   0  0  0  0  0  0  0  0  0  0  0  0
   18.4559   -5.1758   19.0244 C   0  0  0  0  0  0  0  0  0  0  0  0
   19.1091  -10.2878   18.4563 C   0  0  2  0  0  0  0  0  0  0  0  0
   18.2509  -10.2468   19.6449 N   0  0  0  0  0  0  0  0  0  0  0  0
   21.0157   -6.1334   13.4795 C   0  0  2  0  0  0  0  0  0  0  0  0
   21.2961   -5.0254   14.2969 O   0  0  0  0  0  0  0  0  0  0  0  0
   23.8719   -3.4034   16.5302 C   0  0  1  0  0  0  0  0  0  0  0  0
   24.2708   -4.6142   17.1809 O   0  0  0  0  0  0  0  0  0  0  0  0
   27.1078   -0.8750   16.4852 C   0  0  1  0  0  0  0  0  0  0  0  0
   28.4498   -0.4510   16.2215 O   0  0  0  0  0  0  0  0  0  0  0  0
   19.4525   -5.2836   20.2164 C   0  0  2  0  0  0  0  0  0  0  0  0
   20.4123   -4.2422   20.1964 O   0  0  0  0  0  0  0  0  0  0  0  0
   18.6112   -9.2722   17.3953 C   0  0  2  0  0  0  0  0  0  0  0  0
   19.6210   -5.8243   12.8972 C   0  0  2  0  0  0  0  0  0  0  0  0
   18.7616   -6.3377   13.9026 O   0  0  0  0  0  0  0  0  0  0  0  0
   25.0024   -3.0932   15.4648 C   0  0  2  0  0  0  0  0  0  0  0  0
   24.5901   -1.8659   14.8614 O   0  0  0  0  0  0  0  0  0  0  0  0
   26.7171   -0.4661   17.9065 C   0  0  2  0  0  0  0  0  0  0  0  0
   27.4188   -1.3450   18.8008 O   0  0  0  0  0  0  0  0  0  0  0  0
   20.1235   -6.6787   20.1665 C   0  0  2  0  0  0  0  0  0  0  0  0
   19.0687   -7.6717   20.3157 O   0  0  0  0  0  0  0  0  0  0  0  0
   19.4027   -9.3142   16.0489 C   0  0  2  0  0  0  0  0  0  0  0  0
   18.8072   -8.3806   15.1054 O   0  0  0  0  0  0  0  0  0  0  0  0
   19.2814   -6.4792   11.5588 C   0  0  0  0  0  0  0  0  0  0  0  0
   20.2017   -5.9699   10.5824 O   0  0  0  0  0  0  0  0  0  0  0  0
   24.8504   -4.1489   14.3865 C   0  0  1  0  0  0  0  0  0  0  0  0
   23.6656   -4.8189   13.9050 O   0  0  0  0  0  0  0  0  0  0  0  0
   25.2036   -0.4613   18.0909 C   0  0  2  0  0  0  0  0  0  0  0  0
   24.3206   -0.1350   17.0067 O   0  0  0  0  0  0  0  0  0  0  0  0
   21.0687   -6.9134   21.2952 C   0  0  0  0  0  0  0  0  0  0  0  0
   22.1386   -6.0120   21.1438 O   0  0  0  0  0  0  0  0  0  0  0  0
   19.4744  -10.7752   15.4899 C   0  0  1  0  0  0  0  0  0  0  0  0
   20.3815  -10.7573   14.3558 O   0  0  0  0  0  0  0  0  0  0  0  0
   25.9189   -4.1388   13.2503 C   0  0  0  0  0  0  0  0  0  0  0  0
   27.2247   -4.6910   13.6683 N   0  0  0  0  0  0  0  0  0  0  0  0
   24.5259   -0.0828   19.4059 C   0  0  0  0  0  0  0  0  0  0  0  0
   24.8182   -1.0807   20.4195 O   0  0  0  0  0  0  0  0  0  0  0  0
  1  2  1  6  0  0  0
  1  8  1  0  0  0  0
  1 36  1  0  0  0  0
  3  4  1  6  0  0  0
  3 10  1  0  0  0  0
  3 47  1  0  0  0  0
  5 11  1  0  0  0  0
  5 30  1  0  0  0  0
  5 38  1  6  0  0  0
  6 21  1  6  0  0  0
  6 42  1  0  0  0  0
  7 15  1  0  0  0  0
  7 44  1  0  0  0  0
  7 32  1  1  0  0  0
  8  9  1  6  0  0  0
  8 17  1  0  0  0  0
 11 12  1  1  0  0  0
 11 20  1  0  0  0  0
 13  6  1  0  0  0  0
 13 14  1  6  0  0  0
 15 16  1  1  0  0  0
 15 24  1  0  0  0  0
 17 26  1  0  0  0  0
 18 10  1  0  0  0  0
 18 19  1  1  0  0  0
 20 21  1  1  0  0  0
 20 29  1  0  0  0  0
 22 13  1  0  0  0  0
 22 23  1  6  0  0  0
 24 25  1  6  0  0  0
 24 33  1  0  0  0  0
 26 27  1  6  0  0  0
 26 35  1  0  0  0  0
 28  2  1  1  0  0  0
 28 18  1  0  0  0  0
 29 30  1  0  0  0  0
 29 39  1  6  0  0  0
 31 22  1  0  0  0  0
 31 32  1  6  0  0  0
 31 41  1  0  0  0  0
 33 34  1  1  0  0  0
 33 43  1  0  0  0  0
 35 36  1  0  0  0  0
 35 45  1  1  0  0  0
 37 28  1  0  0  0  0
 37 38  1  6  0  0  0
 39 40  1  0  0  0  0
 41 42  1  0  0  0  0
 41 49  1  6  0  0  0
 43 44  1  0  0  0  0
 43 51  1  1  0  0  0
 45 46  1  0  0  0  0
 47 37  1  0  0  0  0
 47 48  1  6  0  0  0
 49 50  1  0  0  0  0
 51 52  1  0  0  0  0
M  END
>  <CHROM.1>
-136.31309785,60.76898887,-176.01124440,77.10733025,70.86266980,-55.17925090
-63.10558666,74.56918958,-65.66315321,103.02745525,75.48897478,-67.31775214
21.94611138,-5.34381281,16.55288954,2.97708869,-0.85167949,-1.85243480

>  <Name>
2esj_lig

>  <RI>
0

>  <Rbt.Current_Directory>
/home/itssahil/PROJECTS/Mol_Feturizer/New_Systems/rnas/2esj

>  <Rbt.Executable>
rbdock ($Id: //depot/dev/client3/rdock/2013.1/src/exe/rbdock.cxx#4 $)

>  <Rbt.Library>
libRbt.so (2013.1, Build901 2013/11/27)

>  <Rbt.Parameter_File>
/export/apps/rDock/src/rDock_2013.1_src/data/scripts/dock_solv.prm

>  <Rbt.Receptor>
prm/pocket_docking_6.prm

>  <SCORE>
-10.7717

>  <SCORE.INTER>
-7.62007

>  <SCORE.INTER.CONST>
1

>  <SCORE.INTER.POLAR>
-1.94923

>  <SCORE.INTER.ROT>
12

>  <SCORE.INTER.SOLV>
16.1867

>  <SCORE.INTER.VDW>
-15.5782

>  <SCORE.INTER.norm>
-0.14654

>  <SCORE.INTRA>
-3.15166

>  <SCORE.INTRA.DIHEDRAL>
-13.0153

>  <SCORE.INTRA.DIHEDRAL.0>
32.9766

>  <SCORE.INTRA.POLAR>
0

>  <SCORE.INTRA.POLAR.0>
0

>  <SCORE.INTRA.REPUL>
0

>  <SCORE.INTRA.REPUL.0>
0

>  <SCORE.INTRA.SOLV>
-1.59378

>  <SCORE.INTRA.SOLV.lig_0>
-114.358

>  <SCORE.INTRA.VDW>
4.15289

>  <SCORE.INTRA.VDW.0>
-8.24257

>  <SCORE.INTRA.norm>
-0.0606088

>  <SCORE.RESTR>
0

>  <SCORE.RESTR.CAVITY>
0

>  <SCORE.RESTR.norm>
0

>  <SCORE.SYSTEM>
0

>  <SCORE.SYSTEM.CONST>
0

>  <SCORE.SYSTEM.DIHEDRAL>
0

>  <SCORE.SYSTEM.SOLV>
0

>  <SCORE.SYSTEM.norm>
0

>  <SCORE.heavy>
52

>  <SCORE.norm>
-0.207149

>  <RMSD>
3.971

$$$$
2esj_lig
 OpenBabel11021811423D
libRbt.so/2013.1/901 2013/11/27
 52 56  0  0  0  0  0  0  0  0999 V2000
   17.7759   -5.3993   17.6877 C   0  0  2  0  0  0  0  0  0  0  0  0
   18.6871   -6.4594   17.3403 O   0  0  0  0  0  0  0  0  0  0  0  0
   18.8341  -10.7332   17.3772 C   0  0  2  0  0  0  0  0  0  0  0  0
   18.5183  -12.1676   17.2774 N   0  0  0  0  0  0  0  0  0  0  0  0
   19.9977   -6.8963   14.4184 C   0  0  1  0  0  0  0  0  0  0  0  0
   23.7465   -5.3486   13.4419 C   0  0  1  0  0  0  0  0  0  0  0  0
   25.8494   -1.0531   14.7842 C   0  0  1  0  0  0  0  0  0  0  0  0
   17.6103   -4.4934   16.4319 C   0  0  2  0  0  0  0  0  0  0  0  0
   17.1532   -5.2452   15.2636 N   0  0  0  0  0  0  0  0  0  0  0  0
   17.8182  -10.0138   18.3509 C   0  0  0  0  0  0  0  0  0  0  0  0
   21.2144   -7.5749   13.7877 C   0  0  2  0  0  0  0  0  0  0  0  0
   22.1847   -7.9914   14.7729 O   0  0  0  0  0  0  0  0  0  0  0  0
   24.2155   -4.4656   14.6835 C   0  0  2  0  0  0  0  0  0  0  0  0
   23.3628   -3.2566   14.8320 N   0  0  0  0  0  0  0  0  0  0  0  0
   27.2154   -0.6968   14.2091 C   0  0  1  0  0  0  0  0  0  0  0  0
   27.5642    0.6427   14.6123 O   0  0  0  0  0  0  0  0  0  0  0  0
   18.9451   -3.7546   16.0978 C   0  0  0  0  0  0  0  0  0  0  0  0
   18.2089   -8.4877   18.4916 C   0  0  2  0  0  0  0  0  0  0  0  0
   17.2722   -7.7930   19.3809 N   0  0  0  0  0  0  0  0  0  0  0  0
   21.6932   -6.4844   12.8736 C   0  0  2  0  0  0  0  0  0  0  0  0
   22.3658   -5.4900   13.6037 O   0  0  0  0  0  0  0  0  0  0  0  0
   25.7757   -4.1765   14.5524 C   0  0  1  0  0  0  0  0  0  0  0  0
   26.4609   -5.4171   14.3520 O   0  0  0  0  0  0  0  0  0  0  0  0
   28.3551   -1.6227   14.6166 C   0  0  1  0  0  0  0  0  0  0  0  0
   29.5746   -1.0074   14.1874 O   0  0  0  0  0  0  0  0  0  0  0  0
   19.4225   -2.9816   17.3628 C   0  0  2  0  0  0  0  0  0  0  0  0
   20.5916   -2.2239   17.1071 O   0  0  0  0  0  0  0  0  0  0  0  0
   18.2381   -7.8060   17.0990 C   0  0  2  0  0  0  0  0  0  0  0  0
   20.4230   -5.7756   12.3598 C   0  0  2  0  0  0  0  0  0  0  0  0
   19.5266   -5.9540   13.4450 O   0  0  0  0  0  0  0  0  0  0  0  0
   26.0954   -3.2956   13.2752 C   0  0  2  0  0  0  0  0  0  0  0  0
   25.4266   -2.0583   13.5247 O   0  0  0  0  0  0  0  0  0  0  0  0
   28.4243   -1.8899   16.1212 C   0  0  2  0  0  0  0  0  0  0  0  0
   29.3214   -2.9969   16.3071 O   0  0  0  0  0  0  0  0  0  0  0  0
   19.6442   -4.0044   18.5047 C   0  0  2  0  0  0  0  0  0  0  0  0
   18.3612   -4.6397   18.7715 O   0  0  0  0  0  0  0  0  0  0  0  0
   19.1331   -8.5372   16.0477 C   0  0  2  0  0  0  0  0  0  0  0  0
   19.0278   -7.8600   14.7644 O   0  0  0  0  0  0  0  0  0  0  0  0
   19.7950   -6.3418   11.0867 C   0  0  0  0  0  0  0  0  0  0  0  0
   18.5323   -5.6861   10.8990 O   0  0  0  0  0  0  0  0  0  0  0  0
   25.3403   -3.9436   12.1307 C   0  0  1  0  0  0  0  0  0  0  0  0
   24.0854   -4.6576   12.1339 O   0  0  0  0  0  0  0  0  0  0  0  0
   27.0365   -2.1006   16.7163 C   0  0  2  0  0  0  0  0  0  0  0  0
   25.8855   -1.4282   16.1825 O   0  0  0  0  0  0  0  0  0  0  0  0
   20.0597   -3.3678   19.7871 C   0  0  0  0  0  0  0  0  0  0  0  0
   20.3282   -4.4013   20.7035 O   0  0  0  0  0  0  0  0  0  0  0  0
   18.7635  -10.0565   15.9614 C   0  0  1  0  0  0  0  0  0  0  0  0
   19.7592  -10.6936   15.1177 O   0  0  0  0  0  0  0  0  0  0  0  0
   25.5650   -3.3286   10.7150 C   0  0  0  0  0  0  0  0  0  0  0  0
   24.9079   -2.0171   10.5343 N   0  0  0  0  0  0  0  0  0  0  0  0
   26.7991   -2.3762   18.1993 C   0  0  0  0  0  0  0  0  0  0  0  0
   27.5402   -3.5558   18.6092 O   0  0  0  0  0  0  0  0  0  0  0  0
  1  2  1  6  0  0  0
  1  8  1  0  0  0  0
  1 36  1  0  0  0  0
  3  4  1  6  0  0  0
  3 10  1  0  0  0  0
  3 47  1  0  0  0  0
  5 11  1  0  0  0  0
  5 30  1  0  0  0  0
  5 38  1  6  0  0  0
  6 21  1  1  0  0  0
  6 42  1  0  0  0  0
  7 15  1  0  0  0  0
  7 44  1  0  0  0  0
  7 32  1  6  0  0  0
  8  9  1  6  0  0  0
  8 17  1  0  0  0  0
 11 12  1  1  0  0  0
 11 20  1  0  0  0  0
 13  6  1  0  0  0  0
 13 14  1  6  0  0  0
 15 16  1  1  0  0  0
 15 24  1  0  0  0  0
 17 26  1  0  0  0  0
 18 10  1  0  0  0  0
 18 19  1  1  0  0  0
 20 21  1  1  0  0  0
 20 29  1  0  0  0  0
 22 13  1  0  0  0  0
 22 23  1  6  0  0  0
 24 25  1  1  0  0  0
 24 33  1  0  0  0  0
 26 27  1  6  0  0  0
 26 35  1  0  0  0  0
 28  2  1  1  0  0  0
 28 18  1  0  0  0  0
 29 30  1  0  0  0  0
 29 39  1  6  0  0  0
 31 22  1  0  0  0  0
 31 32  1  1  0  0  0
 31 41  1  0  0  0  0
 33 34  1  6  0  0  0
 33 43  1  0  0  0  0
 35 36  1  0  0  0  0
 35 45  1  1  0  0  0
 37 28  1  0  0  0  0
 37 38  1  6  0  0  0
 39 40  1  0  0  0  0
 41 42  1  0  0  0  0
 41 49  1  6  0  0  0
 43 44  1  0  0  0  0
 43 51  1  1  0  0  0
 45 46  1  0  0  0  0
 47 37  1  0  0  0  0
 47 48  1  6  0  0  0
 49 50  1  0  0  0  0
 51 52  1  0  0  0  0
M  END
>  <CHROM.1>
-105.49695456,85.27162345,-164.11711005,67.08845757,110.68375578,-86.72983591
171.24819391,64.30515308,-175.46851305,95.37986076,-72.87922725,-57.05697621
22.31482464,-4.96237607,15.40145155,-3.12889435,-0.61611485,-1.89131156

>  <Name>
2esj_lig

>  <RI>
1.01272e+07

>  <Rbt.Current_Directory>
/home/itssahil/PROJECTS/Mol_Feturizer/New_Systems/rnas/2esj

>  <Rbt.Executable>
rbdock ($Id: //depot/dev/client3/rdock/2013.1/src/exe/rbdock.cxx#4 $)

>  <Rbt.Library>
libRbt.so (2013.1, Build901 2013/11/27)

>  <Rbt.Parameter_File>
/export/apps/rDock/src/rDock_2013.1_src/data/scripts/dock_solv.prm

>  <Rbt.Receptor>
prm/pocket_docking_3.prm

>  <SCORE>
-8.04876

>  <SCORE.INTER>
-7.88433

>  <SCORE.INTER.CONST>
1

>  <SCORE.INTER.POLAR>
-1.05982

>  <SCORE.INTER.ROT>
12

>  <SCORE.INTER.SOLV>
12.1627

>  <SCORE.INTER.VDW>
-17.3777

>  <SCORE.INTER.norm>
-0.151622

>  <SCORE.INTRA>
-0.165446

>  <SCORE.INTRA.DIHEDRAL>
-3.03098

>  <SCORE.INTRA.DIHEDRAL.0>
32.9766

>  <SCORE.INTRA.POLAR>
0

>  <SCORE.INTRA.POLAR.0>
0

>  <SCORE.INTRA.REPUL>
0.0738153

>  <SCORE.INTRA.REPUL.0>
0

>  <SCORE.INTRA.SOLV>
1.93625

>  <SCORE.INTRA.SOLV.lig_0>
-114.358

>  <SCORE.INTRA.VDW>
0.012845

>  <SCORE.INTRA.VDW.0>
-8.24257

>  <SCORE.INTRA.norm>
-0.00318165

>  <SCORE.RESTR>
0.00101328

>  <SCORE.RESTR.CAVITY>
0.00101328

>  <SCORE.RESTR.norm>
1.94862e-05

>  <SCORE.SYSTEM>
0

>  <SCORE.SYSTEM.CONST>
0

>  <SCORE.SYSTEM.DIHEDRAL>
0

>  <SCORE.SYSTEM.SOLV>
0

>  <SCORE.SYSTEM.norm>
0

>  <SCORE.heavy>
52

>  <SCORE.norm>
-0.154784

>  <RMSD>
3.994

$$$$
2esj_lig
 OpenBabel11021811423D
libRbt.so/2013.1/901 2013/11/27
 52 56  0  0  0  0  0  0  0  0999 V2000
   18.9266   -4.6978   18.7228 C   0  0  2  0  0  0  0  0  0  0  0  0
   19.8990   -5.5865   18.1400 O   0  0  0  0  0  0  0  0  0  0  0  0
   20.9746   -9.7122   18.4710 C   0  0  2  0  0  0  0  0  0  0  0  0
   20.9640  -11.1817   18.5581 N   0  0  0  0  0  0  0  0  0  0  0  0
   20.6656   -6.1631   15.0037 C   0  0  1  0  0  0  0  0  0  0  0  0
   23.0996   -3.6569   12.6423 C   0  0  1  0  0  0  0  0  0  0  0  0
   27.6348   -1.8373   13.4524 C   0  0  1  0  0  0  0  0  0  0  0  0
   17.6247   -4.8071   17.8754 C   0  0  2  0  0  0  0  0  0  0  0  0
   17.1299   -6.1812   17.7958 N   0  0  0  0  0  0  0  0  0  0  0  0
   20.0556   -9.0889   19.5955 C   0  0  0  0  0  0  0  0  0  0  0  0
   21.9477   -6.6978   14.3644 C   0  0  2  0  0  0  0  0  0  0  0  0
   23.0715   -6.6611   15.2705 O   0  0  0  0  0  0  0  0  0  0  0  0
   24.6578   -3.9930   12.6304 C   0  0  2  0  0  0  0  0  0  0  0  0
   25.2117   -4.0087   14.0102 N   0  0  0  0  0  0  0  0  0  0  0  0
   27.7135   -1.6438   14.9623 C   0  0  1  0  0  0  0  0  0  0  0  0
   28.7249   -2.5192   15.4999 O   0  0  0  0  0  0  0  0  0  0  0  0
   17.8463   -4.2393   16.4375 C   0  0  0  0  0  0  0  0  0  0  0  0
   20.1264   -7.5105   19.5237 C   0  0  2  0  0  0  0  0  0  0  0  0
   19.2703   -6.9064   20.5498 N   0  0  0  0  0  0  0  0  0  0  0  0
   22.0736   -5.7732   13.1883 C   0  0  2  0  0  0  0  0  0  0  0  0
   22.5544   -4.5181   13.5982 O   0  0  0  0  0  0  0  0  0  0  0  0
   25.3924   -3.0041   11.6218 C   0  0  1  0  0  0  0  0  0  0  0  0
   24.7176   -3.0447   10.3601 O   0  0  0  0  0  0  0  0  0  0  0  0
   28.0269   -0.2248   15.4214 C   0  0  1  0  0  0  0  0  0  0  0  0
   28.2932   -0.2836   16.8270 O   0  0  0  0  0  0  0  0  0  0  0  0
   18.3944   -2.7858   16.5495 C   0  0  2  0  0  0  0  0  0  0  0  0
   18.5461   -2.1807   15.2779 O   0  0  0  0  0  0  0  0  0  0  0  0
   19.7124   -7.0139   18.1140 C   0  0  2  0  0  0  0  0  0  0  0  0
   20.6321   -5.4861   12.7201 C   0  0  2  0  0  0  0  0  0  0  0  0
   19.9019   -5.5926   13.9319 O   0  0  0  0  0  0  0  0  0  0  0  0
   25.2980   -1.5012   12.1135 C   0  0  2  0  0  0  0  0  0  0  0  0
   26.0083   -1.4912   13.3528 O   0  0  0  0  0  0  0  0  0  0  0  0
   29.2227    0.4050   14.7048 C   0  0  2  0  0  0  0  0  0  0  0  0
   29.1962    1.8098   15.0056 O   0  0  0  0  0  0  0  0  0  0  0  0
   19.7349   -2.8284   17.3245 C   0  0  2  0  0  0  0  0  0  0  0  0
   19.4497   -3.3504   18.6538 O   0  0  0  0  0  0  0  0  0  0  0  0
   20.5025   -7.6818   16.9432 C   0  0  2  0  0  0  0  0  0  0  0  0
   19.9845   -7.2022   15.6712 O   0  0  0  0  0  0  0  0  0  0  0  0
   20.0458   -6.4509   11.6898 C   0  0  0  0  0  0  0  0  0  0  0  0
   19.1435   -7.3264   12.3818 O   0  0  0  0  0  0  0  0  0  0  0  0
   23.8422   -1.2791   12.4761 C   0  0  1  0  0  0  0  0  0  0  0  0
   22.8674   -2.2022   13.0072 O   0  0  0  0  0  0  0  0  0  0  0  0
   29.2151    0.0824   13.2147 C   0  0  2  0  0  0  0  0  0  0  0  0
   28.6844   -1.1575   12.7221 O   0  0  0  0  0  0  0  0  0  0  0  0
   20.3316   -1.4785   17.5346 C   0  0  0  0  0  0  0  0  0  0  0  0
   21.6059   -1.6642   18.1018 O   0  0  0  0  0  0  0  0  0  0  0  0
   20.4619   -9.2426   17.0624 C   0  0  1  0  0  0  0  0  0  0  0  0
   21.3712   -9.7738   16.0623 O   0  0  0  0  0  0  0  0  0  0  0  0
   23.4459    0.1689   12.8993 C   0  0  0  0  0  0  0  0  0  0  0  0
   24.6012    1.0006   13.2971 N   0  0  0  0  0  0  0  0  0  0  0  0
   30.2943    0.5708   12.2512 C   0  0  0  0  0  0  0  0  0  0  0  0
   31.4374   -0.3239   12.2923 O   0  0  0  0  0  0  0  0  0  0  0  0
  1  2  1  6  0  0  0
  1  8  1  0  0  0  0
  1 36  1  0  0  0  0
  3  4  1  6  0  0  0
  3 10  1  0  0  0  0
  3 47  1  0  0  0  0
  5 11  1  0  0  0  0
  5 30  1  0  0  0  0
  5 38  1  6  0  0  0
  6 21  1  1  0  0  0
  6 42  1  0  0  0  0
  7 15  1  0  0  0  0
  7 44  1  0  0  0  0
  7 32  1  6  0  0  0
  8  9  1  6  0  0  0
  8 17  1  0  0  0  0
 11 12  1  1  0  0  0
 11 20  1  0  0  0  0
 13  6  1  0  0  0  0
 13 14  1  1  0  0  0
 15 16  1  6  0  0  0
 15 24  1  0  0  0  0
 17 26  1  0  0  0  0
 18 10  1  0  0  0  0
 18 19  1  1  0  0  0
 20 21  1  1  0  0  0
 20 29  1  0  0  0  0
 22 13  1  0  0  0  0
 22 23  1  6  0  0  0
 24 25  1  1  0  0  0
 24 33  1  0  0  0  0
 26 27  1  6  0  0  0
 26 35  1  0  0  0  0
 28  2  1  1  0  0  0
 28 18  1  0  0  0  0
 29 30  1  0  0  0  0
 29 39  1  6  0  0  0
 31 22  1  0  0  0  0
 31 32  1  1  0  0  0
 31 41  1  0  0  0  0
 33 34  1  6  0  0  0
 33 43  1  0  0  0  0
 35 36  1  0  0  0  0
 35 45  1  1  0  0  0
 37 28  1  0  0  0  0
 37 38  1  6  0  0  0
 39 40  1  0  0  0  0
 41 42  1  0  0  0  0
 41 49  1  1  0  0  0
 43 44  1  0  0  0  0
 43 51  1  1  0  0  0
 45 46  1  0  0  0  0
 47 37  1  0  0  0  0
 47 48  1  6  0  0  0
 49 50  1  0  0  0  0
 51 52  1  0  0  0  0
M  END
>  <CHROM.1>
-64.51212467,74.77732274,-91.33211549,179.72711123,161.81427865,-80.71900232
103.09875364,63.21691269,-173.20724949,98.50558011,-18.42655472,83.62294129
22.93155023,-3.96759863,15.17077981,3.04895306,-0.71281049,-2.25501996

>  <Name>
2esj_lig

>  <RI>
0

>  <Rbt.Current_Directory>
/home/itssahil/PROJECTS/Mol_Feturizer/New_Systems/rnas/2esj

>  <Rbt.Executable>
rbdock ($Id: //depot/dev/client3/rdock/2013.1/src/exe/rbdock.cxx#4 $)

>  <Rbt.Library>
libRbt.so (2013.1, Build901 2013/11/27)

>  <Rbt.Parameter_File>
/export/apps/rDock/src/rDock_2013.1_src/data/scripts/dock_solv.prm

>  <Rbt.Receptor>
prm/pocket_docking_4.prm

>  <SCORE>
-5.30961

>  <SCORE.INTER>
-4.73468

>  <SCORE.INTER.CONST>
1

>  <SCORE.INTER.POLAR>
-1.38169

>  <SCORE.INTER.ROT>
12

>  <SCORE.INTER.SOLV>
9.28568

>  <SCORE.INTER.VDW>
-13.246

>  <SCORE.INTER.norm>
-0.0910516

>  <SCORE.INTRA>
-0.574925

>  <SCORE.INTRA.DIHEDRAL>
-9.41013

>  <SCORE.INTRA.DIHEDRAL.0>
32.9766

>  <SCORE.INTRA.POLAR>
0

>  <SCORE.INTRA.POLAR.0>
0

>  <SCORE.INTRA.REPUL>
0

>  <SCORE.INTRA.REPUL.0>
0

>  <SCORE.INTRA.SOLV>
3.23144

>  <SCORE.INTRA.SOLV.lig_0>
-114.358

>  <SCORE.INTRA.VDW>
2.51442

>  <SCORE.INTRA.VDW.0>
-8.24257

>  <SCORE.INTRA.norm>
-0.0110563

>  <SCORE.RESTR>
0

>  <SCORE.RESTR.CAVITY>
0

>  <SCORE.RESTR.norm>
0

>  <SCORE.SYSTEM>
0

>  <SCORE.SYSTEM.CONST>
0

>  <SCORE.SYSTEM.DIHEDRAL>
0

>  <SCORE.SYSTEM.SOLV>
0

>  <SCORE.SYSTEM.norm>
0

>  <SCORE.heavy>
52

>  <SCORE.norm>
-0.102108

>  <RMSD>
4.015

$$$$
2esj_lig
 OpenBabel11021811423D
libRbt.so/2013.1/901 2013/11/27
 52 56  0  0  0  0  0  0  0  0999 V2000
   18.1415   -6.8761   17.0423 C   0  0  2  0  0  0  0  0  0  0  0  0
   19.3033   -7.5243   17.5944 O   0  0  0  0  0  0  0  0  0  0  0  0
   21.0760  -11.3782   18.1359 C   0  0  2  0  0  0  0  0  0  0  0  0
   21.4685  -12.7921   18.0170 N   0  0  0  0  0  0  0  0  0  0  0  0
   22.8027   -7.6302   15.8197 C   0  0  1  0  0  0  0  0  0  0  0  0
   26.4910   -5.7832   14.7781 C   0  0  1  0  0  0  0  0  0  0  0  0
   26.8110   -1.0508   16.4595 C   0  0  1  0  0  0  0  0  0  0  0  0
   18.3959   -5.3404   17.0873 C   0  0  2  0  0  0  0  0  0  0  0  0
   19.6196   -4.9613   16.3816 N   0  0  0  0  0  0  0  0  0  0  0  0
   19.5065  -11.2537   18.2728 C   0  0  0  0  0  0  0  0  0  0  0  0
   23.3448   -7.5647   14.3913 C   0  0  2  0  0  0  0  0  0  0  0  0
   24.1075   -8.7388   14.0375 O   0  0  0  0  0  0  0  0  0  0  0  0
   27.2657   -5.5308   16.1483 C   0  0  2  0  0  0  0  0  0  0  0  0
   26.3433   -5.0227   17.1980 N   0  0  0  0  0  0  0  0  0  0  0  0
   28.1736   -0.4202   16.7224 C   0  0  1  0  0  0  0  0  0  0  0  0
   28.2252    0.8756   16.0926 O   0  0  0  0  0  0  0  0  0  0  0  0
   18.4537   -4.8281   18.5616 C   0  0  0  0  0  0  0  0  0  0  0  0
   19.1093   -9.7341   18.4588 C   0  0  2  0  0  0  0  0  0  0  0  0
   17.6545   -9.5895   18.5749 N   0  0  0  0  0  0  0  0  0  0  0  0
   24.1542   -6.3023   14.4631 C   0  0  2  0  0  0  0  0  0  0  0  0
   25.3668   -6.5326   15.1346 O   0  0  0  0  0  0  0  0  0  0  0  0
   28.5332   -4.6103   15.8637 C   0  0  1  0  0  0  0  0  0  0  0  0
   29.2915   -5.1850   14.7943 O   0  0  0  0  0  0  0  0  0  0  0  0
   28.5369   -0.2440   18.1918 C   0  0  1  0  0  0  0  0  0  0  0  0
   29.7178    0.5642   18.2421 O   0  0  0  0  0  0  0  0  0  0  0  0
   17.1519   -5.2640   19.2970 C   0  0  2  0  0  0  0  0  0  0  0  0
   17.1030   -4.7647   20.6216 O   0  0  0  0  0  0  0  0  0  0  0  0
   19.6437   -8.8864   17.2752 C   0  0  2  0  0  0  0  0  0  0  0  0
   23.3799   -5.3567   15.4044 C   0  0  2  0  0  0  0  0  0  0  0  0
   22.7339   -6.2719   16.2751 O   0  0  0  0  0  0  0  0  0  0  0  0
   28.1019   -3.1710   15.3622 C   0  0  2  0  0  0  0  0  0  0  0  0
   27.3798   -2.6166   16.4629 O   0  0  0  0  0  0  0  0  0  0  0  0
   27.4358    0.4151   19.0244 C   0  0  2  0  0  0  0  0  0  0  0  0
   27.7880    0.2271   20.4047 O   0  0  0  0  0  0  0  0  0  0  0  0
   17.0691   -6.8103   19.2670 C   0  0  2  0  0  0  0  0  0  0  0  0
   17.0026   -7.2129   17.8689 O   0  0  0  0  0  0  0  0  0  0  0  0
   21.1736   -9.0553   17.0072 C   0  0  2  0  0  0  0  0  0  0  0  0
   21.5506   -8.2792   15.8358 O   0  0  0  0  0  0  0  0  0  0  0  0
   22.3333   -4.4539   14.7524 C   0  0  0  0  0  0  0  0  0  0  0  0
   23.0215   -3.5763   13.8492 O   0  0  0  0  0  0  0  0  0  0  0  0
   27.0707   -3.4073   14.2755 C   0  0  1  0  0  0  0  0  0  0  0  0
   26.1000   -4.4665   14.1326 O   0  0  0  0  0  0  0  0  0  0  0  0
   26.0572   -0.1178   18.6506 C   0  0  2  0  0  0  0  0  0  0  0  0
   25.7574   -0.5381   17.3107 O   0  0  0  0  0  0  0  0  0  0  0  0
   15.8309   -7.3419   19.9049 C   0  0  0  0  0  0  0  0  0  0  0  0
   14.7510   -7.0216   19.0615 O   0  0  0  0  0  0  0  0  0  0  0  0
   21.5528  -10.5690   16.8768 C   0  0  1  0  0  0  0  0  0  0  0  0
   23.0022  -10.6460   16.8258 O   0  0  0  0  0  0  0  0  0  0  0  0
   26.5474   -2.1419   13.5287 C   0  0  0  0  0  0  0  0  0  0  0  0
   26.8020   -2.1728   12.0730 N   0  0  0  0  0  0  0  0  0  0  0  0
   24.7691    0.3675   19.3117 C   0  0  0  0  0  0  0  0  0  0  0  0
   24.8766    0.2468   20.7548 O   0  0  0  0  0  0  0  0  0  0  0  0
  1  2  1  1  0  0  0
  1  8  1  0  0  0  0
  1 36  1  0  0  0  0
  3  4  1  6  0  0  0
  3 10  1  0  0  0  0
  3 47  1  0  0  0  0
  5 11  1  0  0  0  0
  5 30  1  0  0  0  0
  5 38  1  6  0  0  0
  6 21  1  1  0  0  0
  6 42  1  0  0  0  0
  7 15  1  0  0  0  0
  7 44  1  0  0  0  0
  7 32  1  1  0  0  0
  8  9  1  1  0  0  0
  8 17  1  0  0  0  0
 11 12  1  1  0  0  0
 11 20  1  0  0  0  0
 13  6  1  0  0  0  0
 13 14  1  1  0  0  0
 15 16  1  6  0  0  0
 15 24  1  0  0  0  0
 17 26  1  0  0  0  0
 18 10  1  0  0  0  0
 18 19  1  6  0  0  0
 20 21  1  1  0  0  0
 20 29  1  0  0  0  0
 22 13  1  0  0  0  0
 22 23  1  6  0  0  0
 24 25  1  6  0  0  0
 24 33  1  0  0  0  0
 26 27  1  1  0  0  0
 26 35  1  0  0  0  0
 28  2  1  1  0  0  0
 28 18  1  0  0  0  0
 29 30  1  0  0  0  0
 29 39  1  6  0  0  0
 31 22  1  0  0  0  0
 31 32  1  1  0  0  0
 31 41  1  0  0  0  0
 33 34  1  1  0  0  0
 33 43  1  0  0  0  0
 35 36  1  0  0  0  0
 35 45  1  1  0  0  0
 37 28  1  0  0  0  0
 37 38  1  6  0  0  0
 39 40  1  0  0  0  0
 41 42  1  0  0  0  0
 41 49  1  1  0  0  0
 43 44  1  0  0  0  0
 43 51  1  6  0  0  0
 45 46  1  0  0  0  0
 47 37  1  0  0  0  0
 47 48  1  1  0  0  0
 49 50  1  0  0  0  0
 51 52  1  0  0  0  0
M  END
>  <CHROM.1>
-156.49316562,148.43858596,143.52265995,-76.02750647,149.06427154,-98.37736857
-63.25351223,175.37988518,70.56131776,143.13771551,120.34546001,-53.57015363
23.24261345,-5.15941654,16.88922231,2.61382099,-0.43824351,-2.70285924

>  <Name>
2esj_lig

>  <RI>
0

>  <Rbt.Current_Directory>
/home/itssahil/PROJECTS/Mol_Feturizer/New_Systems/rnas/2esj

>  <Rbt.Executable>
rbdock ($Id: //depot/dev/client3/rdock/2013.1/src/exe/rbdock.cxx#4 $)

>  <Rbt.Library>
libRbt.so (2013.1, Build901 2013/11/27)

>  <Rbt.Parameter_File>
/export/apps/rDock/src/rDock_2013.1_src/data/scripts/dock_solv.prm

>  <Rbt.Receptor>
prm/pocket_docking_6.prm

>  <SCORE>
-6.38567

>  <SCORE.INTER>
-9.30864

>  <SCORE.INTER.CONST>
1

>  <SCORE.INTER.POLAR>
-1.53755

>  <SCORE.INTER.ROT>
12

>  <SCORE.INTER.SOLV>
9.00863

>  <SCORE.INTER.VDW>
-15.6835

>  <SCORE.INTER.norm>
-0.179012

>  <SCORE.INTRA>
2.92297

>  <SCORE.INTRA.DIHEDRAL>
-1.34104

>  <SCORE.INTRA.DIHEDRAL.0>
32.9766

>  <SCORE.INTRA.POLAR>
0

>  <SCORE.INTRA.POLAR.0>
0

>  <SCORE.INTRA.REPUL>
0.0551518

>  <SCORE.INTRA.REPUL.0>
0

>  <SCORE.INTRA.SOLV>
2.34686

>  <SCORE.INTRA.SOLV.lig_0>
-114.358

>  <SCORE.INTRA.VDW>
2.1443

>  <SCORE.INTRA.VDW.0>
-8.24257

>  <SCORE.INTRA.norm>
0.0562109

>  <SCORE.RESTR>
0

>  <SCORE.RESTR.CAVITY>
0

>  <SCORE.RESTR.norm>
0

>  <SCORE.SYSTEM>
0

>  <SCORE.SYSTEM.CONST>
0

>  <SCORE.SYSTEM.DIHEDRAL>
0

>  <SCORE.SYSTEM.SOLV>
0

>  <SCORE.SYSTEM.norm>
0

>  <SCORE.heavy>
52

>  <SCORE.norm>
-0.122801

>  <RMSD>
4.048

$$$$
2esj_lig
 OpenBabel11021811423D
libRbt.so/2013.1/901 2013/11/27
 52 56  0  0  0  0  0  0  0  0999 V2000
   18.4014   -9.6823   16.8161 C   0  0  2  0  0  0  0  0  0  0  0  0
   19.3999   -8.8013   17.3654 O   0  0  0  0  0  0  0  0  0  0  0  0
   17.3760   -6.2739   20.1590 C   0  0  2  0  0  0  0  0  0  0  0  0
   16.9412   -5.1478   21.0018 N   0  0  0  0  0  0  0  0  0  0  0  0
   18.5320   -6.2560   15.6328 C   0  0  1  0  0  0  0  0  0  0  0  0
   21.0726   -4.0405   13.0383 C   0  0  1  0  0  0  0  0  0  0  0  0
   26.3924   -4.0627   13.4890 C   0  0  1  0  0  0  0  0  0  0  0  0
   17.8286  -10.5309   17.9894 C   0  0  2  0  0  0  0  0  0  0  0  0
   17.2897   -9.6973   19.0636 N   0  0  0  0  0  0  0  0  0  0  0  0
   18.9036   -6.5905   20.4112 C   0  0  0  0  0  0  0  0  0  0  0  0
   18.0231   -5.4437   14.4413 C   0  0  2  0  0  0  0  0  0  0  0  0
   17.8928   -6.2428   13.2455 O   0  0  0  0  0  0  0  0  0  0  0  0
   22.0876   -5.0043   12.2754 C   0  0  2  0  0  0  0  0  0  0  0  0
   22.6977   -5.9862   13.2106 N   0  0  0  0  0  0  0  0  0  0  0  0
   26.4058   -5.0825   14.6218 C   0  0  1  0  0  0  0  0  0  0  0  0
   27.6878   -5.7413   14.6508 O   0  0  0  0  0  0  0  0  0  0  0  0
   18.9151  -11.4959   18.5615 C   0  0  0  0  0  0  0  0  0  0  0  0
   19.3368   -7.8391   19.5422 C   0  0  2  0  0  0  0  0  0  0  0  0
   20.7560   -8.1460   19.7479 N   0  0  0  0  0  0  0  0  0  0  0  0
   19.0819   -4.3823   14.3611 C   0  0  2  0  0  0  0  0  0  0  0  0
   20.2515   -4.8969   13.7766 O   0  0  0  0  0  0  0  0  0  0  0  0
   23.1275   -4.1176   11.4584 C   0  0  1  0  0  0  0  0  0  0  0  0
   22.4045   -3.1805   10.6535 O   0  0  0  0  0  0  0  0  0  0  0  0
   26.1361   -4.5163   16.0107 C   0  0  1  0  0  0  0  0  0  0  0  0
   26.4206   -5.5553   16.9540 O   0  0  0  0  0  0  0  0  0  0  0  0
   19.4890  -12.3549   17.3960 C   0  0  2  0  0  0  0  0  0  0  0  0
   20.4282  -13.3092   17.8580 O   0  0  0  0  0  0  0  0  0  0  0  0
   19.0529   -7.5776   18.0402 C   0  0  2  0  0  0  0  0  0  0  0  0
   19.4925   -4.0840   15.8178 C   0  0  2  0  0  0  0  0  0  0  0  0
   19.2681   -5.3345   16.4492 O   0  0  0  0  0  0  0  0  0  0  0  0
   24.0318   -3.2482   12.4258 C   0  0  2  0  0  0  0  0  0  0  0  0
   24.7609   -4.2123   13.1869 O   0  0  0  0  0  0  0  0  0  0  0  0
   26.9755   -3.2825   16.3471 C   0  0  2  0  0  0  0  0  0  0  0  0
   26.3976   -2.6934   17.5235 O   0  0  0  0  0  0  0  0  0  0  0  0
   20.1141  -11.4003   16.3485 C   0  0  2  0  0  0  0  0  0  0  0  0
   19.0454  -10.5458   15.8499 O   0  0  0  0  0  0  0  0  0  0  0  0
   17.5844   -7.1414   17.7334 C   0  0  2  0  0  0  0  0  0  0  0  0
   17.4499   -6.8506   16.3144 O   0  0  0  0  0  0  0  0  0  0  0  0
   18.6939   -3.0009   16.5423 C   0  0  0  0  0  0  0  0  0  0  0  0
   17.4294   -2.8769   15.8750 O   0  0  0  0  0  0  0  0  0  0  0  0
   23.0750   -2.5951   13.4046 C   0  0  1  0  0  0  0  0  0  0  0  0
   21.8226   -3.0760   13.9384 O   0  0  0  0  0  0  0  0  0  0  0  0
   27.0788   -2.3349   15.1572 C   0  0  2  0  0  0  0  0  0  0  0  0
   27.0776   -2.8275   13.8084 O   0  0  0  0  0  0  0  0  0  0  0  0
   20.6563  -12.1141   15.1573 C   0  0  0  0  0  0  0  0  0  0  0  0
   19.7658  -13.1596   14.8505 O   0  0  0  0  0  0  0  0  0  0  0  0
   17.1597   -5.9373   18.6400 C   0  0  1  0  0  0  0  0  0  0  0  0
   15.7380   -5.7243   18.4333 O   0  0  0  0  0  0  0  0  0  0  0  0
   23.7002   -1.5886   14.4190 C   0  0  0  0  0  0  0  0  0  0  0  0
   23.0750   -1.6402   15.7574 N   0  0  0  0  0  0  0  0  0  0  0  0
   27.8643   -1.0262   15.2002 C   0  0  0  0  0  0  0  0  0  0  0  0
   29.2858   -1.3043   15.3030 O   0  0  0  0  0  0  0  0  0  0  0  0
  1  2  1  1  0  0  0
  1  8  1  0  0  0  0
  1 36  1  0  0  0  0
  3  4  1  1  0  0  0
  3 10  1  0  0  0  0
  3 47  1  0  0  0  0
  5 11  1  0  0  0  0
  5 30  1  0  0  0  0
  5 38  1  1  0  0  0
  6 21  1  1  0  0  0
  6 42  1  0  0  0  0
  7 15  1  0  0  0  0
  7 44  1  0  0  0  0
  7 32  1  1  0  0  0
  8  9  1  1  0  0  0
  8 17  1  0  0  0  0
 11 12  1  6  0  0  0
 11 20  1  0  0  0  0
 13  6  1  0  0  0  0
 13 14  1  1  0  0  0
 15 16  1  1  0  0  0
 15 24  1  0  0  0  0
 17 26  1  0  0  0  0
 18 10  1  0  0  0  0
 18 19  1  6  0  0  0
 20 21  1  6  0  0  0
 20 29  1  0  0  0  0
 22 13  1  0  0  0  0
 22 23  1  6  0  0  0
 24 25  1  1  0  0  0
 24 33  1  0  0  0  0
 26 27  1  1  0  0  0
 26 35  1  0  0  0  0
 28  2  1  6  0  0  0
 28 18  1  0  0  0  0
 29 30  1  0  0  0  0
 29 39  1  1  0  0  0
 31 22  1  0  0  0  0
 31 32  1  1  0  0  0
 31 41  1  0  0  0  0
 33 34  1  1  0  0  0
 33 43  1  0  0  0  0
 35 36  1  0  0  0  0
 35 45  1  6  0  0  0
 37 28  1  0  0  0  0
 37 38  1  6  0  0  0
 39 40  1  0  0  0  0
 41 42  1  0  0  0  0
 41 49  1  1  0  0  0
 43 44  1  0  0  0  0
 43 51  1  1  0  0  0
 45 46  1  0  0  0  0
 47 37  1  0  0  0  0
 47 48  1  1  0  0  0
 49 50  1  0  0  0  0
 51 52  1  0  0  0  0
M  END
>  <CHROM.1>
-80.12627182,-152.73015169,-167.72980164,163.66482141,149.52276546,107.94356062
22.05996612,135.84180260,38.87054778,-35.55873132,-143.36013560,68.07015584
21.37023408,-5.95795915,15.86860060,-2.42645834,0.24640666,-0.22595193

>  <Name>
2esj_lig

>  <RI>
0

>  <Rbt.Current_Directory>
/home/itssahil/PROJECTS/Mol_Feturizer/New_Systems/rnas/2esj

>  <Rbt.Executable>
rbdock ($Id: //depot/dev/client3/rdock/2013.1/src/exe/rbdock.cxx#4 $)

>  <Rbt.Library>
libRbt.so (2013.1, Build901 2013/11/27)

>  <Rbt.Parameter_File>
/export/apps/rDock/src/rDock_2013.1_src/data/scripts/dock_solv.prm

>  <Rbt.Receptor>
prm/pocket_docking_2.prm

>  <SCORE>
5.07426

>  <SCORE.INTER>
-4.91366

>  <SCORE.INTER.CONST>
1

>  <SCORE.INTER.POLAR>
-0.951931

>  <SCORE.INTER.ROT>
12

>  <SCORE.INTER.SOLV>
17.7879

>  <SCORE.INTER.VDW>
-17.632

>  <SCORE.INTER.norm>
-0.0944936

>  <SCORE.INTRA>
6.96207

>  <SCORE.INTRA.DIHEDRAL>
2.28303

>  <SCORE.INTRA.DIHEDRAL.0>
32.9766

>  <SCORE.INTRA.POLAR>
0

>  <SCORE.INTRA.POLAR.0>
0

>  <SCORE.INTRA.REPUL>
0

>  <SCORE.INTRA.REPUL.0>
0

>  <SCORE.INTRA.SOLV>
3.3102

>  <SCORE.INTRA.SOLV.lig_0>
-114.358

>  <SCORE.INTRA.VDW>
4.16545

>  <SCORE.INTRA.VDW.0>
-8.24257

>  <SCORE.INTRA.norm>
0.133886

>  <SCORE.RESTR>
3.02586

>  <SCORE.RESTR.CAVITY>
3.02586

>  <SCORE.RESTR.norm>
0.0581896

>  <SCORE.SYSTEM>
0

>  <SCORE.SYSTEM.CONST>
0

>  <SCORE.SYSTEM.DIHEDRAL>
0

>  <SCORE.SYSTEM.SOLV>
0

>  <SCORE.SYSTEM.norm>
0

>  <SCORE.heavy>
52

>  <SCORE.norm>
0.097582

>  <RMSD>
4.094

$$$$
2esj_lig
 OpenBabel11021811423D
libRbt.so/2013.1/901 2013/11/27
 52 56  0  0  0  0  0  0  0  0999 V2000
   20.6613   -6.6930   18.8110 C   0  0  2  0  0  0  0  0  0  0  0  0
   19.9282   -5.5019   18.4665 O   0  0  0  0  0  0  0  0  0  0  0  0
   16.4154   -6.0529   20.8423 C   0  0  2  0  0  0  0  0  0  0  0  0
   15.1908   -5.8586   21.6360 N   0  0  0  0  0  0  0  0  0  0  0  0
   18.4550   -5.2278   16.3140 C   0  0  1  0  0  0  0  0  0  0  0  0
   21.2948   -4.6898   13.2050 C   0  0  1  0  0  0  0  0  0  0  0  0
   26.2360   -3.3025   14.4319 C   0  0  1  0  0  0  0  0  0  0  0  0
   21.7571   -6.8997   17.7240 C   0  0  2  0  0  0  0  0  0  0  0  0
   22.6347   -5.7367   17.5949 N   0  0  0  0  0  0  0  0  0  0  0  0
   17.6060   -5.2139   21.4556 C   0  0  0  0  0  0  0  0  0  0  0  0
   18.0815   -5.3036   14.8330 C   0  0  2  0  0  0  0  0  0  0  0  0
   18.1012   -6.6567   14.3288 O   0  0  0  0  0  0  0  0  0  0  0  0
   22.6448   -5.4340   13.6111 C   0  0  2  0  0  0  0  0  0  0  0  0
   22.9557   -5.2294   15.0507 N   0  0  0  0  0  0  0  0  0  0  0  0
   26.4470   -4.7703   14.0792 C   0  0  1  0  0  0  0  0  0  0  0  0
   27.7890   -4.9502   13.5841 O   0  0  0  0  0  0  0  0  0  0  0  0
   21.1139   -7.2346   16.3409 C   0  0  0  0  0  0  0  0  0  0  0  0
   18.9257   -5.4814   20.6258 C   0  0  2  0  0  0  0  0  0  0  0  0
   20.0446   -4.7029   21.1670 N   0  0  0  0  0  0  0  0  0  0  0  0
   19.1313   -4.4093   14.2396 C   0  0  2  0  0  0  0  0  0  0  0  0
   20.3668   -5.0755   14.1761 O   0  0  0  0  0  0  0  0  0  0  0  0
   23.7988   -4.9970   12.6049 C   0  0  1  0  0  0  0  0  0  0  0  0
   23.3393   -5.1883   11.2628 O   0  0  0  0  0  0  0  0  0  0  0  0
   26.2324   -5.7525   15.2244 C   0  0  1  0  0  0  0  0  0  0  0  0
   26.6989   -7.0308   14.7789 O   0  0  0  0  0  0  0  0  0  0  0  0
   20.1675   -8.4600   16.5097 C   0  0  2  0  0  0  0  0  0  0  0  0
   19.6078   -8.8673   15.2740 O   0  0  0  0  0  0  0  0  0  0  0  0
   18.7029   -5.1388   19.1298 C   0  0  2  0  0  0  0  0  0  0  0  0
   19.3645   -3.2879   15.2728 C   0  0  2  0  0  0  0  0  0  0  0  0
   19.0802   -3.9497   16.4952 O   0  0  0  0  0  0  0  0  0  0  0  0
   24.1242   -3.4521   12.7337 C   0  0  2  0  0  0  0  0  0  0  0  0
   24.6101   -3.3050   14.0689 O   0  0  0  0  0  0  0  0  0  0  0  0
   26.9626   -5.3671   16.5122 C   0  0  2  0  0  0  0  0  0  0  0  0
   26.4229   -6.1896   17.5595 O   0  0  0  0  0  0  0  0  0  0  0  0
   19.0704   -8.0908   17.5388 C   0  0  2  0  0  0  0  0  0  0  0  0
   19.7390   -7.8080   18.8013 O   0  0  0  0  0  0  0  0  0  0  0  0
   17.4647   -5.8445   18.4897 C   0  0  2  0  0  0  0  0  0  0  0  0
   17.3063   -5.3960   17.1149 O   0  0  0  0  0  0  0  0  0  0  0  0
   18.4749   -2.0514   15.1483 C   0  0  0  0  0  0  0  0  0  0  0  0
   17.1110   -2.4899   15.2318 O   0  0  0  0  0  0  0  0  0  0  0  0
   22.7818   -2.7468   12.7083 C   0  0  1  0  0  0  0  0  0  0  0  0
   21.4943   -3.1855   13.1928 O   0  0  0  0  0  0  0  0  0  0  0  0
   26.8701   -3.8691   16.7806 C   0  0  2  0  0  0  0  0  0  0  0  0
   26.8118   -2.9202   15.7045 O   0  0  0  0  0  0  0  0  0  0  0  0
   18.1288   -9.2126   17.8171 C   0  0  0  0  0  0  0  0  0  0  0  0
   17.0857   -8.7008   18.6109 O   0  0  0  0  0  0  0  0  0  0  0  0
   16.1804   -5.6089   19.3540 C   0  0  1  0  0  0  0  0  0  0  0  0
   15.1317   -6.4493   18.8032 O   0  0  0  0  0  0  0  0  0  0  0  0
   22.8172   -1.1875   12.7165 C   0  0  0  0  0  0  0  0  0  0  0  0
   23.4898   -0.6223   13.9051 N   0  0  0  0  0  0  0  0  0  0  0  0
   27.5154   -3.1983   17.9911 C   0  0  0  0  0  0  0  0  0  0  0  0
   26.6121   -2.2075   18.5489 O   0  0  0  0  0  0  0  0  0  0  0  0
  1  2  1  6  0  0  0
  1  8  1  0  0  0  0
  1 36  1  0  0  0  0
  3  4  1  1  0  0  0
  3 10  1  0  0  0  0
  3 47  1  0  0  0  0
  5 11  1  0  0  0  0
  5 30  1  0  0  0  0
  5 38  1  1  0  0  0
  6 21  1  1  0  0  0
  6 42  1  0  0  0  0
  7 15  1  0  0  0  0
  7 44  1  0  0  0  0
  7 32  1  1  0  0  0
  8  9  1  6  0  0  0
  8 17  1  0  0  0  0
 11 12  1  6  0  0  0
 11 20  1  0  0  0  0
 13  6  1  0  0  0  0
 13 14  1  1  0  0  0
 15 16  1  1  0  0  0
 15 24  1  0  0  0  0
 17 26  1  0  0  0  0
 18 10  1  0  0  0  0
 18 19  1  1  0  0  0
 20 21  1  1  0  0  0
 20 29  1  0  0  0  0
 22 13  1  0  0  0  0
 22 23  1  6  0  0  0
 24 25  1  6  0  0  0
 24 33  1  0  0  0  0
 26 27  1  6  0  0  0
 26 35  1  0  0  0  0
 28  2  1  6  0  0  0
 28 18  1  0  0  0  0
 29 30  1  0  0  0  0
 29 39  1  6  0  0  0
 31 22  1  0  0  0  0
 31 32  1  1  0  0  0
 31 41  1  0  0  0  0
 33 34  1  1  0  0  0
 33 43  1  0  0  0  0
 35 36  1  0  0  0  0
 35 45  1  1  0  0  0
 37 28  1  0  0  0  0
 37 38  1  6  0  0  0
 39 40  1  0  0  0  0
 41 42  1  0  0  0  0
 41 49  1  1  0  0  0
 43 44  1  0  0  0  0
 43 51  1  1  0  0  0
 45 46  1  0  0  0  0
 47 37  1  0  0  0  0
 47 48  1  6  0  0  0
 49 50  1  0  0  0  0
 51 52  1  0  0  0  0
M  END
>  <CHROM.1>
169.35660807,157.64559841,169.06636055,-68.16007166,153.56237772,39.71079731
57.31084458,96.15046643,-171.97488233,40.30397486,-59.68856200,-138.44235496
21.33378826,-5.14010769,16.29979577,-2.63277081,-0.06076625,-1.18398446

>  <Name>
2esj_lig

>  <RI>
1.01272e+07

>  <Rbt.Current_Directory>
/home/itssahil/PROJECTS/Mol_Feturizer/New_Systems/rnas/2esj

>  <Rbt.Executable>
rbdock ($Id: //depot/dev/client3/rdock/2013.1/src/exe/rbdock.cxx#4 $)

>  <Rbt.Library>
libRbt.so (2013.1, Build901 2013/11/27)

>  <Rbt.Parameter_File>
/export/apps/rDock/src/rDock_2013.1_src/data/scripts/dock_solv.prm

>  <Rbt.Receptor>
prm/pocket_docking_3.prm

>  <SCORE>
-12.1673

>  <SCORE.INTER>
-11.9289

>  <SCORE.INTER.CONST>
1

>  <SCORE.INTER.POLAR>
-1.51461

>  <SCORE.INTER.ROT>
12

>  <SCORE.INTER.SOLV>
17.0633

>  <SCORE.INTER.VDW>
-20.1917

>  <SCORE.INTER.norm>
-0.229402

>  <SCORE.INTRA>
-1.00267

>  <SCORE.INTRA.DIHEDRAL>
-11.995

>  <SCORE.INTRA.DIHEDRAL.0>
32.9766

>  <SCORE.INTRA.POLAR>
0

>  <SCORE.INTRA.POLAR.0>
0

>  <SCORE.INTRA.REPUL>
0.0343529

>  <SCORE.INTRA.REPUL.0>
0

>  <SCORE.INTRA.SOLV>
6.54612

>  <SCORE.INTRA.SOLV.lig_0>
-114.358

>  <SCORE.INTRA.VDW>
1.55001

>  <SCORE.INTRA.VDW.0>
-8.24257

>  <SCORE.INTRA.norm>
-0.0192822

>  <SCORE.RESTR>
0.764269

>  <SCORE.RESTR.CAVITY>
0.764269

>  <SCORE.RESTR.norm>
0.0146975

>  <SCORE.SYSTEM>
0

>  <SCORE.SYSTEM.CONST>
0

>  <SCORE.SYSTEM.DIHEDRAL>
0

>  <SCORE.SYSTEM.SOLV>
0

>  <SCORE.SYSTEM.norm>
0

>  <SCORE.heavy>
52

>  <SCORE.norm>
-0.233986

>  <RMSD>
4.116

$$$$
2esj_lig
 OpenBabel11021811423D
libRbt.so/2013.1/901 2013/11/27
 52 56  0  0  0  0  0  0  0  0999 V2000
   18.3613   -7.8646   16.8063 C   0  0  2  0  0  0  0  0  0  0  0  0
   19.6623   -8.2981   16.3654 O   0  0  0  0  0  0  0  0  0  0  0  0
   21.8948  -11.9295   16.0237 C   0  0  2  0  0  0  0  0  0  0  0  0
   22.3238  -13.3180   15.7886 N   0  0  0  0  0  0  0  0  0  0  0  0
   20.7547   -7.7186   13.5480 C   0  0  1  0  0  0  0  0  0  0  0  0
   21.6025   -3.7660   12.6668 C   0  0  1  0  0  0  0  0  0  0  0  0
   24.4327    0.0981   14.5294 C   0  0  1  0  0  0  0  0  0  0  0  0
   18.1130   -6.4472   16.2110 C   0  0  2  0  0  0  0  0  0  0  0  0
   18.2287   -6.4313   14.7531 N   0  0  0  0  0  0  0  0  0  0  0  0
   20.6796  -11.8938   17.0333 C   0  0  0  0  0  0  0  0  0  0  0  0
   22.1746   -7.4001   13.0781 C   0  0  2  0  0  0  0  0  0  0  0  0
   23.1003   -7.2613   14.1777 O   0  0  0  0  0  0  0  0  0  0  0  0
   23.0101   -3.4240   12.0014 C   0  0  2  0  0  0  0  0  0  0  0  0
   24.1279   -3.7056   12.9407 N   0  0  0  0  0  0  0  0  0  0  0  0
   25.0280    1.0705   13.5178 C   0  0  1  0  0  0  0  0  0  0  0  0
   24.8727    2.4175   14.0076 O   0  0  0  0  0  0  0  0  0  0  0  0
   19.0936   -5.4024   16.8321 C   0  0  0  0  0  0  0  0  0  0  0  0
   20.2716  -10.3927   17.3192 C   0  0  2  0  0  0  0  0  0  0  0  0
   19.1353  -10.3319   18.2444 N   0  0  0  0  0  0  0  0  0  0  0  0
   21.9318   -6.1315   12.3128 C   0  0  2  0  0  0  0  0  0  0  0  0
   21.7578   -5.0508   13.1939 O   0  0  0  0  0  0  0  0  0  0  0  0
   22.9663   -1.9369   11.4343 C   0  0  1  0  0  0  0  0  0  0  0  0
   21.8110   -1.7931   10.6016 O   0  0  0  0  0  0  0  0  0  0  0  0
   26.5017    0.8540   13.1959 C   0  0  1  0  0  0  0  0  0  0  0  0
   26.9380    1.9821   12.4297 O   0  0  0  0  0  0  0  0  0  0  0  0
   18.9684   -5.4552   18.3836 C   0  0  2  0  0  0  0  0  0  0  0  0
   19.7770   -4.4759   19.0109 O   0  0  0  0  0  0  0  0  0  0  0  0
   19.9288   -9.6635   15.9941 C   0  0  2  0  0  0  0  0  0  0  0  0
   20.5499   -6.2971   11.6476 C   0  0  2  0  0  0  0  0  0  0  0  0
   19.8795   -7.1440   12.5676 O   0  0  0  0  0  0  0  0  0  0  0  0
   22.7926   -0.8783   12.5999 C   0  0  2  0  0  0  0  0  0  0  0  0
   23.9746   -1.0259   13.3883 O   0  0  0  0  0  0  0  0  0  0  0  0
   27.3883    0.7087   14.4340 C   0  0  2  0  0  0  0  0  0  0  0  0
   28.6565    0.2066   13.9819 O   0  0  0  0  0  0  0  0  0  0  0  0
   19.3354   -6.8845   18.8542 C   0  0  2  0  0  0  0  0  0  0  0  0
   18.3748   -7.7983   18.2518 O   0  0  0  0  0  0  0  0  0  0  0  0
   21.0429   -9.7619   14.9033 C   0  0  2  0  0  0  0  0  0  0  0  0
   20.5880   -9.1125   13.6836 O   0  0  0  0  0  0  0  0  0  0  0  0
   20.5339   -6.9422   10.2621 C   0  0  0  0  0  0  0  0  0  0  0  0
   19.1748   -6.9430    9.8013 O   0  0  0  0  0  0  0  0  0  0  0  0
   21.6594   -1.4002   13.4623 C   0  0  1  0  0  0  0  0  0  0  0  0
   21.2618   -2.7582   13.7491 O   0  0  0  0  0  0  0  0  0  0  0  0
   26.7197   -0.1481   15.5033 C   0  0  2  0  0  0  0  0  0  0  0  0
   25.2930   -0.1608   15.6652 O   0  0  0  0  0  0  0  0  0  0  0  0
   19.2041   -7.0664   20.3280 C   0  0  0  0  0  0  0  0  0  0  0  0
   20.2190   -6.3068   20.9389 O   0  0  0  0  0  0  0  0  0  0  0  0
   21.4672  -11.2516   14.6728 C   0  0  1  0  0  0  0  0  0  0  0  0
   22.6275  -11.2376   13.7994 O   0  0  0  0  0  0  0  0  0  0  0  0
   21.2058   -0.4842   14.6404 C   0  0  0  0  0  0  0  0  0  0  0  0
   21.4562   -1.0745   15.9722 N   0  0  0  0  0  0  0  0  0  0  0  0
   27.3686   -0.4549   16.8510 C   0  0  0  0  0  0  0  0  0  0  0  0
   28.6000   -1.1980   16.6506 O   0  0  0  0  0  0  0  0  0  0  0  0
  1  2  1  6  0  0  0
  1  8  1  0  0  0  0
  1 36  1  0  0  0  0
  3  4  1  6  0  0  0
  3 10  1  0  0  0  0
  3 47  1  0  0  0  0
  5 11  1  0  0  0  0
  5 30  1  0  0  0  0
  5 38  1  6  0  0  0
  6 21  1  1  0  0  0
  6 42  1  0  0  0  0
  7 15  1  0  0  0  0
  7 44  1  0  0  0  0
  7 32  1  6  0  0  0
  8  9  1  6  0  0  0
  8 17  1  0  0  0  0
 11 12  1  1  0  0  0
 11 20  1  0  0  0  0
 13  6  1  0  0  0  0
 13 14  1  1  0  0  0
 15 16  1  1  0  0  0
 15 24  1  0  0  0  0
 17 26  1  0  0  0  0
 18 10  1  0  0  0  0
 18 19  1  1  0  0  0
 20 21  1  1  0  0  0
 20 29  1  0  0  0  0
 22 13  1  0  0  0  0
 22 23  1  6  0  0  0
 24 25  1  1  0  0  0
 24 33  1  0  0  0  0
 26 27  1  1  0  0  0
 26 35  1  0  0  0  0
 28  2  1  1  0  0  0
 28 18  1  0  0  0  0
 29 30  1  0  0  0  0
 29 39  1  6  0  0  0
 31 22  1  0  0  0  0
 31 32  1  1  0  0  0
 31 41  1  0  0  0  0
 33 34  1  6  0  0  0
 33 43  1  0  0  0  0
 35 36  1  0  0  0  0
 35 45  1  1  0  0  0
 37 28  1  0  0  0  0
 37 38  1  6  0  0  0
 39 40  1  0  0  0  0
 41 42  1  0  0  0  0
 41 49  1  1  0  0  0
 43 44  1  0  0  0  0
 43 51  1  1  0  0  0
 45 46  1  0  0  0  0
 47 37  1  0  0  0  0
 47 48  1  6  0  0  0
 49 50  1  0  0  0  0
 51 52  1  0  0  0  0
M  END
>  <CHROM.1>
-141.72014514,82.50523130,-67.00344975,-79.47582033,176.06498225,-85.64613055
-177.28763446,165.64003644,-69.11188920,84.92677775,-114.94409657,-62.20402572
22.08039637,-4.94365719,14.78766023,-3.13133015,-1.06422751,-1.78943864

>  <Name>
2esj_lig

>  <RI>
1.62275e+07

>  <Rbt.Current_Directory>
/home/itssahil/PROJECTS/Mol_Feturizer/New_Systems/rnas/2esj

>  <Rbt.Executable>
rbdock ($Id: //depot/dev/client3/rdock/2013.1/src/exe/rbdock.cxx#4 $)

>  <Rbt.Library>
libRbt.so (2013.1, Build901 2013/11/27)

>  <Rbt.Parameter_File>
/export/apps/rDock/src/rDock_2013.1_src/data/scripts/dock_solv.prm

>  <Rbt.Receptor>
prm/pocket_docking_5.prm

>  <SCORE>
-8.61178

>  <SCORE.INTER>
-6.79305

>  <SCORE.INTER.CONST>
1

>  <SCORE.INTER.POLAR>
-1.41236

>  <SCORE.INTER.ROT>
12

>  <SCORE.INTER.SOLV>
12.9126

>  <SCORE.INTER.VDW>
-15.725

>  <SCORE.INTER.norm>
-0.130636

>  <SCORE.INTRA>
-1.83792

>  <SCORE.INTRA.DIHEDRAL>
-11.7321

>  <SCORE.INTRA.DIHEDRAL.0>
32.9766

>  <SCORE.INTRA.POLAR>
0

>  <SCORE.INTRA.POLAR.0>
0

>  <SCORE.INTRA.REPUL>
0.00126897

>  <SCORE.INTRA.REPUL.0>
0

>  <SCORE.INTRA.SOLV>
3.08416

>  <SCORE.INTRA.SOLV.lig_0>
-114.358

>  <SCORE.INTRA.VDW>
2.47973

>  <SCORE.INTRA.VDW.0>
-8.24257

>  <SCORE.INTRA.norm>
-0.0353446

>  <SCORE.RESTR>
0.019193

>  <SCORE.RESTR.CAVITY>
0.019193

>  <SCORE.RESTR.norm>
0.000369096

>  <SCORE.SYSTEM>
0

>  <SCORE.SYSTEM.CONST>
0

>  <SCORE.SYSTEM.DIHEDRAL>
0

>  <SCORE.SYSTEM.SOLV>
0

>  <SCORE.SYSTEM.norm>
0

>  <SCORE.heavy>
52

>  <SCORE.norm>
-0.165611

>  <RMSD>
4.194

$$$$
2esj_lig
 OpenBabel11021811423D
libRbt.so/2013.1/901 2013/11/27
 52 56  0  0  0  0  0  0  0  0999 V2000
   18.0365   -8.9868   17.4209 C   0  0  2  0  0  0  0  0  0  0  0  0
   19.1098   -8.2528   18.0407 O   0  0  0  0  0  0  0  0  0  0  0  0
   17.4192   -6.0257   21.2764 C   0  0  2  0  0  0  0  0  0  0  0  0
   17.0996   -4.9990   22.2820 N   0  0  0  0  0  0  0  0  0  0  0  0
   18.2742   -5.7623   16.6006 C   0  0  1  0  0  0  0  0  0  0  0  0
   20.9755   -4.1968   13.7283 C   0  0  1  0  0  0  0  0  0  0  0  0
   26.2619   -4.8313   14.3195 C   0  0  1  0  0  0  0  0  0  0  0  0
   17.9842  -10.3931   18.0877 C   0  0  2  0  0  0  0  0  0  0  0  0
   17.8229  -10.3116   19.5391 N   0  0  0  0  0  0  0  0  0  0  0  0
   18.9470   -6.4208   21.3615 C   0  0  0  0  0  0  0  0  0  0  0  0
   17.8018   -5.0311   15.3433 C   0  0  2  0  0  0  0  0  0  0  0  0
   17.4984   -5.9374   14.2607 O   0  0  0  0  0  0  0  0  0  0  0  0
   21.9115   -5.3456   13.1406 C   0  0  2  0  0  0  0  0  0  0  0  0
   22.3734   -6.2616   14.2169 N   0  0  0  0  0  0  0  0  0  0  0  0
   26.1784   -4.8974   15.8401 C   0  0  1  0  0  0  0  0  0  0  0  0
   27.2735   -5.6904   16.3405 O   0  0  0  0  0  0  0  0  0  0  0  0
   19.2621  -11.2216   17.7421 C   0  0  0  0  0  0  0  0  0  0  0  0
   19.2576   -7.5657   20.3154 C   0  0  2  0  0  0  0  0  0  0  0  0
   20.6742   -7.9419   20.3647 N   0  0  0  0  0  0  0  0  0  0  0  0
   18.9806   -4.1373   15.0870 C   0  0  2  0  0  0  0  0  0  0  0  0
   20.0373   -4.8675   14.5174 O   0  0  0  0  0  0  0  0  0  0  0  0
   23.0735   -4.6768   12.2818 C   0  0  1  0  0  0  0  0  0  0  0  0
   22.4892   -3.7775   11.3338 O   0  0  0  0  0  0  0  0  0  0  0  0
   26.2084   -3.5508   16.5529 C   0  0  1  0  0  0  0  0  0  0  0  0
   26.3606   -3.8155   17.9519 O   0  0  0  0  0  0  0  0  0  0  0  0
   19.4242  -11.2739   16.1939 C   0  0  2  0  0  0  0  0  0  0  0  0
   20.5245  -12.0774   15.8065 O   0  0  0  0  0  0  0  0  0  0  0  0
   18.8688   -7.1113   18.8846 C   0  0  2  0  0  0  0  0  0  0  0  0
   19.5134   -3.7316   16.4767 C   0  0  2  0  0  0  0  0  0  0  0  0
   19.1699   -4.8602   17.2650 O   0  0  0  0  0  0  0  0  0  0  0  0
   24.0254   -3.7914   13.1868 C   0  0  2  0  0  0  0  0  0  0  0  0
   24.6147   -4.7234   14.0948 O   0  0  0  0  0  0  0  0  0  0  0  0
   27.3376   -2.6308   16.0854 C   0  0  2  0  0  0  0  0  0  0  0  0
   27.0496   -1.3215   16.6027 O   0  0  0  0  0  0  0  0  0  0  0  0
   19.5643   -9.8235   15.6689 C   0  0  2  0  0  0  0  0  0  0  0  0
   18.3367   -9.1189   16.0115 O   0  0  0  0  0  0  0  0  0  0  0  0
   17.4006   -6.5929   18.7551 C   0  0  2  0  0  0  0  0  0  0  0  0
   17.1683   -6.1245   17.3975 O   0  0  0  0  0  0  0  0  0  0  0  0
   18.9049   -2.4756   17.0993 C   0  0  0  0  0  0  0  0  0  0  0  0
   19.2833   -1.3599   16.2798 O   0  0  0  0  0  0  0  0  0  0  0  0
   23.1050   -2.9285   14.0285 C   0  0  1  0  0  0  0  0  0  0  0  0
   21.7872   -3.2099   14.5470 O   0  0  0  0  0  0  0  0  0  0  0  0
   27.5109   -2.6829   14.5716 C   0  0  2  0  0  0  0  0  0  0  0  0
   27.2403   -3.8824   13.8301 O   0  0  0  0  0  0  0  0  0  0  0  0
   19.6787   -9.7477   14.1845 C   0  0  0  0  0  0  0  0  0  0  0  0
   20.9803  -10.1569   13.8402 O   0  0  0  0  0  0  0  0  0  0  0  0
   17.0995   -5.4970   19.8323 C   0  0  1  0  0  0  0  0  0  0  0  0
   15.6763   -5.2138   19.7710 O   0  0  0  0  0  0  0  0  0  0  0  0
   23.7925   -1.8735   14.9488 C   0  0  0  0  0  0  0  0  0  0  0  0
   23.5845   -0.4803   14.5011 N   0  0  0  0  0  0  0  0  0  0  0  0
   28.5704   -1.8745   13.8261 C   0  0  0  0  0  0  0  0  0  0  0  0
   29.8370   -1.9466   14.5325 O   0  0  0  0  0  0  0  0  0  0  0  0
  1  2  1  1  0  0  0
  1  8  1  0  0  0  0
  1 36  1  0  0  0  0
  3  4  1  1  0  0  0
  3 10  1  0  0  0  0
  3 47  1  0  0  0  0
  5 11  1  0  0  0  0
  5 30  1  0  0  0  0
  5 38  1  1  0  0  0
  6 21  1  1  0  0  0
  6 42  1  0  0  0  0
  7 15  1  0  0  0  0
  7 44  1  0  0  0  0
  7 32  1  6  0  0  0
  8  9  1  1  0  0  0
  8 17  1  0  0  0  0
 11 12  1  6  0  0  0
 11 20  1  0  0  0  0
 13  6  1  0  0  0  0
 13 14  1  1  0  0  0
 15 16  1  1  0  0  0
 15 24  1  0  0  0  0
 17 26  1  0  0  0  0
 18 10  1  0  0  0  0
 18 19  1  6  0  0  0
 20 21  1  1  0  0  0
 20 29  1  0  0  0  0
 22 13  1  0  0  0  0
 22 23  1  6  0  0  0
 24 25  1  1  0  0  0
 24 33  1  0  0  0  0
 26 27  1  1  0  0  0
 26 35  1  0  0  0  0
 28  2  1  6  0  0  0
 28 18  1  0  0  0  0
 29 30  1  0  0  0  0
 29 39  1  1  0  0  0
 31 22  1  0  0  0  0
 31 32  1  1  0  0  0
 31 41  1  0  0  0  0
 33 34  1  6  0  0  0
 33 43  1  0  0  0  0
 35 36  1  0  0  0  0
 35 45  1  6  0  0  0
 37 28  1  0  0  0  0
 37 38  1  6  0  0  0
 39 40  1  0  0  0  0
 41 42  1  0  0  0  0
 41 49  1  1  0  0  0
 43 44  1  0  0  0  0
 43 51  1  1  0  0  0
 45 46  1  0  0  0  0
 47 37  1  0  0  0  0
 47 48  1  1  0  0  0
 49 50  1  0  0  0  0
 51 52  1  0  0  0  0
M  END
>  <CHROM.1>
-111.75401805,-168.08045696,-174.22523238,135.02648690,154.49683014,111.02512275
-65.56320343,127.93445641,-75.26184185,-21.54493170,109.70069309,43.81399438
21.40562816,-5.58840255,16.24512354,-2.79195508,0.54831789,0.32571879

>  <Name>
2esj_lig

>  <RI>
0

>  <Rbt.Current_Directory>
/home/itssahil/PROJECTS/Mol_Feturizer/New_Systems/rnas/2esj

>  <Rbt.Executable>
rbdock ($Id: //depot/dev/client3/rdock/2013.1/src/exe/rbdock.cxx#4 $)

>  <Rbt.Library>
libRbt.so (2013.1, Build901 2013/11/27)

>  <Rbt.Parameter_File>
/export/apps/rDock/src/rDock_2013.1_src/data/scripts/dock_solv.prm

>  <Rbt.Receptor>
prm/pocket_docking_2.prm

>  <SCORE>
5.6397

>  <SCORE.INTER>
-5.26317

>  <SCORE.INTER.CONST>
1

>  <SCORE.INTER.POLAR>
-0.924778

>  <SCORE.INTER.ROT>
12

>  <SCORE.INTER.SOLV>
19.5935

>  <SCORE.INTER.VDW>
-18.5573

>  <SCORE.INTER.norm>
-0.101215

>  <SCORE.INTRA>
6.19714

>  <SCORE.INTRA.DIHEDRAL>
7.9264

>  <SCORE.INTRA.DIHEDRAL.0>
32.9766

>  <SCORE.INTRA.POLAR>
0

>  <SCORE.INTRA.POLAR.0>
0

>  <SCORE.INTRA.REPUL>
0

>  <SCORE.INTRA.REPUL.0>
0

>  <SCORE.INTRA.SOLV>
-1.45269

>  <SCORE.INTRA.SOLV.lig_0>
-114.358

>  <SCORE.INTRA.VDW>
2.96029

>  <SCORE.INTRA.VDW.0>
-8.24257

>  <SCORE.INTRA.norm>
0.119176

>  <SCORE.RESTR>
4.70573

>  <SCORE.RESTR.CAVITY>
4.70573

>  <SCORE.RESTR.norm>
0.0904949

>  <SCORE.SYSTEM>
0

>  <SCORE.SYSTEM.CONST>
0

>  <SCORE.SYSTEM.DIHEDRAL>
0

>  <SCORE.SYSTEM.SOLV>
0

>  <SCORE.SYSTEM.norm>
0

>  <SCORE.heavy>
52

>  <SCORE.norm>
0.108456

>  <RMSD>
4.233

$$$$
2esj_lig
 OpenBabel11021811423D
libRbt.so/2013.1/901 2013/11/27
 52 56  0  0  0  0  0  0  0  0999 V2000
   18.4463  -10.1532   16.8551 C   0  0  2  0  0  0  0  0  0  0  0  0
   18.9932   -9.3802   17.9406 O   0  0  0  0  0  0  0  0  0  0  0  0
   15.4705   -7.5520   19.5332 C   0  0  2  0  0  0  0  0  0  0  0  0
   14.4515   -6.9554   20.4125 N   0  0  0  0  0  0  0  0  0  0  0  0
   19.7378   -6.2906   17.2963 C   0  0  1  0  0  0  0  0  0  0  0  0
   21.1045   -5.2539   13.4504 C   0  0  1  0  0  0  0  0  0  0  0  0
   26.2925   -4.3294   13.4254 C   0  0  1  0  0  0  0  0  0  0  0  0
   19.1484  -11.5431   16.8693 C   0  0  2  0  0  0  0  0  0  0  0  0
   18.9994  -12.2252   18.1545 N   0  0  0  0  0  0  0  0  0  0  0  0
   15.8529   -8.9995   20.0392 C   0  0  0  0  0  0  0  0  0  0  0  0
   18.7579   -5.7781   16.2401 C   0  0  2  0  0  0  0  0  0  0  0  0
   18.0891   -6.8512   15.5427 O   0  0  0  0  0  0  0  0  0  0  0  0
   22.4424   -6.1069   13.2971 C   0  0  2  0  0  0  0  0  0  0  0  0
   23.1591   -6.2151   14.5954 N   0  0  0  0  0  0  0  0  0  0  0  0
   26.4469   -5.1675   14.6892 C   0  0  1  0  0  0  0  0  0  0  0  0
   27.5632   -6.0655   14.5286 O   0  0  0  0  0  0  0  0  0  0  0  0
   20.6631  -11.4060   16.5144 C   0  0  0  0  0  0  0  0  0  0  0  0
   16.9035   -9.6467   19.0498 C   0  0  2  0  0  0  0  0  0  0  0  0
   17.2859  -10.9874   19.5049 N   0  0  0  0  0  0  0  0  0  0  0  0
   19.6822   -4.9657   15.3801 C   0  0  2  0  0  0  0  0  0  0  0  0
   20.4534   -5.8043   14.5576 O   0  0  0  0  0  0  0  0  0  0  0  0
   23.3044   -5.5060   12.1009 C   0  0  1  0  0  0  0  0  0  0  0  0
   22.4741   -5.4004   10.9398 O   0  0  0  0  0  0  0  0  0  0  0  0
   26.6612   -4.3754   15.9734 C   0  0  1  0  0  0  0  0  0  0  0  0
   27.0180   -5.3134   16.9948 O   0  0  0  0  0  0  0  0  0  0  0  0
   20.7955  -10.6570   15.1553 C   0  0  2  0  0  0  0  0  0  0  0  0
   22.1446  -10.5655   14.7336 O   0  0  0  0  0  0  0  0  0  0  0  0
   18.1563   -8.7415   18.9229 C   0  0  2  0  0  0  0  0  0  0  0  0
   20.7113   -4.3371   16.3421 C   0  0  2  0  0  0  0  0  0  0  0  0
   20.7773   -5.3056   17.3768 O   0  0  0  0  0  0  0  0  0  0  0  0
   23.7889   -4.0321   12.4206 C   0  0  2  0  0  0  0  0  0  0  0  0
   24.6387   -4.1801   13.5591 O   0  0  0  0  0  0  0  0  0  0  0  0
   27.7500   -3.3065   15.8641 C   0  0  2  0  0  0  0  0  0  0  0  0
   27.6178   -2.4577   17.0159 O   0  0  0  0  0  0  0  0  0  0  0  0
   20.1483   -9.2577   15.3044 C   0  0  2  0  0  0  0  0  0  0  0  0
   18.7410   -9.4631   15.6178 O   0  0  0  0  0  0  0  0  0  0  0  0
   17.8389   -7.2603   18.5407 C   0  0  2  0  0  0  0  0  0  0  0  0
   19.0715   -6.4877   18.5236 O   0  0  0  0  0  0  0  0  0  0  0  0
   20.3430   -2.9805   16.9417 C   0  0  0  0  0  0  0  0  0  0  0  0
   19.1999   -3.1774   17.7869 O   0  0  0  0  0  0  0  0  0  0  0  0
   22.5608   -3.2963   12.9212 C   0  0  1  0  0  0  0  0  0  0  0  0
   21.4257   -3.7865   13.6667 O   0  0  0  0  0  0  0  0  0  0  0  0
   27.6789   -2.5702   14.5309 C   0  0  2  0  0  0  0  0  0  0  0  0
   27.2307   -3.2298   13.3369 O   0  0  0  0  0  0  0  0  0  0  0  0
   20.1746   -8.4641   14.0427 C   0  0  0  0  0  0  0  0  0  0  0  0
   19.2685   -9.0635   13.1483 O   0  0  0  0  0  0  0  0  0  0  0  0
   16.7601   -6.6558   19.5014 C   0  0  1  0  0  0  0  0  0  0  0  0
   16.3838   -5.3600   18.9640 O   0  0  0  0  0  0  0  0  0  0  0  0
   22.7356   -1.7745   13.2148 C   0  0  0  0  0  0  0  0  0  0  0  0
   22.3787   -0.9114   12.0692 N   0  0  0  0  0  0  0  0  0  0  0  0
   28.6490   -1.4572   14.1413 C   0  0  0  0  0  0  0  0  0  0  0  0
   29.9922   -1.9936   14.0107 O   0  0  0  0  0  0  0  0  0  0  0  0
  1  2  1  1  0  0  0
  1  8  1  0  0  0  0
  1 36  1  0  0  0  0
  3  4  1  1  0  0  0
  3 10  1  0  0  0  0
  3 47  1  0  0  0  0
  5 11  1  0  0  0  0
  5 30  1  0  0  0  0
  5 38  1  1  0  0  0
  6 21  1  1  0  0  0
  6 42  1  0  0  0  0
  7 15  1  0  0  0  0
  7 44  1  0  0  0  0
  7 32  1  1  0  0  0
  8  9  1  1  0  0  0
  8 17  1  0  0  0  0
 11 12  1  6  0  0  0
 11 20  1  0  0  0  0
 13  6  1  0  0  0  0
 13 14  1  1  0  0  0
 15 16  1  6  0  0  0
 15 24  1  0  0  0  0
 17 26  1  0  0  0  0
 18 10  1  0  0  0  0
 18 19  1  1  0  0  0
 20 21  1  6  0  0  0
 20 29  1  0  0  0  0
 22 13  1  0  0  0  0
 22 23  1  6  0  0  0
 24 25  1  1  0  0  0
 24 33  1  0  0  0  0
 26 27  1  1  0  0  0
 26 35  1  0  0  0  0
 28  2  1  6  0  0  0
 28 18  1  0  0  0  0
 29 30  1  0  0  0  0
 29 39  1  1  0  0  0
 31 22  1  0  0  0  0
 31 32  1  1  0  0  0
 31 41  1  0  0  0  0
 33 34  1  1  0  0  0
 33 43  1  0  0  0  0
 35 36  1  0  0  0  0
 35 45  1  6  0  0  0
 37 28  1  0  0  0  0
 37 38  1  1  0  0  0
 39 40  1  0  0  0  0
 41 42  1  0  0  0  0
 41 49  1  1  0  0  0
 43 44  1  0  0  0  0
 43 51  1  6  0  0  0
 45 46  1  0  0  0  0
 47 37  1  0  0  0  0
 47 48  1  6  0  0  0
 49 50  1  0  0  0  0
 51 52  1  0  0  0  0
M  END
>  <CHROM.1>
-127.50324000,50.32428082,147.35886732,-150.67019224,163.13819684,30.99518184
65.48098290,95.04775073,70.39567668,96.08235570,93.23823894,65.30488247,21.51212203
-6.18581917,15.78195685,-2.67880600,0.47962733,0.10715207

>  <Name>
2esj_lig

>  <RI>
0

>  <Rbt.Current_Directory>
/home/itssahil/PROJECTS/Mol_Feturizer/New_Systems/rnas/2esj

>  <Rbt.Executable>
rbdock ($Id: //depot/dev/client3/rdock/2013.1/src/exe/rbdock.cxx#4 $)

>  <Rbt.Library>
libRbt.so (2013.1, Build901 2013/11/27)

>  <Rbt.Parameter_File>
/export/apps/rDock/src/rDock_2013.1_src/data/scripts/dock_solv.prm

>  <Rbt.Receptor>
prm/pocket_docking_2.prm

>  <SCORE>
8.28305

>  <SCORE.INTER>
-1.52561

>  <SCORE.INTER.CONST>
1

>  <SCORE.INTER.POLAR>
-0.0612489

>  <SCORE.INTER.ROT>
12

>  <SCORE.INTER.SOLV>
14.528

>  <SCORE.INTER.VDW>
-17.2556

>  <SCORE.INTER.norm>
-0.0293387

>  <SCORE.INTRA>
6.05286

>  <SCORE.INTRA.DIHEDRAL>
1.05412

>  <SCORE.INTRA.DIHEDRAL.0>
32.9766

>  <SCORE.INTRA.POLAR>
0

>  <SCORE.INTRA.POLAR.0>
0

>  <SCORE.INTRA.REPUL>
0.000818599

>  <SCORE.INTRA.REPUL.0>
0

>  <SCORE.INTRA.SOLV>
3.98714

>  <SCORE.INTRA.SOLV.lig_0>
-114.358

>  <SCORE.INTRA.VDW>
3.52814

>  <SCORE.INTRA.VDW.0>
-8.24257

>  <SCORE.INTRA.norm>
0.116401

>  <SCORE.RESTR>
3.7558

>  <SCORE.RESTR.CAVITY>
3.7558

>  <SCORE.RESTR.norm>
0.072227

>  <SCORE.SYSTEM>
0

>  <SCORE.SYSTEM.CONST>
0

>  <SCORE.SYSTEM.DIHEDRAL>
0

>  <SCORE.SYSTEM.SOLV>
0

>  <SCORE.SYSTEM.norm>
0

>  <SCORE.heavy>
52

>  <SCORE.norm>
0.159289

>  <RMSD>
4.259

$$$$
2esj_lig
 OpenBabel11021811423D
libRbt.so/2013.1/901 2013/11/27
 52 56  0  0  0  0  0  0  0  0999 V2000
   18.2622   -9.8533   17.0118 C   0  0  2  0  0  0  0  0  0  0  0  0
   19.2017   -9.1837   17.8743 O   0  0  0  0  0  0  0  0  0  0  0  0
   17.3625   -6.1574   20.2715 C   0  0  2  0  0  0  0  0  0  0  0  0
   17.0190   -4.9022   20.9598 N   0  0  0  0  0  0  0  0  0  0  0  0
   18.5568   -6.5686   15.8485 C   0  0  1  0  0  0  0  0  0  0  0  0
   21.0817   -4.1954   13.3935 C   0  0  1  0  0  0  0  0  0  0  0  0
   26.4259   -4.4911   13.6924 C   0  0  1  0  0  0  0  0  0  0  0  0
   18.4480  -11.3858   17.2164 C   0  0  2  0  0  0  0  0  0  0  0  0
   18.2831  -11.7814   18.6148 N   0  0  0  0  0  0  0  0  0  0  0  0
   18.8425   -6.5877   20.6205 C   0  0  0  0  0  0  0  0  0  0  0  0
   18.0197   -5.6505   14.7498 C   0  0  2  0  0  0  0  0  0  0  0  0
   17.8200   -6.3460   13.5000 O   0  0  0  0  0  0  0  0  0  0  0  0
   22.1077   -5.1053   12.5807 C   0  0  2  0  0  0  0  0  0  0  0  0
   22.6815   -6.1688   13.4472 N   0  0  0  0  0  0  0  0  0  0  0  0
   26.4686   -5.3702   14.9369 C   0  0  1  0  0  0  0  0  0  0  0  0
   27.6407   -6.2079   14.8851 O   0  0  0  0  0  0  0  0  0  0  0  0
   19.8441  -11.8525   16.6947 C   0  0  0  0  0  0  0  0  0  0  0  0
   19.1728   -7.9670   19.9205 C   0  0  2  0  0  0  0  0  0  0  0  0
   20.5474   -8.3828   20.2179 N   0  0  0  0  0  0  0  0  0  0  0  0
   19.1006   -4.6093   14.7100 C   0  0  2  0  0  0  0  0  0  0  0  0
   20.2317   -5.0996   14.0358 O   0  0  0  0  0  0  0  0  0  0  0  0
   23.1789   -4.1670   11.8685 C   0  0  1  0  0  0  0  0  0  0  0  0
   22.4882   -3.1576   11.1251 O   0  0  0  0  0  0  0  0  0  0  0  0
   26.4846   -4.6203   16.2635 C   0  0  1  0  0  0  0  0  0  0  0  0
   26.7625   -5.5800   17.2891 O   0  0  0  0  0  0  0  0  0  0  0  0
   20.0046  -11.3997   15.2131 C   0  0  2  0  0  0  0  0  0  0  0  0
   21.2211  -11.8583   14.6510 O   0  0  0  0  0  0  0  0  0  0  0  0
   18.9602   -7.8605   18.3880 C   0  0  2  0  0  0  0  0  0  0  0  0
   19.5785   -4.4404   16.1670 C   0  0  2  0  0  0  0  0  0  0  0  0
   19.3489   -5.7333   16.7042 O   0  0  0  0  0  0  0  0  0  0  0  0
   24.0647   -3.3921   12.9288 C   0  0  2  0  0  0  0  0  0  0  0  0
   24.7626   -4.4248   13.6264 O   0  0  0  0  0  0  0  0  0  0  0  0
   27.5222   -3.4980   16.3248 C   0  0  2  0  0  0  0  0  0  0  0  0
   27.2079   -2.7024   17.4794 O   0  0  0  0  0  0  0  0  0  0  0  0
   19.8987   -9.8553   15.1609 C   0  0  2  0  0  0  0  0  0  0  0  0
   18.5728   -9.4959   15.6443 O   0  0  0  0  0  0  0  0  0  0  0  0
   17.5525   -7.3244   17.9734 C   0  0  2  0  0  0  0  0  0  0  0  0
   17.4891   -7.1934   16.5259 O   0  0  0  0  0  0  0  0  0  0  0  0
   18.8379   -3.4033   17.0106 C   0  0  0  0  0  0  0  0  0  0  0  0
   19.6288   -3.1543   18.1820 O   0  0  0  0  0  0  0  0  0  0  0  0
   23.0878   -2.8103   13.9324 C   0  0  1  0  0  0  0  0  0  0  0  0
   21.8162   -3.3180   14.3905 O   0  0  0  0  0  0  0  0  0  0  0  0
   27.5758   -2.7138   15.0184 C   0  0  2  0  0  0  0  0  0  0  0  0
   27.3102   -3.3461   13.7569 O   0  0  0  0  0  0  0  0  0  0  0  0
   19.9911   -9.3095   13.7767 C   0  0  0  0  0  0  0  0  0  0  0  0
   21.2910   -9.5713   13.3059 O   0  0  0  0  0  0  0  0  0  0  0  0
   17.2252   -5.9853   18.7162 C   0  0  1  0  0  0  0  0  0  0  0  0
   15.8387   -5.6623   18.4287 O   0  0  0  0  0  0  0  0  0  0  0  0
   23.6947   -1.8990   15.0433 C   0  0  0  0  0  0  0  0  0  0  0  0
   24.2643   -0.6387   14.5218 N   0  0  0  0  0  0  0  0  0  0  0  0
   28.5276   -1.5421   14.7886 C   0  0  0  0  0  0  0  0  0  0  0  0
   29.8953   -1.9566   15.0461 O   0  0  0  0  0  0  0  0  0  0  0  0
  1  2  1  1  0  0  0
  1  8  1  0  0  0  0
  1 36  1  0  0  0  0
  3  4  1  1  0  0  0
  3 10  1  0  0  0  0
  3 47  1  0  0  0  0
  5 11  1  0  0  0  0
  5 30  1  0  0  0  0
  5 38  1  1  0  0  0
  6 21  1  1  0  0  0
  6 42  1  0  0  0  0
  7 15  1  0  0  0  0
  7 44  1  0  0  0  0
  7 32  1  1  0  0  0
  8  9  1  1  0  0  0
  8 17  1  0  0  0  0
 11 12  1  6  0  0  0
 11 20  1  0  0  0  0
 13  6  1  0  0  0  0
 13 14  1  1  0  0  0
 15 16  1  6  0  0  0
 15 24  1  0  0  0  0
 17 26  1  0  0  0  0
 18 10  1  0  0  0  0
 18 19  1  6  0  0  0
 20 21  1  6  0  0  0
 20 29  1  0  0  0  0
 22 13  1  0  0  0  0
 22 23  1  1  0  0  0
 24 25  1  1  0  0  0
 24 33  1  0  0  0  0
 26 27  1  1  0  0  0
 26 35  1  0  0  0  0
 28  2  1  6  0  0  0
 28 18  1  0  0  0  0
 29 30  1  0  0  0  0
 29 39  1  1  0  0  0
 31 22  1  0  0  0  0
 31 32  1  1  0  0  0
 31 41  1  0  0  0  0
 33 34  1  1  0  0  0
 33 43  1  0  0  0  0
 35 36  1  0  0  0  0
 35 45  1  6  0  0  0
 37 28  1  0  0  0  0
 37 38  1  6  0  0  0
 39 40  1  0  0  0  0
 41 42  1  0  0  0  0
 41 49  1  1  0  0  0
 43 44  1  0  0  0  0
 43 51  1  6  0  0  0
 45 46  1  0  0  0  0
 47 37  1  0  0  0  0
 47 48  1  1  0  0  0
 49 50  1  0  0  0  0
 51 52  1  0  0  0  0
M  END
>  <CHROM.1>
-152.66336222,-138.72381971,-172.16008548,158.87724112,152.86025567,128.43900965
-165.47887502,121.97690730,-66.14607969,-46.77121546,66.25218436,54.98948231
21.59725943,-5.94726758,15.83372501,-2.71263779,0.47799375,0.27233946

>  <Name>
2esj_lig

>  <RI>
0

>  <Rbt.Current_Directory>
/home/itssahil/PROJECTS/Mol_Feturizer/New_Systems/rnas/2esj

>  <Rbt.Executable>
rbdock ($Id: //depot/dev/client3/rdock/2013.1/src/exe/rbdock.cxx#4 $)

>  <Rbt.Library>
libRbt.so (2013.1, Build901 2013/11/27)

>  <Rbt.Parameter_File>
/export/apps/rDock/src/rDock_2013.1_src/data/scripts/dock_solv.prm

>  <Rbt.Receptor>
prm/pocket_docking_2.prm

>  <SCORE>
0.412053

>  <SCORE.INTER>
-5.59963

>  <SCORE.INTER.CONST>
1

>  <SCORE.INTER.POLAR>
-1.07488

>  <SCORE.INTER.ROT>
12

>  <SCORE.INTER.SOLV>
17.8694

>  <SCORE.INTER.VDW>
-17.7066

>  <SCORE.INTER.norm>
-0.107685

>  <SCORE.INTRA>
1.82214

>  <SCORE.INTRA.DIHEDRAL>
1.00396

>  <SCORE.INTRA.DIHEDRAL.0>
32.9766

>  <SCORE.INTRA.POLAR>
0

>  <SCORE.INTRA.POLAR.0>
0

>  <SCORE.INTRA.REPUL>
0

>  <SCORE.INTRA.REPUL.0>
0

>  <SCORE.INTRA.SOLV>
-1.93737

>  <SCORE.INTRA.SOLV.lig_0>
-114.358

>  <SCORE.INTRA.VDW>
2.28884

>  <SCORE.INTRA.VDW.0>
-8.24257

>  <SCORE.INTRA.norm>
0.0350412

>  <SCORE.RESTR>
4.18954

>  <SCORE.RESTR.CAVITY>
4.18954

>  <SCORE.RESTR.norm>
0.0805682

>  <SCORE.SYSTEM>
0

>  <SCORE.SYSTEM.CONST>
0

>  <SCORE.SYSTEM.DIHEDRAL>
0

>  <SCORE.SYSTEM.SOLV>
0

>  <SCORE.SYSTEM.norm>
0

>  <SCORE.heavy>
52

>  <SCORE.norm>
0.00792409

>  <RMSD>
4.273

$$$$
2esj_lig
 OpenBabel11021811423D
libRbt.so/2013.1/901 2013/11/27
 52 56  0  0  0  0  0  0  0  0999 V2000
   18.2803   -9.7350   17.3286 C   0  0  2  0  0  0  0  0  0  0  0  0
   19.3919   -9.1688   18.0487 O   0  0  0  0  0  0  0  0  0  0  0  0
   18.0488   -5.7812   20.2866 C   0  0  2  0  0  0  0  0  0  0  0  0
   17.9181   -4.4646   20.9322 N   0  0  0  0  0  0  0  0  0  0  0  0
   19.1007   -6.0636   15.9699 C   0  0  1  0  0  0  0  0  0  0  0  0
   21.4600   -3.5140   13.7098 C   0  0  1  0  0  0  0  0  0  0  0  0
   26.6862   -2.9316   13.2932 C   0  0  1  0  0  0  0  0  0  0  0  0
   17.9984  -11.1423   17.9328 C   0  0  2  0  0  0  0  0  0  0  0  0
   17.7447  -11.0858   19.3721 N   0  0  0  0  0  0  0  0  0  0  0  0
   19.3993   -6.4756   20.7239 C   0  0  0  0  0  0  0  0  0  0  0  0
   19.1393   -6.2981   14.4592 C   0  0  2  0  0  0  0  0  0  0  0  0
   20.0697   -7.3379   14.0871 O   0  0  0  0  0  0  0  0  0  0  0  0
   22.2923   -3.9509   12.4223 C   0  0  2  0  0  0  0  0  0  0  0  0
   23.1628   -5.1191   12.7197 N   0  0  0  0  0  0  0  0  0  0  0  0
   27.0286   -4.4079   13.4567 C   0  0  1  0  0  0  0  0  0  0  0  0
   28.3857   -4.6301   13.0238 O   0  0  0  0  0  0  0  0  0  0  0  0
   19.1800  -12.1209   17.6408 C   0  0  0  0  0  0  0  0  0  0  0  0
   19.4938   -7.9117   20.0680 C   0  0  2  0  0  0  0  0  0  0  0  0
   20.7465   -8.5732   20.4477 N   0  0  0  0  0  0  0  0  0  0  0  0
   19.5215   -4.9279   13.9790 C   0  0  2  0  0  0  0  0  0  0  0  0
   20.8918   -4.6977   14.1880 O   0  0  0  0  0  0  0  0  0  0  0  0
   23.0507   -2.6776   11.8403 C   0  0  1  0  0  0  0  0  0  0  0  0
   22.1059   -1.6169   11.6641 O   0  0  0  0  0  0  0  0  0  0  0  0
   26.8907   -4.9553   14.8723 C   0  0  1  0  0  0  0  0  0  0  0  0
   27.4718   -6.2639   14.8786 O   0  0  0  0  0  0  0  0  0  0  0  0
   19.4453  -12.1455   16.1063 C   0  0  2  0  0  0  0  0  0  0  0  0
   20.4574  -13.0746   15.7617 O   0  0  0  0  0  0  0  0  0  0  0  0
   19.3831   -7.8099   18.5245 C   0  0  2  0  0  0  0  0  0  0  0  0
   18.8263   -3.9361   14.9342 C   0  0  2  0  0  0  0  0  0  0  0  0
   18.7753   -4.6774   16.1428 O   0  0  0  0  0  0  0  0  0  0  0  0
   24.1293   -2.1295   12.8627 C   0  0  2  0  0  0  0  0  0  0  0  0
   25.0702   -3.1970   12.9876 O   0  0  0  0  0  0  0  0  0  0  0  0
   27.5725   -4.0928   15.9359 C   0  0  2  0  0  0  0  0  0  0  0  0
   27.0976   -4.5520   17.2120 O   0  0  0  0  0  0  0  0  0  0  0  0
   19.8094  -10.7105   15.6512 C   0  0  2  0  0  0  0  0  0  0  0  0
   18.6617   -9.8612   15.9384 O   0  0  0  0  0  0  0  0  0  0  0  0
   18.1270   -7.0273   18.0237 C   0  0  2  0  0  0  0  0  0  0  0  0
   18.1629   -6.9274   16.5728 O   0  0  0  0  0  0  0  0  0  0  0  0
   17.4137   -3.4972   14.5500 C   0  0  0  0  0  0  0  0  0  0  0  0
   16.9829   -2.5299   15.5188 O   0  0  0  0  0  0  0  0  0  0  0  0
   23.4220   -2.0506   14.2020 C   0  0  1  0  0  0  0  0  0  0  0  0
   22.3683   -2.8753   14.7443 O   0  0  0  0  0  0  0  0  0  0  0  0
   27.3463   -2.6068   15.6803 C   0  0  2  0  0  0  0  0  0  0  0  0
   27.2146   -2.0904   14.3469 O   0  0  0  0  0  0  0  0  0  0  0  0
   20.0395  -10.6039   14.1821 C   0  0  0  0  0  0  0  0  0  0  0  0
   21.0935   -9.6926   13.9852 O   0  0  0  0  0  0  0  0  0  0  0  0
   18.0255   -5.6299   18.7233 C   0  0  1  0  0  0  0  0  0  0  0  0
   16.7430   -5.0569   18.3544 O   0  0  0  0  0  0  0  0  0  0  0  0
   24.2366   -1.4359   15.3816 C   0  0  0  0  0  0  0  0  0  0  0  0
   25.0021   -0.2303   15.0002 N   0  0  0  0  0  0  0  0  0  0  0  0
   27.9192   -1.5108   16.5759 C   0  0  0  0  0  0  0  0  0  0  0  0
   28.0097   -1.9864   17.9450 O   0  0  0  0  0  0  0  0  0  0  0  0
  1  2  1  1  0  0  0
  1  8  1  0  0  0  0
  1 36  1  0  0  0  0
  3  4  1  1  0  0  0
  3 10  1  0  0  0  0
  3 47  1  0  0  0  0
  5 11  1  0  0  0  0
  5 30  1  0  0  0  0
  5 38  1  1  0  0  0
  6 21  1  1  0  0  0
  6 42  1  0  0  0  0
  7 15  1  0  0  0  0
  7 44  1  0  0  0  0
  7 32  1  1  0  0  0
  8  9  1  1  0  0  0
  8 17  1  0  0  0  0
 11 12  1  1  0  0  0
 11 20  1  0  0  0  0
 13  6  1  0  0  0  0
 13 14  1  1  0  0  0
 15 16  1  1  0  0  0
 15 24  1  0  0  0  0
 17 26  1  0  0  0  0
 18 10  1  0  0  0  0
 18 19  1  6  0  0  0
 20 21  1  1  0  0  0
 20 29  1  0  0  0  0
 22 13  1  0  0  0  0
 22 23  1  1  0  0  0
 24 25  1  6  0  0  0
 24 33  1  0  0  0  0
 26 27  1  1  0  0  0
 26 35  1  0  0  0  0
 28  2  1  6  0  0  0
 28 18  1  0  0  0  0
 29 30  1  0  0  0  0
 29 39  1  6  0  0  0
 31 22  1  0  0  0  0
 31 32  1  1  0  0  0
 31 41  1  0  0  0  0
 33 34  1  1  0  0  0
 33 43  1  0  0  0  0
 35 36  1  0  0  0  0
 35 45  1  6  0  0  0
 37 28  1  0  0  0  0
 37 38  1  6  0  0  0
 39 40  1  0  0  0  0
 41 42  1  0  0  0  0
 41 49  1  1  0  0  0
 43 44  1  0  0  0  0
 43 51  1  6  0  0  0
 45 46  1  0  0  0  0
 47 37  1  0  0  0  0
 47 48  1  1  0  0  0
 49 50  1  0  0  0  0
 51 52  1  0  0  0  0
M  END
>  <CHROM.1>
-134.24850107,169.83217488,-105.06939890,173.86147887,175.06576076,118.15400603
-176.88415982,149.08824566,-142.86777542,-72.14065818,42.78061678,-31.34835921
21.69742865,-5.71815073,15.81012287,-2.43246259,0.24628433,-0.20558789

>  <Name>
2esj_lig

>  <RI>
0

>  <Rbt.Current_Directory>
/home/itssahil/PROJECTS/Mol_Feturizer/New_Systems/rnas/2esj

>  <Rbt.Executable>
rbdock ($Id: //depot/dev/client3/rdock/2013.1/src/exe/rbdock.cxx#4 $)

>  <Rbt.Library>
libRbt.so (2013.1, Build901 2013/11/27)

>  <Rbt.Parameter_File>
/export/apps/rDock/src/rDock_2013.1_src/data/scripts/dock_solv.prm

>  <Rbt.Receptor>
prm/pocket_docking_2.prm

>  <SCORE>
11.1005

>  <SCORE.INTER>
2.72568

>  <SCORE.INTER.CONST>
1

>  <SCORE.INTER.POLAR>
0

>  <SCORE.INTER.ROT>
12

>  <SCORE.INTER.SOLV>
18.4484

>  <SCORE.INTER.VDW>
-15.9323

>  <SCORE.INTER.norm>
0.052417

>  <SCORE.INTRA>
3.61413

>  <SCORE.INTRA.DIHEDRAL>
1.0689

>  <SCORE.INTRA.DIHEDRAL.0>
32.9766

>  <SCORE.INTRA.POLAR>
0

>  <SCORE.INTRA.POLAR.0>
0

>  <SCORE.INTRA.REPUL>
0

>  <SCORE.INTRA.REPUL.0>
0

>  <SCORE.INTRA.SOLV>
1.36427

>  <SCORE.INTRA.SOLV.lig_0>
-114.358

>  <SCORE.INTRA.VDW>
2.39754

>  <SCORE.INTRA.VDW.0>
-8.24257

>  <SCORE.INTRA.norm>
0.0695025

>  <SCORE.RESTR>
4.76069

>  <SCORE.RESTR.CAVITY>
4.76069

>  <SCORE.RESTR.norm>
0.0915517

>  <SCORE.SYSTEM>
0

>  <SCORE.SYSTEM.CONST>
0

>  <SCORE.SYSTEM.DIHEDRAL>
0

>  <SCORE.SYSTEM.SOLV>
0

>  <SCORE.SYSTEM.norm>
0

>  <SCORE.heavy>
52

>  <SCORE.norm>
0.213471

>  <RMSD>
4.318

$$$$
2esj_lig
 OpenBabel11021811423D
libRbt.so/2013.1/901 2013/11/27
 52 56  0  0  0  0  0  0  0  0999 V2000
   18.7677   -9.4783   17.3108 C   0  0  2  0  0  0  0  0  0  0  0  0
   19.6337   -8.7167   18.1739 O   0  0  0  0  0  0  0  0  0  0  0  0
   17.3256   -6.0564   20.5994 C   0  0  2  0  0  0  0  0  0  0  0  0
   16.8094   -4.8926   21.3385 N   0  0  0  0  0  0  0  0  0  0  0  0
   18.9685   -6.1178   16.2682 C   0  0  1  0  0  0  0  0  0  0  0  0
   21.6624   -4.7443   13.3704 C   0  0  1  0  0  0  0  0  0  0  0  0
   26.5295   -2.7184   13.3531 C   0  0  1  0  0  0  0  0  0  0  0  0
   17.7882  -10.2794   18.2185 C   0  0  2  0  0  0  0  0  0  0  0  0
   17.0330   -9.4100   19.1203 N   0  0  0  0  0  0  0  0  0  0  0  0
   18.8061   -6.3792   21.0481 C   0  0  0  0  0  0  0  0  0  0  0  0
   18.7801   -5.9301   14.7622 C   0  0  2  0  0  0  0  0  0  0  0  0
   19.2643   -7.0584   14.0020 O   0  0  0  0  0  0  0  0  0  0  0  0
   23.1356   -5.2444   13.7181 C   0  0  2  0  0  0  0  0  0  0  0  0
   23.6226   -4.6337   14.9833 N   0  0  0  0  0  0  0  0  0  0  0  0
   26.8408   -4.2076   13.4469 C   0  0  1  0  0  0  0  0  0  0  0  0
   28.1146   -4.4653   12.8228 O   0  0  0  0  0  0  0  0  0  0  0  0
   18.5528  -11.3628   19.0435 C   0  0  0  0  0  0  0  0  0  0  0  0
   19.3219   -7.6665   20.2877 C   0  0  2  0  0  0  0  0  0  0  0  0
   20.7007   -7.9803   20.6767 N   0  0  0  0  0  0  0  0  0  0  0  0
   19.5547   -4.6624   14.5452 C   0  0  2  0  0  0  0  0  0  0  0  0
   20.9356   -4.9223   14.5505 O   0  0  0  0  0  0  0  0  0  0  0  0
   24.0734   -5.0094   12.4531 C   0  0  1  0  0  0  0  0  0  0  0  0
   23.4529   -5.5922   11.3024 O   0  0  0  0  0  0  0  0  0  0  0  0
   26.8860   -4.7755   14.8603 C   0  0  1  0  0  0  0  0  0  0  0  0
   27.4170   -6.1020   14.7669 O   0  0  0  0  0  0  0  0  0  0  0  0
   19.3663  -12.2598   18.0640 C   0  0  2  0  0  0  0  0  0  0  0  0
   20.0254  -13.3152   18.7405 O   0  0  0  0  0  0  0  0  0  0  0  0
   19.2266   -7.4630   18.7532 C   0  0  2  0  0  0  0  0  0  0  0  0
   19.3306   -3.8083   15.8101 C   0  0  2  0  0  0  0  0  0  0  0  0
   19.1487   -4.8009   16.8074 O   0  0  0  0  0  0  0  0  0  0  0  0
   24.2275   -3.4671   12.1258 C   0  0  2  0  0  0  0  0  0  0  0  0
   24.8784   -2.9265   13.2766 O   0  0  0  0  0  0  0  0  0  0  0  0
   27.7404   -3.9545   15.8277 C   0  0  2  0  0  0  0  0  0  0  0  0
   27.4354   -4.4211   17.1521 O   0  0  0  0  0  0  0  0  0  0  0  0
   20.3675  -11.3608   17.2968 C   0  0  2  0  0  0  0  0  0  0  0  0
   19.5870  -10.3903   16.5420 O   0  0  0  0  0  0  0  0  0  0  0  0
   17.8132   -7.0237   18.2529 C   0  0  2  0  0  0  0  0  0  0  0  0
   17.8566   -6.7891   16.8178 O   0  0  0  0  0  0  0  0  0  0  0  0
   18.1193   -2.8766   15.7969 C   0  0  0  0  0  0  0  0  0  0  0  0
   18.3607   -1.8676   14.8052 O   0  0  0  0  0  0  0  0  0  0  0  0
   22.8209   -2.9005   12.1490 C   0  0  1  0  0  0  0  0  0  0  0  0
   21.6775   -3.2890   12.9405 O   0  0  0  0  0  0  0  0  0  0  0  0
   27.5313   -2.4577   15.6264 C   0  0  2  0  0  0  0  0  0  0  0  0
   27.2301   -1.9135   14.3322 O   0  0  0  0  0  0  0  0  0  0  0  0
   21.1727  -12.1097   16.2901 C   0  0  0  0  0  0  0  0  0  0  0  0
   22.0692  -11.1973   15.7038 O   0  0  0  0  0  0  0  0  0  0  0  0
   17.3006   -5.7793   19.0535 C   0  0  1  0  0  0  0  0  0  0  0  0
   15.9180   -5.5595   18.6668 O   0  0  0  0  0  0  0  0  0  0  0  0
   22.6710   -1.3995   11.7523 C   0  0  0  0  0  0  0  0  0  0  0  0
   22.8155   -1.1592   10.3011 N   0  0  0  0  0  0  0  0  0  0  0  0
   28.2623   -1.3968   16.4461 C   0  0  0  0  0  0  0  0  0  0  0  0
   27.9422   -1.5507   17.8541 O   0  0  0  0  0  0  0  0  0  0  0  0
  1  2  1  1  0  0  0
  1  8  1  0  0  0  0
  1 36  1  0  0  0  0
  3  4  1  1  0  0  0
  3 10  1  0  0  0  0
  3 47  1  0  0  0  0
  5 11  1  0  0  0  0
  5 30  1  0  0  0  0
  5 38  1  1  0  0  0
  6 21  1  1  0  0  0
  6 42  1  0  0  0  0
  7 15  1  0  0  0  0
  7 44  1  0  0  0  0
  7 32  1  1  0  0  0
  8  9  1  1  0  0  0
  8 17  1  0  0  0  0
 11 12  1  6  0  0  0
 11 20  1  0  0  0  0
 13  6  1  0  0  0  0
 13 14  1  1  0  0  0
 15 16  1  1  0  0  0
 15 24  1  0  0  0  0
 17 26  1  0  0  0  0
 18 10  1  0  0  0  0
 18 19  1  6  0  0  0
 20 21  1  1  0  0  0
 20 29  1  0  0  0  0
 22 13  1  0  0  0  0
 22 23  1  6  0  0  0
 24 25  1  6  0  0  0
 24 33  1  0  0  0  0
 26 27  1  1  0  0  0
 26 35  1  0  0  0  0
 28  2  1  6  0  0  0
 28 18  1  0  0  0  0
 29 30  1  0  0  0  0
 29 39  1  6  0  0  0
 31 22  1  0  0  0  0
 31 32  1  1  0  0  0
 31 41  1  0  0  0  0
 33 34  1  1  0  0  0
 33 43  1  0  0  0  0
 35 36  1  0  0  0  0
 35 45  1  6  0  0  0
 37 28  1  0  0  0  0
 37 38  1  6  0  0  0
 39 40  1  0  0  0  0
 41 42  1  0  0  0  0
 41 49  1  1  0  0  0
 43 44  1  0  0  0  0
 43 51  1  6  0  0  0
 45 46  1  0  0  0  0
 47 37  1  0  0  0  0
 47 48  1  6  0  0  0
 49 50  1  0  0  0  0
 51 52  1  0  0  0  0
M  END
>  <CHROM.1>
-81.14266339,-177.70258203,-175.33611544,-71.15567501,113.62128269,120.85597706
-66.81715596,95.36436951,-177.86089279,-41.58649204,74.37494012,-60.48772134
21.66608973,-5.87616315,15.98300896,-2.39222077,0.22589571,-0.44893859

>  <Name>
2esj_lig

>  <RI>
1.01272e+07

>  <Rbt.Current_Directory>
/home/itssahil/PROJECTS/Mol_Feturizer/New_Systems/rnas/2esj

>  <Rbt.Executable>
rbdock ($Id: //depot/dev/client3/rdock/2013.1/src/exe/rbdock.cxx#4 $)

>  <Rbt.Library>
libRbt.so (2013.1, Build901 2013/11/27)

>  <Rbt.Parameter_File>
/export/apps/rDock/src/rDock_2013.1_src/data/scripts/dock_solv.prm

>  <Rbt.Receptor>
prm/pocket_docking_3.prm

>  <SCORE>
-0.302213

>  <SCORE.INTER>
-3.29885

>  <SCORE.INTER.CONST>
1

>  <SCORE.INTER.POLAR>
-0.448284

>  <SCORE.INTER.ROT>
12

>  <SCORE.INTER.SOLV>
17.3514

>  <SCORE.INTER.VDW>
-18.0888

>  <SCORE.INTER.norm>
-0.0634394

>  <SCORE.INTRA>
2.0382

>  <SCORE.INTRA.DIHEDRAL>
-5.46065

>  <SCORE.INTRA.DIHEDRAL.0>
32.9766

>  <SCORE.INTRA.POLAR>
0

>  <SCORE.INTRA.POLAR.0>
0

>  <SCORE.INTRA.REPUL>
0

>  <SCORE.INTRA.REPUL.0>
0

>  <SCORE.INTRA.SOLV>
1.33091

>  <SCORE.INTRA.SOLV.lig_0>
-114.358

>  <SCORE.INTRA.VDW>
4.10307

>  <SCORE.INTRA.VDW.0>
-8.24257

>  <SCORE.INTRA.norm>
0.0391962

>  <SCORE.RESTR>
0.958432

>  <SCORE.RESTR.CAVITY>
0.958432

>  <SCORE.RESTR.norm>
0.0184314

>  <SCORE.SYSTEM>
0

>  <SCORE.SYSTEM.CONST>
0

>  <SCORE.SYSTEM.DIHEDRAL>
0

>  <SCORE.SYSTEM.SOLV>
0

>  <SCORE.SYSTEM.norm>
0

>  <SCORE.heavy>
52

>  <SCORE.norm>
-0.00581179

>  <RMSD>
4.345

$$$$
2esj_lig
 OpenBabel11021811423D
libRbt.so/2013.1/901 2013/11/27
 52 56  0  0  0  0  0  0  0  0999 V2000
   20.7078   -9.2524   20.5878 C   0  0  2  0  0  0  0  0  0  0  0  0
   20.9714   -7.9236   20.0982 O   0  0  0  0  0  0  0  0  0  0  0  0
   17.1942   -6.1052   20.9430 C   0  0  2  0  0  0  0  0  0  0  0  0
   16.0880   -5.1567   21.1528 N   0  0  0  0  0  0  0  0  0  0  0  0
   20.0867   -6.0542   17.3875 C   0  0  1  0  0  0  0  0  0  0  0  0
   22.4983   -3.2532   15.3270 C   0  0  1  0  0  0  0  0  0  0  0  0
   26.9682   -3.9107   13.3469 C   0  0  1  0  0  0  0  0  0  0  0  0
   22.0398  -10.0548   20.5060 C   0  0  2  0  0  0  0  0  0  0  0  0
   23.1230   -9.4060   21.2442 N   0  0  0  0  0  0  0  0  0  0  0  0
   18.4267   -5.7214   21.8547 C   0  0  0  0  0  0  0  0  0  0  0  0
   20.6869   -6.3682   16.0165 C   0  0  2  0  0  0  0  0  0  0  0  0
   21.9336   -7.0903   16.1136 O   0  0  0  0  0  0  0  0  0  0  0  0
   23.3117   -3.9240   14.1314 C   0  0  2  0  0  0  0  0  0  0  0  0
   24.1746   -5.0293   14.6260 N   0  0  0  0  0  0  0  0  0  0  0  0
   27.8670   -4.6518   14.3300 C   0  0  1  0  0  0  0  0  0  0  0  0
   28.2361   -5.9263   13.7662 O   0  0  0  0  0  0  0  0  0  0  0  0
   22.4680  -10.2740   19.0201 C   0  0  0  0  0  0  0  0  0  0  0  0
   19.5816   -6.7844   21.6599 C   0  0  2  0  0  0  0  0  0  0  0  0
   20.7444   -6.4432   22.4860 N   0  0  0  0  0  0  0  0  0  0  0  0
   20.8189   -4.9834   15.4516 C   0  0  2  0  0  0  0  0  0  0  0  0
   21.9246   -4.3250   16.0160 O   0  0  0  0  0  0  0  0  0  0  0  0
   24.0753   -2.7849   13.3224 C   0  0  1  0  0  0  0  0  0  0  0  0
   23.1385   -1.7627   12.9671 O   0  0  0  0  0  0  0  0  0  0  0  0
   29.1465   -3.9216   14.7201 C   0  0  1  0  0  0  0  0  0  0  0  0
   29.9604   -4.8509   15.4441 O   0  0  0  0  0  0  0  0  0  0  0  0
   21.2910  -10.9439   18.2510 C   0  0  2  0  0  0  0  0  0  0  0  0
   21.6398  -11.2427   16.9111 O   0  0  0  0  0  0  0  0  0  0  0  0
   19.9881   -6.8740   20.1659 C   0  0  2  0  0  0  0  0  0  0  0  0
   19.6040   -4.1935   15.9806 C   0  0  2  0  0  0  0  0  0  0  0  0
   19.3583   -4.8293   17.2250 O   0  0  0  0  0  0  0  0  0  0  0  0
   25.1706   -2.0739   14.2191 C   0  0  2  0  0  0  0  0  0  0  0  0
   26.1028   -3.1120   14.5252 O   0  0  0  0  0  0  0  0  0  0  0  0
   29.9352   -3.3795   13.5268 C   0  0  2  0  0  0  0  0  0  0  0  0
   30.9149   -2.4697   14.0534 O   0  0  0  0  0  0  0  0  0  0  0  0
   20.0624  -10.0036   18.3244 C   0  0  2  0  0  0  0  0  0  0  0  0
   19.7120   -9.8586   19.7305 O   0  0  0  0  0  0  0  0  0  0  0  0
   18.7938   -7.1333   19.1927 C   0  0  2  0  0  0  0  0  0  0  0  0
   19.2744   -7.1232   17.8196 O   0  0  0  0  0  0  0  0  0  0  0  0
   18.3363   -4.2427   15.1284 C   0  0  0  0  0  0  0  0  0  0  0  0
   17.3990   -3.3147   15.6939 O   0  0  0  0  0  0  0  0  0  0  0  0
   24.4794   -1.7473   15.5289 C   0  0  1  0  0  0  0  0  0  0  0  0
   23.4242   -2.4490   16.2209 O   0  0  0  0  0  0  0  0  0  0  0  0
   29.0128   -2.7693   12.4774 C   0  0  2  0  0  0  0  0  0  0  0  0
   27.6883   -3.2796   12.2604 O   0  0  0  0  0  0  0  0  0  0  0  0
   18.8540  -10.5676   17.6580 C   0  0  0  0  0  0  0  0  0  0  0  0
   17.8264   -9.6127   17.7693 O   0  0  0  0  0  0  0  0  0  0  0  0
   17.6414   -6.1016   19.4373 C   0  0  1  0  0  0  0  0  0  0  0  0
   16.5059   -6.5284   18.6387 O   0  0  0  0  0  0  0  0  0  0  0  0
   25.3131   -0.9395   16.5707 C   0  0  0  0  0  0  0  0  0  0  0  0
   25.7917   -1.7607   17.7025 N   0  0  0  0  0  0  0  0  0  0  0  0
   29.5226   -2.1595   11.1736 C   0  0  0  0  0  0  0  0  0  0  0  0
   29.2714   -3.0687   10.0695 O   0  0  0  0  0  0  0  0  0  0  0  0
  1  2  1  6  0  0  0
  1  8  1  0  0  0  0
  1 36  1  0  0  0  0
  3  4  1  6  0  0  0
  3 10  1  0  0  0  0
  3 47  1  0  0  0  0
  5 11  1  0  0  0  0
  5 30  1  0  0  0  0
  5 38  1  6  0  0  0
  6 21  1  1  0  0  0
  6 42  1  0  0  0  0
  7 15  1  0  0  0  0
  7 44  1  0  0  0  0
  7 32  1  1  0  0  0
  8  9  1  1  0  0  0
  8 17  1  0  0  0  0
 11 12  1  1  0  0  0
 11 20  1  0  0  0  0
 13  6  1  0  0  0  0
 13 14  1  1  0  0  0
 15 16  1  6  0  0  0
 15 24  1  0  0  0  0
 17 26  1  0  0  0  0
 18 10  1  0  0  0  0
 18 19  1  1  0  0  0
 20 21  1  1  0  0  0
 20 29  1  0  0  0  0
 22 13  1  0  0  0  0
 22 23  1  1  0  0  0
 24 25  1  6  0  0  0
 24 33  1  0  0  0  0
 26 27  1  6  0  0  0
 26 35  1  0  0  0  0
 28  2  1  1  0  0  0
 28 18  1  0  0  0  0
 29 30  1  0  0  0  0
 29 39  1  6  0  0  0
 31 22  1  0  0  0  0
 31 32  1  1  0  0  0
 31 41  1  0  0  0  0
 33 34  1  1  0  0  0
 33 43  1  0  0  0  0
 35 36  1  0  0  0  0
 35 45  1  6  0  0  0
 37 28  1  0  0  0  0
 37 38  1  6  0  0  0
 39 40  1  0  0  0  0
 41 42  1  0  0  0  0
 41 49  1  1  0  0  0
 43 44  1  0  0  0  0
 43 51  1  6  0  0  0
 45 46  1  0  0  0  0
 47 37  1  0  0  0  0
 47 48  1  6  0  0  0
 49 50  1  0  0  0  0
 51 52  1  0  0  0  0
M  END
>  <CHROM.1>
-173.33324406,169.48230320,-74.83645606,171.32867691,157.93572698,55.39580796
-172.50759112,61.66597284,-178.76303797,-49.33011966,-105.35081376,104.04689387
22.69457282,-5.53117892,16.66505724,-2.48920640,0.30610774,-0.53577250

>  <Name>
2esj_lig

>  <RI>
2.18877e+07

>  <Rbt.Current_Directory>
/home/itssahil/PROJECTS/Mol_Feturizer/New_Systems/rnas/2esj

>  <Rbt.Executable>
rbdock ($Id: //depot/dev/client3/rdock/2013.1/src/exe/rbdock.cxx#4 $)

>  <Rbt.Library>
libRbt.so (2013.1, Build901 2013/11/27)

>  <Rbt.Parameter_File>
/export/apps/rDock/src/rDock_2013.1_src/data/scripts/dock_solv.prm

>  <Rbt.Receptor>
prm/pocket_docking_7.prm

>  <SCORE>
-13.7031

>  <SCORE.INTER>
-4.58637

>  <SCORE.INTER.CONST>
1

>  <SCORE.INTER.POLAR>
-0.977582

>  <SCORE.INTER.ROT>
12

>  <SCORE.INTER.SOLV>
15.7651

>  <SCORE.INTER.VDW>
-16.654

>  <SCORE.INTER.norm>
-0.0881994

>  <SCORE.INTRA>
-9.11678

>  <SCORE.INTRA.DIHEDRAL>
-21.2452

>  <SCORE.INTRA.DIHEDRAL.0>
32.9766

>  <SCORE.INTRA.POLAR>
0

>  <SCORE.INTRA.POLAR.0>
0

>  <SCORE.INTRA.REPUL>
0

>  <SCORE.INTRA.REPUL.0>
0

>  <SCORE.INTRA.SOLV>
-0.790286

>  <SCORE.INTRA.SOLV.lig_0>
-114.358

>  <SCORE.INTRA.VDW>
1.90095

>  <SCORE.INTRA.VDW.0>
-8.24257

>  <SCORE.INTRA.norm>
-0.175323

>  <SCORE.RESTR>
0

>  <SCORE.RESTR.CAVITY>
0

>  <SCORE.RESTR.norm>
0

>  <SCORE.SYSTEM>
0

>  <SCORE.SYSTEM.CONST>
0

>  <SCORE.SYSTEM.DIHEDRAL>
0

>  <SCORE.SYSTEM.SOLV>
0

>  <SCORE.SYSTEM.norm>
0

>  <SCORE.heavy>
52

>  <SCORE.norm>
-0.263522

>  <RMSD>
4.349

$$$$
2esj_lig
 OpenBabel11021811423D
libRbt.so/2013.1/901 2013/11/27
 52 56  0  0  0  0  0  0  0  0999 V2000
   18.5734   -4.9588   17.0779 C   0  0  2  0  0  0  0  0  0  0  0  0
   18.1129   -5.8085   16.0098 O   0  0  0  0  0  0  0  0  0  0  0  0
   19.0500   -9.7091   17.4915 C   0  0  2  0  0  0  0  0  0  0  0  0
   19.0411  -11.1423   17.8279 N   0  0  0  0  0  0  0  0  0  0  0  0
   19.8792   -6.5749   13.6558 C   0  0  1  0  0  0  0  0  0  0  0  0
   21.9785   -3.4697   11.8457 C   0  0  1  0  0  0  0  0  0  0  0  0
   26.2943   -0.4581   12.6100 C   0  0  1  0  0  0  0  0  0  0  0  0
   18.7750   -3.5319   16.4878 C   0  0  2  0  0  0  0  0  0  0  0  0
   17.5576   -3.0138   15.8643 N   0  0  0  0  0  0  0  0  0  0  0  0
   17.7229   -9.0177   17.9997 C   0  0  0  0  0  0  0  0  0  0  0  0
   21.3115   -6.8483   13.1950 C   0  0  2  0  0  0  0  0  0  0  0  0
   22.2684   -6.7254   14.2695 O   0  0  0  0  0  0  0  0  0  0  0  0
   23.4398   -3.7990   11.3006 C   0  0  2  0  0  0  0  0  0  0  0  0
   24.3562   -4.1626   12.4137 N   0  0  0  0  0  0  0  0  0  0  0  0
   26.9044   -1.3385   13.6946 C   0  0  1  0  0  0  0  0  0  0  0  0
   28.3145   -1.0562   13.7961 O   0  0  0  0  0  0  0  0  0  0  0  0
   19.9471   -3.5161   15.4558 C   0  0  0  0  0  0  0  0  0  0  0  0
   17.7768   -7.4691   17.6825 C   0  0  2  0  0  0  0  0  0  0  0  0
   16.5490   -6.8051   18.1326 N   0  0  0  0  0  0  0  0  0  0  0  0
   21.4559   -5.8109   12.1193 C   0  0  2  0  0  0  0  0  0  0  0  0
   21.6590   -4.5407   12.6845 O   0  0  0  0  0  0  0  0  0  0  0  0
   23.9355   -2.5919   10.3882 C   0  0  1  0  0  0  0  0  0  0  0  0
   22.9323   -2.3120    9.4063 O   0  0  0  0  0  0  0  0  0  0  0  0
   26.2921   -1.1818   15.0813 C   0  0  1  0  0  0  0  0  0  0  0  0
   27.1318   -1.8926   15.9977 O   0  0  0  0  0  0  0  0  0  0  0  0
   21.2239   -4.0933   16.1357 C   0  0  2  0  0  0  0  0  0  0  0  0
   22.3490   -4.0369   15.2772 O   0  0  0  0  0  0  0  0  0  0  0  0
   17.9922   -7.2349   16.1646 C   0  0  2  0  0  0  0  0  0  0  0  0
   20.0716   -5.7036   11.4471 C   0  0  2  0  0  0  0  0  0  0  0  0
   19.1986   -6.0304   12.5167 O   0  0  0  0  0  0  0  0  0  0  0  0
   24.0993   -1.2600   11.2299 C   0  0  2  0  0  0  0  0  0  0  0  0
   25.1276   -1.5642   12.1734 O   0  0  0  0  0  0  0  0  0  0  0  0
   26.1617    0.2727   15.5369 C   0  0  2  0  0  0  0  0  0  0  0  0
   25.3022    0.2732   16.6884 O   0  0  0  0  0  0  0  0  0  0  0  0
   20.9229   -5.5441   16.5869 C   0  0  2  0  0  0  0  0  0  0  0  0
   19.8365   -5.4796   17.5547 O   0  0  0  0  0  0  0  0  0  0  0  0
   19.2238   -7.9900   15.5696 C   0  0  2  0  0  0  0  0  0  0  0  0
   19.2868   -7.7620   14.1341 O   0  0  0  0  0  0  0  0  0  0  0  0
   19.8093   -6.6469   10.2737 C   0  0  0  0  0  0  0  0  0  0  0  0
   18.5206   -6.3182    9.7344 O   0  0  0  0  0  0  0  0  0  0  0  0
   22.8256   -1.1295   12.0428 C   0  0  1  0  0  0  0  0  0  0  0  0
   21.9711   -2.1520   12.5985 O   0  0  0  0  0  0  0  0  0  0  0  0
   25.6897    1.1742   14.4015 C   0  0  2  0  0  0  0  0  0  0  0  0
   26.0436    0.9030   13.0366 O   0  0  0  0  0  0  0  0  0  0  0  0
   22.0662   -6.1843   17.2977 C   0  0  0  0  0  0  0  0  0  0  0  0
   21.7149   -7.5252   17.5399 O   0  0  0  0  0  0  0  0  0  0  0  0
   19.1764   -9.5111   15.9384 C   0  0  1  0  0  0  0  0  0  0  0  0
   20.4393  -10.0941   15.5206 O   0  0  0  0  0  0  0  0  0  0  0  0
   22.6771    0.1679   12.8959 C   0  0  0  0  0  0  0  0  0  0  0  0
   21.9725   -0.0500   14.1768 N   0  0  0  0  0  0  0  0  0  0  0  0
   25.4805    2.6780   14.5639 C   0  0  0  0  0  0  0  0  0  0  0  0
   24.6724    3.1871   13.4700 O   0  0  0  0  0  0  0  0  0  0  0  0
  1  2  1  6  0  0  0
  1  8  1  0  0  0  0
  1 36  1  0  0  0  0
  3  4  1  6  0  0  0
  3 10  1  0  0  0  0
  3 47  1  0  0  0  0
  5 11  1  0  0  0  0
  5 30  1  0  0  0  0
  5 38  1  6  0  0  0
  6 21  1  1  0  0  0
  6 42  1  0  0  0  0
  7 15  1  0  0  0  0
  7 44  1  0  0  0  0
  7 32  1  1  0  0  0
  8  9  1  6  0  0  0
  8 17  1  0  0  0  0
 11 12  1  1  0  0  0
 11 20  1  0  0  0  0
 13  6  1  0  0  0  0
 13 14  1  1  0  0  0
 15 16  1  1  0  0  0
 15 24  1  0  0  0  0
 17 26  1  0  0  0  0
 18 10  1  0  0  0  0
 18 19  1  6  0  0  0
 20 21  1  1  0  0  0
 20 29  1  0  0  0  0
 22 13  1  0  0  0  0
 22 23  1  6  0  0  0
 24 25  1  1  0  0  0
 24 33  1  0  0  0  0
 26 27  1  6  0  0  0
 26 35  1  0  0  0  0
 28  2  1  1  0  0  0
 28 18  1  0  0  0  0
 29 30  1  0  0  0  0
 29 39  1  6  0  0  0
 31 22  1  0  0  0  0
 31 32  1  1  0  0  0
 31 41  1  0  0  0  0
 33 34  1  1  0  0  0
 33 43  1  0  0  0  0
 35 36  1  0  0  0  0
 35 45  1  1  0  0  0
 37 28  1  0  0  0  0
 37 38  1  6  0  0  0
 39 40  1  0  0  0  0
 41 42  1  0  0  0  0
 41 49  1  1  0  0  0
 43 44  1  0  0  0  0
 43 51  1  1  0  0  0
 45 46  1  0  0  0  0
 47 37  1  0  0  0  0
 47 48  1  1  0  0  0
 49 50  1  0  0  0  0
 51 52  1  0  0  0  0
M  END
>  <CHROM.1>
171.73105800,100.00226663,-68.05091798,173.85040087,172.26358268,26.00045914
-175.71396177,141.22656629,-174.57929463,82.43558685,-145.27613958,-163.24122185
21.85986293,-4.12226939,14.35238343,-2.87294795,-0.87172202,-1.55689293

>  <Name>
2esj_lig

>  <RI>
2.18877e+07

>  <Rbt.Current_Directory>
/home/itssahil/PROJECTS/Mol_Feturizer/New_Systems/rnas/2esj

>  <Rbt.Executable>
rbdock ($Id: //depot/dev/client3/rdock/2013.1/src/exe/rbdock.cxx#4 $)

>  <Rbt.Library>
libRbt.so (2013.1, Build901 2013/11/27)

>  <Rbt.Parameter_File>
/export/apps/rDock/src/rDock_2013.1_src/data/scripts/dock_solv.prm

>  <Rbt.Receptor>
prm/pocket_docking_7.prm

>  <SCORE>
-12.9801

>  <SCORE.INTER>
-9.36101

>  <SCORE.INTER.CONST>
1

>  <SCORE.INTER.POLAR>
-1.67962

>  <SCORE.INTER.ROT>
12

>  <SCORE.INTER.SOLV>
17.4079

>  <SCORE.INTER.VDW>
-18.0446

>  <SCORE.INTER.norm>
-0.180019

>  <SCORE.INTRA>
-3.61906

>  <SCORE.INTRA.DIHEDRAL>
-9.56116

>  <SCORE.INTRA.DIHEDRAL.0>
32.9766

>  <SCORE.INTRA.POLAR>
0

>  <SCORE.INTRA.POLAR.0>
0

>  <SCORE.INTRA.REPUL>
0

>  <SCORE.INTRA.REPUL.0>
0

>  <SCORE.INTRA.SOLV>
2.57858

>  <SCORE.INTRA.SOLV.lig_0>
-114.358

>  <SCORE.INTRA.VDW>
-0.127767

>  <SCORE.INTRA.VDW.0>
-8.24257

>  <SCORE.INTRA.norm>
-0.0695973

>  <SCORE.RESTR>
0

>  <SCORE.RESTR.CAVITY>
0

>  <SCORE.RESTR.norm>
0

>  <SCORE.SYSTEM>
0

>  <SCORE.SYSTEM.CONST>
0

>  <SCORE.SYSTEM.DIHEDRAL>
0

>  <SCORE.SYSTEM.SOLV>
0

>  <SCORE.SYSTEM.norm>
0

>  <SCORE.heavy>
52

>  <SCORE.norm>
-0.249617

>  <RMSD>
4.372

$$$$
2esj_lig
 OpenBabel11021811423D
libRbt.so/2013.1/901 2013/11/27
 52 56  0  0  0  0  0  0  0  0999 V2000
   20.5174   -9.3001   20.3903 C   0  0  2  0  0  0  0  0  0  0  0  0
   20.7682   -7.9770   19.8793 O   0  0  0  0  0  0  0  0  0  0  0  0
   17.1254   -6.0714   21.0568 C   0  0  2  0  0  0  0  0  0  0  0  0
   16.0589   -5.0992   21.3478 N   0  0  0  0  0  0  0  0  0  0  0  0
   19.8437   -6.3821   17.2687 C   0  0  1  0  0  0  0  0  0  0  0  0
   22.3734   -3.7177   15.4051 C   0  0  1  0  0  0  0  0  0  0  0  0
   27.0052   -3.3010   16.9730 C   0  0  1  0  0  0  0  0  0  0  0  0
   21.8345  -10.1176   20.2411 C   0  0  2  0  0  0  0  0  0  0  0  0
   22.9630   -9.4766   20.9156 N   0  0  0  0  0  0  0  0  0  0  0  0
   18.4541   -5.6715   21.8132 C   0  0  0  0  0  0  0  0  0  0  0  0
   19.8216   -6.3798   15.7396 C   0  0  2  0  0  0  0  0  0  0  0  0
   20.6365   -7.4302   15.1756 O   0  0  0  0  0  0  0  0  0  0  0  0
   23.8911   -4.1255   15.1380 C   0  0  2  0  0  0  0  0  0  0  0  0
   24.3936   -5.0392   16.1981 N   0  0  0  0  0  0  0  0  0  0  0  0
   27.0364   -4.1147   18.2616 C   0  0  1  0  0  0  0  0  0  0  0  0
   27.8832   -5.2663   18.0742 O   0  0  0  0  0  0  0  0  0  0  0  0
   22.1789  -10.3494   18.7356 C   0  0  0  0  0  0  0  0  0  0  0  0
   19.5694   -6.7582   21.5363 C   0  0  2  0  0  0  0  0  0  0  0  0
   20.8190   -6.4032   22.2171 N   0  0  0  0  0  0  0  0  0  0  0  0
   20.3239   -4.9928   15.4605 C   0  0  2  0  0  0  0  0  0  0  0  0
   21.7149   -4.9261   15.6477 O   0  0  0  0  0  0  0  0  0  0  0  0
   24.7522   -2.8031   14.9261 C   0  0  1  0  0  0  0  0  0  0  0  0
   24.1200   -1.9944   13.9286 O   0  0  0  0  0  0  0  0  0  0  0  0
   27.5283   -3.3645   19.4935 C   0  0  1  0  0  0  0  0  0  0  0  0
   27.7137   -4.3321   20.5326 O   0  0  0  0  0  0  0  0  0  0  0  0
   20.9548  -11.0105   18.0355 C   0  0  2  0  0  0  0  0  0  0  0  0
   21.2270  -11.3203   16.6804 O   0  0  0  0  0  0  0  0  0  0  0  0
   19.8094   -6.9110   20.0118 C   0  0  2  0  0  0  0  0  0  0  0  0
   19.7528   -4.1025   16.5834 C   0  0  2  0  0  0  0  0  0  0  0  0
   19.6597   -5.0160   17.6650 O   0  0  0  0  0  0  0  0  0  0  0  0
   24.7874   -1.9190   16.2400 C   0  0  2  0  0  0  0  0  0  0  0  0
   25.4525   -2.7415   17.1999 O   0  0  0  0  0  0  0  0  0  0  0  0
   28.8363   -2.6033   19.2704 C   0  0  2  0  0  0  0  0  0  0  0  0
   28.9980   -1.7158   20.3888 O   0  0  0  0  0  0  0  0  0  0  0  0
   19.7421  -10.0564   18.1699 C   0  0  2  0  0  0  0  0  0  0  0  0
   19.4702   -9.9000   19.5921 O   0  0  0  0  0  0  0  0  0  0  0  0
   18.5133   -7.1895   19.1851 C   0  0  2  0  0  0  0  0  0  0  0  0
   18.8412   -7.2390   17.7687 O   0  0  0  0  0  0  0  0  0  0  0  0
   18.3807   -3.4799   16.3275 C   0  0  0  0  0  0  0  0  0  0  0  0
   17.4571   -4.5522   16.0891 O   0  0  0  0  0  0  0  0  0  0  0  0
   23.3485   -1.8258   16.7101 C   0  0  1  0  0  0  0  0  0  0  0  0
   22.2711   -2.7800   16.5939 O   0  0  0  0  0  0  0  0  0  0  0  0
   28.8557   -1.9109   17.9123 C   0  0  2  0  0  0  0  0  0  0  0  0
   28.1767   -2.4721   16.7784 O   0  0  0  0  0  0  0  0  0  0  0  0
   18.4933  -10.6107   17.5734 C   0  0  0  0  0  0  0  0  0  0  0  0
   18.6637  -10.6261   16.1766 O   0  0  0  0  0  0  0  0  0  0  0  0
   17.4056   -6.1321   19.5124 C   0  0  1  0  0  0  0  0  0  0  0  0
   16.1852   -6.5721   18.8595 O   0  0  0  0  0  0  0  0  0  0  0  0
   23.0803   -0.9131   17.9462 C   0  0  0  0  0  0  0  0  0  0  0  0
   24.1984    0.0041   18.2516 N   0  0  0  0  0  0  0  0  0  0  0  0
   30.0403   -1.0856   17.4149 C   0  0  0  0  0  0  0  0  0  0  0  0
   29.6121   -0.1951   16.3507 O   0  0  0  0  0  0  0  0  0  0  0  0
  1  2  1  6  0  0  0
  1  8  1  0  0  0  0
  1 36  1  0  0  0  0
  3  4  1  6  0  0  0
  3 10  1  0  0  0  0
  3 47  1  0  0  0  0
  5 11  1  0  0  0  0
  5 30  1  0  0  0  0
  5 38  1  1  0  0  0
  6 21  1  1  0  0  0
  6 42  1  0  0  0  0
  7 15  1  0  0  0  0
  7 44  1  0  0  0  0
  7 32  1  1  0  0  0
  8  9  1  6  0  0  0
  8 17  1  0  0  0  0
 11 12  1  6  0  0  0
 11 20  1  0  0  0  0
 13  6  1  0  0  0  0
 13 14  1  1  0  0  0
 15 16  1  6  0  0  0
 15 24  1  0  0  0  0
 17 26  1  0  0  0  0
 18 10  1  0  0  0  0
 18 19  1  1  0  0  0
 20 21  1  1  0  0  0
 20 29  1  0  0  0  0
 22 13  1  0  0  0  0
 22 23  1  6  0  0  0
 24 25  1  1  0  0  0
 24 33  1  0  0  0  0
 26 27  1  6  0  0  0
 26 35  1  0  0  0  0
 28  2  1  1  0  0  0
 28 18  1  0  0  0  0
 29 30  1  0  0  0  0
 29 39  1  6  0  0  0
 31 22  1  0  0  0  0
 31 32  1  1  0  0  0
 31 41  1  0  0  0  0
 33 34  1  1  0  0  0
 33 43  1  0  0  0  0
 35 36  1  0  0  0  0
 35 45  1  6  0  0  0
 37 28  1  0  0  0  0
 37 38  1  6  0  0  0
 39 40  1  0  0  0  0
 41 42  1  0  0  0  0
 41 49  1  1  0  0  0
 43 44  1  0  0  0  0
 43 51  1  6  0  0  0
 45 46  1  0  0  0  0
 47 37  1  0  0  0  0
 47 48  1  6  0  0  0
 49 50  1  0  0  0  0
 51 52  1  0  0  0  0
M  END
>  <CHROM.1>
-172.38067366,-167.99369564,-157.96356004,-177.24196959,178.56686309,58.47796827
58.33816583,59.78820630,-69.64528585,-35.34649008,15.56586779,-160.23104002
22.35560618,-5.38840825,17.96542304,-2.55416457,-0.20371399,-0.50414367

>  <Name>
2esj_lig

>  <RI>
0

>  <Rbt.Current_Directory>
/home/itssahil/PROJECTS/Mol_Feturizer/New_Systems/rnas/2esj

>  <Rbt.Executable>
rbdock ($Id: //depot/dev/client3/rdock/2013.1/src/exe/rbdock.cxx#4 $)

>  <Rbt.Library>
libRbt.so (2013.1, Build901 2013/11/27)

>  <Rbt.Parameter_File>
/export/apps/rDock/src/rDock_2013.1_src/data/scripts/dock_solv.prm

>  <Rbt.Receptor>
prm/pocket_docking_6.prm

>  <SCORE>
-10.0823

>  <SCORE.INTER>
-2.36951

>  <SCORE.INTER.CONST>
1

>  <SCORE.INTER.POLAR>
-0.979796

>  <SCORE.INTER.ROT>
12

>  <SCORE.INTER.SOLV>
17.0677

>  <SCORE.INTER.VDW>
-15.6029

>  <SCORE.INTER.norm>
-0.0455675

>  <SCORE.INTRA>
-7.71279

>  <SCORE.INTRA.DIHEDRAL>
-21.0559

>  <SCORE.INTRA.DIHEDRAL.0>
32.9766

>  <SCORE.INTRA.POLAR>
0

>  <SCORE.INTRA.POLAR.0>
0

>  <SCORE.INTRA.REPUL>
0

>  <SCORE.INTRA.REPUL.0>
0

>  <SCORE.INTRA.SOLV>
-0.678841

>  <SCORE.INTRA.SOLV.lig_0>
-114.358

>  <SCORE.INTRA.VDW>
3.15457

>  <SCORE.INTRA.VDW.0>
-8.24257

>  <SCORE.INTRA.norm>
-0.148323

>  <SCORE.RESTR>
0

>  <SCORE.RESTR.CAVITY>
0

>  <SCORE.RESTR.norm>
0

>  <SCORE.SYSTEM>
0

>  <SCORE.SYSTEM.CONST>
0

>  <SCORE.SYSTEM.DIHEDRAL>
0

>  <SCORE.SYSTEM.SOLV>
0

>  <SCORE.SYSTEM.norm>
0

>  <SCORE.heavy>
52

>  <SCORE.norm>
-0.19389

>  <RMSD>
4.399

$$$$
2esj_lig
 OpenBabel11021811423D
libRbt.so/2013.1/901 2013/11/27
 52 56  0  0  0  0  0  0  0  0999 V2000
   18.4033   -9.2869   16.7105 C   0  0  2  0  0  0  0  0  0  0  0  0
   19.3711   -8.4761   17.4039 O   0  0  0  0  0  0  0  0  0  0  0  0
   17.2466   -6.2603   20.3812 C   0  0  2  0  0  0  0  0  0  0  0  0
   16.7750   -5.2273   21.3181 N   0  0  0  0  0  0  0  0  0  0  0  0
   18.5467   -5.9390   15.8543 C   0  0  1  0  0  0  0  0  0  0  0  0
   21.4482   -3.8946   13.6091 C   0  0  1  0  0  0  0  0  0  0  0  0
   26.5195   -4.4682   15.2492 C   0  0  1  0  0  0  0  0  0  0  0  0
   18.1935  -10.5839   17.5463 C   0  0  2  0  0  0  0  0  0  0  0  0
   17.7811  -10.2965   18.9198 N   0  0  0  0  0  0  0  0  0  0  0  0
   18.7740   -6.5760   20.6355 C   0  0  0  0  0  0  0  0  0  0  0  0
   18.1319   -5.1681   14.6005 C   0  0  2  0  0  0  0  0  0  0  0  0
   18.0374   -6.0187   13.4373 O   0  0  0  0  0  0  0  0  0  0  0  0
   22.5873   -4.8870   13.1005 C   0  0  2  0  0  0  0  0  0  0  0  0
   22.8599   -5.9481   14.1058 N   0  0  0  0  0  0  0  0  0  0  0  0
   26.4904   -3.2549   16.1715 C   0  0  1  0  0  0  0  0  0  0  0  0
   27.3958   -3.4745   17.2717 O   0  0  0  0  0  0  0  0  0  0  0  0
   19.4879  -11.4578   17.5534 C   0  0  0  0  0  0  0  0  0  0  0  0
   19.2467   -7.7284   19.6608 C   0  0  2  0  0  0  0  0  0  0  0  0
   20.6666   -8.0317   19.8674 N   0  0  0  0  0  0  0  0  0  0  0  0
   19.2308   -4.1475   14.5302 C   0  0  2  0  0  0  0  0  0  0  0  0
   20.4109   -4.7281   14.0356 O   0  0  0  0  0  0  0  0  0  0  0  0
   23.8580   -4.0340   12.6614 C   0  0  1  0  0  0  0  0  0  0  0  0
   23.4383   -3.0161   11.7468 O   0  0  0  0  0  0  0  0  0  0  0  0
   26.8595   -1.9297   15.5158 C   0  0  1  0  0  0  0  0  0  0  0  0
   27.0087   -0.9657   16.5640 O   0  0  0  0  0  0  0  0  0  0  0  0
   19.9190  -11.7301   16.0817 C   0  0  2  0  0  0  0  0  0  0  0  0
   21.0467  -12.5844   16.0128 O   0  0  0  0  0  0  0  0  0  0  0  0
   18.9890   -7.3284   18.1848 C   0  0  2  0  0  0  0  0  0  0  0  0
   19.5731   -3.7937   15.9922 C   0  0  2  0  0  0  0  0  0  0  0  0
   19.2704   -5.0045   16.6670 O   0  0  0  0  0  0  0  0  0  0  0  0
   24.4960   -3.2703   13.8939 C   0  0  2  0  0  0  0  0  0  0  0  0
   24.9325   -4.3135   14.7666 O   0  0  0  0  0  0  0  0  0  0  0  0
   28.1476   -1.9868   14.6925 C   0  0  2  0  0  0  0  0  0  0  0  0
   28.1902   -0.7878   13.9017 O   0  0  0  0  0  0  0  0  0  0  0  0
   20.1914  -10.3695   15.3936 C   0  0  2  0  0  0  0  0  0  0  0  0
   18.9434   -9.6190   15.4097 O   0  0  0  0  0  0  0  0  0  0  0  0
   17.5196   -6.8876   17.8889 C   0  0  2  0  0  0  0  0  0  0  0  0
   17.4089   -6.4640   16.5016 O   0  0  0  0  0  0  0  0  0  0  0  0
   18.7760   -2.6514   16.6209 C   0  0  0  0  0  0  0  0  0  0  0  0
   17.4084   -2.8027   16.2130 O   0  0  0  0  0  0  0  0  0  0  0  0
   23.3364   -2.6011   14.6065 C   0  0  1  0  0  0  0  0  0  0  0  0
   21.9621   -3.0229   14.7401 O   0  0  0  0  0  0  0  0  0  0  0  0
   28.2372   -3.2756   13.8830 C   0  0  2  0  0  0  0  0  0  0  0  0
   27.6666   -4.5016   14.3658 O   0  0  0  0  0  0  0  0  0  0  0  0
   20.5680  -10.5058   13.9576 C   0  0  0  0  0  0  0  0  0  0  0  0
   21.0369   -9.2521   13.5236 O   0  0  0  0  0  0  0  0  0  0  0  0
   17.0554   -5.7828   18.8970 C   0  0  1  0  0  0  0  0  0  0  0  0
   15.6347   -5.5731   18.6804 O   0  0  0  0  0  0  0  0  0  0  0  0
   23.7006   -1.6847   15.8150 C   0  0  0  0  0  0  0  0  0  0  0  0
   22.8736   -1.9382   17.0135 N   0  0  0  0  0  0  0  0  0  0  0  0
   29.4196   -3.6092   12.9761 C   0  0  0  0  0  0  0  0  0  0  0  0
   29.2416   -4.9277   12.3943 O   0  0  0  0  0  0  0  0  0  0  0  0
  1  2  1  1  0  0  0
  1  8  1  0  0  0  0
  1 36  1  0  0  0  0
  3  4  1  1  0  0  0
  3 10  1  0  0  0  0
  3 47  1  0  0  0  0
  5 11  1  0  0  0  0
  5 30  1  0  0  0  0
  5 38  1  1  0  0  0
  6 21  1  1  0  0  0
  6 42  1  0  0  0  0
  7 15  1  0  0  0  0
  7 44  1  0  0  0  0
  7 32  1  6  0  0  0
  8  9  1  1  0  0  0
  8 17  1  0  0  0  0
 11 12  1  6  0  0  0
 11 20  1  0  0  0  0
 13  6  1  0  0  0  0
 13 14  1  1  0  0  0
 15 16  1  1  0  0  0
 15 24  1  0  0  0  0
 17 26  1  0  0  0  0
 18 10  1  0  0  0  0
 18 19  1  6  0  0  0
 20 21  1  1  0  0  0
 20 29  1  0  0  0  0
 22 13  1  0  0  0  0
 22 23  1  6  0  0  0
 24 25  1  1  0  0  0
 24 33  1  0  0  0  0
 26 27  1  1  0  0  0
 26 35  1  0  0  0  0
 28  2  1  6  0  0  0
 28 18  1  0  0  0  0
 29 30  1  0  0  0  0
 29 39  1  1  0  0  0
 31 22  1  0  0  0  0
 31 32  1  1  0  0  0
 31 41  1  0  0  0  0
 33 34  1  6  0  0  0
 33 43  1  0  0  0  0
 35 36  1  0  0  0  0
 35 45  1  6  0  0  0
 37 28  1  0  0  0  0
 37 38  1  6  0  0  0
 39 40  1  0  0  0  0
 41 42  1  0  0  0  0
 41 49  1  1  0  0  0
 43 44  1  0  0  0  0
 43 51  1  1  0  0  0
 45 46  1  0  0  0  0
 47 37  1  0  0  0  0
 47 48  1  6  0  0  0
 49 50  1  0  0  0  0
 51 52  1  0  0  0  0
M  END
>  <CHROM.1>
-102.66481405,-162.29525067,-179.02316708,71.85055925,165.52815381,110.28101147
41.51049418,121.88990570,-168.75105899,-27.86037993,-132.61393916,177.29424178
21.65030657,-5.60256364,15.88076325,-2.68850409,0.43946137,0.15372318

>  <Name>
2esj_lig

>  <RI>
0

>  <Rbt.Current_Directory>
/home/itssahil/PROJECTS/Mol_Feturizer/New_Systems/rnas/2esj

>  <Rbt.Executable>
rbdock ($Id: //depot/dev/client3/rdock/2013.1/src/exe/rbdock.cxx#4 $)

>  <Rbt.Library>
libRbt.so (2013.1, Build901 2013/11/27)

>  <Rbt.Parameter_File>
/export/apps/rDock/src/rDock_2013.1_src/data/scripts/dock_solv.prm

>  <Rbt.Receptor>
prm/pocket_docking_2.prm

>  <SCORE>
5.77373

>  <SCORE.INTER>
-2.86356

>  <SCORE.INTER.CONST>
1

>  <SCORE.INTER.POLAR>
-0.818692

>  <SCORE.INTER.ROT>
12

>  <SCORE.INTER.SOLV>
16.3269

>  <SCORE.INTER.VDW>
-16.2224

>  <SCORE.INTER.norm>
-0.0550685

>  <SCORE.INTRA>
4.99613

>  <SCORE.INTRA.DIHEDRAL>
-0.0871744

>  <SCORE.INTRA.DIHEDRAL.0>
32.9766

>  <SCORE.INTRA.POLAR>
0

>  <SCORE.INTRA.POLAR.0>
0

>  <SCORE.INTRA.REPUL>
0

>  <SCORE.INTRA.REPUL.0>
0

>  <SCORE.INTRA.SOLV>
1.65332

>  <SCORE.INTRA.SOLV.lig_0>
-114.358

>  <SCORE.INTRA.VDW>
4.21306

>  <SCORE.INTRA.VDW.0>
-8.24257

>  <SCORE.INTRA.norm>
0.0960794

>  <SCORE.RESTR>
3.64116

>  <SCORE.RESTR.CAVITY>
3.64116

>  <SCORE.RESTR.norm>
0.0700224

>  <SCORE.SYSTEM>
0

>  <SCORE.SYSTEM.CONST>
0

>  <SCORE.SYSTEM.DIHEDRAL>
0

>  <SCORE.SYSTEM.SOLV>
0

>  <SCORE.SYSTEM.norm>
0

>  <SCORE.heavy>
52

>  <SCORE.norm>
0.111033

>  <RMSD>
4.413

$$$$
2esj_lig
 OpenBabel11021811423D
libRbt.so/2013.1/901 2013/11/27
 52 56  0  0  0  0  0  0  0  0999 V2000
   20.5744   -5.0371   17.2724 C   0  0  2  0  0  0  0  0  0  0  0  0
   20.9282   -6.2022   16.5028 O   0  0  0  0  0  0  0  0  0  0  0  0
   21.0800   -7.3854   12.3961 C   0  0  2  0  0  0  0  0  0  0  0  0
   20.7529   -7.7299   11.0027 N   0  0  0  0  0  0  0  0  0  0  0  0
   21.8925   -3.1238   14.3309 C   0  0  1  0  0  0  0  0  0  0  0  0
   24.5274    0.0435   14.3099 C   0  0  1  0  0  0  0  0  0  0  0  0
   28.9716   -2.1806   15.1903 C   0  0  1  0  0  0  0  0  0  0  0  0
   21.4909   -5.0110   18.5312 C   0  0  2  0  0  0  0  0  0  0  0  0
   22.9111   -5.0241   18.1820 N   0  0  0  0  0  0  0  0  0  0  0  0
   20.2259   -8.2642   13.3939 C   0  0  0  0  0  0  0  0  0  0  0  0
   21.2899   -1.7396   14.0873 C   0  0  2  0  0  0  0  0  0  0  0  0
   21.0758   -1.4715   12.6845 O   0  0  0  0  0  0  0  0  0  0  0  0
   25.5793   -0.0300   13.1144 C   0  0  2  0  0  0  0  0  0  0  0  0
   25.8260   -1.4381   12.7053 N   0  0  0  0  0  0  0  0  0  0  0  0
   29.3472   -3.0757   14.0150 C   0  0  1  0  0  0  0  0  0  0  0  0
   30.6666   -3.6145   14.2328 O   0  0  0  0  0  0  0  0  0  0  0  0
   21.1674   -6.2078   19.4809 C   0  0  0  0  0  0  0  0  0  0  0  0
   20.6333   -7.9224   14.8835 C   0  0  2  0  0  0  0  0  0  0  0  0
   19.8443   -8.7160   15.8314 N   0  0  0  0  0  0  0  0  0  0  0  0
   22.3322   -0.8702   14.7290 C   0  0  2  0  0  0  0  0  0  0  0  0
   23.4582   -0.7555   13.8963 O   0  0  0  0  0  0  0  0  0  0  0  0
   26.8818    0.7906   13.5205 C   0  0  1  0  0  0  0  0  0  0  0  0
   26.4894    2.0982   13.9504 O   0  0  0  0  0  0  0  0  0  0  0  0
   28.4001   -4.2410   13.7554 C   0  0  1  0  0  0  0  0  0  0  0  0
   29.0287   -5.0903   12.7891 O   0  0  0  0  0  0  0  0  0  0  0  0
   19.6472   -6.1854   19.8188 C   0  0  2  0  0  0  0  0  0  0  0  0
   19.2975   -7.2019   20.7411 O   0  0  0  0  0  0  0  0  0  0  0  0
   20.4476   -6.4080   15.1612 C   0  0  2  0  0  0  0  0  0  0  0  0
   22.8489   -1.6603   15.9490 C   0  0  2  0  0  0  0  0  0  0  0  0
   22.6813   -3.0032   15.5228 O   0  0  0  0  0  0  0  0  0  0  0  0
   27.6177    0.1318   14.7589 C   0  0  2  0  0  0  0  0  0  0  0  0
   28.0236   -1.1529   14.2844 O   0  0  0  0  0  0  0  0  0  0  0  0
   28.0677   -5.0558   15.0066 C   0  0  2  0  0  0  0  0  0  0  0  0
   26.9502   -5.8952   14.6725 O   0  0  0  0  0  0  0  0  0  0  0  0
   18.8517   -6.3169   18.4963 C   0  0  2  0  0  0  0  0  0  0  0  0
   19.1895   -5.1649   17.6718 O   0  0  0  0  0  0  0  0  0  0  0  0
   21.1704   -5.4765   14.1361 C   0  0  2  0  0  0  0  0  0  0  0  0
   20.8688   -4.0872   14.4447 O   0  0  0  0  0  0  0  0  0  0  0  0
   22.0993   -1.4497   17.2641 C   0  0  0  0  0  0  0  0  0  0  0  0
   22.8875   -2.0368   18.3098 O   0  0  0  0  0  0  0  0  0  0  0  0
   26.5336   -0.1363   15.7851 C   0  0  1  0  0  0  0  0  0  0  0  0
   25.1421   -0.4729   15.5978 O   0  0  0  0  0  0  0  0  0  0  0  0
   27.8368   -4.1557   16.2152 C   0  0  2  0  0  0  0  0  0  0  0  0
   28.5361   -2.9103   16.3629 O   0  0  0  0  0  0  0  0  0  0  0  0
   17.3752   -6.2592   18.6942 C   0  0  0  0  0  0  0  0  0  0  0  0
   17.0841   -5.0475   19.3478 O   0  0  0  0  0  0  0  0  0  0  0  0
   20.7923   -5.8651   12.6670 C   0  0  1  0  0  0  0  0  0  0  0  0
   21.6464   -5.0902   11.7842 O   0  0  0  0  0  0  0  0  0  0  0  0
   27.0052   -0.6964   17.1623 C   0  0  0  0  0  0  0  0  0  0  0  0
   27.1642    0.3475   18.1966 N   0  0  0  0  0  0  0  0  0  0  0  0
   27.4981   -4.6951   17.6030 C   0  0  0  0  0  0  0  0  0  0  0  0
   27.1088   -3.6033   18.4778 O   0  0  0  0  0  0  0  0  0  0  0  0
  1  2  1  6  0  0  0
  1  8  1  0  0  0  0
  1 36  1  0  0  0  0
  3  4  1  6  0  0  0
  3 10  1  0  0  0  0
  3 47  1  0  0  0  0
  5 11  1  0  0  0  0
  5 30  1  0  0  0  0
  5 38  1  1  0  0  0
  6 21  1  6  0  0  0
  6 42  1  0  0  0  0
  7 15  1  0  0  0  0
  7 44  1  0  0  0  0
  7 32  1  6  0  0  0
  8  9  1  6  0  0  0
  8 17  1  0  0  0  0
 11 12  1  6  0  0  0
 11 20  1  0  0  0  0
 13  6  1  0  0  0  0
 13 14  1  1  0  0  0
 15 16  1  1  0  0  0
 15 24  1  0  0  0  0
 17 26  1  0  0  0  0
 18 10  1  0  0  0  0
 18 19  1  1  0  0  0
 20 21  1  6  0  0  0
 20 29  1  0  0  0  0
 22 13  1  0  0  0  0
 22 23  1  1  0  0  0
 24 25  1  6  0  0  0
 24 33  1  0  0  0  0
 26 27  1  1  0  0  0
 26 35  1  0  0  0  0
 28  2  1  1  0  0  0
 28 18  1  0  0  0  0
 29 30  1  0  0  0  0
 29 39  1  1  0  0  0
 31 22  1  0  0  0  0
 31 32  1  6  0  0  0
 31 41  1  0  0  0  0
 33 34  1  6  0  0  0
 33 43  1  0  0  0  0
 35 36  1  0  0  0  0
 35 45  1  1  0  0  0
 37 28  1  0  0  0  0
 37 38  1  1  0  0  0
 39 40  1  0  0  0  0
 41 42  1  0  0  0  0
 41 49  1  6  0  0  0
 43 44  1  0  0  0  0
 43 51  1  1  0  0  0
 45 46  1  0  0  0  0
 47 37  1  0  0  0  0
 47 48  1  6  0  0  0
 49 50  1  0  0  0  0
 51 52  1  0  0  0  0
M  END
>  <CHROM.1>
-168.65878925,155.17064767,-178.27948400,-164.22087309,178.51589060,-161.29231182
-168.18715555,174.13760973,56.76681729,140.27111181,96.65043585,-170.02106521
23.65941376,-3.67752166,15.57269981,3.11199590,-0.55977743,-2.05030026

>  <Name>
2esj_lig

>  <RI>
0

>  <Rbt.Current_Directory>
/home/itssahil/PROJECTS/Mol_Feturizer/New_Systems/rnas/2esj

>  <Rbt.Executable>
rbdock ($Id: //depot/dev/client3/rdock/2013.1/src/exe/rbdock.cxx#4 $)

>  <Rbt.Library>
libRbt.so (2013.1, Build901 2013/11/27)

>  <Rbt.Parameter_File>
/export/apps/rDock/src/rDock_2013.1_src/data/scripts/dock_solv.prm

>  <Rbt.Receptor>
prm/pocket_docking_4.prm

>  <SCORE>
-2.66735

>  <SCORE.INTER>
2.94649

>  <SCORE.INTER.CONST>
1

>  <SCORE.INTER.POLAR>
0

>  <SCORE.INTER.ROT>
12

>  <SCORE.INTER.SOLV>
8.43033

>  <SCORE.INTER.VDW>
-12.4458

>  <SCORE.INTER.norm>
0.0566632

>  <SCORE.INTRA>
-5.61383

>  <SCORE.INTRA.DIHEDRAL>
-15.756

>  <SCORE.INTRA.DIHEDRAL.0>
32.9766

>  <SCORE.INTRA.POLAR>
0

>  <SCORE.INTRA.POLAR.0>
0

>  <SCORE.INTRA.REPUL>
0

>  <SCORE.INTRA.REPUL.0>
0

>  <SCORE.INTRA.SOLV>
0.168555

>  <SCORE.INTRA.SOLV.lig_0>
-114.358

>  <SCORE.INTRA.VDW>
2.1799

>  <SCORE.INTRA.VDW.0>
-8.24257

>  <SCORE.INTRA.norm>
-0.107958

>  <SCORE.RESTR>
0

>  <SCORE.RESTR.CAVITY>
0

>  <SCORE.RESTR.norm>
0

>  <SCORE.SYSTEM>
0

>  <SCORE.SYSTEM.CONST>
0

>  <SCORE.SYSTEM.DIHEDRAL>
0

>  <SCORE.SYSTEM.SOLV>
0

>  <SCORE.SYSTEM.norm>
0

>  <SCORE.heavy>
52

>  <SCORE.norm>
-0.0512951

>  <RMSD>
4.500

$$$$
2esj_lig
 OpenBabel11021811423D
libRbt.so/2013.1/901 2013/11/27
 52 56  0  0  0  0  0  0  0  0999 V2000
   17.9111   -7.3326   17.6191 C   0  0  2  0  0  0  0  0  0  0  0  0
   19.0083   -6.4883   17.2213 O   0  0  0  0  0  0  0  0  0  0  0  0
   16.9714   -3.8307   14.5612 C   0  0  2  0  0  0  0  0  0  0  0  0
   16.6240   -2.7708   13.6004 N   0  0  0  0  0  0  0  0  0  0  0  0
   20.4935   -6.6239   14.0053 C   0  0  1  0  0  0  0  0  0  0  0  0
   24.0888   -4.9602   12.8612 C   0  0  1  0  0  0  0  0  0  0  0  0
   25.7784   -3.2391   17.4776 C   0  0  1  0  0  0  0  0  0  0  0  0
   18.0362   -7.5722   19.1527 C   0  0  2  0  0  0  0  0  0  0  0  0
   18.0633   -6.3200   19.9081 N   0  0  0  0  0  0  0  0  0  0  0  0
   17.6958   -3.2125   15.8224 C   0  0  0  0  0  0  0  0  0  0  0  0
   20.5149   -5.9060   12.6552 C   0  0  2  0  0  0  0  0  0  0  0  0
   20.6756   -6.8196   11.5484 O   0  0  0  0  0  0  0  0  0  0  0  0
   24.7716   -5.5285   14.1848 C   0  0  2  0  0  0  0  0  0  0  0  0
   23.8095   -5.5438   15.3183 N   0  0  0  0  0  0  0  0  0  0  0  0
   26.4456   -1.8778   17.3195 C   0  0  1  0  0  0  0  0  0  0  0  0
   26.5411   -1.2443   18.6110 O   0  0  0  0  0  0  0  0  0  0  0  0
   19.3071   -8.4179   19.4827 C   0  0  0  0  0  0  0  0  0  0  0  0
   18.0077   -4.3570   16.8686 C   0  0  2  0  0  0  0  0  0  0  0  0
   18.6933   -3.8110   18.0445 N   0  0  0  0  0  0  0  0  0  0  0  0
   21.6744   -4.9743   12.8587 C   0  0  2  0  0  0  0  0  0  0  0  0
   22.8903   -5.6690   12.7434 O   0  0  0  0  0  0  0  0  0  0  0  0
   26.1193   -4.7256   14.4570 C   0  0  1  0  0  0  0  0  0  0  0  0
   26.9150   -4.7404   13.2673 O   0  0  0  0  0  0  0  0  0  0  0  0
   27.8393   -1.9034   16.7037 C   0  0  1  0  0  0  0  0  0  0  0  0
   28.3922   -0.5910   16.8527 O   0  0  0  0  0  0  0  0  0  0  0  0
   19.2663   -9.7333   18.6498 C   0  0  2  0  0  0  0  0  0  0  0  0
   20.3542  -10.5861   18.9584 O   0  0  0  0  0  0  0  0  0  0  0  0
   18.8644   -5.4709   16.2127 C   0  0  2  0  0  0  0  0  0  0  0  0
   21.6237   -4.5542   14.3422 C   0  0  2  0  0  0  0  0  0  0  0  0
   21.0397   -5.6946   14.9516 O   0  0  0  0  0  0  0  0  0  0  0  0
   25.8307   -3.1986   14.7644 C   0  0  2  0  0  0  0  0  0  0  0  0
   25.0671   -3.2208   15.9713 O   0  0  0  0  0  0  0  0  0  0  0  0
   28.7788   -2.9251   17.3468 C   0  0  2  0  0  0  0  0  0  0  0  0
   29.9155   -3.0514   16.4769 O   0  0  0  0  0  0  0  0  0  0  0  0
   19.2439   -9.3585   17.1471 C   0  0  2  0  0  0  0  0  0  0  0  0
   18.0302   -8.5890   16.9111 O   0  0  0  0  0  0  0  0  0  0  0  0
   18.2626   -6.0452   14.8902 C   0  0  2  0  0  0  0  0  0  0  0  0
   19.1787   -7.0230   14.3235 O   0  0  0  0  0  0  0  0  0  0  0  0
   20.7856   -3.3195   14.6720 C   0  0  0  0  0  0  0  0  0  0  0  0
   21.3140   -2.2226   13.9122 O   0  0  0  0  0  0  0  0  0  0  0  0
   24.8721   -2.7369   13.6837 C   0  0  1  0  0  0  0  0  0  0  0  0
   23.8427   -3.4677   12.9830 O   0  0  0  0  0  0  0  0  0  0  0  0
   28.0619   -4.2391   17.6367 C   0  0  2  0  0  0  0  0  0  0  0  0
   26.6666   -4.2694   17.9745 O   0  0  0  0  0  0  0  0  0  0  0  0
   19.1561  -10.5458   16.2498 C   0  0  0  0  0  0  0  0  0  0  0  0
   17.9797  -11.2416   16.5846 O   0  0  0  0  0  0  0  0  0  0  0  0
   17.9145   -4.8922   13.8894 C   0  0  1  0  0  0  0  0  0  0  0  0
   17.1889   -5.4889   12.7819 O   0  0  0  0  0  0  0  0  0  0  0  0
   24.4986   -1.2225   13.6885 C   0  0  0  0  0  0  0  0  0  0  0  0
   25.5078   -0.3674   13.0290 N   0  0  0  0  0  0  0  0  0  0  0  0
   28.7496   -5.4375   18.2867 C   0  0  0  0  0  0  0  0  0  0  0  0
   27.8573   -6.5831   18.2831 O   0  0  0  0  0  0  0  0  0  0  0  0
  1  2  1  6  0  0  0
  1  8  1  0  0  0  0
  1 36  1  0  0  0  0
  3  4  1  6  0  0  0
  3 10  1  0  0  0  0
  3 47  1  0  0  0  0
  5 11  1  0  0  0  0
  5 30  1  0  0  0  0
  5 38  1  1  0  0  0
  6 21  1  1  0  0  0
  6 42  1  0  0  0  0
  7 15  1  0  0  0  0
  7 44  1  0  0  0  0
  7 32  1  6  0  0  0
  8  9  1  1  0  0  0
  8 17  1  0  0  0  0
 11 12  1  6  0  0  0
 11 20  1  0  0  0  0
 13  6  1  0  0  0  0
 13 14  1  1  0  0  0
 15 16  1  1  0  0  0
 15 24  1  0  0  0  0
 17 26  1  0  0  0  0
 18 10  1  0  0  0  0
 18 19  1  1  0  0  0
 20 21  1  1  0  0  0
 20 29  1  0  0  0  0
 22 13  1  0  0  0  0
 22 23  1  6  0  0  0
 24 25  1  1  0  0  0
 24 33  1  0  0  0  0
 26 27  1  6  0  0  0
 26 35  1  0  0  0  0
 28  2  1  1  0  0  0
 28 18  1  0  0  0  0
 29 30  1  0  0  0  0
 29 39  1  6  0  0  0
 31 22  1  0  0  0  0
 31 32  1  1  0  0  0
 31 41  1  0  0  0  0
 33 34  1  6  0  0  0
 33 43  1  0  0  0  0
 35 36  1  0  0  0  0
 35 45  1  6  0  0  0
 37 28  1  0  0  0  0
 37 38  1  6  0  0  0
 39 40  1  0  0  0  0
 41 42  1  0  0  0  0
 41 49  1  1  0  0  0
 43 44  1  0  0  0  0
 43 51  1  1  0  0  0
 45 46  1  0  0  0  0
 47 37  1  0  0  0  0
 47 48  1  6  0  0  0
 49 50  1  0  0  0  0
 51 52  1  0  0  0  0
M  END
>  <CHROM.1>
-143.18600129,-80.88832164,114.78845723,63.14072042,178.04008676,71.56833678
-58.39681170,86.84828902,58.69947846,-58.22280230,82.02528385,-173.17224739
22.28587057,-5.09203520,15.72191982,-2.83524323,-0.32775672,-0.81965669

>  <Name>
2esj_lig

>  <RI>
1.01272e+07

>  <Rbt.Current_Directory>
/home/itssahil/PROJECTS/Mol_Feturizer/New_Systems/rnas/2esj

>  <Rbt.Executable>
rbdock ($Id: //depot/dev/client3/rdock/2013.1/src/exe/rbdock.cxx#4 $)

>  <Rbt.Library>
libRbt.so (2013.1, Build901 2013/11/27)

>  <Rbt.Parameter_File>
/export/apps/rDock/src/rDock_2013.1_src/data/scripts/dock_solv.prm

>  <Rbt.Receptor>
prm/pocket_docking_3.prm

>  <SCORE>
3.79087

>  <SCORE.INTER>
1.2669

>  <SCORE.INTER.CONST>
1

>  <SCORE.INTER.POLAR>
-0.771259

>  <SCORE.INTER.ROT>
12

>  <SCORE.INTER.SOLV>
11.4326

>  <SCORE.INTER.VDW>
-11.9954

>  <SCORE.INTER.norm>
0.0243635

>  <SCORE.INTRA>
1.40541

>  <SCORE.INTRA.DIHEDRAL>
-10.4462

>  <SCORE.INTRA.DIHEDRAL.0>
32.9766

>  <SCORE.INTRA.POLAR>
0

>  <SCORE.INTRA.POLAR.0>
0

>  <SCORE.INTRA.REPUL>
0

>  <SCORE.INTRA.REPUL.0>
0

>  <SCORE.INTRA.SOLV>
3.52893

>  <SCORE.INTRA.SOLV.lig_0>
-114.358

>  <SCORE.INTRA.VDW>
4.86406

>  <SCORE.INTRA.VDW.0>
-8.24257

>  <SCORE.INTRA.norm>
0.0270272

>  <SCORE.RESTR>
1.11855

>  <SCORE.RESTR.CAVITY>
1.11855

>  <SCORE.RESTR.norm>
0.0215106

>  <SCORE.SYSTEM>
0

>  <SCORE.SYSTEM.CONST>
0

>  <SCORE.SYSTEM.DIHEDRAL>
0

>  <SCORE.SYSTEM.SOLV>
0

>  <SCORE.SYSTEM.norm>
0

>  <SCORE.heavy>
52

>  <SCORE.norm>
0.0729013

>  <RMSD>
4.508

$$$$
2esj_lig
 OpenBabel11021811423D
libRbt.so/2013.1/901 2013/11/27
 52 56  0  0  0  0  0  0  0  0999 V2000
   17.9366   -4.5184   17.2492 C   0  0  2  0  0  0  0  0  0  0  0  0
   18.7342   -5.4870   16.5417 O   0  0  0  0  0  0  0  0  0  0  0  0
   19.0691   -9.7318   16.9393 C   0  0  2  0  0  0  0  0  0  0  0  0
   18.8143  -11.1814   16.9705 N   0  0  0  0  0  0  0  0  0  0  0  0
   20.1684   -6.4279   13.4842 C   0  0  1  0  0  0  0  0  0  0  0  0
   23.2416   -4.8316   11.2345 C   0  0  1  0  0  0  0  0  0  0  0  0
   25.9471   -1.3339   13.3398 C   0  0  1  0  0  0  0  0  0  0  0  0
   18.0669   -3.1627   16.4940 C   0  0  2  0  0  0  0  0  0  0  0  0
   17.6744   -3.2718   15.0893 N   0  0  0  0  0  0  0  0  0  0  0  0
   18.0448   -8.9741   17.8742 C   0  0  0  0  0  0  0  0  0  0  0  0
   20.9573   -7.4015   12.6077 C   0  0  2  0  0  0  0  0  0  0  0  0
   21.9768   -8.1068   13.3482 O   0  0  0  0  0  0  0  0  0  0  0  0
   24.6052   -4.5007   11.9910 C   0  0  2  0  0  0  0  0  0  0  0  0
   24.3532   -4.1264   13.4079 N   0  0  0  0  0  0  0  0  0  0  0  0
   26.5137   -0.2631   12.4147 C   0  0  1  0  0  0  0  0  0  0  0  0
   27.2725    0.6829   13.1941 O   0  0  0  0  0  0  0  0  0  0  0  0
   19.5224   -2.6057   16.5960 C   0  0  0  0  0  0  0  0  0  0  0  0
   18.3713   -7.4265   17.8740 C   0  0  2  0  0  0  0  0  0  0  0  0
   17.4251   -6.6974   18.7249 N   0  0  0  0  0  0  0  0  0  0  0  0
   21.4912   -6.4613   11.5660 C   0  0  2  0  0  0  0  0  0  0  0  0
   22.5708   -5.7215   12.0776 O   0  0  0  0  0  0  0  0  0  0  0  0
   25.4176   -3.4240   11.1451 C   0  0  1  0  0  0  0  0  0  0  0  0
   25.5286   -3.8848    9.7945 O   0  0  0  0  0  0  0  0  0  0  0  0
   27.4109   -0.7779   11.2956 C   0  0  1  0  0  0  0  0  0  0  0  0
   28.0293    0.3628   10.6902 O   0  0  0  0  0  0  0  0  0  0  0  0
   19.9246   -2.5211   18.0982 C   0  0  2  0  0  0  0  0  0  0  0  0
   21.2094   -1.9496   18.2681 O   0  0  0  0  0  0  0  0  0  0  0  0
   18.3393   -6.8670   16.4280 C   0  0  2  0  0  0  0  0  0  0  0  0
   20.3878   -5.4064   11.3435 C   0  0  2  0  0  0  0  0  0  0  0  0
   19.7637   -5.3597   12.6167 O   0  0  0  0  0  0  0  0  0  0  0  0
   24.6429   -2.0445   11.0682 C   0  0  2  0  0  0  0  0  0  0  0  0
   24.5810   -1.5996   12.4242 O   0  0  0  0  0  0  0  0  0  0  0  0
   28.4933   -1.7489   11.7706 C   0  0  2  0  0  0  0  0  0  0  0  0
   29.0364   -2.3744   10.5964 O   0  0  0  0  0  0  0  0  0  0  0  0
   19.8489   -3.9445   18.7043 C   0  0  2  0  0  0  0  0  0  0  0  0
   18.4674   -4.3907   18.5893 O   0  0  0  0  0  0  0  0  0  0  0  0
   19.2417   -7.6482   15.4199 C   0  0  2  0  0  0  0  0  0  0  0  0
   19.0781   -7.0894   14.0868 O   0  0  0  0  0  0  0  0  0  0  0  0
   19.3408   -5.7304   10.2784 C   0  0  0  0  0  0  0  0  0  0  0  0
   18.8331   -7.0436   10.5566 O   0  0  0  0  0  0  0  0  0  0  0  0
   23.2170   -2.3955   10.6888 C   0  0  1  0  0  0  0  0  0  0  0  0
   22.4347   -3.5669   11.0054 O   0  0  0  0  0  0  0  0  0  0  0  0
   27.9519   -2.7259   12.8082 C   0  0  2  0  0  0  0  0  0  0  0  0
   26.9119   -2.3442   13.7217 O   0  0  0  0  0  0  0  0  0  0  0  0
   20.1695   -3.9778   20.1599 C   0  0  0  0  0  0  0  0  0  0  0  0
   21.5203   -3.6102   20.3028 O   0  0  0  0  0  0  0  0  0  0  0  0
   18.9372   -9.1834   15.4732 C   0  0  1  0  0  0  0  0  0  0  0  0
   19.9407   -9.8489   14.6612 O   0  0  0  0  0  0  0  0  0  0  0  0
   22.2499   -1.1970   10.4414 C   0  0  0  0  0  0  0  0  0  0  0  0
   21.9205   -0.4458   11.6709 N   0  0  0  0  0  0  0  0  0  0  0  0
   28.8112   -3.8030   13.4664 C   0  0  0  0  0  0  0  0  0  0  0  0
   29.4234   -4.6391   12.4490 O   0  0  0  0  0  0  0  0  0  0  0  0
  1  2  1  6  0  0  0
  1  8  1  0  0  0  0
  1 36  1  0  0  0  0
  3  4  1  6  0  0  0
  3 10  1  0  0  0  0
  3 47  1  0  0  0  0
  5 11  1  0  0  0  0
  5 30  1  0  0  0  0
  5 38  1  6  0  0  0
  6 21  1  1  0  0  0
  6 42  1  0  0  0  0
  7 15  1  0  0  0  0
  7 44  1  0  0  0  0
  7 32  1  6  0  0  0
  8  9  1  6  0  0  0
  8 17  1  0  0  0  0
 11 12  1  1  0  0  0
 11 20  1  0  0  0  0
 13  6  1  0  0  0  0
 13 14  1  1  0  0  0
 15 16  1  1  0  0  0
 15 24  1  0  0  0  0
 17 26  1  0  0  0  0
 18 10  1  0  0  0  0
 18 19  1  1  0  0  0
 20 21  1  1  0  0  0
 20 29  1  0  0  0  0
 22 13  1  0  0  0  0
 22 23  1  6  0  0  0
 24 25  1  1  0  0  0
 24 33  1  0  0  0  0
 26 27  1  6  0  0  0
 26 35  1  0  0  0  0
 28  2  1  1  0  0  0
 28 18  1  0  0  0  0
 29 30  1  0  0  0  0
 29 39  1  6  0  0  0
 31 22  1  0  0  0  0
 31 32  1  1  0  0  0
 31 41  1  0  0  0  0
 33 34  1  6  0  0  0
 33 43  1  0  0  0  0
 35 36  1  0  0  0  0
 35 45  1  1  0  0  0
 37 28  1  0  0  0  0
 37 38  1  6  0  0  0
 39 40  1  0  0  0  0
 41 42  1  0  0  0  0
 41 49  1  1  0  0  0
 43 44  1  0  0  0  0
 43 51  1  1  0  0  0
 45 46  1  0  0  0  0
 47 37  1  0  0  0  0
 47 48  1  6  0  0  0
 49 50  1  0  0  0  0
 51 52  1  0  0  0  0
M  END
>  <CHROM.1>
-144.67063544,93.87087467,-164.55113770,60.20565157,177.18746662,-64.96236135
51.20121177,59.04604306,-65.43892579,113.26879354,-69.14494413,-55.70832818
22.23168198,-4.46078278,14.00421622,-3.00821377,-0.70542867,-2.18040917

>  <Name>
2esj_lig

>  <RI>
1.62275e+07

>  <Rbt.Current_Directory>
/home/itssahil/PROJECTS/Mol_Feturizer/New_Systems/rnas/2esj

>  <Rbt.Executable>
rbdock ($Id: //depot/dev/client3/rdock/2013.1/src/exe/rbdock.cxx#4 $)

>  <Rbt.Library>
libRbt.so (2013.1, Build901 2013/11/27)

>  <Rbt.Parameter_File>
/export/apps/rDock/src/rDock_2013.1_src/data/scripts/dock_solv.prm

>  <Rbt.Receptor>
prm/pocket_docking_5.prm

>  <SCORE>
-12.7364

>  <SCORE.INTER>
-12.246

>  <SCORE.INTER.CONST>
1

>  <SCORE.INTER.POLAR>
-0.824621

>  <SCORE.INTER.ROT>
12

>  <SCORE.INTER.SOLV>
14.0518

>  <SCORE.INTER.VDW>
-21.6992

>  <SCORE.INTER.norm>
-0.235499

>  <SCORE.INTRA>
-0.490453

>  <SCORE.INTRA.DIHEDRAL>
-10.3249

>  <SCORE.INTRA.DIHEDRAL.0>
32.9766

>  <SCORE.INTRA.POLAR>
0

>  <SCORE.INTRA.POLAR.0>
0

>  <SCORE.INTRA.REPUL>
0.0176444

>  <SCORE.INTRA.REPUL.0>
0

>  <SCORE.INTRA.SOLV>
2.74408

>  <SCORE.INTRA.SOLV.lig_0>
-114.358

>  <SCORE.INTRA.VDW>
3.21174

>  <SCORE.INTRA.VDW.0>
-8.24257

>  <SCORE.INTRA.norm>
-0.00943179

>  <SCORE.RESTR>
0

>  <SCORE.RESTR.CAVITY>
0

>  <SCORE.RESTR.norm>
0

>  <SCORE.SYSTEM>
0

>  <SCORE.SYSTEM.CONST>
0

>  <SCORE.SYSTEM.DIHEDRAL>
0

>  <SCORE.SYSTEM.SOLV>
0

>  <SCORE.SYSTEM.norm>
0

>  <SCORE.heavy>
52

>  <SCORE.norm>
-0.244931

>  <RMSD>
4.510

$$$$
2esj_lig
 OpenBabel11021811423D
libRbt.so/2013.1/901 2013/11/27
 52 56  0  0  0  0  0  0  0  0999 V2000
   18.5999   -7.3778   18.3737 C   0  0  2  0  0  0  0  0  0  0  0  0
   17.9973   -6.9630   17.1328 O   0  0  0  0  0  0  0  0  0  0  0  0
   17.7315   -3.4900   14.6519 C   0  0  2  0  0  0  0  0  0  0  0  0
   18.0064   -2.2501   13.9072 N   0  0  0  0  0  0  0  0  0  0  0  0
   20.5387   -6.9897   14.5128 C   0  0  1  0  0  0  0  0  0  0  0  0
   24.6071   -6.9063   14.3338 C   0  0  1  0  0  0  0  0  0  0  0  0
   26.8242   -2.7626   16.8375 C   0  0  1  0  0  0  0  0  0  0  0  0
   18.2683   -8.8860   18.5745 C   0  0  2  0  0  0  0  0  0  0  0  0
   18.7163   -9.7058   17.4492 N   0  0  0  0  0  0  0  0  0  0  0  0
   18.0365   -3.2863   16.1891 C   0  0  0  0  0  0  0  0  0  0  0  0
   21.1996   -8.3515   14.2958 C   0  0  2  0  0  0  0  0  0  0  0  0
   21.3185   -9.1071   15.5206 O   0  0  0  0  0  0  0  0  0  0  0  0
   25.3996   -6.7237   15.7048 C   0  0  2  0  0  0  0  0  0  0  0  0
   24.5659   -6.0191   16.7144 N   0  0  0  0  0  0  0  0  0  0  0  0
   27.9977   -3.6939   17.1184 C   0  0  1  0  0  0  0  0  0  0  0  0
   29.1962   -2.9095   17.2823 O   0  0  0  0  0  0  0  0  0  0  0  0
   16.7378   -9.0941   18.8057 C   0  0  0  0  0  0  0  0  0  0  0  0
   17.6793   -4.6085   16.9802 C   0  0  2  0  0  0  0  0  0  0  0  0
   17.9664   -4.4503   18.4097 N   0  0  0  0  0  0  0  0  0  0  0  0
   22.5123   -7.9277   13.7030 C   0  0  2  0  0  0  0  0  0  0  0  0
   23.3691   -7.4386   14.7035 O   0  0  0  0  0  0  0  0  0  0  0  0
   26.8071   -6.0438   15.4018 C   0  0  1  0  0  0  0  0  0  0  0  0
   27.4681   -6.7874   14.3727 O   0  0  0  0  0  0  0  0  0  0  0  0
   27.8447   -4.5816   18.3475 C   0  0  1  0  0  0  0  0  0  0  0  0
   29.1146   -5.1990   18.5848 O   0  0  0  0  0  0  0  0  0  0  0  0
   16.2813   -8.1943   19.9922 C   0  0  2  0  0  0  0  0  0  0  0  0
   14.9145   -8.3915   20.3072 O   0  0  0  0  0  0  0  0  0  0  0  0
   18.4647   -5.8141   16.4017 C   0  0  2  0  0  0  0  0  0  0  0  0
   22.2045   -6.6890   12.8367 C   0  0  2  0  0  0  0  0  0  0  0  0
   21.0978   -6.1202   13.5184 O   0  0  0  0  0  0  0  0  0  0  0  0
   26.6299   -4.5776   14.8290 C   0  0  2  0  0  0  0  0  0  0  0  0
   26.0008   -3.8586   15.8910 O   0  0  0  0  0  0  0  0  0  0  0  0
   27.4060   -3.8258   19.6031 C   0  0  2  0  0  0  0  0  0  0  0  0
   27.0078   -4.8145   20.5668 O   0  0  0  0  0  0  0  0  0  0  0  0
   16.5750   -6.7183   19.6261 C   0  0  2  0  0  0  0  0  0  0  0  0
   18.0145   -6.5965   19.4418 O   0  0  0  0  0  0  0  0  0  0  0  0
   18.3028   -6.0020   14.8591 C   0  0  2  0  0  0  0  0  0  0  0  0
   19.1368   -7.1077   14.4137 O   0  0  0  0  0  0  0  0  0  0  0  0
   21.8202   -6.9542   11.3814 C   0  0  0  0  0  0  0  0  0  0  0  0
   20.5939   -7.6997   11.3871 O   0  0  0  0  0  0  0  0  0  0  0  0
   25.5843   -4.6881   13.7359 C   0  0  1  0  0  0  0  0  0  0  0  0
   24.4502   -5.5745   13.6234 O   0  0  0  0  0  0  0  0  0  0  0  0
   26.3325   -2.7906   19.2863 C   0  0  2  0  0  0  0  0  0  0  0  0
   26.2991   -2.1133   18.0207 O   0  0  0  0  0  0  0  0  0  0  0  0
   16.2201   -5.7642   20.7152 C   0  0  0  0  0  0  0  0  0  0  0  0
   14.8173   -5.7536   20.8262 O   0  0  0  0  0  0  0  0  0  0  0  0
   18.6119   -4.6678   14.0997 C   0  0  1  0  0  0  0  0  0  0  0  0
   18.2522   -4.8726   12.7076 O   0  0  0  0  0  0  0  0  0  0  0  0
   25.2895   -3.3892   12.9243 C   0  0  0  0  0  0  0  0  0  0  0  0
   24.2749   -2.5200   13.5567 N   0  0  0  0  0  0  0  0  0  0  0  0
   25.7141   -1.8809   20.3455 C   0  0  0  0  0  0  0  0  0  0  0  0
   26.7184   -0.9686   20.8629 O   0  0  0  0  0  0  0  0  0  0  0  0
  1  2  1  6  0  0  0
  1  8  1  0  0  0  0
  1 36  1  0  0  0  0
  3  4  1  6  0  0  0
  3 10  1  0  0  0  0
  3 47  1  0  0  0  0
  5 11  1  0  0  0  0
  5 30  1  0  0  0  0
  5 38  1  6  0  0  0
  6 21  1  1  0  0  0
  6 42  1  0  0  0  0
  7 15  1  0  0  0  0
  7 44  1  0  0  0  0
  7 32  1  1  0  0  0
  8  9  1  6  0  0  0
  8 17  1  0  0  0  0
 11 12  1  1  0  0  0
 11 20  1  0  0  0  0
 13  6  1  0  0  0  0
 13 14  1  1  0  0  0
 15 16  1  1  0  0  0
 15 24  1  0  0  0  0
 17 26  1  0  0  0  0
 18 10  1  0  0  0  0
 18 19  1  1  0  0  0
 20 21  1  1  0  0  0
 20 29  1  0  0  0  0
 22 13  1  0  0  0  0
 22 23  1  6  0  0  0
 24 25  1  1  0  0  0
 24 33  1  0  0  0  0
 26 27  1  6  0  0  0
 26 35  1  0  0  0  0
 28  2  1  1  0  0  0
 28 18  1  0  0  0  0
 29 30  1  0  0  0  0
 29 39  1  6  0  0  0
 31 22  1  0  0  0  0
 31 32  1  1  0  0  0
 31 41  1  0  0  0  0
 33 34  1  1  0  0  0
 33 43  1  0  0  0  0
 35 36  1  0  0  0  0
 35 45  1  1  0  0  0
 37 28  1  0  0  0  0
 37 38  1  6  0  0  0
 39 40  1  0  0  0  0
 41 42  1  0  0  0  0
 41 49  1  1  0  0  0
 43 44  1  0  0  0  0
 43 51  1  1  0  0  0
 45 46  1  0  0  0  0
 47 37  1  0  0  0  0
 47 48  1  6  0  0  0
 49 50  1  0  0  0  0
 51 52  1  0  0  0  0
M  END
>  <CHROM.1>
-157.72356560,167.27273231,-169.41319488,-48.79690701,-175.52393810,-88.08826718
63.33775833,105.32173190,-68.74934161,-65.30493357,-86.20049735,65.98334300
22.04617230,-5.57466605,16.43120446,3.13763374,-0.27931894,-1.79932065

>  <Name>
2esj_lig

>  <RI>
0

>  <Rbt.Current_Directory>
/home/itssahil/PROJECTS/Mol_Feturizer/New_Systems/rnas/2esj

>  <Rbt.Executable>
rbdock ($Id: //depot/dev/client3/rdock/2013.1/src/exe/rbdock.cxx#4 $)

>  <Rbt.Library>
libRbt.so (2013.1, Build901 2013/11/27)

>  <Rbt.Parameter_File>
/export/apps/rDock/src/rDock_2013.1_src/data/scripts/dock_solv.prm

>  <Rbt.Receptor>
prm/pocket_docking_4.prm

>  <SCORE>
-9.28133

>  <SCORE.INTER>
-8.86144

>  <SCORE.INTER.CONST>
1

>  <SCORE.INTER.POLAR>
-0.824621

>  <SCORE.INTER.ROT>
12

>  <SCORE.INTER.SOLV>
13.3119

>  <SCORE.INTER.VDW>
-19.1962

>  <SCORE.INTER.norm>
-0.170412

>  <SCORE.INTRA>
-0.419885

>  <SCORE.INTRA.DIHEDRAL>
-14.0544

>  <SCORE.INTRA.DIHEDRAL.0>
32.9766

>  <SCORE.INTRA.POLAR>
0

>  <SCORE.INTRA.POLAR.0>
0

>  <SCORE.INTRA.REPUL>
0.0122688

>  <SCORE.INTRA.REPUL.0>
0

>  <SCORE.INTRA.SOLV>
2.80319

>  <SCORE.INTRA.SOLV.lig_0>
-114.358

>  <SCORE.INTRA.VDW>
5.14438

>  <SCORE.INTRA.VDW.0>
-8.24257

>  <SCORE.INTRA.norm>
-0.00807472

>  <SCORE.RESTR>
0

>  <SCORE.RESTR.CAVITY>
0

>  <SCORE.RESTR.norm>
0

>  <SCORE.SYSTEM>
0

>  <SCORE.SYSTEM.CONST>
0

>  <SCORE.SYSTEM.DIHEDRAL>
0

>  <SCORE.SYSTEM.SOLV>
0

>  <SCORE.SYSTEM.norm>
0

>  <SCORE.heavy>
52

>  <SCORE.norm>
-0.178487

>  <RMSD>
4.567

$$$$
2esj_lig
 OpenBabel11021811423D
libRbt.so/2013.1/901 2013/11/27
 52 56  0  0  0  0  0  0  0  0999 V2000
   21.2034  -10.1658   16.3052 C   0  0  2  0  0  0  0  0  0  0  0  0
   19.9435   -9.4678   16.2860 O   0  0  0  0  0  0  0  0  0  0  0  0
   17.9797   -7.1390   19.2874 C   0  0  2  0  0  0  0  0  0  0  0  0
   17.6075   -6.1066   20.2687 N   0  0  0  0  0  0  0  0  0  0  0  0
   19.4282   -6.2366   15.0687 C   0  0  1  0  0  0  0  0  0  0  0  0
   22.0637   -3.3298   13.9467 C   0  0  1  0  0  0  0  0  0  0  0  0
   26.9950   -3.9770   15.2916 C   0  0  1  0  0  0  0  0  0  0  0  0
   21.4943  -10.6475   14.8532 C   0  0  2  0  0  0  0  0  0  0  0  0
   21.4965   -9.5435   13.8939 N   0  0  0  0  0  0  0  0  0  0  0  0
   19.4185   -7.7084   19.6086 C   0  0  0  0  0  0  0  0  0  0  0  0
   19.1370   -5.5851   13.7161 C   0  0  2  0  0  0  0  0  0  0  0  0
   19.6206   -6.3758   12.6087 O   0  0  0  0  0  0  0  0  0  0  0  0
   23.4667   -3.7600   13.3240 C   0  0  2  0  0  0  0  0  0  0  0  0
   23.8825   -5.0994   13.8178 N   0  0  0  0  0  0  0  0  0  0  0  0
   27.4907   -3.1430   16.4674 C   0  0  1  0  0  0  0  0  0  0  0  0
   28.6840   -3.7464   17.0063 O   0  0  0  0  0  0  0  0  0  0  0  0
   20.4635  -11.7335   14.4092 C   0  0  0  0  0  0  0  0  0  0  0  0
   19.7760   -8.8563   18.5808 C   0  0  2  0  0  0  0  0  0  0  0  0
   21.1141   -9.3933   18.8490 N   0  0  0  0  0  0  0  0  0  0  0  0
   19.8407   -4.2701   13.8884 C   0  0  2  0  0  0  0  0  0  0  0  0
   21.2291   -4.4324   13.7456 O   0  0  0  0  0  0  0  0  0  0  0  0
   24.5220   -2.5939   13.5725 C   0  0  1  0  0  0  0  0  0  0  0  0
   23.9653   -1.3596   13.1085 O   0  0  0  0  0  0  0  0  0  0  0  0
   27.8037   -1.6866   16.1463 C   0  0  1  0  0  0  0  0  0  0  0  0
   28.4692   -1.1350   17.2878 O   0  0  0  0  0  0  0  0  0  0  0  0
   20.4634  -12.8854   15.4575 C   0  0  2  0  0  0  0  0  0  0  0  0
   19.6038  -13.9445   15.0761 O   0  0  0  0  0  0  0  0  0  0  0  0
   19.6882   -8.3265   17.1260 C   0  0  2  0  0  0  0  0  0  0  0  0
   19.6602   -3.8852   15.3712 C   0  0  2  0  0  0  0  0  0  0  0  0
   19.5849   -5.1557   15.9984 O   0  0  0  0  0  0  0  0  0  0  0  0
   24.8022   -2.3871   15.1178 C   0  0  2  0  0  0  0  0  0  0  0  0
   25.3862   -3.6212   15.5378 O   0  0  0  0  0  0  0  0  0  0  0  0
   28.6840   -1.5034   14.9088 C   0  0  2  0  0  0  0  0  0  0  0  0
   28.6283   -0.1106   14.5601 O   0  0  0  0  0  0  0  0  0  0  0  0
   20.0642  -12.2938   16.8322 C   0  0  2  0  0  0  0  0  0  0  0  0
   21.0732  -11.3055   17.1873 O   0  0  0  0  0  0  0  0  0  0  0  0
   18.3289   -7.6404   16.7762 C   0  0  2  0  0  0  0  0  0  0  0  0
   18.3834   -7.1164   15.4201 O   0  0  0  0  0  0  0  0  0  0  0  0
   18.4112   -3.0754   15.7175 C   0  0  0  0  0  0  0  0  0  0  0  0
   17.2744   -3.8066   15.2353 O   0  0  0  0  0  0  0  0  0  0  0  0
   23.4381   -2.3358   15.7787 C   0  0  1  0  0  0  0  0  0  0  0  0
   22.2089   -3.0038   15.4218 O   0  0  0  0  0  0  0  0  0  0  0  0
   28.2726   -2.4482   13.7851 C   0  0  2  0  0  0  0  0  0  0  0  0
   27.7278   -3.7471   14.0639 O   0  0  0  0  0  0  0  0  0  0  0  0
   20.0769  -13.3034   17.9290 C   0  0  0  0  0  0  0  0  0  0  0  0
   19.1425  -14.3011   17.5948 O   0  0  0  0  0  0  0  0  0  0  0  0
   17.9700   -6.5430   17.8341 C   0  0  1  0  0  0  0  0  0  0  0  0
   16.6175   -6.0973   17.5489 O   0  0  0  0  0  0  0  0  0  0  0  0
   23.4195   -2.0327   17.3086 C   0  0  0  0  0  0  0  0  0  0  0  0
   23.5471   -0.5941   17.6230 N   0  0  0  0  0  0  0  0  0  0  0  0
   28.9821   -2.4942   12.4337 C   0  0  0  0  0  0  0  0  0  0  0  0
   29.9914   -3.5383   12.4390 O   0  0  0  0  0  0  0  0  0  0  0  0
  1  2  1  6  0  0  0
  1  8  1  0  0  0  0
  1 36  1  0  0  0  0
  3  4  1  1  0  0  0
  3 10  1  0  0  0  0
  3 47  1  0  0  0  0
  5 11  1  0  0  0  0
  5 30  1  0  0  0  0
  5 38  1  1  0  0  0
  6 21  1  1  0  0  0
  6 42  1  0  0  0  0
  7 15  1  0  0  0  0
  7 44  1  0  0  0  0
  7 32  1  6  0  0  0
  8  9  1  6  0  0  0
  8 17  1  0  0  0  0
 11 12  1  6  0  0  0
 11 20  1  0  0  0  0
 13  6  1  0  0  0  0
 13 14  1  1  0  0  0
 15 16  1  6  0  0  0
 15 24  1  0  0  0  0
 17 26  1  0  0  0  0
 18 10  1  0  0  0  0
 18 19  1  1  0  0  0
 20 21  1  1  0  0  0
 20 29  1  0  0  0  0
 22 13  1  0  0  0  0
 22 23  1  1  0  0  0
 24 25  1  1  0  0  0
 24 33  1  0  0  0  0
 26 27  1  6  0  0  0
 26 35  1  0  0  0  0
 28  2  1  6  0  0  0
 28 18  1  0  0  0  0
 29 30  1  0  0  0  0
 29 39  1  6  0  0  0
 31 22  1  0  0  0  0
 31 32  1  1  0  0  0
 31 41  1  0  0  0  0
 33 34  1  6  0  0  0
 33 43  1  0  0  0  0
 35 36  1  0  0  0  0
 35 45  1  1  0  0  0
 37 28  1  0  0  0  0
 37 38  1  6  0  0  0
 39 40  1  0  0  0  0
 41 42  1  0  0  0  0
 41 49  1  1  0  0  0
 43 44  1  0  0  0  0
 43 51  1  6  0  0  0
 45 46  1  0  0  0  0
 47 37  1  0  0  0  0
 47 48  1  6  0  0  0
 49 50  1  0  0  0  0
 51 52  1  0  0  0  0
M  END
>  <CHROM.1>
-145.07147004,-168.15343920,-164.86020660,79.20503327,-176.45979800,-63.11979539
54.83071363,80.63540233,-60.81352126,-54.66252605,81.00835136,95.03563546
22.29656222,-5.86076917,15.70418874,-2.35583069,0.20200646,-0.04676120

>  <Name>
2esj_lig

>  <RI>
1.01272e+07

>  <Rbt.Current_Directory>
/home/itssahil/PROJECTS/Mol_Feturizer/New_Systems/rnas/2esj

>  <Rbt.Executable>
rbdock ($Id: //depot/dev/client3/rdock/2013.1/src/exe/rbdock.cxx#4 $)

>  <Rbt.Library>
libRbt.so (2013.1, Build901 2013/11/27)

>  <Rbt.Parameter_File>
/export/apps/rDock/src/rDock_2013.1_src/data/scripts/dock_solv.prm

>  <Rbt.Receptor>
prm/pocket_docking_3.prm

>  <SCORE>
-0.823717

>  <SCORE.INTER>
2.56001

>  <SCORE.INTER.CONST>
1

>  <SCORE.INTER.POLAR>
-0.823647

>  <SCORE.INTER.ROT>
12

>  <SCORE.INTER.SOLV>
10.6828

>  <SCORE.INTER.VDW>
-10.7088

>  <SCORE.INTER.norm>
0.049231

>  <SCORE.INTRA>
-3.97442

>  <SCORE.INTRA.DIHEDRAL>
-16.8472

>  <SCORE.INTRA.DIHEDRAL.0>
32.9766

>  <SCORE.INTRA.POLAR>
0

>  <SCORE.INTRA.POLAR.0>
0

>  <SCORE.INTRA.REPUL>
0

>  <SCORE.INTRA.REPUL.0>
0

>  <SCORE.INTRA.SOLV>
-0.132882

>  <SCORE.INTRA.SOLV.lig_0>
-114.358

>  <SCORE.INTRA.VDW>
4.51562

>  <SCORE.INTRA.VDW.0>
-8.24257

>  <SCORE.INTRA.norm>
-0.0764311

>  <SCORE.RESTR>
0.59069

>  <SCORE.RESTR.CAVITY>
0.59069

>  <SCORE.RESTR.norm>
0.0113594

>  <SCORE.SYSTEM>
0

>  <SCORE.SYSTEM.CONST>
0

>  <SCORE.SYSTEM.DIHEDRAL>
0

>  <SCORE.SYSTEM.SOLV>
0

>  <SCORE.SYSTEM.norm>
0

>  <SCORE.heavy>
52

>  <SCORE.norm>
-0.0158407

>  <RMSD>
4.576

$$$$
2esj_lig
 OpenBabel11021811423D
libRbt.so/2013.1/901 2013/11/27
 52 56  0  0  0  0  0  0  0  0999 V2000
   17.6383   -4.4201   16.8258 C   0  0  2  0  0  0  0  0  0  0  0  0
   18.2628   -5.7066   16.9987 O   0  0  0  0  0  0  0  0  0  0  0  0
   18.7751   -5.8479   21.2419 C   0  0  2  0  0  0  0  0  0  0  0  0
   18.8880   -6.2723   22.6471 N   0  0  0  0  0  0  0  0  0  0  0  0
   21.4511   -5.8336   17.0272 C   0  0  1  0  0  0  0  0  0  0  0  0
   23.3091   -4.1014   13.7736 C   0  0  1  0  0  0  0  0  0  0  0  0
   27.5969   -1.5710   12.6677 C   0  0  1  0  0  0  0  0  0  0  0  0
   17.5159   -4.1605   15.2952 C   0  0  2  0  0  0  0  0  0  0  0  0
   16.7780   -5.2220   14.6112 N   0  0  0  0  0  0  0  0  0  0  0  0
   17.3817   -6.2935   20.6441 C   0  0  0  0  0  0  0  0  0  0  0  0
   22.7564   -6.4778   16.5584 C   0  0  2  0  0  0  0  0  0  0  0  0
   23.8941   -6.0450   17.3353 O   0  0  0  0  0  0  0  0  0  0  0  0
   24.5149   -4.8870   13.0881 C   0  0  2  0  0  0  0  0  0  0  0  0
   25.6897   -4.9614   13.9966 N   0  0  0  0  0  0  0  0  0  0  0  0
   28.7201   -2.4025   13.2765 C   0  0  1  0  0  0  0  0  0  0  0  0
   29.9894   -1.8324   12.8993 O   0  0  0  0  0  0  0  0  0  0  0  0
   18.9254   -3.9906   14.6443 C   0  0  0  0  0  0  0  0  0  0  0  0
   17.2547   -5.7779   19.1543 C   0  0  2  0  0  0  0  0  0  0  0  0
   15.9740   -6.1904   18.5709 N   0  0  0  0  0  0  0  0  0  0  0  0
   22.7828   -6.0316   15.1251 C   0  0  2  0  0  0  0  0  0  0  0  0
   23.1730   -4.6846   15.0361 O   0  0  0  0  0  0  0  0  0  0  0  0
   24.8073   -4.2428   11.6617 C   0  0  1  0  0  0  0  0  0  0  0  0
   23.5825   -4.1769   10.9240 O   0  0  0  0  0  0  0  0  0  0  0  0
   28.6912   -2.5230   14.7954 C   0  0  1  0  0  0  0  0  0  0  0  0
   29.9280   -3.1229   15.1961 O   0  0  0  0  0  0  0  0  0  0  0  0
   19.6989   -2.8725   15.4042 C   0  0  2  0  0  0  0  0  0  0  0  0
   20.9606   -2.6118   14.8157 O   0  0  0  0  0  0  0  0  0  0  0  0
   18.4340   -6.3058   18.2966 C   0  0  2  0  0  0  0  0  0  0  0  0
   21.3130   -6.0264   14.6569 C   0  0  2  0  0  0  0  0  0  0  0  0
   20.6211   -5.7374   15.8614 O   0  0  0  0  0  0  0  0  0  0  0  0
   25.3119   -2.7471   11.7951 C   0  0  2  0  0  0  0  0  0  0  0  0
   26.5476   -2.8545   12.5035 O   0  0  0  0  0  0  0  0  0  0  0  0
   28.5196   -1.1850   15.5168 C   0  0  2  0  0  0  0  0  0  0  0  0
   28.1993   -1.4871   16.8846 O   0  0  0  0  0  0  0  0  0  0  0  0
   19.8380   -3.2971   16.8872 C   0  0  2  0  0  0  0  0  0  0  0  0
   18.4922   -3.4203   17.4300 O   0  0  0  0  0  0  0  0  0  0  0  0
   19.8453   -6.0032   18.8946 C   0  0  2  0  0  0  0  0  0  0  0  0
   20.8688   -6.6052   18.0541 O   0  0  0  0  0  0  0  0  0  0  0  0
   20.7810   -7.3328   14.0688 C   0  0  0  0  0  0  0  0  0  0  0  0
   19.3766   -7.1590   13.8297 O   0  0  0  0  0  0  0  0  0  0  0  0
   24.3492   -2.0736   12.7541 C   0  0  1  0  0  0  0  0  0  0  0  0
   23.6234   -2.6202   13.8761 O   0  0  0  0  0  0  0  0  0  0  0  0
   27.4977   -0.2979   14.8144 C   0  0  2  0  0  0  0  0  0  0  0  0
   27.3202   -0.3470   13.3904 O   0  0  0  0  0  0  0  0  0  0  0  0
   20.5252   -2.2741   17.7261 C   0  0  0  0  0  0  0  0  0  0  0  0
   19.7675   -1.0906   17.6532 O   0  0  0  0  0  0  0  0  0  0  0  0
   19.9322   -6.4758   20.3850 C   0  0  1  0  0  0  0  0  0  0  0  0
   21.1915   -5.9868   20.9181 O   0  0  0  0  0  0  0  0  0  0  0  0
   24.5572   -0.5453   12.9864 C   0  0  0  0  0  0  0  0  0  0  0  0
   23.4961    0.2892   12.3844 N   0  0  0  0  0  0  0  0  0  0  0  0
   27.1308    1.1004   15.3061 C   0  0  0  0  0  0  0  0  0  0  0  0
   26.4900    1.0163   16.6065 O   0  0  0  0  0  0  0  0  0  0  0  0
  1  2  1  6  0  0  0
  1  8  1  0  0  0  0
  1 36  1  0  0  0  0
  3  4  1  1  0  0  0
  3 10  1  0  0  0  0
  3 47  1  0  0  0  0
  5 11  1  0  0  0  0
  5 30  1  0  0  0  0
  5 38  1  1  0  0  0
  6 21  1  1  0  0  0
  6 42  1  0  0  0  0
  7 15  1  0  0  0  0
  7 44  1  0  0  0  0
  7 32  1  1  0  0  0
  8  9  1  6  0  0  0
  8 17  1  0  0  0  0
 11 12  1  1  0  0  0
 11 20  1  0  0  0  0
 13  6  1  0  0  0  0
 13 14  1  1  0  0  0
 15 16  1  1  0  0  0
 15 24  1  0  0  0  0
 17 26  1  0  0  0  0
 18 10  1  0  0  0  0
 18 19  1  6  0  0  0
 20 21  1  1  0  0  0
 20 29  1  0  0  0  0
 22 13  1  0  0  0  0
 22 23  1  6  0  0  0
 24 25  1  1  0  0  0
 24 33  1  0  0  0  0
 26 27  1  6  0  0  0
 26 35  1  0  0  0  0
 28  2  1  6  0  0  0
 28 18  1  0  0  0  0
 29 30  1  0  0  0  0
 29 39  1  1  0  0  0
 31 22  1  0  0  0  0
 31 32  1  1  0  0  0
 31 41  1  0  0  0  0
 33 34  1  1  0  0  0
 33 43  1  0  0  0  0
 35 36  1  0  0  0  0
 35 45  1  1  0  0  0
 37 28  1  0  0  0  0
 37 38  1  6  0  0  0
 39 40  1  0  0  0  0
 41 42  1  0  0  0  0
 41 49  1  1  0  0  0
 43 44  1  0  0  0  0
 43 51  1  6  0  0  0
 45 46  1  0  0  0  0
 47 37  1  0  0  0  0
 47 48  1  1  0  0  0
 49 50  1  0  0  0  0
 51 52  1  0  0  0  0
M  END
>  <CHROM.1>
-175.05852073,162.90674456,-64.84266183,-171.39944845,177.45124880,29.73417485
174.10583774,169.40289698,59.44952023,92.66304552,109.34676505,-64.70009025
22.59831460,-3.85640406,15.71966797,2.68345682,0.40293483,1.61608469

>  <Name>
2esj_lig

>  <RI>
1.62275e+07

>  <Rbt.Current_Directory>
/home/itssahil/PROJECTS/Mol_Feturizer/New_Systems/rnas/2esj

>  <Rbt.Executable>
rbdock ($Id: //depot/dev/client3/rdock/2013.1/src/exe/rbdock.cxx#4 $)

>  <Rbt.Library>
libRbt.so (2013.1, Build901 2013/11/27)

>  <Rbt.Parameter_File>
/export/apps/rDock/src/rDock_2013.1_src/data/scripts/dock_solv.prm

>  <Rbt.Receptor>
prm/pocket_docking_5.prm

>  <SCORE>
-13.5269

>  <SCORE.INTER>
-9.62697

>  <SCORE.INTER.CONST>
1

>  <SCORE.INTER.POLAR>
-2.75407

>  <SCORE.INTER.ROT>
12

>  <SCORE.INTER.SOLV>
24.5799

>  <SCORE.INTER.VDW>
-17.031

>  <SCORE.INTER.norm>
-0.185134

>  <SCORE.INTRA>
-3.89989

>  <SCORE.INTRA.DIHEDRAL>
-17.5101

>  <SCORE.INTRA.DIHEDRAL.0>
32.9766

>  <SCORE.INTRA.POLAR>
0

>  <SCORE.INTRA.POLAR.0>
0

>  <SCORE.INTRA.REPUL>
0.351076

>  <SCORE.INTRA.REPUL.0>
0

>  <SCORE.INTRA.SOLV>
1.11113

>  <SCORE.INTRA.SOLV.lig_0>
-114.358

>  <SCORE.INTRA.VDW>
2.5442

>  <SCORE.INTRA.VDW.0>
-8.24257

>  <SCORE.INTRA.norm>
-0.0749978

>  <SCORE.RESTR>
0

>  <SCORE.RESTR.CAVITY>
0

>  <SCORE.RESTR.norm>
0

>  <SCORE.SYSTEM>
0

>  <SCORE.SYSTEM.CONST>
0

>  <SCORE.SYSTEM.DIHEDRAL>
0

>  <SCORE.SYSTEM.SOLV>
0

>  <SCORE.SYSTEM.norm>
0

>  <SCORE.heavy>
52

>  <SCORE.norm>
-0.260132

>  <RMSD>
4.615

$$$$
2esj_lig
 OpenBabel11021811423D
libRbt.so/2013.1/901 2013/11/27
 52 56  0  0  0  0  0  0  0  0999 V2000
   18.4829   -9.5459   16.6976 C   0  0  2  0  0  0  0  0  0  0  0  0
   18.8853   -9.3022   18.0590 O   0  0  0  0  0  0  0  0  0  0  0  0
   15.1448   -8.0261   19.6925 C   0  0  2  0  0  0  0  0  0  0  0  0
   14.0623   -7.5707   20.5803 N   0  0  0  0  0  0  0  0  0  0  0  0
   19.3099   -6.4182   17.3757 C   0  0  1  0  0  0  0  0  0  0  0  0
   21.1942   -5.9528   13.6257 C   0  0  1  0  0  0  0  0  0  0  0  0
   25.4284   -2.8167   14.0869 C   0  0  1  0  0  0  0  0  0  0  0  0
   18.2778  -11.0812   16.5372 C   0  0  2  0  0  0  0  0  0  0  0  0
   17.3101  -11.6134   17.4961 N   0  0  0  0  0  0  0  0  0  0  0  0
   15.7825   -9.3624   20.2452 C   0  0  0  0  0  0  0  0  0  0  0  0
   18.5288   -5.9247   16.1571 C   0  0  2  0  0  0  0  0  0  0  0  0
   17.8306   -6.9929   15.4812 O   0  0  0  0  0  0  0  0  0  0  0  0
   22.6943   -6.1098   14.1416 C   0  0  2  0  0  0  0  0  0  0  0  0
   22.8873   -5.4173   15.4432 N   0  0  0  0  0  0  0  0  0  0  0  0
   26.1584   -4.1155   13.7649 C   0  0  1  0  0  0  0  0  0  0  0  0
   27.4334   -3.8065   13.1670 O   0  0  0  0  0  0  0  0  0  0  0  0
   19.6347  -11.8421   16.6756 C   0  0  0  0  0  0  0  0  0  0  0  0
   16.9019   -9.8675   19.2485 C   0  0  2  0  0  0  0  0  0  0  0  0
   17.5199  -11.1010   19.7458 N   0  0  0  0  0  0  0  0  0  0  0  0
   19.6364   -5.3069   15.3537 C   0  0  2  0  0  0  0  0  0  0  0  0
   20.4001   -6.3025   14.7211 O   0  0  0  0  0  0  0  0  0  0  0  0
   23.6891   -5.6560   12.9842 C   0  0  1  0  0  0  0  0  0  0  0  0
   23.3480   -6.3527   11.7813 O   0  0  0  0  0  0  0  0  0  0  0  0
   26.4071   -5.0348   14.9546 C   0  0  1  0  0  0  0  0  0  0  0  0
   27.2949   -6.0678   14.5132 O   0  0  0  0  0  0  0  0  0  0  0  0
   20.6535  -11.2422   15.6619 C   0  0  2  0  0  0  0  0  0  0  0  0
   21.8866  -11.9389   15.6798 O   0  0  0  0  0  0  0  0  0  0  0  0
   17.9776   -8.7697   19.0417 C   0  0  2  0  0  0  0  0  0  0  0  0
   20.6075   -4.6867   16.3794 C   0  0  2  0  0  0  0  0  0  0  0  0
   20.4378   -5.5408   17.4996 O   0  0  0  0  0  0  0  0  0  0  0  0
   23.5259   -4.1158   12.6520 C   0  0  2  0  0  0  0  0  0  0  0  0
   23.9059   -3.4533   13.8591 O   0  0  0  0  0  0  0  0  0  0  0  0
   27.0169   -4.3254   16.1650 C   0  0  2  0  0  0  0  0  0  0  0  0
   26.8987   -5.2255   17.2788 O   0  0  0  0  0  0  0  0  0  0  0  0
   20.8421   -9.7404   15.9907 C   0  0  2  0  0  0  0  0  0  0  0  0
   19.5467   -9.0956   15.8262 O   0  0  0  0  0  0  0  0  0  0  0  0
   17.4015   -7.3833   18.6092 C   0  0  2  0  0  0  0  0  0  0  0  0
   18.4828   -6.4143   18.5182 O   0  0  0  0  0  0  0  0  0  0  0  0
   20.3270   -3.2435   16.7965 C   0  0  0  0  0  0  0  0  0  0  0  0
   21.0481   -2.9970   18.0126 O   0  0  0  0  0  0  0  0  0  0  0  0
   22.0339   -3.8826   12.5112 C   0  0  1  0  0  0  0  0  0  0  0  0
   20.9274   -4.5276   13.1777 O   0  0  0  0  0  0  0  0  0  0  0  0
   26.3795   -2.9592   16.3922 C   0  0  2  0  0  0  0  0  0  0  0  0
   25.8961   -2.1692   15.2949 O   0  0  0  0  0  0  0  0  0  0  0  0
   21.7665   -9.0474   15.0486 C   0  0  0  0  0  0  0  0  0  0  0  0
   23.0066   -9.7096   15.1106 O   0  0  0  0  0  0  0  0  0  0  0  0
   16.2607   -6.9264   19.5799 C   0  0  1  0  0  0  0  0  0  0  0  0
   15.6544   -5.7400   19.0020 O   0  0  0  0  0  0  0  0  0  0  0  0
   21.5935   -2.4506   12.0772 C   0  0  0  0  0  0  0  0  0  0  0  0
   21.9454   -2.1275   10.6785 N   0  0  0  0  0  0  0  0  0  0  0  0
   26.7976   -2.0226   17.5235 C   0  0  0  0  0  0  0  0  0  0  0  0
   28.2460   -1.9462   17.5940 O   0  0  0  0  0  0  0  0  0  0  0  0
  1  2  1  1  0  0  0
  1  8  1  0  0  0  0
  1 36  1  0  0  0  0
  3  4  1  1  0  0  0
  3 10  1  0  0  0  0
  3 47  1  0  0  0  0
  5 11  1  0  0  0  0
  5 30  1  0  0  0  0
  5 38  1  1  0  0  0
  6 21  1  1  0  0  0
  6 42  1  0  0  0  0
  7 15  1  0  0  0  0
  7 44  1  0  0  0  0
  7 32  1  1  0  0  0
  8  9  1  1  0  0  0
  8 17  1  0  0  0  0
 11 12  1  6  0  0  0
 11 20  1  0  0  0  0
 13  6  1  0  0  0  0
 13 14  1  1  0  0  0
 15 16  1  1  0  0  0
 15 24  1  0  0  0  0
 17 26  1  0  0  0  0
 18 10  1  0  0  0  0
 18 19  1  1  0  0  0
 20 21  1  1  0  0  0
 20 29  1  0  0  0  0
 22 13  1  0  0  0  0
 22 23  1  6  0  0  0
 24 25  1  6  0  0  0
 24 33  1  0  0  0  0
 26 27  1  1  0  0  0
 26 35  1  0  0  0  0
 28  2  1  6  0  0  0
 28 18  1  0  0  0  0
 29 30  1  0  0  0  0
 29 39  1  1  0  0  0
 31 22  1  0  0  0  0
 31 32  1  1  0  0  0
 31 41  1  0  0  0  0
 33 34  1  1  0  0  0
 33 43  1  0  0  0  0
 35 36  1  0  0  0  0
 35 45  1  6  0  0  0
 37 28  1  0  0  0  0
 37 38  1  1  0  0  0
 39 40  1  0  0  0  0
 41 42  1  0  0  0  0
 41 49  1  1  0  0  0
 43 44  1  0  0  0  0
 43 51  1  6  0  0  0
 45 46  1  0  0  0  0
 47 37  1  0  0  0  0
 47 48  1  6  0  0  0
 49 50  1  0  0  0  0
 51 52  1  0  0  0  0
M  END
>  <CHROM.1>
-103.75076906,69.89751196,111.60148150,-54.30467532,160.41942209,66.22803857
162.59397917,98.19622637,-58.60667029,79.06233427,69.40579317,45.83415857
21.31144968,-6.38478662,16.03842186,-2.66695266,0.50159292,0.13196160

>  <Name>
2esj_lig

>  <RI>
0

>  <Rbt.Current_Directory>
/home/itssahil/PROJECTS/Mol_Feturizer/New_Systems/rnas/2esj

>  <Rbt.Executable>
rbdock ($Id: //depot/dev/client3/rdock/2013.1/src/exe/rbdock.cxx#4 $)

>  <Rbt.Library>
libRbt.so (2013.1, Build901 2013/11/27)

>  <Rbt.Parameter_File>
/export/apps/rDock/src/rDock_2013.1_src/data/scripts/dock_solv.prm

>  <Rbt.Receptor>
prm/pocket_docking_2.prm

>  <SCORE>
18.0899

>  <SCORE.INTER>
0.786727

>  <SCORE.INTER.CONST>
1

>  <SCORE.INTER.POLAR>
-0.148567

>  <SCORE.INTER.ROT>
12

>  <SCORE.INTER.SOLV>
15.6999

>  <SCORE.INTER.VDW>
-15.8136

>  <SCORE.INTER.norm>
0.0151294

>  <SCORE.INTRA>
12.7849

>  <SCORE.INTRA.DIHEDRAL>
-5.11549

>  <SCORE.INTRA.DIHEDRAL.0>
32.9766

>  <SCORE.INTRA.POLAR>
0

>  <SCORE.INTRA.POLAR.0>
0

>  <SCORE.INTRA.REPUL>
0.908859

>  <SCORE.INTRA.REPUL.0>
0

>  <SCORE.INTRA.SOLV>
7.25638

>  <SCORE.INTRA.SOLV.lig_0>
-114.358

>  <SCORE.INTRA.VDW>
7.17014

>  <SCORE.INTRA.VDW.0>
-8.24257

>  <SCORE.INTRA.norm>
0.245863

>  <SCORE.RESTR>
4.51833

>  <SCORE.RESTR.CAVITY>
4.51833

>  <SCORE.RESTR.norm>
0.086891

>  <SCORE.SYSTEM>
0

>  <SCORE.SYSTEM.CONST>
0

>  <SCORE.SYSTEM.DIHEDRAL>
0

>  <SCORE.SYSTEM.SOLV>
0

>  <SCORE.SYSTEM.norm>
0

>  <SCORE.heavy>
52

>  <SCORE.norm>
0.347883

>  <RMSD>
4.617

$$$$
2esj_lig
 OpenBabel11021811423D
libRbt.so/2013.1/901 2013/11/27
 52 56  0  0  0  0  0  0  0  0999 V2000
   18.1701   -9.8752   17.1365 C   0  0  2  0  0  0  0  0  0  0  0  0
   19.1804   -9.2366   17.9404 O   0  0  0  0  0  0  0  0  0  0  0  0
   17.6447   -6.0334   20.3214 C   0  0  2  0  0  0  0  0  0  0  0  0
   17.4078   -4.7381   20.9797 N   0  0  0  0  0  0  0  0  0  0  0  0
   18.5099   -6.5738   15.8659 C   0  0  1  0  0  0  0  0  0  0  0  0
   20.8568   -4.1721   13.2712 C   0  0  1  0  0  0  0  0  0  0  0  0
   25.5530   -3.2660   15.0433 C   0  0  1  0  0  0  0  0  0  0  0  0
   17.9262  -11.2939   17.7305 C   0  0  2  0  0  0  0  0  0  0  0  0
   17.5498  -11.2452   19.1430 N   0  0  0  0  0  0  0  0  0  0  0  0
   19.1184   -6.5303   20.6017 C   0  0  0  0  0  0  0  0  0  0  0  0
   17.8910   -5.6405   14.8244 C   0  0  2  0  0  0  0  0  0  0  0  0
   17.5920   -6.3194   13.5854 O   0  0  0  0  0  0  0  0  0  0  0  0
   22.0728   -5.0414   12.7174 C   0  0  2  0  0  0  0  0  0  0  0  0
   22.6516   -5.8945   13.7890 N   0  0  0  0  0  0  0  0  0  0  0  0
   26.6073   -2.8869   14.0098 C   0  0  1  0  0  0  0  0  0  0  0  0
   27.3244   -1.7238   14.4695 O   0  0  0  0  0  0  0  0  0  0  0  0
   19.1862  -12.1985   17.5485 C   0  0  0  0  0  0  0  0  0  0  0  0
   19.3351   -7.9491   19.9370 C   0  0  2  0  0  0  0  0  0  0  0  0
   20.7014   -8.4277   20.1713 N   0  0  0  0  0  0  0  0  0  0  0  0
   18.9685   -4.6010   14.7134 C   0  0  2  0  0  0  0  0  0  0  0  0
   20.0419   -5.0846   13.9464 O   0  0  0  0  0  0  0  0  0  0  0  0
   23.1105   -4.0760   11.9921 C   0  0  1  0  0  0  0  0  0  0  0  0
   22.4073   -3.2747   11.0370 O   0  0  0  0  0  0  0  0  0  0  0  0
   27.6275   -3.9734   13.6918 C   0  0  1  0  0  0  0  0  0  0  0  0
   28.6565   -3.3694   12.9002 O   0  0  0  0  0  0  0  0  0  0  0  0
   19.5801  -12.2152   16.0417 C   0  0  2  0  0  0  0  0  0  0  0  0
   20.6730  -13.0811   15.7926 O   0  0  0  0  0  0  0  0  0  0  0  0
   19.0385   -7.8851   18.4162 C   0  0  2  0  0  0  0  0  0  0  0  0
   19.5596   -4.4518   16.1304 C   0  0  2  0  0  0  0  0  0  0  0  0
   19.3691   -5.7512   16.6675 O   0  0  0  0  0  0  0  0  0  0  0  0
   23.7634   -3.0564   13.0136 C   0  0  2  0  0  0  0  0  0  0  0  0
   24.4820   -3.8859   13.9279 O   0  0  0  0  0  0  0  0  0  0  0  0
   28.2525   -4.6143   14.9322 C   0  0  2  0  0  0  0  0  0  0  0  0
   28.9328   -5.8004   14.4905 O   0  0  0  0  0  0  0  0  0  0  0  0
   19.8916  -10.7628   15.6029 C   0  0  2  0  0  0  0  0  0  0  0  0
   18.6737   -9.9853   15.7844 O   0  0  0  0  0  0  0  0  0  0  0  0
   17.6384   -7.2887   18.0622 C   0  0  2  0  0  0  0  0  0  0  0  0
   17.4968   -7.2053   16.6168 O   0  0  0  0  0  0  0  0  0  0  0  0
   18.8904   -3.4243   17.0427 C   0  0  0  0  0  0  0  0  0  0  0  0
   18.6219   -2.2558   16.2540 O   0  0  0  0  0  0  0  0  0  0  0  0
   22.6093   -2.4772   13.8090 C   0  0  1  0  0  0  0  0  0  0  0  0
   21.3567   -3.0802   14.1990 O   0  0  0  0  0  0  0  0  0  0  0  0
   27.2129   -4.8561   16.0208 C   0  0  2  0  0  0  0  0  0  0  0  0
   26.0857   -3.9817   16.1840 O   0  0  0  0  0  0  0  0  0  0  0  0
   20.2369  -10.6504   14.1570 C   0  0  0  0  0  0  0  0  0  0  0  0
   20.9304   -9.4386   13.9818 O   0  0  0  0  0  0  0  0  0  0  0  0
   17.4252   -5.9087   18.7710 C   0  0  1  0  0  0  0  0  0  0  0  0
   16.0427   -5.5217   18.5508 O   0  0  0  0  0  0  0  0  0  0  0  0
   22.9656   -1.3534   14.8303 C   0  0  0  0  0  0  0  0  0  0  0  0
   24.1834   -0.5975   14.4693 N   0  0  0  0  0  0  0  0  0  0  0  0
   27.5529   -5.4752   17.3747 C   0  0  0  0  0  0  0  0  0  0  0  0
   26.3873   -6.1497   17.9181 O   0  0  0  0  0  0  0  0  0  0  0  0
  1  2  1  1  0  0  0
  1  8  1  0  0  0  0
  1 36  1  0  0  0  0
  3  4  1  1  0  0  0
  3 10  1  0  0  0  0
  3 47  1  0  0  0  0
  5 11  1  0  0  0  0
  5 30  1  0  0  0  0
  5 38  1  1  0  0  0
  6 21  1  1  0  0  0
  6 42  1  0  0  0  0
  7 15  1  0  0  0  0
  7 44  1  0  0  0  0
  7 32  1  6  0  0  0
  8  9  1  1  0  0  0
  8 17  1  0  0  0  0
 11 12  1  6  0  0  0
 11 20  1  0  0  0  0
 13  6  1  0  0  0  0
 13 14  1  1  0  0  0
 15 16  1  1  0  0  0
 15 24  1  0  0  0  0
 17 26  1  0  0  0  0
 18 10  1  0  0  0  0
 18 19  1  6  0  0  0
 20 21  1  6  0  0  0
 20 29  1  0  0  0  0
 22 13  1  0  0  0  0
 22 23  1  6  0  0  0
 24 25  1  6  0  0  0
 24 33  1  0  0  0  0
 26 27  1  1  0  0  0
 26 35  1  0  0  0  0
 28  2  1  1  0  0  0
 28 18  1  0  0  0  0
 29 30  1  0  0  0  0
 29 39  1  1  0  0  0
 31 22  1  0  0  0  0
 31 32  1  1  0  0  0
 31 41  1  0  0  0  0
 33 34  1  6  0  0  0
 33 43  1  0  0  0  0
 35 36  1  0  0  0  0
 35 45  1  6  0  0  0
 37 28  1  0  0  0  0
 37 38  1  6  0  0  0
 39 40  1  0  0  0  0
 41 42  1  0  0  0  0
 41 49  1  1  0  0  0
 43 44  1  0  0  0  0
 43 51  1  1  0  0  0
 45 46  1  0  0  0  0
 47 37  1  0  0  0  0
 47 48  1  1  0  0  0
 49 50  1  0  0  0  0
 51 52  1  0  0  0  0
M  END
>  <CHROM.1>
-133.27015399,-135.32476836,171.28535286,-70.91544048,154.04425114,129.69836192
-42.23380200,169.35876989,-159.93704598,-51.41032656,26.42645939,-153.01310256
21.44986071,-6.03994621,15.86549835,-2.50251506,0.27665636,-0.22366893

>  <Name>
2esj_lig

>  <RI>
0

>  <Rbt.Current_Directory>
/home/itssahil/PROJECTS/Mol_Feturizer/New_Systems/rnas/2esj

>  <Rbt.Executable>
rbdock ($Id: //depot/dev/client3/rdock/2013.1/src/exe/rbdock.cxx#4 $)

>  <Rbt.Library>
libRbt.so (2013.1, Build901 2013/11/27)

>  <Rbt.Parameter_File>
/export/apps/rDock/src/rDock_2013.1_src/data/scripts/dock_solv.prm

>  <Rbt.Receptor>
prm/pocket_docking_2.prm

>  <SCORE>
2.4608

>  <SCORE.INTER>
-5.6419

>  <SCORE.INTER.CONST>
1

>  <SCORE.INTER.POLAR>
-1.05432

>  <SCORE.INTER.ROT>
12

>  <SCORE.INTER.SOLV>
18.7865

>  <SCORE.INTER.VDW>
-18.109

>  <SCORE.INTER.norm>
-0.108498

>  <SCORE.INTRA>
3.54121

>  <SCORE.INTRA.DIHEDRAL>
-1.01149

>  <SCORE.INTRA.DIHEDRAL.0>
32.9766

>  <SCORE.INTRA.POLAR>
0

>  <SCORE.INTRA.POLAR.0>
0

>  <SCORE.INTRA.REPUL>
0

>  <SCORE.INTRA.REPUL.0>
0

>  <SCORE.INTRA.SOLV>
0.0598946

>  <SCORE.INTRA.SOLV.lig_0>
-114.358

>  <SCORE.INTRA.VDW>
4.01701

>  <SCORE.INTRA.VDW.0>
-8.24257

>  <SCORE.INTRA.norm>
0.0681003

>  <SCORE.RESTR>
4.56148

>  <SCORE.RESTR.CAVITY>
4.56148

>  <SCORE.RESTR.norm>
0.0877208

>  <SCORE.SYSTEM>
0

>  <SCORE.SYSTEM.CONST>
0

>  <SCORE.SYSTEM.DIHEDRAL>
0

>  <SCORE.SYSTEM.SOLV>
0

>  <SCORE.SYSTEM.norm>
0

>  <SCORE.heavy>
52

>  <SCORE.norm>
0.047323

>  <RMSD>
4.629

$$$$
2esj_lig
 OpenBabel11021811423D
libRbt.so/2013.1/901 2013/11/27
 52 56  0  0  0  0  0  0  0  0999 V2000
   17.7793   -4.4793   16.7160 C   0  0  2  0  0  0  0  0  0  0  0  0
   18.7792   -5.4906   16.4874 O   0  0  0  0  0  0  0  0  0  0  0  0
   18.9979   -9.6588   17.4184 C   0  0  2  0  0  0  0  0  0  0  0  0
   18.7547  -11.1069   17.5230 N   0  0  0  0  0  0  0  0  0  0  0  0
   20.8436   -6.3093   14.2065 C   0  0  1  0  0  0  0  0  0  0  0  0
   24.0583   -3.8324   13.3458 C   0  0  1  0  0  0  0  0  0  0  0  0
   28.7011   -3.1991   14.9943 C   0  0  1  0  0  0  0  0  0  0  0  0
   17.2201   -4.0509   15.3272 C   0  0  2  0  0  0  0  0  0  0  0  0
   16.6875   -5.1842   14.5715 N   0  0  0  0  0  0  0  0  0  0  0  0
   17.7281   -8.8524   17.9031 C   0  0  0  0  0  0  0  0  0  0  0  0
   22.2422   -6.8236   14.5499 C   0  0  2  0  0  0  0  0  0  0  0  0
   22.5790   -6.6172   15.9389 O   0  0  0  0  0  0  0  0  0  0  0  0
   25.5045   -4.4967   13.4381 C   0  0  2  0  0  0  0  0  0  0  0  0
   25.8331   -4.8695   14.8395 N   0  0  0  0  0  0  0  0  0  0  0  0
   29.4673   -1.9536   14.5642 C   0  0  1  0  0  0  0  0  0  0  0  0
   30.7229   -1.9024   15.2708 O   0  0  0  0  0  0  0  0  0  0  0  0
   18.3153   -3.3209   14.4865 C   0  0  0  0  0  0  0  0  0  0  0  0
   18.0292   -7.3010   17.8396 C   0  0  2  0  0  0  0  0  0  0  0  0
   16.8601   -6.5283   18.2721 N   0  0  0  0  0  0  0  0  0  0  0  0
   23.0722   -6.0229   13.5887 C   0  0  2  0  0  0  0  0  0  0  0  0
   23.2189   -4.7025   14.0465 O   0  0  0  0  0  0  0  0  0  0  0  0
   26.5604   -3.5367   12.7321 C   0  0  1  0  0  0  0  0  0  0  0  0
   26.0861   -3.2116   11.4214 O   0  0  0  0  0  0  0  0  0  0  0  0
   29.7626   -1.8536   13.0725 C   0  0  1  0  0  0  0  0  0  0  0  0
   30.6763   -0.7658   12.8936 O   0  0  0  0  0  0  0  0  0  0  0  0
   18.8823   -2.1343   15.3208 C   0  0  2  0  0  0  0  0  0  0  0  0
   19.8291   -1.3791   14.5864 O   0  0  0  0  0  0  0  0  0  0  0  0
   18.4478   -6.8893   16.4042 C   0  0  2  0  0  0  0  0  0  0  0  0
   22.2206   -5.8824   12.3101 C   0  0  2  0  0  0  0  0  0  0  0  0
   20.9011   -5.9072   12.8308 O   0  0  0  0  0  0  0  0  0  0  0  0
   26.6904   -2.1566   13.4988 C   0  0  2  0  0  0  0  0  0  0  0  0
   27.1964   -2.5152   14.7856 O   0  0  0  0  0  0  0  0  0  0  0  0
   30.3670   -3.1264   12.4769 C   0  0  2  0  0  0  0  0  0  0  0  0
   30.2938   -2.9935   11.0481 O   0  0  0  0  0  0  0  0  0  0  0  0
   19.4943   -2.7034   16.6249 C   0  0  2  0  0  0  0  0  0  0  0  0
   18.4181   -3.3522   17.3607 O   0  0  0  0  0  0  0  0  0  0  0  0
   19.6249   -7.7311   15.8151 C   0  0  2  0  0  0  0  0  0  0  0  0
   19.8831   -7.3140   14.4456 O   0  0  0  0  0  0  0  0  0  0  0  0
   22.3731   -6.9874   11.2655 C   0  0  0  0  0  0  0  0  0  0  0  0
   23.7051   -6.9029   10.7380 O   0  0  0  0  0  0  0  0  0  0  0  0
   25.2690   -1.6843   13.7367 C   0  0  1  0  0  0  0  0  0  0  0  0
   24.0642   -2.4466   13.9643 O   0  0  0  0  0  0  0  0  0  0  0  0
   29.6898   -4.3771   13.0260 C   0  0  2  0  0  0  0  0  0  0  0  0
   29.1654   -4.4165   14.3622 O   0  0  0  0  0  0  0  0  0  0  0  0
   20.0288   -1.6460   17.5297 C   0  0  0  0  0  0  0  0  0  0  0  0
   20.5008   -2.2841   18.6917 O   0  0  0  0  0  0  0  0  0  0  0  0
   19.3280   -9.2640   15.9343 C   0  0  1  0  0  0  0  0  0  0  0  0
   20.5390   -9.9673   15.5495 O   0  0  0  0  0  0  0  0  0  0  0  0
   25.1058   -0.2786   14.3927 C   0  0  0  0  0  0  0  0  0  0  0  0
   25.3718   -0.2755   15.8466 N   0  0  0  0  0  0  0  0  0  0  0  0
   30.0943   -5.7914   12.6165 C   0  0  0  0  0  0  0  0  0  0  0  0
   31.3867   -6.1229   13.1896 O   0  0  0  0  0  0  0  0  0  0  0  0
  1  2  1  6  0  0  0
  1  8  1  0  0  0  0
  1 36  1  0  0  0  0
  3  4  1  6  0  0  0
  3 10  1  0  0  0  0
  3 47  1  0  0  0  0
  5 11  1  0  0  0  0
  5 30  1  0  0  0  0
  5 38  1  6  0  0  0
  6 21  1  1  0  0  0
  6 42  1  0  0  0  0
  7 15  1  0  0  0  0
  7 44  1  0  0  0  0
  7 32  1  6  0  0  0
  8  9  1  6  0  0  0
  8 17  1  0  0  0  0
 11 12  1  1  0  0  0
 11 20  1  0  0  0  0
 13  6  1  0  0  0  0
 13 14  1  1  0  0  0
 15 16  1  1  0  0  0
 15 24  1  0  0  0  0
 17 26  1  0  0  0  0
 18 10  1  0  0  0  0
 18 19  1  6  0  0  0
 20 21  1  1  0  0  0
 20 29  1  0  0  0  0
 22 13  1  0  0  0  0
 22 23  1  6  0  0  0
 24 25  1  1  0  0  0
 24 33  1  0  0  0  0
 26 27  1  6  0  0  0
 26 35  1  0  0  0  0
 28  2  1  1  0  0  0
 28 18  1  0  0  0  0
 29 30  1  0  0  0  0
 29 39  1  6  0  0  0
 31 22  1  0  0  0  0
 31 32  1  1  0  0  0
 31 41  1  0  0  0  0
 33 34  1  6  0  0  0
 33 43  1  0  0  0  0
 35 36  1  0  0  0  0
 35 45  1  1  0  0  0
 37 28  1  0  0  0  0
 37 38  1  6  0  0  0
 39 40  1  0  0  0  0
 41 42  1  0  0  0  0
 41 49  1  1  0  0  0
 43 44  1  0  0  0  0
 43 51  1  1  0  0  0
 45 46  1  0  0  0  0
 47 37  1  0  0  0  0
 47 48  1  1  0  0  0
 49 50  1  0  0  0  0
 51 52  1  0  0  0  0
M  END
>  <CHROM.1>
-88.09308477,67.60516384,-61.59055994,67.21279815,174.43587197,-69.23421286
-66.77434725,64.29666072,177.58265681,92.16470901,-76.62613707,71.32978913
23.27427538,-4.64718641,14.67140895,2.88806814,-0.32486603,-2.98389270

>  <Name>
2esj_lig

>  <RI>
1.62275e+07

>  <Rbt.Current_Directory>
/home/itssahil/PROJECTS/Mol_Feturizer/New_Systems/rnas/2esj

>  <Rbt.Executable>
rbdock ($Id: //depot/dev/client3/rdock/2013.1/src/exe/rbdock.cxx#4 $)

>  <Rbt.Library>
libRbt.so (2013.1, Build901 2013/11/27)

>  <Rbt.Parameter_File>
/export/apps/rDock/src/rDock_2013.1_src/data/scripts/dock_solv.prm

>  <Rbt.Receptor>
prm/pocket_docking_5.prm

>  <SCORE>
-19.1499

>  <SCORE.INTER>
-13.013

>  <SCORE.INTER.CONST>
1

>  <SCORE.INTER.POLAR>
-1.84556

>  <SCORE.INTER.ROT>
12

>  <SCORE.INTER.SOLV>
16.6672

>  <SCORE.INTER.VDW>
-19.6792

>  <SCORE.INTER.norm>
-0.25025

>  <SCORE.INTRA>
-6.13692

>  <SCORE.INTRA.DIHEDRAL>
-19.0011

>  <SCORE.INTRA.DIHEDRAL.0>
32.9766

>  <SCORE.INTRA.POLAR>
0

>  <SCORE.INTRA.POLAR.0>
0

>  <SCORE.INTRA.REPUL>
0

>  <SCORE.INTRA.REPUL.0>
0

>  <SCORE.INTRA.SOLV>
1.72001

>  <SCORE.INTRA.SOLV.lig_0>
-114.358

>  <SCORE.INTRA.VDW>
2.50363

>  <SCORE.INTRA.VDW.0>
-8.24257

>  <SCORE.INTRA.norm>
-0.118018

>  <SCORE.RESTR>
0

>  <SCORE.RESTR.CAVITY>
0

>  <SCORE.RESTR.norm>
0

>  <SCORE.SYSTEM>
0

>  <SCORE.SYSTEM.CONST>
0

>  <SCORE.SYSTEM.DIHEDRAL>
0

>  <SCORE.SYSTEM.SOLV>
0

>  <SCORE.SYSTEM.norm>
0

>  <SCORE.heavy>
52

>  <SCORE.norm>
-0.368267

>  <RMSD>
4.642

$$$$
2esj_lig
 OpenBabel11021811423D
libRbt.so/2013.1/901 2013/11/27
 52 56  0  0  0  0  0  0  0  0999 V2000
   17.9419   -4.7091   17.1716 C   0  0  2  0  0  0  0  0  0  0  0  0
   18.8445   -5.8295   17.2408 O   0  0  0  0  0  0  0  0  0  0  0  0
   18.4514   -9.9764   18.2087 C   0  0  2  0  0  0  0  0  0  0  0  0
   18.0429  -11.3894   18.2709 N   0  0  0  0  0  0  0  0  0  0  0  0
   21.4324   -7.3249   15.3674 C   0  0  1  0  0  0  0  0  0  0  0  0
   25.3909   -6.3874   14.8093 C   0  0  1  0  0  0  0  0  0  0  0  0
   27.2116   -2.1794   16.8236 C   0  0  1  0  0  0  0  0  0  0  0  0
   17.7100   -4.3865   15.6658 C   0  0  2  0  0  0  0  0  0  0  0  0
   17.2048   -5.5413   14.9239 N   0  0  0  0  0  0  0  0  0  0  0  0
   17.2058   -9.0338   18.4481 C   0  0  0  0  0  0  0  0  0  0  0  0
   22.4189   -8.4859   15.4988 C   0  0  2  0  0  0  0  0  0  0  0  0
   22.7511   -8.7730   16.8746 O   0  0  0  0  0  0  0  0  0  0  0  0
   26.2453   -5.8079   16.0239 C   0  0  2  0  0  0  0  0  0  0  0  0
   25.3882   -5.0295   16.9569 N   0  0  0  0  0  0  0  0  0  0  0  0
   25.9625   -1.5790   17.4582 C   0  0  1  0  0  0  0  0  0  0  0  0
   26.1504   -1.4939   18.8851 O   0  0  0  0  0  0  0  0  0  0  0  0
   19.0215   -3.8612   15.0002 C   0  0  0  0  0  0  0  0  0  0  0  0
   17.6741   -7.5231   18.4367 C   0  0  2  0  0  0  0  0  0  0  0  0
   16.5329   -6.6255   18.6436 N   0  0  0  0  0  0  0  0  0  0  0  0
   23.5665   -7.9639   14.6836 C   0  0  2  0  0  0  0  0  0  0  0  0
   24.2856   -6.9980   15.4077 O   0  0  0  0  0  0  0  0  0  0  0  0
   27.4988   -5.0165   15.4430 C   0  0  1  0  0  0  0  0  0  0  0  0
   28.1906   -5.8609   14.5172 O   0  0  0  0  0  0  0  0  0  0  0  0
   25.5757   -0.1949   16.9512 C   0  0  1  0  0  0  0  0  0  0  0  0
   24.5434    0.2982   17.8123 O   0  0  0  0  0  0  0  0  0  0  0  0
   19.5513   -2.6482   15.8210 C   0  0  2  0  0  0  0  0  0  0  0  0
   20.7008   -2.0720   15.2269 O   0  0  0  0  0  0  0  0  0  0  0  0
   18.3895   -7.1885   17.1021 C   0  0  2  0  0  0  0  0  0  0  0  0
   22.9335   -7.1669   13.5245 C   0  0  2  0  0  0  0  0  0  0  0  0
   21.7298   -6.6986   14.1117 O   0  0  0  0  0  0  0  0  0  0  0  0
   27.0464   -3.7454   14.6130 C   0  0  2  0  0  0  0  0  0  0  0  0
   26.3924   -2.9132   15.5723 O   0  0  0  0  0  0  0  0  0  0  0  0
   26.7369    0.8007   16.9303 C   0  0  2  0  0  0  0  0  0  0  0  0
   26.3045    1.9290   16.1527 O   0  0  0  0  0  0  0  0  0  0  0  0
   19.8347   -3.1244   17.2673 C   0  0  2  0  0  0  0  0  0  0  0  0
   18.5709   -3.5830   17.8273 O   0  0  0  0  0  0  0  0  0  0  0  0
   19.5599   -8.1592   16.7430 C   0  0  2  0  0  0  0  0  0  0  0  0
   20.1071   -7.8013   15.4434 O   0  0  0  0  0  0  0  0  0  0  0  0
   22.6048   -7.9540   12.2564 C   0  0  0  0  0  0  0  0  0  0  0  0
   22.0987   -7.0230   11.2886 O   0  0  0  0  0  0  0  0  0  0  0  0
   25.9524   -4.2317   13.6820 C   0  0  1  0  0  0  0  0  0  0  0  0
   24.9696   -5.2726   13.8697 O   0  0  0  0  0  0  0  0  0  0  0  0
   28.0223    0.1504   16.4309 C   0  0  2  0  0  0  0  0  0  0  0  0
   28.3010   -1.2367   16.6758 O   0  0  0  0  0  0  0  0  0  0  0  0
   20.3046   -2.0284   18.1620 C   0  0  0  0  0  0  0  0  0  0  0  0
   19.3171   -1.0259   18.1556 O   0  0  0  0  0  0  0  0  0  0  0  0
   19.0875   -9.6506   16.8099 C   0  0  1  0  0  0  0  0  0  0  0  0
   20.2681  -10.4826   16.6574 O   0  0  0  0  0  0  0  0  0  0  0  0
   25.3930   -3.1898   12.6651 C   0  0  0  0  0  0  0  0  0  0  0  0
   24.9826   -1.9173   13.2951 N   0  0  0  0  0  0  0  0  0  0  0  0
   29.3458    0.9030   16.3141 C   0  0  0  0  0  0  0  0  0  0  0  0
   29.9463    1.0564   17.6273 O   0  0  0  0  0  0  0  0  0  0  0  0
  1  2  1  6  0  0  0
  1  8  1  0  0  0  0
  1 36  1  0  0  0  0
  3  4  1  6  0  0  0
  3 10  1  0  0  0  0
  3 47  1  0  0  0  0
  5 11  1  0  0  0  0
  5 30  1  0  0  0  0
  5 38  1  6  0  0  0
  6 21  1  1  0  0  0
  6 42  1  0  0  0  0
  7 15  1  0  0  0  0
  7 44  1  0  0  0  0
  7 32  1  6  0  0  0
  8  9  1  6  0  0  0
  8 17  1  0  0  0  0
 11 12  1  1  0  0  0
 11 20  1  0  0  0  0
 13  6  1  0  0  0  0
 13 14  1  6  0  0  0
 15 16  1  1  0  0  0
 15 24  1  0  0  0  0
 17 26  1  0  0  0  0
 18 10  1  0  0  0  0
 18 19  1  6  0  0  0
 20 21  1  1  0  0  0
 20 29  1  0  0  0  0
 22 13  1  0  0  0  0
 22 23  1  6  0  0  0
 24 25  1  1  0  0  0
 24 33  1  0  0  0  0
 26 27  1  6  0  0  0
 26 35  1  0  0  0  0
 28  2  1  1  0  0  0
 28 18  1  0  0  0  0
 29 30  1  0  0  0  0
 29 39  1  6  0  0  0
 31 22  1  0  0  0  0
 31 32  1  1  0  0  0
 31 41  1  0  0  0  0
 33 34  1  6  0  0  0
 33 43  1  0  0  0  0
 35 36  1  0  0  0  0
 35 45  1  1  0  0  0
 37 28  1  0  0  0  0
 37 38  1  6  0  0  0
 39 40  1  0  0  0  0
 41 42  1  0  0  0  0
 41 49  1  1  0  0  0
 43 44  1  0  0  0  0
 43 51  1  1  0  0  0
 45 46  1  0  0  0  0
 47 37  1  0  0  0  0
 47 48  1  1  0  0  0
 49 50  1  0  0  0  0
 51 52  1  0  0  0  0
M  END
>  <CHROM.1>
-82.55785149,76.74705486,-159.61491740,-176.32718192,-179.62304363,-74.26014734
-176.92166148,67.54217883,57.67891650,114.70104619,-51.30347332,76.87726782
22.79931703,-4.68886314,16.06970959,2.52950558,-0.30610915,-2.81245633

>  <Name>
2esj_lig

>  <RI>
2.18877e+07

>  <Rbt.Current_Directory>
/home/itssahil/PROJECTS/Mol_Feturizer/New_Systems/rnas/2esj

>  <Rbt.Executable>
rbdock ($Id: //depot/dev/client3/rdock/2013.1/src/exe/rbdock.cxx#4 $)

>  <Rbt.Library>
libRbt.so (2013.1, Build901 2013/11/27)

>  <Rbt.Parameter_File>
/export/apps/rDock/src/rDock_2013.1_src/data/scripts/dock_solv.prm

>  <Rbt.Receptor>
prm/pocket_docking_7.prm

>  <SCORE>
-14.2877

>  <SCORE.INTER>
-10.8215

>  <SCORE.INTER.CONST>
1

>  <SCORE.INTER.POLAR>
-1.49319

>  <SCORE.INTER.ROT>
12

>  <SCORE.INTER.SOLV>
15.5684

>  <SCORE.INTER.VDW>
-19.0265

>  <SCORE.INTER.norm>
-0.208106

>  <SCORE.INTRA>
-3.46614

>  <SCORE.INTRA.DIHEDRAL>
-13.8913

>  <SCORE.INTRA.DIHEDRAL.0>
32.9766

>  <SCORE.INTRA.POLAR>
0

>  <SCORE.INTRA.POLAR.0>
0

>  <SCORE.INTRA.REPUL>
0

>  <SCORE.INTRA.REPUL.0>
0

>  <SCORE.INTRA.SOLV>
1.66509

>  <SCORE.INTRA.SOLV.lig_0>
-114.358

>  <SCORE.INTRA.VDW>
2.64699

>  <SCORE.INTRA.VDW.0>
-8.24257

>  <SCORE.INTRA.norm>
-0.0666565

>  <SCORE.RESTR>
0

>  <SCORE.RESTR.CAVITY>
0

>  <SCORE.RESTR.norm>
0

>  <SCORE.SYSTEM>
0

>  <SCORE.SYSTEM.CONST>
0

>  <SCORE.SYSTEM.DIHEDRAL>
0

>  <SCORE.SYSTEM.SOLV>
0

>  <SCORE.SYSTEM.norm>
0

>  <SCORE.heavy>
52

>  <SCORE.norm>
-0.274763

>  <RMSD>
4.687

$$$$
2esj_lig
 OpenBabel11021811423D
libRbt.so/2013.1/901 2013/11/27
 52 56  0  0  0  0  0  0  0  0999 V2000
   17.5640   -4.5105   16.2610 C   0  0  2  0  0  0  0  0  0  0  0  0
   18.4688   -5.5994   15.9955 O   0  0  0  0  0  0  0  0  0  0  0  0
   18.7396   -9.6255   17.4113 C   0  0  2  0  0  0  0  0  0  0  0  0
   18.4761  -11.0325   17.7552 N   0  0  0  0  0  0  0  0  0  0  0  0
   20.0998   -6.9656   13.4502 C   0  0  1  0  0  0  0  0  0  0  0  0
   23.0793   -5.1200   11.2620 C   0  0  1  0  0  0  0  0  0  0  0  0
   25.2431   -0.6693   13.0488 C   0  0  1  0  0  0  0  0  0  0  0  0
   16.9315   -4.0851   14.9030 C   0  0  2  0  0  0  0  0  0  0  0  0
   16.2630   -5.1989   14.2309 N   0  0  0  0  0  0  0  0  0  0  0  0
   17.6251   -8.6912   18.0299 C   0  0  0  0  0  0  0  0  0  0  0  0
   21.0353   -7.8756   12.6532 C   0  0  2  0  0  0  0  0  0  0  0  0
   22.0922   -8.4276   13.4678 O   0  0  0  0  0  0  0  0  0  0  0  0
   24.4143   -4.6835   12.0161 C   0  0  2  0  0  0  0  0  0  0  0  0
   24.1328   -4.3077   13.4269 N   0  0  0  0  0  0  0  0  0  0  0  0
   26.4737   -1.5548   12.8903 C   0  0  1  0  0  0  0  0  0  0  0  0
   27.6289   -0.7235   12.6601 O   0  0  0  0  0  0  0  0  0  0  0  0
   18.0079   -3.4642   13.9571 C   0  0  0  0  0  0  0  0  0  0  0  0
   17.9571   -7.1803   17.7004 C   0  0  2  0  0  0  0  0  0  0  0  0
   16.9291   -6.2919   18.2526 N   0  0  0  0  0  0  0  0  0  0  0  0
   21.5075   -6.9225   11.5937 C   0  0  2  0  0  0  0  0  0  0  0  0
   22.4702   -6.0426   12.1167 O   0  0  0  0  0  0  0  0  0  0  0  0
   25.1516   -3.5647   11.1561 C   0  0  1  0  0  0  0  0  0  0  0  0
   25.2983   -4.0357    9.8125 O   0  0  0  0  0  0  0  0  0  0  0  0
   26.7776   -2.4652   14.0740 C   0  0  1  0  0  0  0  0  0  0  0  0
   28.0731   -3.0324   13.8503 O   0  0  0  0  0  0  0  0  0  0  0  0
   18.7204   -2.2973   14.7032 C   0  0  2  0  0  0  0  0  0  0  0  0
   19.6592   -1.6370   13.8733 O   0  0  0  0  0  0  0  0  0  0  0  0
   18.0818   -6.9754   16.1683 C   0  0  2  0  0  0  0  0  0  0  0  0
   20.3030   -6.0124   11.2766 C   0  0  2  0  0  0  0  0  0  0  0  0
   19.6177   -5.9873   12.5187 O   0  0  0  0  0  0  0  0  0  0  0  0
   24.2823   -2.2441   11.0581 C   0  0  2  0  0  0  0  0  0  0  0  0
   24.1857   -1.7854   12.4074 O   0  0  0  0  0  0  0  0  0  0  0  0
   26.7653   -1.7459   15.4240 C   0  0  2  0  0  0  0  0  0  0  0  0
   26.7521   -2.7637   16.4383 O   0  0  0  0  0  0  0  0  0  0  0  0
   19.3889   -2.8695   15.9778 C   0  0  2  0  0  0  0  0  0  0  0  0
   18.3290   -3.4142   16.8149 O   0  0  0  0  0  0  0  0  0  0  0  0
   19.0828   -7.9522   15.4719 C   0  0  2  0  0  0  0  0  0  0  0  0
   19.0646   -7.7242   14.0352 O   0  0  0  0  0  0  0  0  0  0  0  0
   19.3515   -6.4981   10.1837 C   0  0  0  0  0  0  0  0  0  0  0  0
   18.3649   -5.4754    9.9835 O   0  0  0  0  0  0  0  0  0  0  0  0
   22.8856   -2.6996   10.6813 C   0  0  1  0  0  0  0  0  0  0  0  0
   22.1864   -3.9183   11.0134 O   0  0  0  0  0  0  0  0  0  0  0  0
   25.6130   -0.7520   15.5178 C   0  0  2  0  0  0  0  0  0  0  0  0
   25.1287   -0.0590   14.3571 O   0  0  0  0  0  0  0  0  0  0  0  0
   20.0653   -1.8269   16.8013 C   0  0  0  0  0  0  0  0  0  0  0  0
   21.1471   -1.3320   16.0498 O   0  0  0  0  0  0  0  0  0  0  0  0
   18.7671   -9.4381   15.8520 C   0  0  1  0  0  0  0  0  0  0  0  0
   19.8482  -10.2545   15.3285 O   0  0  0  0  0  0  0  0  0  0  0  0
   21.8376   -1.5755   10.4150 C   0  0  0  0  0  0  0  0  0  0  0  0
   21.8002   -1.1303    9.0061 N   0  0  0  0  0  0  0  0  0  0  0  0
   25.3598    0.1162   16.7481 C   0  0  0  0  0  0  0  0  0  0  0  0
   26.5549    0.8736   17.0748 O   0  0  0  0  0  0  0  0  0  0  0  0
  1  2  1  6  0  0  0
  1  8  1  0  0  0  0
  1 36  1  0  0  0  0
  3  4  1  6  0  0  0
  3 10  1  0  0  0  0
  3 47  1  0  0  0  0
  5 11  1  0  0  0  0
  5 30  1  0  0  0  0
  5 38  1  6  0  0  0
  6 21  1  1  0  0  0
  6 42  1  0  0  0  0
  7 15  1  0  0  0  0
  7 44  1  0  0  0  0
  7 32  1  1  0  0  0
  8  9  1  6  0  0  0
  8 17  1  0  0  0  0
 11 12  1  1  0  0  0
 11 20  1  0  0  0  0
 13  6  1  0  0  0  0
 13 14  1  1  0  0  0
 15 16  1  1  0  0  0
 15 24  1  0  0  0  0
 17 26  1  0  0  0  0
 18 10  1  0  0  0  0
 18 19  1  6  0  0  0
 20 21  1  1  0  0  0
 20 29  1  0  0  0  0
 22 13  1  0  0  0  0
 22 23  1  6  0  0  0
 24 25  1  6  0  0  0
 24 33  1  0  0  0  0
 26 27  1  6  0  0  0
 26 35  1  0  0  0  0
 28  2  1  1  0  0  0
 28 18  1  0  0  0  0
 29 30  1  0  0  0  0
 29 39  1  6  0  0  0
 31 22  1  0  0  0  0
 31 32  1  1  0  0  0
 31 41  1  0  0  0  0
 33 34  1  1  0  0  0
 33 43  1  0  0  0  0
 35 36  1  0  0  0  0
 35 45  1  1  0  0  0
 37 28  1  0  0  0  0
 37 38  1  6  0  0  0
 39 40  1  0  0  0  0
 41 42  1  0  0  0  0
 41 49  1  1  0  0  0
 43 44  1  0  0  0  0
 43 51  1  1  0  0  0
 45 46  1  0  0  0  0
 47 37  1  0  0  0  0
 47 48  1  6  0  0  0
 49 50  1  0  0  0  0
 51 52  1  0  0  0  0
M  END
>  <CHROM.1>
-96.86962181,107.47628569,-160.48204793,-62.84696407,176.87829598,-70.36560019
-176.12623000,93.80717321,-66.13201254,100.96767505,89.52289732,54.77009317
21.64746378,-4.38166594,13.97475502,3.11425614,-0.70628377,-1.97743548

>  <Name>
2esj_lig

>  <RI>
0

>  <Rbt.Current_Directory>
/home/itssahil/PROJECTS/Mol_Feturizer/New_Systems/rnas/2esj

>  <Rbt.Executable>
rbdock ($Id: //depot/dev/client3/rdock/2013.1/src/exe/rbdock.cxx#4 $)

>  <Rbt.Library>
libRbt.so (2013.1, Build901 2013/11/27)

>  <Rbt.Parameter_File>
/export/apps/rDock/src/rDock_2013.1_src/data/scripts/dock_solv.prm

>  <Rbt.Receptor>
prm/pocket_docking_4.prm

>  <SCORE>
-17.6211

>  <SCORE.INTER>
-17.9566

>  <SCORE.INTER.CONST>
1

>  <SCORE.INTER.POLAR>
-2.14584

>  <SCORE.INTER.ROT>
12

>  <SCORE.INTER.SOLV>
17.4753

>  <SCORE.INTER.VDW>
-22.2433

>  <SCORE.INTER.norm>
-0.345319

>  <SCORE.INTRA>
0.335448

>  <SCORE.INTRA.DIHEDRAL>
-4.60172

>  <SCORE.INTRA.DIHEDRAL.0>
32.9766

>  <SCORE.INTRA.POLAR>
0

>  <SCORE.INTRA.POLAR.0>
0

>  <SCORE.INTRA.REPUL>
0

>  <SCORE.INTRA.REPUL.0>
0

>  <SCORE.INTRA.SOLV>
0.185811

>  <SCORE.INTRA.SOLV.lig_0>
-114.358

>  <SCORE.INTRA.VDW>
2.5434

>  <SCORE.INTRA.VDW.0>
-8.24257

>  <SCORE.INTRA.norm>
0.00645092

>  <SCORE.RESTR>
0

>  <SCORE.RESTR.CAVITY>
0

>  <SCORE.RESTR.norm>
0

>  <SCORE.SYSTEM>
0

>  <SCORE.SYSTEM.CONST>
0

>  <SCORE.SYSTEM.DIHEDRAL>
0

>  <SCORE.SYSTEM.SOLV>
0

>  <SCORE.SYSTEM.norm>
0

>  <SCORE.heavy>
52

>  <SCORE.norm>
-0.338868

>  <RMSD>
4.720

$$$$
2esj_lig
 OpenBabel11021811423D
libRbt.so/2013.1/901 2013/11/27
 52 56  0  0  0  0  0  0  0  0999 V2000
   20.2638   -8.8665   19.8466 C   0  0  2  0  0  0  0  0  0  0  0  0
   20.3498   -7.5107   19.3678 O   0  0  0  0  0  0  0  0  0  0  0  0
   16.6535   -5.9883   20.8870 C   0  0  2  0  0  0  0  0  0  0  0  0
   15.5160   -5.1339   21.2653 N   0  0  0  0  0  0  0  0  0  0  0  0
   19.0534   -6.2267   16.8437 C   0  0  1  0  0  0  0  0  0  0  0  0
   21.4596   -3.8439   14.3704 C   0  0  1  0  0  0  0  0  0  0  0  0
   25.0220   -1.2753   16.6332 C   0  0  1  0  0  0  0  0  0  0  0  0
   21.6966   -9.4742   19.7930 C   0  0  2  0  0  0  0  0  0  0  0  0
   22.6614   -8.6851   20.5583 N   0  0  0  0  0  0  0  0  0  0  0  0
   17.9986   -5.4044   21.4762 C   0  0  0  0  0  0  0  0  0  0  0  0
   19.2265   -6.6061   15.3724 C   0  0  2  0  0  0  0  0  0  0  0  0
   20.2517   -7.6044   15.1782 O   0  0  0  0  0  0  0  0  0  0  0  0
   22.9906   -3.8493   14.8146 C   0  0  2  0  0  0  0  0  0  0  0  0
   23.1177   -3.9260   16.2941 N   0  0  0  0  0  0  0  0  0  0  0  0
   25.2998    0.1951   16.3431 C   0  0  1  0  0  0  0  0  0  0  0  0
   26.2377    0.7005   17.3143 O   0  0  0  0  0  0  0  0  0  0  0  0
   22.1845   -9.6215   18.3167 C   0  0  0  0  0  0  0  0  0  0  0  0
   19.1996   -6.3662   21.1100 C   0  0  2  0  0  0  0  0  0  0  0  0
   20.4637   -5.8393   21.6345 N   0  0  0  0  0  0  0  0  0  0  0  0
   19.5515   -5.2654   14.7801 C   0  0  2  0  0  0  0  0  0  0  0  0
   20.8823   -4.9127   15.0611 O   0  0  0  0  0  0  0  0  0  0  0  0
   23.7292   -2.6109   14.1392 C   0  0  1  0  0  0  0  0  0  0  0  0
   23.4693   -2.6287   12.7318 O   0  0  0  0  0  0  0  0  0  0  0  0
   25.8544    0.4914   14.9549 C   0  0  1  0  0  0  0  0  0  0  0  0
   26.2703    1.8614   14.9486 O   0  0  0  0  0  0  0  0  0  0  0  0
   21.1305  -10.4444   17.5183 C   0  0  2  0  0  0  0  0  0  0  0  0
   21.5477  -10.6827   16.1858 O   0  0  0  0  0  0  0  0  0  0  0  0
   19.2902   -6.5578   19.5737 C   0  0  2  0  0  0  0  0  0  0  0  0
   18.7176   -4.2391   15.5744 C   0  0  2  0  0  0  0  0  0  0  0  0
   18.6221   -4.8587   16.8471 O   0  0  0  0  0  0  0  0  0  0  0  0
   23.1509   -1.2341   14.6677 C   0  0  2  0  0  0  0  0  0  0  0  0
   23.4573   -1.2361   16.0628 O   0  0  0  0  0  0  0  0  0  0  0  0
   27.0342   -0.3984   14.5596 C   0  0  2  0  0  0  0  0  0  0  0  0
   27.2342   -0.2224   13.1476 O   0  0  0  0  0  0  0  0  0  0  0  0
   19.7810   -9.6857   17.5664 C   0  0  2  0  0  0  0  0  0  0  0  0
   19.3823   -9.6005   18.9645 O   0  0  0  0  0  0  0  0  0  0  0  0
   17.9551   -7.0207   18.9072 C   0  0  2  0  0  0  0  0  0  0  0  0
   18.1318   -7.0949   17.4651 O   0  0  0  0  0  0  0  0  0  0  0  0
   17.3130   -3.9483   15.0467 C   0  0  0  0  0  0  0  0  0  0  0  0
   16.6071   -5.1964   14.9861 O   0  0  0  0  0  0  0  0  0  0  0  0
   21.6423   -1.3629   14.5813 C   0  0  1  0  0  0  0  0  0  0  0  0
   20.8005   -2.5260   14.7334 O   0  0  0  0  0  0  0  0  0  0  0  0
   26.8112   -1.8451   14.9859 C   0  0  2  0  0  0  0  0  0  0  0  0
   26.0633   -2.1680   16.1683 O   0  0  0  0  0  0  0  0  0  0  0  0
   18.6788  -10.4088   16.8702 C   0  0  0  0  0  0  0  0  0  0  0  0
   18.9660  -10.3902   15.4928 O   0  0  0  0  0  0  0  0  0  0  0  0
   16.7706   -6.0848   19.3235 C   0  0  1  0  0  0  0  0  0  0  0  0
   15.5484   -6.6915   18.8261 O   0  0  0  0  0  0  0  0  0  0  0  0
   20.8154   -0.0925   14.9492 C   0  0  0  0  0  0  0  0  0  0  0  0
   20.3215    0.6478   13.7691 N   0  0  0  0  0  0  0  0  0  0  0  0
   27.8286   -2.9549   14.7312 C   0  0  0  0  0  0  0  0  0  0  0  0
   27.1440   -4.2220   14.5455 O   0  0  0  0  0  0  0  0  0  0  0  0
  1  2  1  6  0  0  0
  1  8  1  0  0  0  0
  1 36  1  0  0  0  0
  3  4  1  6  0  0  0
  3 10  1  0  0  0  0
  3 47  1  0  0  0  0
  5 11  1  0  0  0  0
  5 30  1  0  0  0  0
  5 38  1  6  0  0  0
  6 21  1  1  0  0  0
  6 42  1  0  0  0  0
  7 15  1  0  0  0  0
  7 44  1  0  0  0  0
  7 32  1  6  0  0  0
  8  9  1  1  0  0  0
  8 17  1  0  0  0  0
 11 12  1  1  0  0  0
 11 20  1  0  0  0  0
 13  6  1  0  0  0  0
 13 14  1  1  0  0  0
 15 16  1  1  0  0  0
 15 24  1  0  0  0  0
 17 26  1  0  0  0  0
 18 10  1  0  0  0  0
 18 19  1  6  0  0  0
 20 21  1  1  0  0  0
 20 29  1  0  0  0  0
 22 13  1  0  0  0  0
 22 23  1  6  0  0  0
 24 25  1  1  0  0  0
 24 33  1  0  0  0  0
 26 27  1  6  0  0  0
 26 35  1  0  0  0  0
 28  2  1  1  0  0  0
 28 18  1  0  0  0  0
 29 30  1  0  0  0  0
 29 39  1  6  0  0  0
 31 22  1  0  0  0  0
 31 32  1  1  0  0  0
 31 41  1  0  0  0  0
 33 34  1  6  0  0  0
 33 43  1  0  0  0  0
 35 36  1  0  0  0  0
 35 45  1  6  0  0  0
 37 28  1  0  0  0  0
 37 38  1  6  0  0  0
 39 40  1  0  0  0  0
 41 42  1  0  0  0  0
 41 49  1  1  0  0  0
 43 44  1  0  0  0  0
 43 51  1  1  0  0  0
 45 46  1  0  0  0  0
 47 37  1  0  0  0  0
 47 48  1  1  0  0  0
 49 50  1  0  0  0  0
 51 52  1  0  0  0  0
M  END
>  <CHROM.1>
-165.00847393,171.94379437,-173.55259771,76.75629016,166.81027272,63.98474535
56.70456787,62.23622546,-68.66350157,-29.88296040,101.14350307,-148.96405004
21.36522178,-4.78571962,16.69400121,-2.27494201,0.18537740,-0.33435180

>  <Name>
2esj_lig

>  <RI>
1.62275e+07

>  <Rbt.Current_Directory>
/home/itssahil/PROJECTS/Mol_Feturizer/New_Systems/rnas/2esj

>  <Rbt.Executable>
rbdock ($Id: //depot/dev/client3/rdock/2013.1/src/exe/rbdock.cxx#4 $)

>  <Rbt.Library>
libRbt.so (2013.1, Build901 2013/11/27)

>  <Rbt.Parameter_File>
/export/apps/rDock/src/rDock_2013.1_src/data/scripts/dock_solv.prm

>  <Rbt.Receptor>
prm/pocket_docking_5.prm

>  <SCORE>
-18.3412

>  <SCORE.INTER>
-9.58347

>  <SCORE.INTER.CONST>
1

>  <SCORE.INTER.POLAR>
-1.75799

>  <SCORE.INTER.ROT>
12

>  <SCORE.INTER.SOLV>
19.2636

>  <SCORE.INTER.VDW>
-18.5502

>  <SCORE.INTER.norm>
-0.184298

>  <SCORE.INTRA>
-8.75769

>  <SCORE.INTRA.DIHEDRAL>
-19.266

>  <SCORE.INTRA.DIHEDRAL.0>
32.9766

>  <SCORE.INTRA.POLAR>
0

>  <SCORE.INTRA.POLAR.0>
0

>  <SCORE.INTRA.REPUL>
0

>  <SCORE.INTRA.REPUL.0>
0

>  <SCORE.INTRA.SOLV>
-0.678801

>  <SCORE.INTRA.SOLV.lig_0>
-114.358

>  <SCORE.INTRA.VDW>
1.2147

>  <SCORE.INTRA.VDW.0>
-8.24257

>  <SCORE.INTRA.norm>
-0.168417

>  <SCORE.RESTR>
0

>  <SCORE.RESTR.CAVITY>
0

>  <SCORE.RESTR.norm>
0

>  <SCORE.SYSTEM>
0

>  <SCORE.SYSTEM.CONST>
0

>  <SCORE.SYSTEM.DIHEDRAL>
0

>  <SCORE.SYSTEM.SOLV>
0

>  <SCORE.SYSTEM.norm>
0

>  <SCORE.heavy>
52

>  <SCORE.norm>
-0.352715

>  <RMSD>
4.750

$$$$
2esj_lig
 OpenBabel11021811423D
libRbt.so/2013.1/901 2013/11/27
 52 56  0  0  0  0  0  0  0  0999 V2000
   18.5401   -8.6035   16.3903 C   0  0  2  0  0  0  0  0  0  0  0  0
   19.3945   -7.5032   16.7566 O   0  0  0  0  0  0  0  0  0  0  0  0
   17.2810   -4.0224   15.4509 C   0  0  2  0  0  0  0  0  0  0  0  0
   16.9090   -2.6776   14.9814 N   0  0  0  0  0  0  0  0  0  0  0  0
   20.3210   -6.2255   13.1704 C   0  0  1  0  0  0  0  0  0  0  0  0
   23.0914   -3.2871   12.6438 C   0  0  1  0  0  0  0  0  0  0  0  0
   27.6332   -2.8786   15.2252 C   0  0  1  0  0  0  0  0  0  0  0  0
   18.6536   -9.6784   17.5113 C   0  0  2  0  0  0  0  0  0  0  0  0
   18.3169   -9.1410   18.8293 N   0  0  0  0  0  0  0  0  0  0  0  0
   18.1289   -3.9244   16.7810 C   0  0  0  0  0  0  0  0  0  0  0  0
   21.2450   -5.5169   14.1617 C   0  0  2  0  0  0  0  0  0  0  0  0
   20.7657   -4.2020   14.5178 O   0  0  0  0  0  0  0  0  0  0  0  0
   24.6443   -3.5072   12.3589 C   0  0  2  0  0  0  0  0  0  0  0  0
   25.1481   -4.7221   13.0525 N   0  0  0  0  0  0  0  0  0  0  0  0
   27.6617   -4.2817   15.8200 C   0  0  1  0  0  0  0  0  0  0  0  0
   28.9502   -4.8771   15.5675 O   0  0  0  0  0  0  0  0  0  0  0  0
   20.0852  -10.3016   17.5428 C   0  0  0  0  0  0  0  0  0  0  0  0
   18.4683   -5.3788   17.3017 C   0  0  2  0  0  0  0  0  0  0  0  0
   19.2676   -5.3158   18.5298 N   0  0  0  0  0  0  0  0  0  0  0  0
   22.5300   -5.5152   13.3853 C   0  0  2  0  0  0  0  0  0  0  0  0
   22.5005   -4.5270   12.3867 O   0  0  0  0  0  0  0  0  0  0  0  0
   25.4280   -2.1639   12.7002 C   0  0  1  0  0  0  0  0  0  0  0  0
   24.7984   -1.0747   12.0175 O   0  0  0  0  0  0  0  0  0  0  0  0
   27.3930   -4.3593   17.3181 C   0  0  1  0  0  0  0  0  0  0  0  0
   27.6919   -5.6967   17.7331 O   0  0  0  0  0  0  0  0  0  0  0  0
   20.4287  -10.8449   16.1242 C   0  0  2  0  0  0  0  0  0  0  0  0
   21.6869  -11.4950   16.0996 O   0  0  0  0  0  0  0  0  0  0  0  0
   19.2194   -6.1831   16.2090 C   0  0  2  0  0  0  0  0  0  0  0  0
   22.5497   -6.8414   12.5977 C   0  0  2  0  0  0  0  0  0  0  0  0
   21.1669   -7.0810   12.3894 O   0  0  0  0  0  0  0  0  0  0  0  0
   25.3365   -1.8170   14.2431 C   0  0  2  0  0  0  0  0  0  0  0  0
   26.0019   -2.9039   14.8882 O   0  0  0  0  0  0  0  0  0  0  0  0
   28.2218   -3.3748   18.1450 C   0  0  2  0  0  0  0  0  0  0  0  0
   27.6436   -3.3450   19.4601 O   0  0  0  0  0  0  0  0  0  0  0  0
   20.3774   -9.6635   15.1238 C   0  0  2  0  0  0  0  0  0  0  0  0
   19.0165   -9.1452   15.1359 O   0  0  0  0  0  0  0  0  0  0  0  0
   18.4910   -6.2193   14.8274 C   0  0  2  0  0  0  0  0  0  0  0  0
   19.3145   -6.9309   13.8620 O   0  0  0  0  0  0  0  0  0  0  0  0
   23.1705   -8.0450   13.3060 C   0  0  0  0  0  0  0  0  0  0  0  0
   24.3864   -7.6017   13.9264 O   0  0  0  0  0  0  0  0  0  0  0  0
   23.8718   -1.9603   14.6094 C   0  0  1  0  0  0  0  0  0  0  0  0
   22.8661   -2.8505   14.0797 O   0  0  0  0  0  0  0  0  0  0  0  0
   28.3104   -2.0117   17.4678 C   0  0  2  0  0  0  0  0  0  0  0  0
   28.3078   -1.8873   16.0373 O   0  0  0  0  0  0  0  0  0  0  0  0
   20.6450  -10.0770   13.7168 C   0  0  0  0  0  0  0  0  0  0  0  0
   19.6959  -11.0592   13.3779 O   0  0  0  0  0  0  0  0  0  0  0  0
   18.1194   -4.7732   14.3552 C   0  0  1  0  0  0  0  0  0  0  0  0
   17.2833   -4.9081   13.1753 O   0  0  0  0  0  0  0  0  0  0  0  0
   23.4803   -1.5710   16.0682 C   0  0  0  0  0  0  0  0  0  0  0  0
   22.0203   -1.4754   16.2779 N   0  0  0  0  0  0  0  0  0  0  0  0
   29.0833   -0.8357   18.0605 C   0  0  0  0  0  0  0  0  0  0  0  0
   28.5409    0.4157   17.5620 O   0  0  0  0  0  0  0  0  0  0  0  0
  1  2  1  1  0  0  0
  1  8  1  0  0  0  0
  1 36  1  0  0  0  0
  3  4  1  6  0  0  0
  3 10  1  0  0  0  0
  3 47  1  0  0  0  0
  5 11  1  0  0  0  0
  5 30  1  0  0  0  0
  5 38  1  1  0  0  0
  6 21  1  1  0  0  0
  6 42  1  0  0  0  0
  7 15  1  0  0  0  0
  7 44  1  0  0  0  0
  7 32  1  1  0  0  0
  8  9  1  1  0  0  0
  8 17  1  0  0  0  0
 11 12  1  6  0  0  0
 11 20  1  0  0  0  0
 13  6  1  0  0  0  0
 13 14  1  1  0  0  0
 15 16  1  1  0  0  0
 15 24  1  0  0  0  0
 17 26  1  0  0  0  0
 18 10  1  0  0  0  0
 18 19  1  1  0  0  0
 20 21  1  6  0  0  0
 20 29  1  0  0  0  0
 22 13  1  0  0  0  0
 22 23  1  6  0  0  0
 24 25  1  1  0  0  0
 24 33  1  0  0  0  0
 26 27  1  1  0  0  0
 26 35  1  0  0  0  0
 28  2  1  1  0  0  0
 28 18  1  0  0  0  0
 29 30  1  0  0  0  0
 29 39  1  1  0  0  0
 31 22  1  0  0  0  0
 31 32  1  1  0  0  0
 31 41  1  0  0  0  0
 33 34  1  1  0  0  0
 33 43  1  0  0  0  0
 35 36  1  0  0  0  0
 35 45  1  6  0  0  0
 37 28  1  0  0  0  0
 37 38  1  6  0  0  0
 39 40  1  0  0  0  0
 41 42  1  0  0  0  0
 41 49  1  1  0  0  0
 43 44  1  0  0  0  0
 43 51  1  6  0  0  0
 45 46  1  0  0  0  0
 47 37  1  0  0  0  0
 47 48  1  6  0  0  0
 49 50  1  0  0  0  0
 51 52  1  0  0  0  0
M  END
>  <CHROM.1>
-159.27771854,54.04024858,82.19653924,-177.96634017,96.87453437,100.33336359
-44.42103500,90.82296823,57.45989322,-84.94156133,168.50943209,-155.18712832
22.61703415,-5.27448802,15.24496713,-2.59250795,-0.26106555,-0.27596641

>  <Name>
2esj_lig

>  <RI>
1.01272e+07

>  <Rbt.Current_Directory>
/home/itssahil/PROJECTS/Mol_Feturizer/New_Systems/rnas/2esj

>  <Rbt.Executable>
rbdock ($Id: //depot/dev/client3/rdock/2013.1/src/exe/rbdock.cxx#4 $)

>  <Rbt.Library>
libRbt.so (2013.1, Build901 2013/11/27)

>  <Rbt.Parameter_File>
/export/apps/rDock/src/rDock_2013.1_src/data/scripts/dock_solv.prm

>  <Rbt.Receptor>
prm/pocket_docking_3.prm

>  <SCORE>
2.99492

>  <SCORE.INTER>
0.778954

>  <SCORE.INTER.CONST>
1

>  <SCORE.INTER.POLAR>
-0.709951

>  <SCORE.INTER.ROT>
12

>  <SCORE.INTER.SOLV>
12.0069

>  <SCORE.INTER.VDW>
-12.7165

>  <SCORE.INTER.norm>
0.0149799

>  <SCORE.INTRA>
2.20829

>  <SCORE.INTRA.DIHEDRAL>
-5.92441

>  <SCORE.INTRA.DIHEDRAL.0>
32.9766

>  <SCORE.INTRA.POLAR>
0

>  <SCORE.INTRA.POLAR.0>
0

>  <SCORE.INTRA.REPUL>
0

>  <SCORE.INTRA.REPUL.0>
0

>  <SCORE.INTRA.SOLV>
1.60384

>  <SCORE.INTRA.SOLV.lig_0>
-114.358

>  <SCORE.INTRA.VDW>
4.36857

>  <SCORE.INTRA.VDW.0>
-8.24257

>  <SCORE.INTRA.norm>
0.0424671

>  <SCORE.RESTR>
0.00767666

>  <SCORE.RESTR.CAVITY>
0.00767666

>  <SCORE.RESTR.norm>
0.000147628

>  <SCORE.SYSTEM>
0

>  <SCORE.SYSTEM.CONST>
0

>  <SCORE.SYSTEM.DIHEDRAL>
0

>  <SCORE.SYSTEM.SOLV>
0

>  <SCORE.SYSTEM.norm>
0

>  <SCORE.heavy>
52

>  <SCORE.norm>
0.0575946

>  <RMSD>
4.799

$$$$
2esj_lig
 OpenBabel11021811423D
libRbt.so/2013.1/901 2013/11/27
 52 56  0  0  0  0  0  0  0  0999 V2000
   18.8431   -8.7582   16.0166 C   0  0  2  0  0  0  0  0  0  0  0  0
   19.9319   -8.5075   16.9258 O   0  0  0  0  0  0  0  0  0  0  0  0
   19.8180   -5.5415   20.0043 C   0  0  2  0  0  0  0  0  0  0  0  0
   20.0019   -4.3275   20.8166 N   0  0  0  0  0  0  0  0  0  0  0  0
   18.7628   -5.5031   15.5789 C   0  0  1  0  0  0  0  0  0  0  0  0
   20.1241   -2.9986   12.5053 C   0  0  1  0  0  0  0  0  0  0  0  0
   25.3061   -2.4194   12.6286 C   0  0  1  0  0  0  0  0  0  0  0  0
   18.8091  -10.2898   15.7372 C   0  0  2  0  0  0  0  0  0  0  0  0
   18.6861  -11.0738   16.9657 N   0  0  0  0  0  0  0  0  0  0  0  0
   21.2196   -6.1605   19.6172 C   0  0  0  0  0  0  0  0  0  0  0  0
   17.7533   -4.8961   14.6037 C   0  0  2  0  0  0  0  0  0  0  0  0
   17.4108   -5.8011   13.5317 O   0  0  0  0  0  0  0  0  0  0  0  0
   21.0735   -3.7592   11.4751 C   0  0  2  0  0  0  0  0  0  0  0  0
   21.9016   -4.7825   12.1665 N   0  0  0  0  0  0  0  0  0  0  0  0
   25.6906   -3.8467   13.0010 C   0  0  1  0  0  0  0  0  0  0  0  0
   27.1138   -4.0110   12.8403 O   0  0  0  0  0  0  0  0  0  0  0  0
   20.0779  -10.7401   14.9457 C   0  0  0  0  0  0  0  0  0  0  0  0
   21.0014   -7.4947   18.7962 C   0  0  2  0  0  0  0  0  0  0  0  0
   22.2888   -8.0830   18.4123 N   0  0  0  0  0  0  0  0  0  0  0  0
   18.5014   -3.6719   14.1615 C   0  0  2  0  0  0  0  0  0  0  0  0
   19.5027   -4.0141   13.2370 O   0  0  0  0  0  0  0  0  0  0  0  0
   21.8950   -2.6828   10.6375 C   0  0  1  0  0  0  0  0  0  0  0  0
   20.9804   -1.7306   10.0847 O   0  0  0  0  0  0  0  0  0  0  0  0
   25.3252   -4.2705   14.4185 C   0  0  1  0  0  0  0  0  0  0  0  0
   25.9638   -5.5287   14.6621 O   0  0  0  0  0  0  0  0  0  0  0  0
   20.1993   -9.8758   13.6557 C   0  0  2  0  0  0  0  0  0  0  0  0
   21.2894  -10.2842   12.8488 O   0  0  0  0  0  0  0  0  0  0  0  0
   20.1363   -7.2207   17.5386 C   0  0  2  0  0  0  0  0  0  0  0  0
   19.2853   -3.1860   15.3981 C   0  0  2  0  0  0  0  0  0  0  0  0
   19.5231   -4.4004   16.0921 O   0  0  0  0  0  0  0  0  0  0  0  0
   22.8742   -1.8524   11.5654 C   0  0  2  0  0  0  0  0  0  0  0  0
   23.7897   -2.8254   12.0708 O   0  0  0  0  0  0  0  0  0  0  0  0
   25.7539   -3.2682   15.4916 C   0  0  2  0  0  0  0  0  0  0  0  0
   25.0785   -3.6412   16.7038 O   0  0  0  0  0  0  0  0  0  0  0  0
   20.3247   -8.3898   14.0743 C   0  0  2  0  0  0  0  0  0  0  0  0
   19.1061   -8.0375   14.7897 O   0  0  0  0  0  0  0  0  0  0  0  0
   18.7836   -6.4985   17.8379 C   0  0  2  0  0  0  0  0  0  0  0  0
   18.0916   -6.2246   16.5879 O   0  0  0  0  0  0  0  0  0  0  0  0
   18.5607   -2.2085   16.3228 C   0  0  0  0  0  0  0  0  0  0  0  0
   19.4587   -1.8790   17.3927 O   0  0  0  0  0  0  0  0  0  0  0  0
   22.0412   -1.4191   12.7565 C   0  0  1  0  0  0  0  0  0  0  0  0
   20.9332   -2.0811   13.4035 O   0  0  0  0  0  0  0  0  0  0  0  0
   25.4999   -1.8317   15.0485 C   0  0  2  0  0  0  0  0  0  0  0  0
   25.5873   -1.4501   13.6671 O   0  0  0  0  0  0  0  0  0  0  0  0
   20.3999   -7.4595   12.9118 C   0  0  0  0  0  0  0  0  0  0  0  0
   19.1290   -7.4350   12.3082 O   0  0  0  0  0  0  0  0  0  0  0  0
   19.0180   -5.2085   18.6942 C   0  0  1  0  0  0  0  0  0  0  0  0
   17.7117   -4.7116   19.0890 O   0  0  0  0  0  0  0  0  0  0  0  0
   22.7429   -0.4862   13.7910 C   0  0  0  0  0  0  0  0  0  0  0  0
   23.0362    0.8619   13.2607 N   0  0  0  0  0  0  0  0  0  0  0  0
   25.8401   -0.6205   15.9140 C   0  0  0  0  0  0  0  0  0  0  0  0
   25.2776    0.5824   15.3263 O   0  0  0  0  0  0  0  0  0  0  0  0
  1  2  1  1  0  0  0
  1  8  1  0  0  0  0
  1 36  1  0  0  0  0
  3  4  1  6  0  0  0
  3 10  1  0  0  0  0
  3 47  1  0  0  0  0
  5 11  1  0  0  0  0
  5 30  1  0  0  0  0
  5 38  1  1  0  0  0
  6 21  1  1  0  0  0
  6 42  1  0  0  0  0
  7 15  1  0  0  0  0
  7 44  1  0  0  0  0
  7 32  1  1  0  0  0
  8  9  1  1  0  0  0
  8 17  1  0  0  0  0
 11 12  1  6  0  0  0
 11 20  1  0  0  0  0
 13  6  1  0  0  0  0
 13 14  1  1  0  0  0
 15 16  1  1  0  0  0
 15 24  1  0  0  0  0
 17 26  1  0  0  0  0
 18 10  1  0  0  0  0
 18 19  1  6  0  0  0
 20 21  1  6  0  0  0
 20 29  1  0  0  0  0
 22 13  1  0  0  0  0
 22 23  1  1  0  0  0
 24 25  1  1  0  0  0
 24 33  1  0  0  0  0
 26 27  1  1  0  0  0
 26 35  1  0  0  0  0
 28  2  1  1  0  0  0
 28 18  1  0  0  0  0
 29 30  1  0  0  0  0
 29 39  1  1  0  0  0
 31 22  1  0  0  0  0
 31 32  1  1  0  0  0
 31 41  1  0  0  0  0
 33 34  1  1  0  0  0
 33 43  1  0  0  0  0
 35 36  1  0  0  0  0
 35 45  1  6  0  0  0
 37 28  1  0  0  0  0
 37 38  1  6  0  0  0
 39 40  1  0  0  0  0
 41 42  1  0  0  0  0
 41 49  1  1  0  0  0
 43 44  1  0  0  0  0
 43 51  1  1  0  0  0
 45 46  1  0  0  0  0
 47 37  1  0  0  0  0
 47 48  1  1  0  0  0
 49 50  1  0  0  0  0
 51 52  1  0  0  0  0
M  END
>  <CHROM.1>
-171.29684168,-159.59175391,-174.40847858,179.32936022,167.09081015,158.78645468
-179.61243160,157.22738737,70.71674197,-54.84743281,68.10184283,-170.27211150
21.30806083,-4.82639098,14.95001479,3.05644352,0.93529837,1.20599093

>  <Name>
2esj_lig

>  <RI>
0

>  <Rbt.Current_Directory>
/home/itssahil/PROJECTS/Mol_Feturizer/New_Systems/rnas/2esj

>  <Rbt.Executable>
rbdock ($Id: //depot/dev/client3/rdock/2013.1/src/exe/rbdock.cxx#4 $)

>  <Rbt.Library>
libRbt.so (2013.1, Build901 2013/11/27)

>  <Rbt.Parameter_File>
/export/apps/rDock/src/rDock_2013.1_src/data/scripts/dock_solv.prm

>  <Rbt.Receptor>
prm/pocket_docking_4.prm

>  <SCORE>
-15.0809

>  <SCORE.INTER>
-8.67783

>  <SCORE.INTER.CONST>
1

>  <SCORE.INTER.POLAR>
-1.55452

>  <SCORE.INTER.ROT>
12

>  <SCORE.INTER.SOLV>
17.013

>  <SCORE.INTER.VDW>
-17.8745

>  <SCORE.INTER.norm>
-0.166881

>  <SCORE.INTRA>
-6.91777

>  <SCORE.INTRA.DIHEDRAL>
-20.027

>  <SCORE.INTRA.DIHEDRAL.0>
32.9766

>  <SCORE.INTRA.POLAR>
0

>  <SCORE.INTRA.POLAR.0>
0

>  <SCORE.INTRA.REPUL>
0.0348038

>  <SCORE.INTRA.REPUL.0>
0

>  <SCORE.INTRA.SOLV>
1.57646

>  <SCORE.INTRA.SOLV.lig_0>
-114.358

>  <SCORE.INTRA.VDW>
2.13348

>  <SCORE.INTRA.VDW.0>
-8.24257

>  <SCORE.INTRA.norm>
-0.133034

>  <SCORE.RESTR>
0.514687

>  <SCORE.RESTR.CAVITY>
0.514687

>  <SCORE.RESTR.norm>
0.00989783

>  <SCORE.SYSTEM>
0

>  <SCORE.SYSTEM.CONST>
0

>  <SCORE.SYSTEM.DIHEDRAL>
0

>  <SCORE.SYSTEM.SOLV>
0

>  <SCORE.SYSTEM.norm>
0

>  <SCORE.heavy>
52

>  <SCORE.norm>
-0.290017

>  <RMSD>
4.814

$$$$
2esj_lig
 OpenBabel11021811423D
libRbt.so/2013.1/901 2013/11/27
 52 56  0  0  0  0  0  0  0  0999 V2000
   20.3550   -9.4273   20.5121 C   0  0  2  0  0  0  0  0  0  0  0  0
   20.5996   -8.1808   19.8330 O   0  0  0  0  0  0  0  0  0  0  0  0
   17.0818   -6.0473   21.0000 C   0  0  2  0  0  0  0  0  0  0  0  0
   16.0549   -5.0188   21.2348 N   0  0  0  0  0  0  0  0  0  0  0  0
   19.4353   -6.8346   17.0813 C   0  0  1  0  0  0  0  0  0  0  0  0
   21.7465   -4.6084   14.3617 C   0  0  1  0  0  0  0  0  0  0  0  0
   24.1640   -0.6425   16.5765 C   0  0  1  0  0  0  0  0  0  0  0  0
   21.6469  -10.2884   20.3907 C   0  0  2  0  0  0  0  0  0  0  0  0
   22.8230   -9.5994   20.9211 N   0  0  0  0  0  0  0  0  0  0  0  0
   18.4674   -5.5881   21.6057 C   0  0  0  0  0  0  0  0  0  0  0  0
   19.5308   -7.2714   15.6189 C   0  0  2  0  0  0  0  0  0  0  0  0
   20.5375   -8.2859   15.4119 O   0  0  0  0  0  0  0  0  0  0  0  0
   23.3122   -4.6925   14.6492 C   0  0  2  0  0  0  0  0  0  0  0  0
   23.5870   -4.7124   16.1104 N   0  0  0  0  0  0  0  0  0  0  0  0
   25.5206   -0.2456   16.0059 C   0  0  1  0  0  0  0  0  0  0  0  0
   25.6080    1.1923   15.9490 O   0  0  0  0  0  0  0  0  0  0  0  0
   21.9010  -10.7058   18.9074 C   0  0  0  0  0  0  0  0  0  0  0  0
   19.5420   -6.7296   21.3963 C   0  0  2  0  0  0  0  0  0  0  0  0
   20.8424   -6.3225   21.9384 N   0  0  0  0  0  0  0  0  0  0  0  0
   19.8354   -5.9573   14.9598 C   0  0  2  0  0  0  0  0  0  0  0  0
   21.1813   -5.6067   15.1597 O   0  0  0  0  0  0  0  0  0  0  0  0
   24.0491   -3.5349   13.8417 C   0  0  1  0  0  0  0  0  0  0  0  0
   23.6442   -3.5976   12.4703 O   0  0  0  0  0  0  0  0  0  0  0  0
   26.7282   -0.7601   16.7799 C   0  0  1  0  0  0  0  0  0  0  0  0
   27.8836   -0.1028   16.2479 O   0  0  0  0  0  0  0  0  0  0  0  0
   20.6276  -11.4156   18.3593 C   0  0  2  0  0  0  0  0  0  0  0  0
   20.8169  -11.8907   17.0384 O   0  0  0  0  0  0  0  0  0  0  0  0
   19.6705   -7.0823   19.8916 C   0  0  2  0  0  0  0  0  0  0  0  0
   19.0504   -4.8937   15.7549 C   0  0  2  0  0  0  0  0  0  0  0  0
   19.0150   -5.4635   17.0538 O   0  0  0  0  0  0  0  0  0  0  0  0
   23.6114   -2.1020   14.3560 C   0  0  2  0  0  0  0  0  0  0  0  0
   24.0599   -2.0625   15.7116 O   0  0  0  0  0  0  0  0  0  0  0  0
   26.6490   -0.5059   18.2863 C   0  0  2  0  0  0  0  0  0  0  0  0
   27.6742   -1.3054   18.8984 O   0  0  0  0  0  0  0  0  0  0  0  0
   19.4415  -10.4231   18.4439 C   0  0  2  0  0  0  0  0  0  0  0  0
   19.2537  -10.0923   19.8497 O   0  0  0  0  0  0  0  0  0  0  0  0
   18.3144   -7.4310   19.1985 C   0  0  2  0  0  0  0  0  0  0  0  0
   18.5400   -7.6698   17.7812 O   0  0  0  0  0  0  0  0  0  0  0  0
   17.6232   -4.6101   15.2878 C   0  0  0  0  0  0  0  0  0  0  0  0
   17.6832   -4.2742   13.8938 O   0  0  0  0  0  0  0  0  0  0  0  0
   22.0969   -2.1374   14.4285 C   0  0  1  0  0  0  0  0  0  0  0  0
   21.2078   -3.2363   14.7227 O   0  0  0  0  0  0  0  0  0  0  0  0
   25.2463   -0.7653   18.8243 C   0  0  2  0  0  0  0  0  0  0  0  0
   24.0820   -0.5290   18.0179 O   0  0  0  0  0  0  0  0  0  0  0  0
   18.1513  -11.0140   17.9870 C   0  0  0  0  0  0  0  0  0  0  0  0
   18.2369  -11.1875   16.5932 O   0  0  0  0  0  0  0  0  0  0  0  0
   17.2505   -6.3123   19.4610 C   0  0  1  0  0  0  0  0  0  0  0  0
   15.9796   -6.8009   18.9554 O   0  0  0  0  0  0  0  0  0  0  0  0
   21.3895   -0.8016   14.8135 C   0  0  0  0  0  0  0  0  0  0  0  0
   20.4647   -0.3064   13.7723 N   0  0  0  0  0  0  0  0  0  0  0  0
   24.8704   -0.5827   20.2930 C   0  0  0  0  0  0  0  0  0  0  0  0
   24.2528    0.7169   20.4888 O   0  0  0  0  0  0  0  0  0  0  0  0
  1  2  1  6  0  0  0
  1  8  1  0  0  0  0
  1 36  1  0  0  0  0
  3  4  1  6  0  0  0
  3 10  1  0  0  0  0
  3 47  1  0  0  0  0
  5 11  1  0  0  0  0
  5 30  1  0  0  0  0
  5 38  1  1  0  0  0
  6 21  1  1  0  0  0
  6 42  1  0  0  0  0
  7 15  1  0  0  0  0
  7 44  1  0  0  0  0
  7 32  1  1  0  0  0
  8  9  1  6  0  0  0
  8 17  1  0  0  0  0
 11 12  1  1  0  0  0
 11 20  1  0  0  0  0
 13  6  1  0  0  0  0
 13 14  1  1  0  0  0
 15 16  1  1  0  0  0
 15 24  1  0  0  0  0
 17 26  1  0  0  0  0
 18 10  1  0  0  0  0
 18 19  1  6  0  0  0
 20 21  1  1  0  0  0
 20 29  1  0  0  0  0
 22 13  1  0  0  0  0
 22 23  1  6  0  0  0
 24 25  1  6  0  0  0
 24 33  1  0  0  0  0
 26 27  1  6  0  0  0
 26 35  1  0  0  0  0
 28  2  1  1  0  0  0
 28 18  1  0  0  0  0
 29 30  1  0  0  0  0
 29 39  1  6  0  0  0
 31 22  1  0  0  0  0
 31 32  1  1  0  0  0
 31 41  1  0  0  0  0
 33 34  1  1  0  0  0
 33 43  1  0  0  0  0
 35 36  1  0  0  0  0
 35 45  1  1  0  0  0
 37 28  1  0  0  0  0
 37 38  1  6  0  0  0
 39 40  1  0  0  0  0
 41 42  1  0  0  0  0
 41 49  1  1  0  0  0
 43 44  1  0  0  0  0
 43 51  1  1  0  0  0
 45 46  1  0  0  0  0
 47 37  1  0  0  0  0
 47 48  1  1  0  0  0
 49 50  1  0  0  0  0
 51 52  1  0  0  0  0
M  END
>  <CHROM.1>
-172.20431244,179.42032265,-168.64671627,-82.26798032,164.17247282,59.34728623
-54.57604279,164.98056453,-70.19822513,-40.69984714,119.66122438,97.31935244
21.38219257,-5.13523631,17.41956628,-2.54993476,-0.81730986,-1.10875124

>  <Name>
2esj_lig

>  <RI>
0

>  <Rbt.Current_Directory>
/home/itssahil/PROJECTS/Mol_Feturizer/New_Systems/rnas/2esj

>  <Rbt.Executable>
rbdock ($Id: //depot/dev/client3/rdock/2013.1/src/exe/rbdock.cxx#4 $)

>  <Rbt.Library>
libRbt.so (2013.1, Build901 2013/11/27)

>  <Rbt.Parameter_File>
/export/apps/rDock/src/rDock_2013.1_src/data/scripts/dock_solv.prm

>  <Rbt.Receptor>
prm/pocket_docking_6.prm

>  <SCORE>
-16.6031

>  <SCORE.INTER>
-7.67777

>  <SCORE.INTER.CONST>
1

>  <SCORE.INTER.POLAR>
-0.947464

>  <SCORE.INTER.ROT>
12

>  <SCORE.INTER.SOLV>
17.098

>  <SCORE.INTER.VDW>
-19.2596

>  <SCORE.INTER.norm>
-0.147649

>  <SCORE.INTRA>
-8.9304

>  <SCORE.INTRA.DIHEDRAL>
-19.2243

>  <SCORE.INTRA.DIHEDRAL.0>
32.9766

>  <SCORE.INTRA.POLAR>
0

>  <SCORE.INTRA.POLAR.0>
0

>  <SCORE.INTRA.REPUL>
0

>  <SCORE.INTRA.REPUL.0>
0

>  <SCORE.INTRA.SOLV>
-3.70227

>  <SCORE.INTRA.SOLV.lig_0>
-114.358

>  <SCORE.INTRA.VDW>
2.5329

>  <SCORE.INTRA.VDW.0>
-8.24257

>  <SCORE.INTRA.norm>
-0.171738

>  <SCORE.RESTR>
0.00503766

>  <SCORE.RESTR.CAVITY>
0.00503766

>  <SCORE.RESTR.norm>
9.68782e-05

>  <SCORE.SYSTEM>
0

>  <SCORE.SYSTEM.CONST>
0

>  <SCORE.SYSTEM.DIHEDRAL>
0

>  <SCORE.SYSTEM.SOLV>
0

>  <SCORE.SYSTEM.norm>
0

>  <SCORE.heavy>
52

>  <SCORE.norm>
-0.319291

>  <RMSD>
4.820

$$$$
2esj_lig
 OpenBabel11021811423D
libRbt.so/2013.1/901 2013/11/27
 52 56  0  0  0  0  0  0  0  0999 V2000
   17.3928   -8.6649   17.3639 C   0  0  2  0  0  0  0  0  0  0  0  0
   17.8105   -7.4911   18.0868 O   0  0  0  0  0  0  0  0  0  0  0  0
   15.7513   -5.5413   21.2878 C   0  0  2  0  0  0  0  0  0  0  0  0
   15.1690   -5.1742   22.5891 N   0  0  0  0  0  0  0  0  0  0  0  0
   20.1444   -5.1973   19.0697 C   0  0  1  0  0  0  0  0  0  0  0  0
   22.3261   -4.3524   15.5794 C   0  0  1  0  0  0  0  0  0  0  0  0
   26.3899   -1.8755   15.5326 C   0  0  1  0  0  0  0  0  0  0  0  0
   17.9569   -9.9051   18.1180 C   0  0  2  0  0  0  0  0  0  0  0  0
   17.5295   -9.9442   19.5162 N   0  0  0  0  0  0  0  0  0  0  0  0
   15.2622   -6.9800   20.8537 C   0  0  0  0  0  0  0  0  0  0  0  0
   20.1749   -5.9417   17.7342 C   0  0  2  0  0  0  0  0  0  0  0  0
   21.2707   -6.8785   17.6510 O   0  0  0  0  0  0  0  0  0  0  0  0
   23.8485   -4.2633   16.0436 C   0  0  2  0  0  0  0  0  0  0  0  0
   24.0579   -3.1219   16.9731 N   0  0  0  0  0  0  0  0  0  0  0  0
   27.2464   -1.8554   14.2718 C   0  0  1  0  0  0  0  0  0  0  0  0
   28.4686   -1.1397   14.5411 O   0  0  0  0  0  0  0  0  0  0  0  0
   19.5162   -9.9436   18.0390 C   0  0  0  0  0  0  0  0  0  0  0  0
   15.8499   -7.3320   19.4281 C   0  0  2  0  0  0  0  0  0  0  0  0
   15.4213   -8.6699   19.0071 N   0  0  0  0  0  0  0  0  0  0  0  0
   20.2767   -4.7875   16.7795 C   0  0  2  0  0  0  0  0  0  0  0  0
   21.5857   -4.2771   16.7621 O   0  0  0  0  0  0  0  0  0  0  0  0
   24.7828   -4.2612   14.7543 C   0  0  1  0  0  0  0  0  0  0  0  0
   24.4289   -5.3726   13.9247 O   0  0  0  0  0  0  0  0  0  0  0  0
   27.6160   -3.2245   13.7138 C   0  0  1  0  0  0  0  0  0  0  0  0
   28.5987   -3.0148   12.6938 O   0  0  0  0  0  0  0  0  0  0  0  0
   19.9459   -9.8774   16.5434 C   0  0  2  0  0  0  0  0  0  0  0  0
   21.3501   -9.9860   16.3937 O   0  0  0  0  0  0  0  0  0  0  0  0
   17.3979   -7.2407   19.4434 C   0  0  2  0  0  0  0  0  0  0  0  0
   19.4405   -3.6499   17.4010 C   0  0  2  0  0  0  0  0  0  0  0  0
   19.5707   -3.9130   18.7891 O   0  0  0  0  0  0  0  0  0  0  0  0
   24.5447   -2.9690   13.8696 C   0  0  2  0  0  0  0  0  0  0  0  0
   24.9388   -1.8866   14.7143 O   0  0  0  0  0  0  0  0  0  0  0  0
   28.1724   -4.1883   14.7633 C   0  0  2  0  0  0  0  0  0  0  0  0
   28.1736   -5.4964   14.1689 O   0  0  0  0  0  0  0  0  0  0  0  0
   19.4083   -8.5563   15.9395 C   0  0  2  0  0  0  0  0  0  0  0  0
   17.9556   -8.5977   16.0325 O   0  0  0  0  0  0  0  0  0  0  0  0
   17.9531   -5.8815   19.9778 C   0  0  2  0  0  0  0  0  0  0  0  0
   19.4063   -5.9328   20.0202 O   0  0  0  0  0  0  0  0  0  0  0  0
   17.9584   -3.6131   17.0299 C   0  0  0  0  0  0  0  0  0  0  0  0
   17.8694   -3.6728   15.5988 O   0  0  0  0  0  0  0  0  0  0  0  0
   23.0404   -2.8443   13.7223 C   0  0  1  0  0  0  0  0  0  0  0  0
   21.9853   -3.2134   14.6363 O   0  0  0  0  0  0  0  0  0  0  0  0
   27.3988   -4.0955   16.0738 C   0  0  2  0  0  0  0  0  0  0  0  0
   26.8116   -2.8593   16.5081 O   0  0  0  0  0  0  0  0  0  0  0  0
   19.7211   -8.4066   14.4896 C   0  0  0  0  0  0  0  0  0  0  0  0
   21.1097   -8.5766   14.3378 O   0  0  0  0  0  0  0  0  0  0  0  0
   17.3201   -5.5282   21.3659 C   0  0  1  0  0  0  0  0  0  0  0  0
   17.7343   -4.1756   21.6951 O   0  0  0  0  0  0  0  0  0  0  0  0
   22.5264   -1.6979   12.7980 C   0  0  0  0  0  0  0  0  0  0  0  0
   22.1800   -2.1539   11.4354 N   0  0  0  0  0  0  0  0  0  0  0  0
   27.7390   -4.9350   17.3032 C   0  0  0  0  0  0  0  0  0  0  0  0
   26.5307   -5.2271   18.0538 O   0  0  0  0  0  0  0  0  0  0  0  0
  1  2  1  1  0  0  0
  1  8  1  0  0  0  0
  1 36  1  0  0  0  0
  3  4  1  1  0  0  0
  3 10  1  0  0  0  0
  3 47  1  0  0  0  0
  5 11  1  0  0  0  0
  5 30  1  0  0  0  0
  5 38  1  1  0  0  0
  6 21  1  1  0  0  0
  6 42  1  0  0  0  0
  7 15  1  0  0  0  0
  7 44  1  0  0  0  0
  7 32  1  6  0  0  0
  8  9  1  1  0  0  0
  8 17  1  0  0  0  0
 11 12  1  1  0  0  0
 11 20  1  0  0  0  0
 13  6  1  0  0  0  0
 13 14  1  6  0  0  0
 15 16  1  1  0  0  0
 15 24  1  0  0  0  0
 17 26  1  0  0  0  0
 18 10  1  0  0  0  0
 18 19  1  1  0  0  0
 20 21  1  1  0  0  0
 20 29  1  0  0  0  0
 22 13  1  0  0  0  0
 22 23  1  6  0  0  0
 24 25  1  6  0  0  0
 24 33  1  0  0  0  0
 26 27  1  1  0  0  0
 26 35  1  0  0  0  0
 28  2  1  6  0  0  0
 28 18  1  0  0  0  0
 29 30  1  0  0  0  0
 29 39  1  6  0  0  0
 31 22  1  0  0  0  0
 31 32  1  1  0  0  0
 31 41  1  0  0  0  0
 33 34  1  6  0  0  0
 33 43  1  0  0  0  0
 35 36  1  0  0  0  0
 35 45  1  6  0  0  0
 37 28  1  0  0  0  0
 37 38  1  1  0  0  0
 39 40  1  0  0  0  0
 41 42  1  0  0  0  0
 41 49  1  1  0  0  0
 43 44  1  0  0  0  0
 43 51  1  1  0  0  0
 45 46  1  0  0  0  0
 47 37  1  0  0  0  0
 47 48  1  6  0  0  0
 49 50  1  0  0  0  0
 51 52  1  0  0  0  0
M  END
>  <CHROM.1>
-62.43510831,-79.07248708,-157.67290040,64.01670309,116.29708421,-53.63803746
-51.35677093,49.45810665,-53.58666636,107.43922546,98.40235825,-148.00040514
21.53219967,-5.34259838,16.77246549,-2.95311262,0.56135853,0.36397932

>  <Name>
2esj_lig

>  <RI>
0

>  <Rbt.Current_Directory>
/home/itssahil/PROJECTS/Mol_Feturizer/New_Systems/rnas/2esj

>  <Rbt.Executable>
rbdock ($Id: //depot/dev/client3/rdock/2013.1/src/exe/rbdock.cxx#4 $)

>  <Rbt.Library>
libRbt.so (2013.1, Build901 2013/11/27)

>  <Rbt.Parameter_File>
/export/apps/rDock/src/rDock_2013.1_src/data/scripts/dock_solv.prm

>  <Rbt.Receptor>
prm/pocket_docking_2.prm

>  <SCORE>
10.0264

>  <SCORE.INTER>
3.45248

>  <SCORE.INTER.CONST>
1

>  <SCORE.INTER.POLAR>
-0.0498355

>  <SCORE.INTER.ROT>
12

>  <SCORE.INTER.SOLV>
18.4693

>  <SCORE.INTER.VDW>
-15.2887

>  <SCORE.INTER.norm>
0.0663939

>  <SCORE.INTRA>
2.93268

>  <SCORE.INTRA.DIHEDRAL>
-8.66135

>  <SCORE.INTRA.DIHEDRAL.0>
32.9766

>  <SCORE.INTRA.POLAR>
0

>  <SCORE.INTRA.POLAR.0>
0

>  <SCORE.INTRA.REPUL>
0

>  <SCORE.INTRA.REPUL.0>
0

>  <SCORE.INTRA.SOLV>
6.40157

>  <SCORE.INTRA.SOLV.lig_0>
-114.358

>  <SCORE.INTRA.VDW>
4.06257

>  <SCORE.INTRA.VDW.0>
-8.24257

>  <SCORE.INTRA.norm>
0.0563977

>  <SCORE.RESTR>
3.64129

>  <SCORE.RESTR.CAVITY>
3.64129

>  <SCORE.RESTR.norm>
0.0700248

>  <SCORE.SYSTEM>
0

>  <SCORE.SYSTEM.CONST>
0

>  <SCORE.SYSTEM.DIHEDRAL>
0

>  <SCORE.SYSTEM.SOLV>
0

>  <SCORE.SYSTEM.norm>
0

>  <SCORE.heavy>
52

>  <SCORE.norm>
0.192816

>  <RMSD>
4.833

$$$$
2esj_lig
 OpenBabel11021811423D
libRbt.so/2013.1/901 2013/11/27
 52 56  0  0  0  0  0  0  0  0999 V2000
   20.9252  -10.0169   19.6881 C   0  0  2  0  0  0  0  0  0  0  0  0
   20.8826   -8.9000   18.7796 O   0  0  0  0  0  0  0  0  0  0  0  0
   17.7934   -6.5421   20.5642 C   0  0  2  0  0  0  0  0  0  0  0  0
   16.9255   -5.4418   21.0152 N   0  0  0  0  0  0  0  0  0  0  0  0
   19.0393   -6.8589   16.2877 C   0  0  1  0  0  0  0  0  0  0  0  0
   21.1778   -3.7438   14.3173 C   0  0  1  0  0  0  0  0  0  0  0  0
   24.4965   -0.6224   16.7879 C   0  0  1  0  0  0  0  0  0  0  0  0
   21.7192  -11.1597   18.9891 C   0  0  2  0  0  0  0  0  0  0  0  0
   23.0586  -10.7348   18.5832 N   0  0  0  0  0  0  0  0  0  0  0  0
   19.2838   -6.2899   21.0249 C   0  0  0  0  0  0  0  0  0  0  0  0
   20.5545   -6.6592   16.3425 C   0  0  2  0  0  0  0  0  0  0  0  0
   20.9623   -5.8456   17.4637 O   0  0  0  0  0  0  0  0  0  0  0  0
   22.6118   -3.7924   15.0119 C   0  0  2  0  0  0  0  0  0  0  0  0
   22.4932   -3.6894   16.4906 N   0  0  0  0  0  0  0  0  0  0  0  0
   25.0023   -2.0470   16.9829 C   0  0  1  0  0  0  0  0  0  0  0  0
   26.4437   -2.0458   16.9544 O   0  0  0  0  0  0  0  0  0  0  0  0
   20.9381  -11.7047   17.7514 C   0  0  0  0  0  0  0  0  0  0  0  0
   20.1889   -7.5095   20.5833 C   0  0  2  0  0  0  0  0  0  0  0  0
   21.5821   -7.2938   20.9876 N   0  0  0  0  0  0  0  0  0  0  0  0
   20.7962   -6.0274   15.0021 C   0  0  2  0  0  0  0  0  0  0  0  0
   20.4085   -4.6769   15.0175 O   0  0  0  0  0  0  0  0  0  0  0  0
   23.5516   -2.7001   14.3347 C   0  0  1  0  0  0  0  0  0  0  0  0
   23.5200   -2.8788   12.9149 O   0  0  0  0  0  0  0  0  0  0  0  0
   24.5578   -2.7249   18.2733 C   0  0  1  0  0  0  0  0  0  0  0  0
   25.3081   -3.9384   18.3943 O   0  0  0  0  0  0  0  0  0  0  0  0
   19.5095  -12.1281   18.2047 C   0  0  2  0  0  0  0  0  0  0  0  0
   18.7698  -12.7053   17.1436 O   0  0  0  0  0  0  0  0  0  0  0  0
   20.0984   -7.7231   19.0499 C   0  0  2  0  0  0  0  0  0  0  0  0
   19.7953   -6.6923   14.0348 C   0  0  2  0  0  0  0  0  0  0  0  0
   18.7135   -7.0037   14.8983 O   0  0  0  0  0  0  0  0  0  0  0  0
   23.0153   -1.2328   14.5972 C   0  0  2  0  0  0  0  0  0  0  0  0
   23.0928   -1.0782   16.0151 O   0  0  0  0  0  0  0  0  0  0  0  0
   24.7712   -1.8701   19.5239 C   0  0  2  0  0  0  0  0  0  0  0  0
   24.0332   -2.4950   20.5867 O   0  0  0  0  0  0  0  0  0  0  0  0
   18.7942  -10.8844   18.7881 C   0  0  2  0  0  0  0  0  0  0  0  0
   19.5658  -10.4430   19.9418 O   0  0  0  0  0  0  0  0  0  0  0  0
   18.6393   -7.8603   18.5084 C   0  0  2  0  0  0  0  0  0  0  0  0
   18.6679   -7.9798   17.0588 O   0  0  0  0  0  0  0  0  0  0  0  0
   20.2677   -7.9666   13.3359 C   0  0  0  0  0  0  0  0  0  0  0  0
   20.5166   -8.9497   14.3514 O   0  0  0  0  0  0  0  0  0  0  0  0
   21.5345   -1.2732   14.2718 C   0  0  1  0  0  0  0  0  0  0  0  0
   20.5834   -2.3506   14.4108 O   0  0  0  0  0  0  0  0  0  0  0  0
   24.3999   -0.4125   19.2751 C   0  0  2  0  0  0  0  0  0  0  0  0
   24.5708    0.1914   17.9836 O   0  0  0  0  0  0  0  0  0  0  0  0
   17.4267  -11.1835   19.3009 C   0  0  0  0  0  0  0  0  0  0  0  0
   16.8478   -9.9630   19.6954 O   0  0  0  0  0  0  0  0  0  0  0  0
   17.7484   -6.6697   18.9992 C   0  0  1  0  0  0  0  0  0  0  0  0
   16.3795   -6.9726   18.6202 O   0  0  0  0  0  0  0  0  0  0  0  0
   20.7705    0.0845   14.3471 C   0  0  0  0  0  0  0  0  0  0  0  0
   21.4941    1.2012   13.7036 N   0  0  0  0  0  0  0  0  0  0  0  0
   24.5215    0.6721   20.3431 C   0  0  0  0  0  0  0  0  0  0  0  0
   25.8786    0.7105   20.8584 O   0  0  0  0  0  0  0  0  0  0  0  0
  1  2  1  6  0  0  0
  1  8  1  0  0  0  0
  1 36  1  0  0  0  0
  3  4  1  6  0  0  0
  3 10  1  0  0  0  0
  3 47  1  0  0  0  0
  5 11  1  0  0  0  0
  5 30  1  0  0  0  0
  5 38  1  1  0  0  0
  6 21  1  1  0  0  0
  6 42  1  0  0  0  0
  7 15  1  0  0  0  0
  7 44  1  0  0  0  0
  7 32  1  1  0  0  0
  8  9  1  6  0  0  0
  8 17  1  0  0  0  0
 11 12  1  1  0  0  0
 11 20  1  0  0  0  0
 13  6  1  0  0  0  0
 13 14  1  1  0  0  0
 15 16  1  1  0  0  0
 15 24  1  0  0  0  0
 17 26  1  0  0  0  0
 18 10  1  0  0  0  0
 18 19  1  6  0  0  0
 20 21  1  1  0  0  0
 20 29  1  0  0  0  0
 22 13  1  0  0  0  0
 22 23  1  6  0  0  0
 24 25  1  1  0  0  0
 24 33  1  0  0  0  0
 26 27  1  6  0  0  0
 26 35  1  0  0  0  0
 28  2  1  1  0  0  0
 28 18  1  0  0  0  0
 29 30  1  0  0  0  0
 29 39  1  1  0  0  0
 31 22  1  0  0  0  0
 31 32  1  1  0  0  0
 31 41  1  0  0  0  0
 33 34  1  1  0  0  0
 33 43  1  0  0  0  0
 35 36  1  0  0  0  0
 35 45  1  1  0  0  0
 37 28  1  0  0  0  0
 37 38  1  6  0  0  0
 39 40  1  0  0  0  0
 41 42  1  0  0  0  0
 41 49  1  1  0  0  0
 43 44  1  0  0  0  0
 43 51  1  1  0  0  0
 45 46  1  0  0  0  0
 47 37  1  0  0  0  0
 47 48  1  1  0  0  0
 49 50  1  0  0  0  0
 51 52  1  0  0  0  0
M  END
>  <CHROM.1>
173.04929183,76.31020144,-61.99788947,-89.94324159,142.17823360,36.03832753
62.42008189,83.89664434,-175.14996285,-69.53377027,45.01623097,55.47607300
21.24732348,-5.51024244,17.42677873,-2.57551685,-0.98295993,-1.10449865

>  <Name>
2esj_lig

>  <RI>
1.62275e+07

>  <Rbt.Current_Directory>
/home/itssahil/PROJECTS/Mol_Feturizer/New_Systems/rnas/2esj

>  <Rbt.Executable>
rbdock ($Id: //depot/dev/client3/rdock/2013.1/src/exe/rbdock.cxx#4 $)

>  <Rbt.Library>
libRbt.so (2013.1, Build901 2013/11/27)

>  <Rbt.Parameter_File>
/export/apps/rDock/src/rDock_2013.1_src/data/scripts/dock_solv.prm

>  <Rbt.Receptor>
prm/pocket_docking_5.prm

>  <SCORE>
-10.1389

>  <SCORE.INTER>
-9.24377

>  <SCORE.INTER.CONST>
1

>  <SCORE.INTER.POLAR>
-1.62572

>  <SCORE.INTER.ROT>
12

>  <SCORE.INTER.SOLV>
18.1538

>  <SCORE.INTER.VDW>
-18.3947

>  <SCORE.INTER.norm>
-0.177765

>  <SCORE.INTRA>
-0.895142

>  <SCORE.INTRA.DIHEDRAL>
-12.6629

>  <SCORE.INTRA.DIHEDRAL.0>
32.9766

>  <SCORE.INTRA.POLAR>
0

>  <SCORE.INTRA.POLAR.0>
0

>  <SCORE.INTRA.REPUL>
0

>  <SCORE.INTRA.REPUL.0>
0

>  <SCORE.INTRA.SOLV>
2.5893

>  <SCORE.INTRA.SOLV.lig_0>
-114.358

>  <SCORE.INTRA.VDW>
4.14165

>  <SCORE.INTRA.VDW.0>
-8.24257

>  <SCORE.INTRA.norm>
-0.0172143

>  <SCORE.RESTR>
0

>  <SCORE.RESTR.CAVITY>
0

>  <SCORE.RESTR.norm>
0

>  <SCORE.SYSTEM>
0

>  <SCORE.SYSTEM.CONST>
0

>  <SCORE.SYSTEM.DIHEDRAL>
0

>  <SCORE.SYSTEM.SOLV>
0

>  <SCORE.SYSTEM.norm>
0

>  <SCORE.heavy>
52

>  <SCORE.norm>
-0.194979

>  <RMSD>
4.886

$$$$
2esj_lig
 OpenBabel11021811423D
libRbt.so/2013.1/901 2013/11/27
 52 56  0  0  0  0  0  0  0  0999 V2000
   20.9344   -9.5304   19.4165 C   0  0  2  0  0  0  0  0  0  0  0  0
   20.9908   -8.4043   18.5201 O   0  0  0  0  0  0  0  0  0  0  0  0
   17.8003   -6.0430   20.1117 C   0  0  2  0  0  0  0  0  0  0  0  0
   16.8865   -4.9473   20.4746 N   0  0  0  0  0  0  0  0  0  0  0  0
   19.5986   -6.9163   15.9334 C   0  0  1  0  0  0  0  0  0  0  0  0
   21.9804   -5.2655   12.8126 C   0  0  1  0  0  0  0  0  0  0  0  0
   25.0117   -1.4751   13.7164 C   0  0  1  0  0  0  0  0  0  0  0  0
   21.9616  -10.5852   18.9092 C   0  0  2  0  0  0  0  0  0  0  0  0
   23.3134  -10.0363   18.8065 N   0  0  0  0  0  0  0  0  0  0  0  0
   19.2772   -5.6953   20.5536 C   0  0  0  0  0  0  0  0  0  0  0  0
   19.8054   -7.5703   14.5667 C   0  0  2  0  0  0  0  0  0  0  0  0
   20.9083   -8.5025   14.5635 O   0  0  0  0  0  0  0  0  0  0  0  0
   23.4079   -4.8426   13.3824 C   0  0  2  0  0  0  0  0  0  0  0  0
   23.2727   -4.0874   14.6561 N   0  0  0  0  0  0  0  0  0  0  0  0
   24.5255   -0.0819   14.0986 C   0  0  1  0  0  0  0  0  0  0  0  0
   25.1945    0.3389   15.3044 O   0  0  0  0  0  0  0  0  0  0  0  0
   21.5220  -11.1729   17.5306 C   0  0  0  0  0  0  0  0  0  0  0  0
   20.2330   -6.9075   20.2093 C   0  0  2  0  0  0  0  0  0  0  0  0
   21.6144   -6.6044   20.5977 N   0  0  0  0  0  0  0  0  0  0  0  0
   20.0226   -6.3554   13.7117 C   0  0  2  0  0  0  0  0  0  0  0  0
   21.3199   -5.8485   13.8973 O   0  0  0  0  0  0  0  0  0  0  0  0
   24.2196   -4.0909   12.2374 C   0  0  1  0  0  0  0  0  0  0  0  0
   24.2140   -4.9016   11.0578 O   0  0  0  0  0  0  0  0  0  0  0  0
   24.7391    0.9949   13.0417 C   0  0  1  0  0  0  0  0  0  0  0  0
   24.4481    2.2551   13.6563 O   0  0  0  0  0  0  0  0  0  0  0  0
   20.0730  -11.7291   17.6599 C   0  0  2  0  0  0  0  0  0  0  0  0
   19.6380  -12.3487   16.4628 O   0  0  0  0  0  0  0  0  0  0  0  0
   20.1583   -7.2430   18.6971 C   0  0  2  0  0  0  0  0  0  0  0  0
   19.1066   -5.2594   14.2942 C   0  0  2  0  0  0  0  0  0  0  0  0
   19.0583   -5.6146   15.6670 O   0  0  0  0  0  0  0  0  0  0  0  0
   23.5184   -2.7303   11.8294 C   0  0  2  0  0  0  0  0  0  0  0  0
   23.5724   -1.9369   13.0160 O   0  0  0  0  0  0  0  0  0  0  0  0
   26.1578    1.0252   12.4704 C   0  0  2  0  0  0  0  0  0  0  0  0
   26.1167    1.8527   11.2964 O   0  0  0  0  0  0  0  0  0  0  0  0
   19.1385  -10.5646   18.0717 C   0  0  2  0  0  0  0  0  0  0  0  0
   19.5965  -10.0794   19.3662 O   0  0  0  0  0  0  0  0  0  0  0  0
   18.7085   -7.4811   18.1658 C   0  0  2  0  0  0  0  0  0  0  0  0
   18.7486   -7.7115   16.7299 O   0  0  0  0  0  0  0  0  0  0  0  0
   17.6845   -5.1940   13.7383 C   0  0  0  0  0  0  0  0  0  0  0  0
   16.7847   -5.4896   14.8166 O   0  0  0  0  0  0  0  0  0  0  0  0
   22.0532   -3.0675   11.6307 C   0  0  1  0  0  0  0  0  0  0  0  0
   21.2307   -4.0536   12.2908 O   0  0  0  0  0  0  0  0  0  0  0  0
   26.6932   -0.3816   12.2277 C   0  0  2  0  0  0  0  0  0  0  0  0
   26.3042   -1.4827   13.0632 O   0  0  0  0  0  0  0  0  0  0  0  0
   17.7247  -10.9928   18.2724 C   0  0  0  0  0  0  0  0  0  0  0  0
   16.9913   -9.8570   18.6627 O   0  0  0  0  0  0  0  0  0  0  0  0
   17.7678   -6.2933   18.5613 C   0  0  1  0  0  0  0  0  0  0  0  0
   16.4141   -6.6803   18.2050 O   0  0  0  0  0  0  0  0  0  0  0  0
   21.1390   -1.9128   11.1172 C   0  0  0  0  0  0  0  0  0  0  0  0
   21.7426   -1.1321   10.0168 N   0  0  0  0  0  0  0  0  0  0  0  0
   28.0881   -0.6576   11.6712 C   0  0  0  0  0  0  0  0  0  0  0  0
   28.5285    0.4629   10.8593 O   0  0  0  0  0  0  0  0  0  0  0  0
  1  2  1  6  0  0  0
  1  8  1  0  0  0  0
  1 36  1  0  0  0  0
  3  4  1  6  0  0  0
  3 10  1  0  0  0  0
  3 47  1  0  0  0  0
  5 11  1  0  0  0  0
  5 30  1  0  0  0  0
  5 38  1  1  0  0  0
  6 21  1  1  0  0  0
  6 42  1  0  0  0  0
  7 15  1  0  0  0  0
  7 44  1  0  0  0  0
  7 32  1  6  0  0  0
  8  9  1  6  0  0  0
  8 17  1  0  0  0  0
 11 12  1  1  0  0  0
 11 20  1  0  0  0  0
 13  6  1  0  0  0  0
 13 14  1  1  0  0  0
 15 16  1  1  0  0  0
 15 24  1  0  0  0  0
 17 26  1  0  0  0  0
 18 10  1  0  0  0  0
 18 19  1  6  0  0  0
 20 21  1  1  0  0  0
 20 29  1  0  0  0  0
 22 13  1  0  0  0  0
 22 23  1  6  0  0  0
 24 25  1  1  0  0  0
 24 33  1  0  0  0  0
 26 27  1  6  0  0  0
 26 35  1  0  0  0  0
 28  2  1  1  0  0  0
 28 18  1  0  0  0  0
 29 30  1  0  0  0  0
 29 39  1  6  0  0  0
 31 22  1  0  0  0  0
 31 32  1  1  0  0  0
 31 41  1  0  0  0  0
 33 34  1  6  0  0  0
 33 43  1  0  0  0  0
 35 36  1  0  0  0  0
 35 45  1  1  0  0  0
 37 28  1  0  0  0  0
 37 38  1  6  0  0  0
 39 40  1  0  0  0  0
 41 42  1  0  0  0  0
 41 49  1  1  0  0  0
 43 44  1  0  0  0  0
 43 51  1  1  0  0  0
 45 46  1  0  0  0  0
 47 37  1  0  0  0  0
 47 48  1  1  0  0  0
 49 50  1  0  0  0  0
 51 52  1  0  0  0  0
M  END
>  <CHROM.1>
179.75152683,163.29806776,-178.86951924,141.59403149,145.87784162,44.98475936
116.09119616,61.96198368,178.99890573,-41.73235424,44.04520691,-26.86331503
21.54062141,-5.22721431,15.36840885,-2.13713775,0.35028304,-0.41341159

>  <Name>
2esj_lig

>  <RI>
0

>  <Rbt.Current_Directory>
/home/itssahil/PROJECTS/Mol_Feturizer/New_Systems/rnas/2esj

>  <Rbt.Executable>
rbdock ($Id: //depot/dev/client3/rdock/2013.1/src/exe/rbdock.cxx#4 $)

>  <Rbt.Library>
libRbt.so (2013.1, Build901 2013/11/27)

>  <Rbt.Parameter_File>
/export/apps/rDock/src/rDock_2013.1_src/data/scripts/dock_solv.prm

>  <Rbt.Receptor>
prm/pocket_docking_6.prm

>  <SCORE>
-9.5656

>  <SCORE.INTER>
-7.0857

>  <SCORE.INTER.CONST>
1

>  <SCORE.INTER.POLAR>
-1.80937

>  <SCORE.INTER.ROT>
12

>  <SCORE.INTER.SOLV>
14.2362

>  <SCORE.INTER.VDW>
-15.038

>  <SCORE.INTER.norm>
-0.136264

>  <SCORE.INTRA>
-2.4799

>  <SCORE.INTRA.DIHEDRAL>
-8.57999

>  <SCORE.INTRA.DIHEDRAL.0>
32.9766

>  <SCORE.INTRA.POLAR>
0

>  <SCORE.INTRA.POLAR.0>
0

>  <SCORE.INTRA.REPUL>
0

>  <SCORE.INTRA.REPUL.0>
0

>  <SCORE.INTRA.SOLV>
-1.57137

>  <SCORE.INTRA.SOLV.lig_0>
-114.358

>  <SCORE.INTRA.VDW>
2.59578

>  <SCORE.INTRA.VDW.0>
-8.24257

>  <SCORE.INTRA.norm>
-0.0476904

>  <SCORE.RESTR>
0

>  <SCORE.RESTR.CAVITY>
0

>  <SCORE.RESTR.norm>
0

>  <SCORE.SYSTEM>
0

>  <SCORE.SYSTEM.CONST>
0

>  <SCORE.SYSTEM.DIHEDRAL>
0

>  <SCORE.SYSTEM.SOLV>
0

>  <SCORE.SYSTEM.norm>
0

>  <SCORE.heavy>
52

>  <SCORE.norm>
-0.183954

>  <RMSD>
4.900

$$$$
2esj_lig
 OpenBabel11021811423D
libRbt.so/2013.1/901 2013/11/27
 52 56  0  0  0  0  0  0  0  0999 V2000
   18.8935   -8.5056   15.6623 C   0  0  2  0  0  0  0  0  0  0  0  0
   20.0000   -8.0953   16.4882 O   0  0  0  0  0  0  0  0  0  0  0  0
   18.1492   -6.7547   20.1028 C   0  0  2  0  0  0  0  0  0  0  0  0
   17.8362   -6.0876   21.3773 N   0  0  0  0  0  0  0  0  0  0  0  0
   19.9311   -4.8486   16.2569 C   0  0  1  0  0  0  0  0  0  0  0  0
   23.3274   -2.7652   15.9057 C   0  0  1  0  0  0  0  0  0  0  0  0
   27.7278   -2.1216   13.0025 C   0  0  1  0  0  0  0  0  0  0  0  0
   19.1906   -9.9510   15.1649 C   0  0  2  0  0  0  0  0  0  0  0  0
   19.4205  -10.8804   16.2706 N   0  0  0  0  0  0  0  0  0  0  0  0
   19.5224   -7.5294   20.2114 C   0  0  0  0  0  0  0  0  0  0  0  0
   19.7672   -3.5970   15.3938 C   0  0  2  0  0  0  0  0  0  0  0  0
   19.8218   -3.8913   13.9811 O   0  0  0  0  0  0  0  0  0  0  0  0
   23.8513   -1.6723   14.8702 C   0  0  2  0  0  0  0  0  0  0  0  0
   23.8277   -2.1987   13.4798 N   0  0  0  0  0  0  0  0  0  0  0  0
   28.5796   -3.3650   13.2308 C   0  0  1  0  0  0  0  0  0  0  0  0
   29.3744   -3.6170   12.0547 O   0  0  0  0  0  0  0  0  0  0  0  0
   20.4155   -9.9662   14.1961 C   0  0  0  0  0  0  0  0  0  0  0  0
   19.8123   -8.2874   18.8538 C   0  0  2  0  0  0  0  0  0  0  0  0
   21.0897   -9.0045   18.9235 N   0  0  0  0  0  0  0  0  0  0  0  0
   20.9130   -2.7664   15.8952 C   0  0  2  0  0  0  0  0  0  0  0  0
   22.1273   -3.2292   15.3606 O   0  0  0  0  0  0  0  0  0  0  0  0
   25.2661   -1.1315   15.3609 C   0  0  1  0  0  0  0  0  0  0  0  0
   25.1555   -0.7198   16.7273 O   0  0  0  0  0  0  0  0  0  0  0  0
   29.5193   -3.2994   14.4287 C   0  0  1  0  0  0  0  0  0  0  0  0
   30.3912   -4.4321   14.3453 O   0  0  0  0  0  0  0  0  0  0  0  0
   20.1567   -8.9530   13.0420 C   0  0  2  0  0  0  0  0  0  0  0  0
   21.1975   -8.9717   12.0815 O   0  0  0  0  0  0  0  0  0  0  0  0
   19.8174   -7.2891   17.6671 C   0  0  2  0  0  0  0  0  0  0  0  0
   21.0283   -3.0717   17.4029 C   0  0  2  0  0  0  0  0  0  0  0  0
   20.5581   -4.4087   17.4696 O   0  0  0  0  0  0  0  0  0  0  0  0
   26.3610   -2.2761   15.3422 C   0  0  2  0  0  0  0  0  0  0  0  0
   26.4692   -2.6373   13.9644 O   0  0  0  0  0  0  0  0  0  0  0  0
   30.3552   -2.0196   14.4872 C   0  0  2  0  0  0  0  0  0  0  0  0
   30.9377   -1.9619   15.7994 O   0  0  0  0  0  0  0  0  0  0  0  0
   19.9766   -7.5445   13.6606 C   0  0  2  0  0  0  0  0  0  0  0  0
   18.8135   -7.6016   14.5352 O   0  0  0  0  0  0  0  0  0  0  0  0
   18.5343   -6.4028   17.5715 C   0  0  2  0  0  0  0  0  0  0  0  0
   18.6774   -5.4566   16.4758 O   0  0  0  0  0  0  0  0  0  0  0  0
   20.1978   -2.1960   18.3405 C   0  0  0  0  0  0  0  0  0  0  0  0
   20.4667   -0.8269   18.0046 O   0  0  0  0  0  0  0  0  0  0  0  0
   25.7200   -3.4679   16.0270 C   0  0  1  0  0  0  0  0  0  0  0  0
   24.3386   -3.8863   16.0597 O   0  0  0  0  0  0  0  0  0  0  0  0
   29.5286   -0.7942   14.1135 C   0  0  2  0  0  0  0  0  0  0  0  0
   28.4544   -0.8794   13.1645 O   0  0  0  0  0  0  0  0  0  0  0  0
   19.6743   -6.4948   12.6462 C   0  0  0  0  0  0  0  0  0  0  0  0
   20.7672   -6.4357   11.7617 O   0  0  0  0  0  0  0  0  0  0  0  0
   18.2377   -5.7021   18.9402 C   0  0  1  0  0  0  0  0  0  0  0  0
   16.9386   -5.0634   18.8233 O   0  0  0  0  0  0  0  0  0  0  0  0
   26.6288   -4.7177   16.2390 C   0  0  0  0  0  0  0  0  0  0  0  0
   26.6209   -5.2196   17.6293 N   0  0  0  0  0  0  0  0  0  0  0  0
   30.1047    0.6194   14.0758 C   0  0  0  0  0  0  0  0  0  0  0  0
   30.5876    0.9933   15.3933 O   0  0  0  0  0  0  0  0  0  0  0  0
  1  2  1  1  0  0  0
  1  8  1  0  0  0  0
  1 36  1  0  0  0  0
  3  4  1  1  0  0  0
  3 10  1  0  0  0  0
  3 47  1  0  0  0  0
  5 11  1  0  0  0  0
  5 30  1  0  0  0  0
  5 38  1  1  0  0  0
  6 21  1  6  0  0  0
  6 42  1  0  0  0  0
  7 15  1  0  0  0  0
  7 44  1  0  0  0  0
  7 32  1  1  0  0  0
  8  9  1  1  0  0  0
  8 17  1  0  0  0  0
 11 12  1  6  0  0  0
 11 20  1  0  0  0  0
 13  6  1  0  0  0  0
 13 14  1  6  0  0  0
 15 16  1  6  0  0  0
 15 24  1  0  0  0  0
 17 26  1  0  0  0  0
 18 10  1  0  0  0  0
 18 19  1  1  0  0  0
 20 21  1  6  0  0  0
 20 29  1  0  0  0  0
 22 13  1  0  0  0  0
 22 23  1  1  0  0  0
 24 25  1  6  0  0  0
 24 33  1  0  0  0  0
 26 27  1  6  0  0  0
 26 35  1  0  0  0  0
 28  2  1  6  0  0  0
 28 18  1  0  0  0  0
 29 30  1  0  0  0  0
 29 39  1  1  0  0  0
 31 22  1  0  0  0  0
 31 32  1  6  0  0  0
 31 41  1  0  0  0  0
 33 34  1  1  0  0  0
 33 43  1  0  0  0  0
 35 36  1  0  0  0  0
 35 45  1  6  0  0  0
 37 28  1  0  0  0  0
 37 38  1  6  0  0  0
 39 40  1  0  0  0  0
 41 42  1  0  0  0  0
 41 49  1  6  0  0  0
 43 44  1  0  0  0  0
 43 51  1  6  0  0  0
 45 46  1  0  0  0  0
 47 37  1  0  0  0  0
 47 48  1  6  0  0  0
 49 50  1  0  0  0  0
 51 52  1  0  0  0  0
M  END
>  <CHROM.1>
-143.04700815,-161.75087723,-102.36682357,94.05296516,-167.41199122,97.83331805
-50.95150474,102.22898390,-61.35915615,-39.29314668,128.99349079,-60.99585299
23.01776702,-4.60887531,15.70633313,-2.90961155,0.50281459,0.69077478

>  <Name>
2esj_lig

>  <RI>
1.01272e+07

>  <Rbt.Current_Directory>
/home/itssahil/PROJECTS/Mol_Feturizer/New_Systems/rnas/2esj

>  <Rbt.Executable>
rbdock ($Id: //depot/dev/client3/rdock/2013.1/src/exe/rbdock.cxx#4 $)

>  <Rbt.Library>
libRbt.so (2013.1, Build901 2013/11/27)

>  <Rbt.Parameter_File>
/export/apps/rDock/src/rDock_2013.1_src/data/scripts/dock_solv.prm

>  <Rbt.Receptor>
prm/pocket_docking_3.prm

>  <SCORE>
2.08354

>  <SCORE.INTER>
-1.89035

>  <SCORE.INTER.CONST>
1

>  <SCORE.INTER.POLAR>
-0.619335

>  <SCORE.INTER.ROT>
12

>  <SCORE.INTER.SOLV>
10.1918

>  <SCORE.INTER.VDW>
-14.193

>  <SCORE.INTER.norm>
-0.0363528

>  <SCORE.INTRA>
3.46121

>  <SCORE.INTRA.DIHEDRAL>
2.02206

>  <SCORE.INTRA.DIHEDRAL.0>
32.9766

>  <SCORE.INTRA.POLAR>
0

>  <SCORE.INTRA.POLAR.0>
0

>  <SCORE.INTRA.REPUL>
0

>  <SCORE.INTRA.REPUL.0>
0

>  <SCORE.INTRA.SOLV>
-2.26189

>  <SCORE.INTRA.SOLV.lig_0>
-114.358

>  <SCORE.INTRA.VDW>
3.58113

>  <SCORE.INTRA.VDW.0>
-8.24257

>  <SCORE.INTRA.norm>
0.0665618

>  <SCORE.RESTR>
0.512667

>  <SCORE.RESTR.CAVITY>
0.512667

>  <SCORE.RESTR.norm>
0.00985899

>  <SCORE.SYSTEM>
0

>  <SCORE.SYSTEM.CONST>
0

>  <SCORE.SYSTEM.DIHEDRAL>
0

>  <SCORE.SYSTEM.SOLV>
0

>  <SCORE.SYSTEM.norm>
0

>  <SCORE.heavy>
52

>  <SCORE.norm>
0.040068

>  <RMSD>
4.928

$$$$
2esj_lig
 OpenBabel11021811423D
libRbt.so/2013.1/901 2013/11/27
 52 56  0  0  0  0  0  0  0  0999 V2000
   19.6435   -8.4203   14.7242 C   0  0  2  0  0  0  0  0  0  0  0  0
   20.3792   -7.7291   15.7517 O   0  0  0  0  0  0  0  0  0  0  0  0
   17.3943   -7.5625   18.8097 C   0  0  2  0  0  0  0  0  0  0  0  0
   16.6428   -7.3142   20.0510 N   0  0  0  0  0  0  0  0  0  0  0  0
   19.8047   -4.3765   16.6535 C   0  0  1  0  0  0  0  0  0  0  0  0
   21.7826   -2.6593   16.7233 C   0  0  1  0  0  0  0  0  0  0  0  0
   26.8739   -2.0037   15.7795 C   0  0  1  0  0  0  0  0  0  0  0  0
   20.6800   -9.1161   13.7933 C   0  0  2  0  0  0  0  0  0  0  0  0
   21.5676  -10.0163   14.5287 N   0  0  0  0  0  0  0  0  0  0  0  0
   18.7460   -8.3169   19.1278 C   0  0  0  0  0  0  0  0  0  0  0  0
   19.1164   -3.1746   17.3016 C   0  0  2  0  0  0  0  0  0  0  0  0
   18.9280   -2.0827   16.3755 O   0  0  0  0  0  0  0  0  0  0  0  0
   22.8608   -3.7520   17.1529 C   0  0  2  0  0  0  0  0  0  0  0  0
   23.7386   -3.2390   18.2380 N   0  0  0  0  0  0  0  0  0  0  0  0
   27.2764   -3.0413   14.7379 C   0  0  1  0  0  0  0  0  0  0  0  0
   28.0594   -2.4016   13.7102 O   0  0  0  0  0  0  0  0  0  0  0  0
   21.5248   -8.0599   13.0123 C   0  0  0  0  0  0  0  0  0  0  0  0
   19.5104   -8.6271   17.7783 C   0  0  2  0  0  0  0  0  0  0  0  0
   20.7769   -9.3161   18.0469 N   0  0  0  0  0  0  0  0  0  0  0  0
   20.0763   -2.8780   18.4173 C   0  0  2  0  0  0  0  0  0  0  0  0
   21.2170   -2.2224   17.9240 O   0  0  0  0  0  0  0  0  0  0  0  0
   23.6260   -4.2623   15.8533 C   0  0  1  0  0  0  0  0  0  0  0  0
   22.6605   -4.6633   14.8756 O   0  0  0  0  0  0  0  0  0  0  0  0
   28.0765   -4.2233   15.2718 C   0  0  1  0  0  0  0  0  0  0  0  0
   28.5607   -4.9530   14.1390 O   0  0  0  0  0  0  0  0  0  0  0  0
   20.5576   -7.1005   12.2575 C   0  0  2  0  0  0  0  0  0  0  0  0
   21.2605   -6.1612   11.4638 O   0  0  0  0  0  0  0  0  0  0  0  0
   19.7650   -7.3177   16.9873 C   0  0  2  0  0  0  0  0  0  0  0  0
   20.6079   -4.2459   18.8923 C   0  0  2  0  0  0  0  0  0  0  0  0
   20.5461   -5.0156   17.7020 O   0  0  0  0  0  0  0  0  0  0  0  0
   24.4636   -3.0982   15.1807 C   0  0  2  0  0  0  0  0  0  0  0  0
   25.4349   -2.7479   16.1677 O   0  0  0  0  0  0  0  0  0  0  0  0
   29.2569   -3.8194   16.1569 C   0  0  2  0  0  0  0  0  0  0  0  0
   29.7058   -5.0112   16.8224 O   0  0  0  0  0  0  0  0  0  0  0  0
   19.6517   -6.4009   13.3010 C   0  0  2  0  0  0  0  0  0  0  0  0
   18.8865   -7.4402   13.9757 O   0  0  0  0  0  0  0  0  0  0  0  0
   18.4828   -6.4597   16.7412 C   0  0  2  0  0  0  0  0  0  0  0  0
   18.8465   -5.2256   16.0620 O   0  0  0  0  0  0  0  0  0  0  0  0
   19.8052   -4.9450   19.9890 C   0  0  0  0  0  0  0  0  0  0  0  0
   19.5974   -3.9954   21.0448 O   0  0  0  0  0  0  0  0  0  0  0  0
   23.5223   -1.9120   15.0960 C   0  0  1  0  0  0  0  0  0  0  0  0
   22.4448   -1.5185   15.9728 O   0  0  0  0  0  0  0  0  0  0  0  0
   28.8861   -2.6779   17.0971 C   0  0  2  0  0  0  0  0  0  0  0  0
   27.9298   -1.6771   16.7153 O   0  0  0  0  0  0  0  0  0  0  0  0
   18.6470   -5.4883   12.6846 C   0  0  0  0  0  0  0  0  0  0  0  0
   17.8900   -4.9267   13.7295 O   0  0  0  0  0  0  0  0  0  0  0  0
   17.7149   -6.2075   18.0825 C   0  0  1  0  0  0  0  0  0  0  0  0
   16.4505   -5.5794   17.7422 O   0  0  0  0  0  0  0  0  0  0  0  0
   24.0680   -0.6439   14.3699 C   0  0  0  0  0  0  0  0  0  0  0  0
   23.0777   -0.0086   13.4753 N   0  0  0  0  0  0  0  0  0  0  0  0
   29.8707   -2.0620   18.0885 C   0  0  0  0  0  0  0  0  0  0  0  0
   30.5356   -0.9217   17.4832 O   0  0  0  0  0  0  0  0  0  0  0  0
  1  2  1  1  0  0  0
  1  8  1  0  0  0  0
  1 36  1  0  0  0  0
  3  4  1  1  0  0  0
  3 10  1  0  0  0  0
  3 47  1  0  0  0  0
  5 11  1  0  0  0  0
  5 30  1  0  0  0  0
  5 38  1  1  0  0  0
  6 21  1  1  0  0  0
  6 42  1  0  0  0  0
  7 15  1  0  0  0  0
  7 44  1  0  0  0  0
  7 32  1  1  0  0  0
  8  9  1  1  0  0  0
  8 17  1  0  0  0  0
 11 12  1  6  0  0  0
 11 20  1  0  0  0  0
 13  6  1  0  0  0  0
 13 14  1  1  0  0  0
 15 16  1  6  0  0  0
 15 24  1  0  0  0  0
 17 26  1  0  0  0  0
 18 10  1  0  0  0  0
 18 19  1  1  0  0  0
 20 21  1  6  0  0  0
 20 29  1  0  0  0  0
 22 13  1  0  0  0  0
 22 23  1  6  0  0  0
 24 25  1  6  0  0  0
 24 33  1  0  0  0  0
 26 27  1  1  0  0  0
 26 35  1  0  0  0  0
 28  2  1  6  0  0  0
 28 18  1  0  0  0  0
 29 30  1  0  0  0  0
 29 39  1  1  0  0  0
 31 22  1  0  0  0  0
 31 32  1  1  0  0  0
 31 41  1  0  0  0  0
 33 34  1  1  0  0  0
 33 43  1  0  0  0  0
 35 36  1  0  0  0  0
 35 45  1  6  0  0  0
 37 28  1  0  0  0  0
 37 38  1  1  0  0  0
 39 40  1  0  0  0  0
 41 42  1  0  0  0  0
 41 49  1  1  0  0  0
 43 44  1  0  0  0  0
 43 51  1  6  0  0  0
 45 46  1  0  0  0  0
 47 37  1  0  0  0  0
 47 48  1  6  0  0  0
 49 50  1  0  0  0  0
 51 52  1  0  0  0  0
M  END
>  <CHROM.1>
-161.17830356,-103.31381219,-90.70324969,-53.18618368,-41.75961165,70.92321045
-50.37535150,156.77757527,179.68769503,-56.49287959,137.83016901,92.42143182
22.28464759,-4.71477488,16.18269718,-2.95236422,0.38133909,0.91728302

>  <Name>
2esj_lig

>  <RI>
1.01272e+07

>  <Rbt.Current_Directory>
/home/itssahil/PROJECTS/Mol_Feturizer/New_Systems/rnas/2esj

>  <Rbt.Executable>
rbdock ($Id: //depot/dev/client3/rdock/2013.1/src/exe/rbdock.cxx#4 $)

>  <Rbt.Library>
libRbt.so (2013.1, Build901 2013/11/27)

>  <Rbt.Parameter_File>
/export/apps/rDock/src/rDock_2013.1_src/data/scripts/dock_solv.prm

>  <Rbt.Receptor>
prm/pocket_docking_3.prm

>  <SCORE>
-0.626326

>  <SCORE.INTER>
-5.24484

>  <SCORE.INTER.CONST>
1

>  <SCORE.INTER.POLAR>
-1.15563

>  <SCORE.INTER.ROT>
12

>  <SCORE.INTER.SOLV>
9.46337

>  <SCORE.INTER.VDW>
-14.3989

>  <SCORE.INTER.norm>
-0.100862

>  <SCORE.INTRA>
4.6138

>  <SCORE.INTRA.DIHEDRAL>
-10.6336

>  <SCORE.INTRA.DIHEDRAL.0>
32.9766

>  <SCORE.INTRA.POLAR>
0

>  <SCORE.INTRA.POLAR.0>
0

>  <SCORE.INTRA.REPUL>
0

>  <SCORE.INTRA.REPUL.0>
0

>  <SCORE.INTRA.SOLV>
0.560945

>  <SCORE.INTRA.SOLV.lig_0>
-114.358

>  <SCORE.INTRA.VDW>
9.65014

>  <SCORE.INTRA.VDW.0>
-8.24257

>  <SCORE.INTRA.norm>
0.0887269

>  <SCORE.RESTR>
0.00471641

>  <SCORE.RESTR.CAVITY>
0.00471641

>  <SCORE.RESTR.norm>
9.07001e-05

>  <SCORE.SYSTEM>
0

>  <SCORE.SYSTEM.CONST>
0

>  <SCORE.SYSTEM.DIHEDRAL>
0

>  <SCORE.SYSTEM.SOLV>
0

>  <SCORE.SYSTEM.norm>
0

>  <SCORE.heavy>
52

>  <SCORE.norm>
-0.0120447

>  <RMSD>
4.940

$$$$
2esj_lig
 OpenBabel11021811423D
libRbt.so/2013.1/901 2013/11/27
 52 56  0  0  0  0  0  0  0  0999 V2000
   20.0065   -7.9500   19.3960 C   0  0  2  0  0  0  0  0  0  0  0  0
   19.3225   -9.1368   19.8415 O   0  0  0  0  0  0  0  0  0  0  0  0
   18.7133  -13.1493   18.4936 C   0  0  2  0  0  0  0  0  0  0  0  0
   18.3249  -14.3522   17.7389 N   0  0  0  0  0  0  0  0  0  0  0  0
   20.6711   -9.6419   16.4891 C   0  0  1  0  0  0  0  0  0  0  0  0
   20.2408   -7.7862   12.7047 C   0  0  1  0  0  0  0  0  0  0  0  0
   21.6351   -3.0411   11.1064 C   0  0  1  0  0  0  0  0  0  0  0  0
   20.8383   -7.4100   20.5966 C   0  0  2  0  0  0  0  0  0  0  0  0
   21.7670   -8.4108   21.1211 N   0  0  0  0  0  0  0  0  0  0  0  0
   17.4405  -12.2714   18.8202 C   0  0  0  0  0  0  0  0  0  0  0  0
   21.7592   -8.7442   15.8986 C   0  0  2  0  0  0  0  0  0  0  0  0
   21.6589   -7.3801   16.3616 O   0  0  0  0  0  0  0  0  0  0  0  0
   21.5624   -6.9532   12.3873 C   0  0  2  0  0  0  0  0  0  0  0  0
   21.8055   -5.9194   13.4280 N   0  0  0  0  0  0  0  0  0  0  0  0
   22.9249   -3.8326   11.2897 C   0  0  1  0  0  0  0  0  0  0  0  0
   23.8996   -3.3786   10.3294 O   0  0  0  0  0  0  0  0  0  0  0  0
   19.9027   -6.9041   21.7402 C   0  0  0  0  0  0  0  0  0  0  0  0
   17.8692  -11.0158   19.6812 C   0  0  2  0  0  0  0  0  0  0  0  0
   16.7064  -10.1759   19.9869 N   0  0  0  0  0  0  0  0  0  0  0  0
   21.4919   -8.9185   14.4316 C   0  0  2  0  0  0  0  0  0  0  0  0
   20.3700   -8.1671   14.0430 O   0  0  0  0  0  0  0  0  0  0  0  0
   21.4795   -6.4004   10.8964 C   0  0  1  0  0  0  0  0  0  0  0  0
   21.1795   -7.4881   10.0157 O   0  0  0  0  0  0  0  0  0  0  0  0
   23.5525   -3.7429   12.6755 C   0  0  1  0  0  0  0  0  0  0  0  0
   24.8516   -4.3389   12.5913 O   0  0  0  0  0  0  0  0  0  0  0  0
   18.9096   -5.8583   21.1521 C   0  0  2  0  0  0  0  0  0  0  0  0
   18.0791   -5.2993   22.1541 O   0  0  0  0  0  0  0  0  0  0  0  0
   18.9498  -10.1912   18.9346 C   0  0  2  0  0  0  0  0  0  0  0  0
   21.0398  -10.3828   14.2554 C   0  0  2  0  0  0  0  0  0  0  0  0
   20.4176  -10.6512   15.5019 O   0  0  0  0  0  0  0  0  0  0  0  0
   20.2901   -5.3678   10.7277 C   0  0  2  0  0  0  0  0  0  0  0  0
   20.6389   -4.2851   11.5916 O   0  0  0  0  0  0  0  0  0  0  0  0
   23.6842   -2.3124   13.2012 C   0  0  2  0  0  0  0  0  0  0  0  0
   23.9869   -2.4095   14.6025 O   0  0  0  0  0  0  0  0  0  0  0  0
   18.0785   -6.5461   20.0407 C   0  0  2  0  0  0  0  0  0  0  0  0
   19.0101   -6.9755   19.0069 O   0  0  0  0  0  0  0  0  0  0  0  0
   20.1874  -11.0265   18.4749 C   0  0  2  0  0  0  0  0  0  0  0  0
   21.0967  -10.1752   17.7234 O   0  0  0  0  0  0  0  0  0  0  0  0
   22.1432  -11.4113   14.0090 C   0  0  0  0  0  0  0  0  0  0  0  0
   23.0494  -11.3476   15.1200 O   0  0  0  0  0  0  0  0  0  0  0  0
   19.0820   -6.0259   11.3661 C   0  0  1  0  0  0  0  0  0  0  0  0
   19.0042   -6.9342   12.4857 O   0  0  0  0  0  0  0  0  0  0  0  0
   22.4448   -1.4833   12.8832 C   0  0  2  0  0  0  0  0  0  0  0  0
   21.6744   -1.7183   11.6945 O   0  0  0  0  0  0  0  0  0  0  0  0
   17.1210   -5.6212   19.3698 C   0  0  0  0  0  0  0  0  0  0  0  0
   16.3417   -6.3896   18.4852 O   0  0  0  0  0  0  0  0  0  0  0  0
   19.7377  -12.2911   17.6681 C   0  0  1  0  0  0  0  0  0  0  0  0
   20.9208  -13.1050   17.4505 O   0  0  0  0  0  0  0  0  0  0  0  0
   17.7298   -5.2577   11.2472 C   0  0  0  0  0  0  0  0  0  0  0  0
   17.5184   -4.2719   12.3281 N   0  0  0  0  0  0  0  0  0  0  0  0
   22.3005   -0.0155   13.2785 C   0  0  0  0  0  0  0  0  0  0  0  0
   23.4367    0.7441   12.7878 O   0  0  0  0  0  0  0  0  0  0  0  0
  1  2  1  1  0  0  0
  1  8  1  0  0  0  0
  1 36  1  0  0  0  0
  3  4  1  6  0  0  0
  3 10  1  0  0  0  0
  3 47  1  0  0  0  0
  5 11  1  0  0  0  0
  5 30  1  0  0  0  0
  5 38  1  1  0  0  0
  6 21  1  1  0  0  0
  6 42  1  0  0  0  0
  7 15  1  0  0  0  0
  7 44  1  0  0  0  0
  7 32  1  1  0  0  0
  8  9  1  1  0  0  0
  8 17  1  0  0  0  0
 11 12  1  1  0  0  0
 11 20  1  0  0  0  0
 13  6  1  0  0  0  0
 13 14  1  1  0  0  0
 15 16  1  6  0  0  0
 15 24  1  0  0  0  0
 17 26  1  0  0  0  0
 18 10  1  0  0  0  0
 18 19  1  6  0  0  0
 20 21  1  1  0  0  0
 20 29  1  0  0  0  0
 22 13  1  0  0  0  0
 22 23  1  6  0  0  0
 24 25  1  6  0  0  0
 24 33  1  0  0  0  0
 26 27  1  1  0  0  0
 26 35  1  0  0  0  0
 28  2  1  1  0  0  0
 28 18  1  0  0  0  0
 29 30  1  0  0  0  0
 29 39  1  1  0  0  0
 31 22  1  0  0  0  0
 31 32  1  1  0  0  0
 31 41  1  0  0  0  0
 33 34  1  1  0  0  0
 33 43  1  0  0  0  0
 35 36  1  0  0  0  0
 35 45  1  6  0  0  0
 37 28  1  0  0  0  0
 37 38  1  6  0  0  0
 39 40  1  0  0  0  0
 41 42  1  0  0  0  0
 41 49  1  1  0  0  0
 43 44  1  0  0  0  0
 43 51  1  6  0  0  0
 45 46  1  0  0  0  0
 47 37  1  0  0  0  0
 47 48  1  1  0  0  0
 49 50  1  0  0  0  0
 51 52  1  0  0  0  0
M  END
>  <CHROM.1>
-152.71458666,178.06443012,-57.71391618,-79.11602322,156.41000426,-161.93915926
58.20286308,85.56907083,-174.21213343,-65.19643425,-86.92536003,53.60804332
20.53768201,-7.13980107,15.55118890,2.71340467,-1.24460156,-2.83271967

>  <Name>
2esj_lig

>  <RI>
1.62275e+07

>  <Rbt.Current_Directory>
/home/itssahil/PROJECTS/Mol_Feturizer/New_Systems/rnas/2esj

>  <Rbt.Executable>
rbdock ($Id: //depot/dev/client3/rdock/2013.1/src/exe/rbdock.cxx#4 $)

>  <Rbt.Library>
libRbt.so (2013.1, Build901 2013/11/27)

>  <Rbt.Parameter_File>
/export/apps/rDock/src/rDock_2013.1_src/data/scripts/dock_solv.prm

>  <Rbt.Receptor>
prm/pocket_docking_5.prm

>  <SCORE>
-25.196

>  <SCORE.INTER>
-20.3956

>  <SCORE.INTER.CONST>
1

>  <SCORE.INTER.POLAR>
-1.80442

>  <SCORE.INTER.ROT>
12

>  <SCORE.INTER.SOLV>
14.8781

>  <SCORE.INTER.VDW>
-24.1417

>  <SCORE.INTER.norm>
-0.392224

>  <SCORE.INTRA>
-4.80097

>  <SCORE.INTRA.DIHEDRAL>
-16.2916

>  <SCORE.INTRA.DIHEDRAL.0>
32.9766

>  <SCORE.INTRA.POLAR>
0

>  <SCORE.INTRA.POLAR.0>
0

>  <SCORE.INTRA.REPUL>
0

>  <SCORE.INTRA.REPUL.0>
0

>  <SCORE.INTRA.SOLV>
1.90608

>  <SCORE.INTRA.SOLV.lig_0>
-114.358

>  <SCORE.INTRA.VDW>
2.39179

>  <SCORE.INTRA.VDW.0>
-8.24257

>  <SCORE.INTRA.norm>
-0.0923263

>  <SCORE.RESTR>
0.000583128

>  <SCORE.RESTR.CAVITY>
0.000583128

>  <SCORE.RESTR.norm>
1.1214e-05

>  <SCORE.SYSTEM>
0

>  <SCORE.SYSTEM.CONST>
0

>  <SCORE.SYSTEM.DIHEDRAL>
0

>  <SCORE.SYSTEM.SOLV>
0

>  <SCORE.SYSTEM.norm>
0

>  <SCORE.heavy>
52

>  <SCORE.norm>
-0.484539

>  <RMSD>
4.942

$$$$
2esj_lig
 OpenBabel11021811423D
libRbt.so/2013.1/901 2013/11/27
 52 56  0  0  0  0  0  0  0  0999 V2000
   18.5711   -8.7512   15.7321 C   0  0  2  0  0  0  0  0  0  0  0  0
   19.2375   -8.4284   16.9677 O   0  0  0  0  0  0  0  0  0  0  0  0
   16.5296  -10.1542   19.7920 C   0  0  2  0  0  0  0  0  0  0  0  0
   15.8279  -10.5717   21.0170 N   0  0  0  0  0  0  0  0  0  0  0  0
   18.3540   -5.9861   18.2272 C   0  0  1  0  0  0  0  0  0  0  0  0
   21.3177   -2.9264   18.3332 C   0  0  1  0  0  0  0  0  0  0  0  0
   24.3205   -1.5598   14.3065 C   0  0  1  0  0  0  0  0  0  0  0  0
   19.5846   -9.5300   14.8427 C   0  0  2  0  0  0  0  0  0  0  0  0
   20.1042  -10.7231   15.5105 N   0  0  0  0  0  0  0  0  0  0  0  0
   18.0480  -10.5880   19.8542 C   0  0  0  0  0  0  0  0  0  0  0  0
   18.0974   -4.4841   18.0985 C   0  0  2  0  0  0  0  0  0  0  0  0
   18.1217   -4.0370   16.7256 O   0  0  0  0  0  0  0  0  0  0  0  0
   21.1915   -2.1804   16.9301 C   0  0  2  0  0  0  0  0  0  0  0  0
   21.3079   -3.1414   15.8014 N   0  0  0  0  0  0  0  0  0  0  0  0
   24.0212   -2.8029   13.4767 C   0  0  1  0  0  0  0  0  0  0  0  0
   23.5975   -2.4015   12.1584 O   0  0  0  0  0  0  0  0  0  0  0  0
   20.7680   -8.6081   14.4081 C   0  0  0  0  0  0  0  0  0  0  0  0
   18.7704  -10.1842   18.5063 C   0  0  2  0  0  0  0  0  0  0  0  0
   20.1864  -10.5641   18.5436 N   0  0  0  0  0  0  0  0  0  0  0  0
   19.2140   -3.9420   18.9432 C   0  0  2  0  0  0  0  0  0  0  0  0
   20.4328   -4.0044   18.2469 O   0  0  0  0  0  0  0  0  0  0  0  0
   22.2258   -0.9705   16.8929 C   0  0  1  0  0  0  0  0  0  0  0  0
   22.0425   -0.1690   18.0645 O   0  0  0  0  0  0  0  0  0  0  0  0
   25.1826   -3.7772   13.3213 C   0  0  1  0  0  0  0  0  0  0  0  0
   24.7976   -4.7411   12.3350 O   0  0  0  0  0  0  0  0  0  0  0  0
   20.1886   -7.3359   13.7214 C   0  0  2  0  0  0  0  0  0  0  0  0
   21.2128   -6.4890   13.2318 O   0  0  0  0  0  0  0  0  0  0  0  0
   18.6262   -8.6614   18.2503 C   0  0  2  0  0  0  0  0  0  0  0  0
   19.3935   -4.9455   20.1010 C   0  0  2  0  0  0  0  0  0  0  0  0
   18.9959   -6.1663   19.4971 O   0  0  0  0  0  0  0  0  0  0  0  0
   23.7222   -1.4868   16.9528 C   0  0  2  0  0  0  0  0  0  0  0  0
   23.8789   -2.2513   15.7564 O   0  0  0  0  0  0  0  0  0  0  0  0
   26.4927   -3.1119   12.8957 C   0  0  2  0  0  0  0  0  0  0  0  0
   27.5359   -4.0795   13.0964 O   0  0  0  0  0  0  0  0  0  0  0  0
   19.2804   -6.6028   14.7397 C   0  0  2  0  0  0  0  0  0  0  0  0
   18.1966   -7.5119   15.0856 O   0  0  0  0  0  0  0  0  0  0  0  0
   17.1533   -8.1422   18.2947 C   0  0  2  0  0  0  0  0  0  0  0  0
   17.1413   -6.6981   18.1187 O   0  0  0  0  0  0  0  0  0  0  0  0
   18.5492   -4.7011   21.3512 C   0  0  0  0  0  0  0  0  0  0  0  0
   17.1711   -4.8446   20.9771 O   0  0  0  0  0  0  0  0  0  0  0  0
   23.7640   -2.4922   18.0875 C   0  0  1  0  0  0  0  0  0  0  0  0
   22.7427   -3.3936   18.5660 O   0  0  0  0  0  0  0  0  0  0  0  0
   26.7127   -1.7919   13.6262 C   0  0  2  0  0  0  0  0  0  0  0  0
   25.6080   -0.9626   14.0184 O   0  0  0  0  0  0  0  0  0  0  0  0
   18.6294   -5.3873   14.1730 C   0  0  0  0  0  0  0  0  0  0  0  0
   17.8431   -5.8000   13.0814 O   0  0  0  0  0  0  0  0  0  0  0  0
   16.4418   -8.5961   19.6138 C   0  0  1  0  0  0  0  0  0  0  0  0
   15.0383   -8.2446   19.4878 O   0  0  0  0  0  0  0  0  0  0  0  0
   25.1630   -3.0874   18.4358 C   0  0  0  0  0  0  0  0  0  0  0  0
   25.8805   -3.6254   17.2609 N   0  0  0  0  0  0  0  0  0  0  0  0
   27.9332   -0.9043   13.3933 C   0  0  0  0  0  0  0  0  0  0  0  0
   29.1494   -1.6614   13.6313 O   0  0  0  0  0  0  0  0  0  0  0  0
  1  2  1  1  0  0  0
  1  8  1  0  0  0  0
  1 36  1  0  0  0  0
  3  4  1  1  0  0  0
  3 10  1  0  0  0  0
  3 47  1  0  0  0  0
  5 11  1  0  0  0  0
  5 30  1  0  0  0  0
  5 38  1  1  0  0  0
  6 21  1  6  0  0  0
  6 42  1  0  0  0  0
  7 15  1  0  0  0  0
  7 44  1  0  0  0  0
  7 32  1  1  0  0  0
  8  9  1  1  0  0  0
  8 17  1  0  0  0  0
 11 12  1  6  0  0  0
 11 20  1  0  0  0  0
 13  6  1  0  0  0  0
 13 14  1  6  0  0  0
 15 16  1  6  0  0  0
 15 24  1  0  0  0  0
 17 26  1  0  0  0  0
 18 10  1  0  0  0  0
 18 19  1  1  0  0  0
 20 21  1  6  0  0  0
 20 29  1  0  0  0  0
 22 13  1  0  0  0  0
 22 23  1  1  0  0  0
 24 25  1  6  0  0  0
 24 33  1  0  0  0  0
 26 27  1  1  0  0  0
 26 35  1  0  0  0  0
 28  2  1  6  0  0  0
 28 18  1  0  0  0  0
 29 30  1  0  0  0  0
 29 39  1  1  0  0  0
 31 22  1  0  0  0  0
 31 32  1  6  0  0  0
 31 41  1  0  0  0  0
 33 34  1  1  0  0  0
 33 43  1  0  0  0  0
 35 36  1  0  0  0  0
 35 45  1  6  0  0  0
 37 28  1  0  0  0  0
 37 38  1  1  0  0  0
 39 40  1  0  0  0  0
 41 42  1  0  0  0  0
 41 49  1  6  0  0  0
 43 44  1  0  0  0  0
 43 51  1  6  0  0  0
 45 46  1  0  0  0  0
 47 37  1  0  0  0  0
 47 48  1  6  0  0  0
 49 50  1  0  0  0  0
 51 52  1  0  0  0  0
M  END
>  <CHROM.1>
-132.35745390,-176.33489742,-105.25488492,-169.13814008,138.59031871,77.47951897
63.82139328,86.51137089,60.00900355,-13.20578843,-51.07742754,-56.19494673
21.06133380,-5.23928681,16.55774408,-3.01802718,0.73740929,0.77583297

>  <Name>
2esj_lig

>  <RI>
0

>  <Rbt.Current_Directory>
/home/itssahil/PROJECTS/Mol_Feturizer/New_Systems/rnas/2esj

>  <Rbt.Executable>
rbdock ($Id: //depot/dev/client3/rdock/2013.1/src/exe/rbdock.cxx#4 $)

>  <Rbt.Library>
libRbt.so (2013.1, Build901 2013/11/27)

>  <Rbt.Parameter_File>
/export/apps/rDock/src/rDock_2013.1_src/data/scripts/dock_solv.prm

>  <Rbt.Receptor>
prm/pocket_docking_2.prm

>  <SCORE>
7.43777

>  <SCORE.INTER>
-4.11576

>  <SCORE.INTER.CONST>
1

>  <SCORE.INTER.POLAR>
-0.79912

>  <SCORE.INTER.ROT>
12

>  <SCORE.INTER.SOLV>
18.4802

>  <SCORE.INTER.VDW>
-17.8402

>  <SCORE.INTER.norm>
-0.0791493

>  <SCORE.INTRA>
5.42699

>  <SCORE.INTRA.DIHEDRAL>
1.22843

>  <SCORE.INTRA.DIHEDRAL.0>
32.9766

>  <SCORE.INTRA.POLAR>
0

>  <SCORE.INTRA.POLAR.0>
0

>  <SCORE.INTRA.REPUL>
0

>  <SCORE.INTRA.REPUL.0>
0

>  <SCORE.INTRA.SOLV>
4.18694

>  <SCORE.INTRA.SOLV.lig_0>
-114.358

>  <SCORE.INTRA.VDW>
2.7193

>  <SCORE.INTRA.VDW.0>
-8.24257

>  <SCORE.INTRA.norm>
0.104365

>  <SCORE.RESTR>
6.12654

>  <SCORE.RESTR.CAVITY>
6.12654

>  <SCORE.RESTR.norm>
0.117818

>  <SCORE.SYSTEM>
0

>  <SCORE.SYSTEM.CONST>
0

>  <SCORE.SYSTEM.DIHEDRAL>
0

>  <SCORE.SYSTEM.SOLV>
0

>  <SCORE.SYSTEM.norm>
0

>  <SCORE.heavy>
52

>  <SCORE.norm>
0.143034

>  <RMSD>
4.987

$$$$
2esj_lig
 OpenBabel11021811423D
libRbt.so/2013.1/901 2013/11/27
 52 56  0  0  0  0  0  0  0  0999 V2000
   18.9816   -5.4879   14.3772 C   0  0  2  0  0  0  0  0  0  0  0  0
   18.6614   -6.8673   14.6408 O   0  0  0  0  0  0  0  0  0  0  0  0
   18.1668   -9.3975   18.0527 C   0  0  2  0  0  0  0  0  0  0  0  0
   18.3713  -10.1937   19.2740 N   0  0  0  0  0  0  0  0  0  0  0  0
   19.7045   -5.1099   17.2356 C   0  0  1  0  0  0  0  0  0  0  0  0
   22.5833   -2.3708   16.4612 C   0  0  1  0  0  0  0  0  0  0  0  0
   26.9504   -2.6474   14.0343 C   0  0  1  0  0  0  0  0  0  0  0  0
   17.8833   -4.9251   13.4275 C   0  0  2  0  0  0  0  0  0  0  0  0
   16.5394   -5.0768   13.9844 N   0  0  0  0  0  0  0  0  0  0  0  0
   19.1708   -9.8580   16.9225 C   0  0  0  0  0  0  0  0  0  0  0  0
   19.7185   -3.5870   17.3730 C   0  0  2  0  0  0  0  0  0  0  0  0
   19.5758   -2.9181   16.1011 O   0  0  0  0  0  0  0  0  0  0  0  0
   23.2872   -2.9049   15.1344 C   0  0  2  0  0  0  0  0  0  0  0  0
   24.2054   -4.0353   15.4343 N   0  0  0  0  0  0  0  0  0  0  0  0
   27.6211   -3.7798   14.8033 C   0  0  1  0  0  0  0  0  0  0  0  0
   27.8545   -4.8863   13.9091 O   0  0  0  0  0  0  0  0  0  0  0  0
   17.9560   -5.6080   12.0249 C   0  0  0  0  0  0  0  0  0  0  0  0
   18.8965   -9.0331   15.6013 C   0  0  2  0  0  0  0  0  0  0  0  0
   19.8254   -9.4324   14.5390 N   0  0  0  0  0  0  0  0  0  0  0  0
   21.0529   -3.3835   18.0302 C   0  0  2  0  0  0  0  0  0  0  0  0
   22.0896   -3.5163   17.0910 O   0  0  0  0  0  0  0  0  0  0  0  0
   23.9578   -1.6768   14.3746 C   0  0  1  0  0  0  0  0  0  0  0  0
   22.9801   -0.6442   14.2113 O   0  0  0  0  0  0  0  0  0  0  0  0
   28.9464   -3.4218   15.4649 C   0  0  1  0  0  0  0  0  0  0  0  0
   29.5330   -4.6438   15.9263 O   0  0  0  0  0  0  0  0  0  0  0  0
   19.4008   -5.4532   11.4643 C   0  0  2  0  0  0  0  0  0  0  0  0
   19.5181   -5.9846   10.1566 O   0  0  0  0  0  0  0  0  0  0  0  0
   19.0149   -7.5119   15.8788 C   0  0  2  0  0  0  0  0  0  0  0  0
   21.2473   -4.5882   18.9739 C   0  0  2  0  0  0  0  0  0  0  0  0
   20.5217   -5.6071   18.3043 O   0  0  0  0  0  0  0  0  0  0  0  0
   25.1251   -1.0344   15.2313 C   0  0  2  0  0  0  0  0  0  0  0  0
   26.0938   -2.0781   15.3448 O   0  0  0  0  0  0  0  0  0  0  0  0
   29.9278   -2.7085   14.5332 C   0  0  2  0  0  0  0  0  0  0  0  0
   30.9706   -2.1681   15.3611 O   0  0  0  0  0  0  0  0  0  0  0  0
   20.3818   -6.1377   12.4483 C   0  0  2  0  0  0  0  0  0  0  0  0
   20.2715   -5.4422   13.7230 O   0  0  0  0  0  0  0  0  0  0  0  0
   18.1352   -7.0083   17.0677 C   0  0  2  0  0  0  0  0  0  0  0  0
   18.3797   -5.5912   17.2874 O   0  0  0  0  0  0  0  0  0  0  0  0
   20.7078   -4.4338   20.3954 C   0  0  0  0  0  0  0  0  0  0  0  0
   20.9809   -5.6558   21.0966 O   0  0  0  0  0  0  0  0  0  0  0  0
   24.5576   -0.8515   16.6258 C   0  0  1  0  0  0  0  0  0  0  0  0
   23.5807   -1.6389   17.3401 O   0  0  0  0  0  0  0  0  0  0  0  0
   29.2215   -1.6768   13.6608 C   0  0  2  0  0  0  0  0  0  0  0  0
   27.8662   -1.8686   13.2269 O   0  0  0  0  0  0  0  0  0  0  0  0
   21.8084   -6.0101   12.0349 C   0  0  0  0  0  0  0  0  0  0  0  0
   22.5621   -6.8776   12.8470 O   0  0  0  0  0  0  0  0  0  0  0  0
   18.3855   -7.8708   18.3506 C   0  0  1  0  0  0  0  0  0  0  0  0
   17.3995   -7.4681   19.3380 O   0  0  0  0  0  0  0  0  0  0  0  0
   25.4771   -0.1323   17.6602 C   0  0  0  0  0  0  0  0  0  0  0  0
   26.3475   -1.0585   18.4147 N   0  0  0  0  0  0  0  0  0  0  0  0
   29.9502   -0.8203   12.6279 C   0  0  0  0  0  0  0  0  0  0  0  0
   30.9597   -0.0067   13.2819 O   0  0  0  0  0  0  0  0  0  0  0  0
  1  2  1  6  0  0  0
  1  8  1  0  0  0  0
  1 36  1  0  0  0  0
  3  4  1  1  0  0  0
  3 10  1  0  0  0  0
  3 47  1  0  0  0  0
  5 11  1  0  0  0  0
  5 30  1  0  0  0  0
  5 38  1  1  0  0  0
  6 21  1  1  0  0  0
  6 42  1  0  0  0  0
  7 15  1  0  0  0  0
  7 44  1  0  0  0  0
  7 32  1  1  0  0  0
  8  9  1  1  0  0  0
  8 17  1  0  0  0  0
 11 12  1  6  0  0  0
 11 20  1  0  0  0  0
 13  6  1  0  0  0  0
 13 14  1  1  0  0  0
 15 16  1  6  0  0  0
 15 24  1  0  0  0  0
 17 26  1  0  0  0  0
 18 10  1  0  0  0  0
 18 19  1  6  0  0  0
 20 21  1  6  0  0  0
 20 29  1  0  0  0  0
 22 13  1  0  0  0  0
 22 23  1  1  0  0  0
 24 25  1  6  0  0  0
 24 33  1  0  0  0  0
 26 27  1  6  0  0  0
 26 35  1  0  0  0  0
 28  2  1  6  0  0  0
 28 18  1  0  0  0  0
 29 30  1  0  0  0  0
 29 39  1  1  0  0  0
 31 22  1  0  0  0  0
 31 32  1  1  0  0  0
 31 41  1  0  0  0  0
 33 34  1  1  0  0  0
 33 43  1  0  0  0  0
 35 36  1  0  0  0  0
 35 45  1  6  0  0  0
 37 28  1  0  0  0  0
 37 38  1  1  0  0  0
 39 40  1  0  0  0  0
 41 42  1  0  0  0  0
 41 49  1  1  0  0  0
 43 44  1  0  0  0  0
 43 51  1  6  0  0  0
 45 46  1  0  0  0  0
 47 37  1  0  0  0  0
 47 48  1  1  0  0  0
 49 50  1  0  0  0  0
 51 52  1  0  0  0  0
M  END
>  <CHROM.1>
-149.97356040,175.13907056,-159.02418955,-173.91936563,94.07013886,-163.28764233
179.64864769,67.20074151,-168.75491764,-42.38591232,-89.78623970,-60.58448828
22.60801226,-4.46484866,15.59406872,3.04174511,0.49632663,1.47353673

>  <Name>
2esj_lig

>  <RI>
1.01272e+07

>  <Rbt.Current_Directory>
/home/itssahil/PROJECTS/Mol_Feturizer/New_Systems/rnas/2esj

>  <Rbt.Executable>
rbdock ($Id: //depot/dev/client3/rdock/2013.1/src/exe/rbdock.cxx#4 $)

>  <Rbt.Library>
libRbt.so (2013.1, Build901 2013/11/27)

>  <Rbt.Parameter_File>
/export/apps/rDock/src/rDock_2013.1_src/data/scripts/dock_solv.prm

>  <Rbt.Receptor>
prm/pocket_docking_3.prm

>  <SCORE>
-13.5721

>  <SCORE.INTER>
-7.74189

>  <SCORE.INTER.CONST>
1

>  <SCORE.INTER.POLAR>
-1.73073

>  <SCORE.INTER.ROT>
12

>  <SCORE.INTER.SOLV>
10.6879

>  <SCORE.INTER.VDW>
-14.5548

>  <SCORE.INTER.norm>
-0.148883

>  <SCORE.INTRA>
-6.48325

>  <SCORE.INTRA.DIHEDRAL>
-14.281

>  <SCORE.INTRA.DIHEDRAL.0>
32.9766

>  <SCORE.INTRA.POLAR>
0

>  <SCORE.INTRA.POLAR.0>
0

>  <SCORE.INTRA.REPUL>
0

>  <SCORE.INTRA.REPUL.0>
0

>  <SCORE.INTRA.SOLV>
-1.58889

>  <SCORE.INTRA.SOLV.lig_0>
-114.358

>  <SCORE.INTRA.VDW>
1.45167

>  <SCORE.INTRA.VDW.0>
-8.24257

>  <SCORE.INTRA.norm>
-0.124678

>  <SCORE.RESTR>
0.653039

>  <SCORE.RESTR.CAVITY>
0.653039

>  <SCORE.RESTR.norm>
0.0125584

>  <SCORE.SYSTEM>
0

>  <SCORE.SYSTEM.CONST>
0

>  <SCORE.SYSTEM.DIHEDRAL>
0

>  <SCORE.SYSTEM.SOLV>
0

>  <SCORE.SYSTEM.norm>
0

>  <SCORE.heavy>
52

>  <SCORE.norm>
-0.261002

>  <RMSD>
4.991

$$$$
2esj_lig
 OpenBabel11021811423D
libRbt.so/2013.1/901 2013/11/27
 52 56  0  0  0  0  0  0  0  0999 V2000
   17.9424   -4.5990   16.7267 C   0  0  2  0  0  0  0  0  0  0  0  0
   18.8978   -5.6371   16.4364 O   0  0  0  0  0  0  0  0  0  0  0  0
   18.9893   -9.7839   17.4774 C   0  0  2  0  0  0  0  0  0  0  0  0
   18.7033  -11.2212   17.6183 N   0  0  0  0  0  0  0  0  0  0  0  0
   21.0394   -6.6791   14.1806 C   0  0  1  0  0  0  0  0  0  0  0  0
   24.6634   -4.7362   13.3210 C   0  0  1  0  0  0  0  0  0  0  0  0
   24.6247    0.1356   13.5760 C   0  0  1  0  0  0  0  0  0  0  0  0
   17.3810   -4.0855   15.3680 C   0  0  2  0  0  0  0  0  0  0  0  0
   16.7929   -5.1611   14.5703 N   0  0  0  0  0  0  0  0  0  0  0  0
   17.7410   -8.9285   17.9328 C   0  0  0  0  0  0  0  0  0  0  0  0
   22.3659   -7.3902   14.4513 C   0  0  2  0  0  0  0  0  0  0  0  0
   22.7893   -7.2612   15.8259 O   0  0  0  0  0  0  0  0  0  0  0  0
   24.9187   -3.4616   14.2437 C   0  0  2  0  0  0  0  0  0  0  0  0
   23.6474   -2.7449   14.5288 N   0  0  0  0  0  0  0  0  0  0  0  0
   25.5067    0.9811   12.6646 C   0  0  1  0  0  0  0  0  0  0  0  0
   25.2400    2.3766   12.9092 O   0  0  0  0  0  0  0  0  0  0  0  0
   18.4924   -3.3611   14.5439 C   0  0  0  0  0  0  0  0  0  0  0  0
   18.0877   -7.3887   17.8307 C   0  0  2  0  0  0  0  0  0  0  0  0
   16.9394   -6.5712   18.2355 N   0  0  0  0  0  0  0  0  0  0  0  0
   23.2568   -6.6933   13.4639 C   0  0  2  0  0  0  0  0  0  0  0  0
   23.6069   -5.4159   13.9330 O   0  0  0  0  0  0  0  0  0  0  0  0
   26.0617   -2.5686   13.5871 C   0  0  1  0  0  0  0  0  0  0  0  0
   27.1951   -3.3978   13.3105 O   0  0  0  0  0  0  0  0  0  0  0  0
   27.0061    0.7549   12.8169 C   0  0  1  0  0  0  0  0  0  0  0  0
   27.6673    1.7833   12.0716 O   0  0  0  0  0  0  0  0  0  0  0  0
   19.1180   -2.2372   15.4221 C   0  0  2  0  0  0  0  0  0  0  0  0
   20.0837   -1.4867   14.7077 O   0  0  0  0  0  0  0  0  0  0  0  0
   18.5261   -7.0273   16.3877 C   0  0  2  0  0  0  0  0  0  0  0  0
   22.3777   -6.4095   12.2285 C   0  0  2  0  0  0  0  0  0  0  0  0
   21.0919   -6.2610   12.8096 O   0  0  0  0  0  0  0  0  0  0  0  0
   25.6051   -1.9811   12.1887 C   0  0  2  0  0  0  0  0  0  0  0  0
   24.4986   -1.1355   12.5065 O   0  0  0  0  0  0  0  0  0  0  0  0
   27.4905    0.7889   14.2675 C   0  0  2  0  0  0  0  0  0  0  0  0
   28.8259    0.2585   14.2734 O   0  0  0  0  0  0  0  0  0  0  0  0
   19.7254   -2.8894   16.6889 C   0  0  2  0  0  0  0  0  0  0  0  0
   18.6347   -3.5287   17.4117 O   0  0  0  0  0  0  0  0  0  0  0  0
   19.6813   -7.9182   15.8283 C   0  0  2  0  0  0  0  0  0  0  0  0
   19.9592   -7.5450   14.4499 O   0  0  0  0  0  0  0  0  0  0  0  0
   22.3277   -7.5034   11.1624 C   0  0  0  0  0  0  0  0  0  0  0  0
   21.4472   -7.0535   10.1222 O   0  0  0  0  0  0  0  0  0  0  0  0
   25.0173   -3.1518   11.4243 C   0  0  1  0  0  0  0  0  0  0  0  0
   24.3081   -4.3128   11.9077 O   0  0  0  0  0  0  0  0  0  0  0  0
   26.5236    0.0640   15.1971 C   0  0  2  0  0  0  0  0  0  0  0  0
   25.1117    0.0432   14.9367 O   0  0  0  0  0  0  0  0  0  0  0  0
   20.3145   -1.8965   17.6322 C   0  0  0  0  0  0  0  0  0  0  0  0
   19.2635   -1.0897   18.1061 O   0  0  0  0  0  0  0  0  0  0  0  0
   19.3390   -9.4382   15.9856 C   0  0  1  0  0  0  0  0  0  0  0  0
   20.5310  -10.1863   15.6269 O   0  0  0  0  0  0  0  0  0  0  0  0
   24.5776   -2.8701    9.9546 C   0  0  0  0  0  0  0  0  0  0  0  0
   25.6945   -2.9229    8.9879 N   0  0  0  0  0  0  0  0  0  0  0  0
   26.7459   -0.0528   16.7034 C   0  0  0  0  0  0  0  0  0  0  0  0
   27.9662   -0.7939   16.9684 O   0  0  0  0  0  0  0  0  0  0  0  0
  1  2  1  6  0  0  0
  1  8  1  0  0  0  0
  1 36  1  0  0  0  0
  3  4  1  6  0  0  0
  3 10  1  0  0  0  0
  3 47  1  0  0  0  0
  5 11  1  0  0  0  0
  5 30  1  0  0  0  0
  5 38  1  6  0  0  0
  6 21  1  1  0  0  0
  6 42  1  0  0  0  0
  7 15  1  0  0  0  0
  7 44  1  0  0  0  0
  7 32  1  6  0  0  0
  8  9  1  6  0  0  0
  8 17  1  0  0  0  0
 11 12  1  1  0  0  0
 11 20  1  0  0  0  0
 13  6  1  0  0  0  0
 13 14  1  6  0  0  0
 15 16  1  1  0  0  0
 15 24  1  0  0  0  0
 17 26  1  0  0  0  0
 18 10  1  0  0  0  0
 18 19  1  6  0  0  0
 20 21  1  1  0  0  0
 20 29  1  0  0  0  0
 22 13  1  0  0  0  0
 22 23  1  6  0  0  0
 24 25  1  6  0  0  0
 24 33  1  0  0  0  0
 26 27  1  6  0  0  0
 26 35  1  0  0  0  0
 28  2  1  1  0  0  0
 28 18  1  0  0  0  0
 29 30  1  0  0  0  0
 29 39  1  6  0  0  0
 31 22  1  0  0  0  0
 31 32  1  1  0  0  0
 31 41  1  0  0  0  0
 33 34  1  6  0  0  0
 33 43  1  0  0  0  0
 35 36  1  0  0  0  0
 35 45  1  1  0  0  0
 37 28  1  0  0  0  0
 37 38  1  6  0  0  0
 39 40  1  0  0  0  0
 41 42  1  0  0  0  0
 41 49  1  6  0  0  0
 43 44  1  0  0  0  0
 43 51  1  1  0  0  0
 45 46  1  0  0  0  0
 47 37  1  0  0  0  0
 47 48  1  1  0  0  0
 49 50  1  0  0  0  0
 51 52  1  0  0  0  0
M  END
>  <CHROM.1>
-92.54602765,69.42053393,-171.26863207,69.28988450,165.32988900,-64.71643468
179.05759213,57.67134584,64.60196022,98.55247991,82.15732283,-62.37904121
22.42858831,-3.99460622,14.51889395,2.64885333,-0.64768867,-2.68853394

>  <Name>
2esj_lig

>  <RI>
1.62275e+07

>  <Rbt.Current_Directory>
/home/itssahil/PROJECTS/Mol_Feturizer/New_Systems/rnas/2esj

>  <Rbt.Executable>
rbdock ($Id: //depot/dev/client3/rdock/2013.1/src/exe/rbdock.cxx#4 $)

>  <Rbt.Library>
libRbt.so (2013.1, Build901 2013/11/27)

>  <Rbt.Parameter_File>
/export/apps/rDock/src/rDock_2013.1_src/data/scripts/dock_solv.prm

>  <Rbt.Receptor>
prm/pocket_docking_5.prm

>  <SCORE>
-19.4223

>  <SCORE.INTER>
-14.0255

>  <SCORE.INTER.CONST>
1

>  <SCORE.INTER.POLAR>
-1.85777

>  <SCORE.INTER.ROT>
12

>  <SCORE.INTER.SOLV>
15.5356

>  <SCORE.INTER.VDW>
-19.9363

>  <SCORE.INTER.norm>
-0.269721

>  <SCORE.INTRA>
-5.39683

>  <SCORE.INTRA.DIHEDRAL>
-16.3733

>  <SCORE.INTRA.DIHEDRAL.0>
32.9766

>  <SCORE.INTRA.POLAR>
0

>  <SCORE.INTRA.POLAR.0>
0

>  <SCORE.INTRA.REPUL>
0

>  <SCORE.INTRA.REPUL.0>
0

>  <SCORE.INTRA.SOLV>
0.817198

>  <SCORE.INTRA.SOLV.lig_0>
-114.358

>  <SCORE.INTRA.VDW>
2.38122

>  <SCORE.INTRA.VDW.0>
-8.24257

>  <SCORE.INTRA.norm>
-0.103785

>  <SCORE.RESTR>
0

>  <SCORE.RESTR.CAVITY>
0

>  <SCORE.RESTR.norm>
0

>  <SCORE.SYSTEM>
0

>  <SCORE.SYSTEM.CONST>
0

>  <SCORE.SYSTEM.DIHEDRAL>
0

>  <SCORE.SYSTEM.SOLV>
0

>  <SCORE.SYSTEM.norm>
0

>  <SCORE.heavy>
52

>  <SCORE.norm>
-0.373507

>  <RMSD>
5.003

$$$$
2esj_lig
 OpenBabel11021811423D
libRbt.so/2013.1/901 2013/11/27
 52 56  0  0  0  0  0  0  0  0999 V2000
   18.7188   -4.7104   18.8376 C   0  0  2  0  0  0  0  0  0  0  0  0
   19.8222   -4.4293   17.9553 O   0  0  0  0  0  0  0  0  0  0  0  0
   17.7938   -4.5888   14.1939 C   0  0  2  0  0  0  0  0  0  0  0  0
   17.4061   -4.4494   12.7805 N   0  0  0  0  0  0  0  0  0  0  0  0
   21.9154   -5.9240   15.5017 C   0  0  1  0  0  0  0  0  0  0  0  0
   25.8807   -5.0460   14.3523 C   0  0  1  0  0  0  0  0  0  0  0  0
   29.9157   -3.6357   17.0283 C   0  0  1  0  0  0  0  0  0  0  0  0
   19.2749   -4.7297   20.2920 C   0  0  2  0  0  0  0  0  0  0  0  0
   19.9500   -3.4806   20.6430 N   0  0  0  0  0  0  0  0  0  0  0  0
   18.0784   -3.1694   14.8276 C   0  0  0  0  0  0  0  0  0  0  0  0
   23.0975   -6.6639   16.1292 C   0  0  2  0  0  0  0  0  0  0  0  0
   23.5107   -6.0784   17.3829 O   0  0  0  0  0  0  0  0  0  0  0  0
   26.9871   -5.5792   15.3685 C   0  0  2  0  0  0  0  0  0  0  0  0
   26.7780   -5.0175   16.7293 N   0  0  0  0  0  0  0  0  0  0  0  0
   29.2835   -2.8567   18.1759 C   0  0  1  0  0  0  0  0  0  0  0  0
   29.6221   -3.4939   19.4240 O   0  0  0  0  0  0  0  0  0  0  0  0
   20.2466   -5.9343   20.5011 C   0  0  0  0  0  0  0  0  0  0  0  0
   18.4352   -3.3346   16.3596 C   0  0  2  0  0  0  0  0  0  0  0  0
   18.7175   -2.0309   16.9693 N   0  0  0  0  0  0  0  0  0  0  0  0
   24.1116   -6.5434   15.0286 C   0  0  2  0  0  0  0  0  0  0  0  0
   24.6636   -5.2514   15.0073 O   0  0  0  0  0  0  0  0  0  0  0  0
   28.4293   -5.3173   14.7469 C   0  0  1  0  0  0  0  0  0  0  0  0
   28.4654   -5.8529   13.4200 O   0  0  0  0  0  0  0  0  0  0  0  0
   29.6905   -1.3912   18.2702 C   0  0  1  0  0  0  0  0  0  0  0  0
   29.1985   -0.8946   19.5198 O   0  0  0  0  0  0  0  0  0  0  0  0
   19.5130   -7.2481   20.0991 C   0  0  2  0  0  0  0  0  0  0  0  0
   20.3132   -8.3922   20.3375 O   0  0  0  0  0  0  0  0  0  0  0  0
   19.6476   -4.2859   16.5333 C   0  0  2  0  0  0  0  0  0  0  0  0
   23.3164   -6.6315   13.7097 C   0  0  2  0  0  0  0  0  0  0  0  0
   22.0635   -6.0807   14.0836 O   0  0  0  0  0  0  0  0  0  0  0  0
   28.7209   -3.7678   14.5950 C   0  0  2  0  0  0  0  0  0  0  0  0
   28.7111   -3.2747   15.9356 O   0  0  0  0  0  0  0  0  0  0  0  0
   31.2015   -1.1649   18.1945 C   0  0  2  0  0  0  0  0  0  0  0  0
   31.4021    0.2419   17.9811 O   0  0  0  0  0  0  0  0  0  0  0  0
   19.1010   -7.1405   18.6099 C   0  0  2  0  0  0  0  0  0  0  0  0
   18.1879   -6.0119   18.4940 O   0  0  0  0  0  0  0  0  0  0  0  0
   19.4814   -5.6692   15.8261 C   0  0  2  0  0  0  0  0  0  0  0  0
   20.6997   -6.4476   15.9883 O   0  0  0  0  0  0  0  0  0  0  0  0
   23.1024   -8.0317   13.1358 C   0  0  0  0  0  0  0  0  0  0  0  0
   22.4327   -7.8846   11.8751 O   0  0  0  0  0  0  0  0  0  0  0  0
   27.4875   -3.1811   13.9357 C   0  0  1  0  0  0  0  0  0  0  0  0
   26.1031   -3.5778   14.0392 O   0  0  0  0  0  0  0  0  0  0  0  0
   31.8486   -2.0575   17.1414 C   0  0  2  0  0  0  0  0  0  0  0  0
   31.3258   -3.3616   16.8449 O   0  0  0  0  0  0  0  0  0  0  0  0
   18.3444   -8.3301   18.1253 C   0  0  0  0  0  0  0  0  0  0  0  0
   18.1082   -8.1484   16.7501 O   0  0  0  0  0  0  0  0  0  0  0  0
   19.0790   -5.4825   14.3243 C   0  0  1  0  0  0  0  0  0  0  0  0
   18.7570   -6.7978   13.7992 O   0  0  0  0  0  0  0  0  0  0  0  0
   27.5502   -1.6658   13.5710 C   0  0  0  0  0  0  0  0  0  0  0  0
   27.8103   -1.4180   12.1373 N   0  0  0  0  0  0  0  0  0  0  0  0
   33.3482   -2.0537   16.8535 C   0  0  0  0  0  0  0  0  0  0  0  0
   33.5988   -2.5769   15.5223 O   0  0  0  0  0  0  0  0  0  0  0  0
  1  2  1  6  0  0  0
  1  8  1  0  0  0  0
  1 36  1  0  0  0  0
  3  4  1  6  0  0  0
  3 10  1  0  0  0  0
  3 47  1  0  0  0  0
  5 11  1  0  0  0  0
  5 30  1  0  0  0  0
  5 38  1  1  0  0  0
  6 21  1  1  0  0  0
  6 42  1  0  0  0  0
  7 15  1  0  0  0  0
  7 44  1  0  0  0  0
  7 32  1  6  0  0  0
  8  9  1  6  0  0  0
  8 17  1  0  0  0  0
 11 12  1  1  0  0  0
 11 20  1  0  0  0  0
 13  6  1  0  0  0  0
 13 14  1  1  0  0  0
 15 16  1  1  0  0  0
 15 24  1  0  0  0  0
 17 26  1  0  0  0  0
 18 10  1  0  0  0  0
 18 19  1  6  0  0  0
 20 21  1  1  0  0  0
 20 29  1  0  0  0  0
 22 13  1  0  0  0  0
 22 23  1  6  0  0  0
 24 25  1  1  0  0  0
 24 33  1  0  0  0  0
 26 27  1  6  0  0  0
 26 35  1  0  0  0  0
 28  2  1  1  0  0  0
 28 18  1  0  0  0  0
 29 30  1  0  0  0  0
 29 39  1  1  0  0  0
 31 22  1  0  0  0  0
 31 32  1  1  0  0  0
 31 41  1  0  0  0  0
 33 34  1  6  0  0  0
 33 43  1  0  0  0  0
 35 36  1  0  0  0  0
 35 45  1  1  0  0  0
 37 28  1  0  0  0  0
 37 38  1  6  0  0  0
 39 40  1  0  0  0  0
 41 42  1  0  0  0  0
 41 49  1  1  0  0  0
 43 44  1  0  0  0  0
 43 51  1  1  0  0  0
 45 46  1  0  0  0  0
 47 37  1  0  0  0  0
 47 48  1  1  0  0  0
 49 50  1  0  0  0  0
 51 52  1  0  0  0  0
M  END
>  <CHROM.1>
-177.44707066,162.90768041,-78.47822898,-178.91521394,160.84619801,47.44721711
-175.97853924,70.45719587,-176.24686818,-58.86805247,101.71405874,-158.14964248
24.10029734,-4.64437549,16.30485780,3.10017458,-0.28410997,-1.80615875

>  <Name>
2esj_lig

>  <RI>
1.62275e+07

>  <Rbt.Current_Directory>
/home/itssahil/PROJECTS/Mol_Feturizer/New_Systems/rnas/2esj

>  <Rbt.Executable>
rbdock ($Id: //depot/dev/client3/rdock/2013.1/src/exe/rbdock.cxx#4 $)

>  <Rbt.Library>
libRbt.so (2013.1, Build901 2013/11/27)

>  <Rbt.Parameter_File>
/export/apps/rDock/src/rDock_2013.1_src/data/scripts/dock_solv.prm

>  <Rbt.Receptor>
prm/pocket_docking_5.prm

>  <SCORE>
-12.2169

>  <SCORE.INTER>
-2.53256

>  <SCORE.INTER.CONST>
1

>  <SCORE.INTER.POLAR>
-0.824621

>  <SCORE.INTER.ROT>
12

>  <SCORE.INTER.SOLV>
15.0437

>  <SCORE.INTER.VDW>
-15.5542

>  <SCORE.INTER.norm>
-0.0487031

>  <SCORE.INTRA>
-9.68433

>  <SCORE.INTRA.DIHEDRAL>
-21.3849

>  <SCORE.INTRA.DIHEDRAL.0>
32.9766

>  <SCORE.INTRA.POLAR>
0

>  <SCORE.INTRA.POLAR.0>
0

>  <SCORE.INTRA.REPUL>
0

>  <SCORE.INTRA.REPUL.0>
0

>  <SCORE.INTRA.SOLV>
-2.40822

>  <SCORE.INTRA.SOLV.lig_0>
-114.358

>  <SCORE.INTRA.VDW>
2.21223

>  <SCORE.INTRA.VDW.0>
-8.24257

>  <SCORE.INTRA.norm>
-0.186237

>  <SCORE.RESTR>
0

>  <SCORE.RESTR.CAVITY>
0

>  <SCORE.RESTR.norm>
0

>  <SCORE.SYSTEM>
0

>  <SCORE.SYSTEM.CONST>
0

>  <SCORE.SYSTEM.DIHEDRAL>
0

>  <SCORE.SYSTEM.SOLV>
0

>  <SCORE.SYSTEM.norm>
0

>  <SCORE.heavy>
52

>  <SCORE.norm>
-0.23494

>  <RMSD>
5.021

$$$$
2esj_lig
 OpenBabel11021811423D
libRbt.so/2013.1/901 2013/11/27
 52 56  0  0  0  0  0  0  0  0999 V2000
   21.2946  -10.2403   17.0438 C   0  0  2  0  0  0  0  0  0  0  0  0
   20.1000   -9.5676   16.6022 O   0  0  0  0  0  0  0  0  0  0  0  0
   18.1889   -5.8983   17.6848 C   0  0  2  0  0  0  0  0  0  0  0  0
   17.8727   -4.4870   17.9601 N   0  0  0  0  0  0  0  0  0  0  0  0
   20.0775   -7.0756   13.8226 C   0  0  1  0  0  0  0  0  0  0  0  0
   22.6939   -4.8859   11.3974 C   0  0  1  0  0  0  0  0  0  0  0  0
   26.4126   -2.0995   13.8427 C   0  0  1  0  0  0  0  0  0  0  0  0
   22.3315  -10.1634   15.8846 C   0  0  2  0  0  0  0  0  0  0  0  0
   22.6010   -8.7858   15.4736 N   0  0  0  0  0  0  0  0  0  0  0  0
   19.4627   -6.3458   18.5060 C   0  0  0  0  0  0  0  0  0  0  0  0
   20.1538   -7.3993   12.3300 C   0  0  2  0  0  0  0  0  0  0  0  0
   21.0319   -8.5115   12.0520 O   0  0  0  0  0  0  0  0  0  0  0  0
   24.2159   -5.0728   11.8330 C   0  0  2  0  0  0  0  0  0  0  0  0
   24.3340   -5.2372   13.3061 N   0  0  0  0  0  0  0  0  0  0  0  0
   27.2192   -3.2040   13.1697 C   0  0  1  0  0  0  0  0  0  0  0  0
   28.5475   -2.7176   12.8909 O   0  0  0  0  0  0  0  0  0  0  0  0
   21.8555  -11.0000   14.6547 C   0  0  0  0  0  0  0  0  0  0  0  0
   19.7513   -7.8786   18.2435 C   0  0  2  0  0  0  0  0  0  0  0  0
   20.9386   -8.3166   18.9847 N   0  0  0  0  0  0  0  0  0  0  0  0
   20.6346   -6.0840   11.7887 C   0  0  2  0  0  0  0  0  0  0  0  0
   22.0083   -5.9225   12.0362 O   0  0  0  0  0  0  0  0  0  0  0  0
   25.0795   -3.8854   11.2172 C   0  0  1  0  0  0  0  0  0  0  0  0
   24.8195   -3.8047    9.8120 O   0  0  0  0  0  0  0  0  0  0  0  0
   27.3490   -4.4949   13.9691 C   0  0  1  0  0  0  0  0  0  0  0  0
   28.3181   -5.3106   13.3017 O   0  0  0  0  0  0  0  0  0  0  0  0
   21.5533  -12.4546   15.1223 C   0  0  2  0  0  0  0  0  0  0  0  0
   21.1890  -13.2911   14.0390 O   0  0  0  0  0  0  0  0  0  0  0  0
   19.9338   -8.1428   16.7263 C   0  0  2  0  0  0  0  0  0  0  0  0
   19.9681   -4.9994   12.6600 C   0  0  2  0  0  0  0  0  0  0  0  0
   19.8308   -5.6651   13.9054 O   0  0  0  0  0  0  0  0  0  0  0  0
   24.6476   -2.4845   11.8172 C   0  0  2  0  0  0  0  0  0  0  0  0
   24.9517   -2.5889   13.2090 O   0  0  0  0  0  0  0  0  0  0  0  0
   27.7806   -4.2802   15.4209 C   0  0  2  0  0  0  0  0  0  0  0  0
   27.5553   -5.5206   16.1104 O   0  0  0  0  0  0  0  0  0  0  0  0
   20.4415  -12.3996   16.1993 C   0  0  2  0  0  0  0  0  0  0  0  0
   20.9591  -11.6213   17.3162 O   0  0  0  0  0  0  0  0  0  0  0  0
   18.7604   -7.6154   15.8397 C   0  0  2  0  0  0  0  0  0  0  0  0
   19.0689   -7.8467   14.4370 O   0  0  0  0  0  0  0  0  0  0  0  0
   18.5987   -4.5018   12.1987 C   0  0  0  0  0  0  0  0  0  0  0  0
   18.7672   -3.9136   10.9005 O   0  0  0  0  0  0  0  0  0  0  0  0
   23.1337   -2.4512   11.7321 C   0  0  1  0  0  0  0  0  0  0  0  0
   22.1754   -3.5267   11.8297 O   0  0  0  0  0  0  0  0  0  0  0  0
   27.0753   -3.0799   16.0424 C   0  0  2  0  0  0  0  0  0  0  0  0
   26.7056   -1.9397   15.2519 O   0  0  0  0  0  0  0  0  0  0  0  0
   20.1015  -13.7395   16.7574 C   0  0  0  0  0  0  0  0  0  0  0  0
   21.2613  -14.2474   17.3714 O   0  0  0  0  0  0  0  0  0  0  0  0
   18.4585   -6.1109   16.1520 C   0  0  1  0  0  0  0  0  0  0  0  0
   17.2441   -5.7590   15.4373 O   0  0  0  0  0  0  0  0  0  0  0  0
   22.4435   -1.1220   12.1676 C   0  0  0  0  0  0  0  0  0  0  0  0
   22.8064   -0.6933   13.5348 N   0  0  0  0  0  0  0  0  0  0  0  0
   27.3191   -2.6222   17.4787 C   0  0  0  0  0  0  0  0  0  0  0  0
   26.1422   -1.9413   17.9885 O   0  0  0  0  0  0  0  0  0  0  0  0
  1  2  1  6  0  0  0
  1  8  1  0  0  0  0
  1 36  1  0  0  0  0
  3  4  1  6  0  0  0
  3 10  1  0  0  0  0
  3 47  1  0  0  0  0
  5 11  1  0  0  0  0
  5 30  1  0  0  0  0
  5 38  1  6  0  0  0
  6 21  1  1  0  0  0
  6 42  1  0  0  0  0
  7 15  1  0  0  0  0
  7 44  1  0  0  0  0
  7 32  1  1  0  0  0
  8  9  1  6  0  0  0
  8 17  1  0  0  0  0
 11 12  1  1  0  0  0
 11 20  1  0  0  0  0
 13  6  1  0  0  0  0
 13 14  1  1  0  0  0
 15 16  1  1  0  0  0
 15 24  1  0  0  0  0
 17 26  1  0  0  0  0
 18 10  1  0  0  0  0
 18 19  1  1  0  0  0
 20 21  1  1  0  0  0
 20 29  1  0  0  0  0
 22 13  1  0  0  0  0
 22 23  1  6  0  0  0
 24 25  1  6  0  0  0
 24 33  1  0  0  0  0
 26 27  1  6  0  0  0
 26 35  1  0  0  0  0
 28  2  1  1  0  0  0
 28 18  1  0  0  0  0
 29 30  1  0  0  0  0
 29 39  1  6  0  0  0
 31 22  1  0  0  0  0
 31 32  1  1  0  0  0
 31 41  1  0  0  0  0
 33 34  1  1  0  0  0
 33 43  1  0  0  0  0
 35 36  1  0  0  0  0
 35 45  1  1  0  0  0
 37 28  1  0  0  0  0
 37 38  1  6  0  0  0
 39 40  1  0  0  0  0
 41 42  1  0  0  0  0
 41 49  1  1  0  0  0
 43 44  1  0  0  0  0
 43 51  1  1  0  0  0
 45 46  1  0  0  0  0
 47 37  1  0  0  0  0
 47 48  1  6  0  0  0
 49 50  1  0  0  0  0
 51 52  1  0  0  0  0
M  END
>  <CHROM.1>
-85.18940454,-175.24990451,-176.28715413,-68.44196293,168.20868839,-71.10005043
-61.47311203,92.29477409,61.51088423,-71.07344008,-55.37519378,-152.85893637
22.44313005,-6.21629836,14.51483081,-2.21604660,-0.21221505,-0.51154306

>  <Name>
2esj_lig

>  <RI>
0

>  <Rbt.Current_Directory>
/home/itssahil/PROJECTS/Mol_Feturizer/New_Systems/rnas/2esj

>  <Rbt.Executable>
rbdock ($Id: //depot/dev/client3/rdock/2013.1/src/exe/rbdock.cxx#4 $)

>  <Rbt.Library>
libRbt.so (2013.1, Build901 2013/11/27)

>  <Rbt.Parameter_File>
/export/apps/rDock/src/rDock_2013.1_src/data/scripts/dock_solv.prm

>  <Rbt.Receptor>
prm/pocket_docking_4.prm

>  <SCORE>
-9.84712

>  <SCORE.INTER>
-6.13864

>  <SCORE.INTER.CONST>
1

>  <SCORE.INTER.POLAR>
-1.32332

>  <SCORE.INTER.ROT>
12

>  <SCORE.INTER.SOLV>
14.09

>  <SCORE.INTER.VDW>
-15.978

>  <SCORE.INTER.norm>
-0.118051

>  <SCORE.INTRA>
-3.74351

>  <SCORE.INTRA.DIHEDRAL>
-18.3781

>  <SCORE.INTRA.DIHEDRAL.0>
32.9766

>  <SCORE.INTRA.POLAR>
0

>  <SCORE.INTRA.POLAR.0>
0

>  <SCORE.INTRA.REPUL>
0

>  <SCORE.INTRA.REPUL.0>
0

>  <SCORE.INTRA.SOLV>
4.00967

>  <SCORE.INTRA.SOLV.lig_0>
-114.358

>  <SCORE.INTRA.VDW>
3.4407

>  <SCORE.INTRA.VDW.0>
-8.24257

>  <SCORE.INTRA.norm>
-0.0719905

>  <SCORE.RESTR>
0.03503

>  <SCORE.RESTR.CAVITY>
0.03503

>  <SCORE.RESTR.norm>
0.000673653

>  <SCORE.SYSTEM>
0

>  <SCORE.SYSTEM.CONST>
0

>  <SCORE.SYSTEM.DIHEDRAL>
0

>  <SCORE.SYSTEM.SOLV>
0

>  <SCORE.SYSTEM.norm>
0

>  <SCORE.heavy>
52

>  <SCORE.norm>
-0.189368

>  <RMSD>
5.068

$$$$
2esj_lig
 OpenBabel11021811423D
libRbt.so/2013.1/901 2013/11/27
 52 56  0  0  0  0  0  0  0  0999 V2000
   18.3186   -3.2693   15.4264 C   0  0  2  0  0  0  0  0  0  0  0  0
   17.8089   -4.0623   16.5155 O   0  0  0  0  0  0  0  0  0  0  0  0
   19.0637   -5.1703   20.4507 C   0  0  2  0  0  0  0  0  0  0  0  0
   19.7707   -5.7379   21.6106 N   0  0  0  0  0  0  0  0  0  0  0  0
   21.2411   -3.0844   17.1090 C   0  0  1  0  0  0  0  0  0  0  0  0
   23.7782   -3.2083   14.1826 C   0  0  1  0  0  0  0  0  0  0  0  0
   28.4724   -3.1584   12.2415 C   0  0  1  0  0  0  0  0  0  0  0  0
   17.2774   -3.3366   14.2704 C   0  0  2  0  0  0  0  0  0  0  0  0
   15.9500   -2.8924   14.6946 N   0  0  0  0  0  0  0  0  0  0  0  0
   18.6320   -6.3190   19.4549 C   0  0  0  0  0  0  0  0  0  0  0  0
   21.9317   -1.9721   16.3189 C   0  0  2  0  0  0  0  0  0  0  0  0
   21.4397   -1.8713   14.9650 O   0  0  0  0  0  0  0  0  0  0  0  0
   24.3641   -4.5566   13.5662 C   0  0  2  0  0  0  0  0  0  0  0  0
   25.5192   -5.0503   14.3617 N   0  0  0  0  0  0  0  0  0  0  0  0
   29.2134   -4.4207   12.6670 C   0  0  1  0  0  0  0  0  0  0  0  0
   30.4856   -4.4737   11.9908 O   0  0  0  0  0  0  0  0  0  0  0  0
   17.1902   -4.7808   13.6823 C   0  0  0  0  0  0  0  0  0  0  0  0
   17.8232   -5.6969   18.2464 C   0  0  2  0  0  0  0  0  0  0  0  0
   17.4219   -6.7420   17.2991 N   0  0  0  0  0  0  0  0  0  0  0  0
   23.3639   -2.4104   16.4234 C   0  0  2  0  0  0  0  0  0  0  0  0
   23.6175   -3.4770   15.5445 O   0  0  0  0  0  0  0  0  0  0  0  0
   24.6606   -4.3313   12.0181 C   0  0  1  0  0  0  0  0  0  0  0  0
   23.4875   -3.7976   11.3953 O   0  0  0  0  0  0  0  0  0  0  0  0
   29.4700   -4.5519   14.1634 C   0  0  1  0  0  0  0  0  0  0  0  0
   30.3665   -5.6536   14.3442 O   0  0  0  0  0  0  0  0  0  0  0  0
   18.6176   -5.2390   13.2601 C   0  0  2  0  0  0  0  0  0  0  0  0
   18.6008   -6.5150   12.6454 O   0  0  0  0  0  0  0  0  0  0  0  0
   18.6701   -4.6138   17.5290 C   0  0  2  0  0  0  0  0  0  0  0  0
   23.5126   -3.0379   17.8247 C   0  0  2  0  0  0  0  0  0  0  0  0
   22.2105   -3.5508   18.0577 O   0  0  0  0  0  0  0  0  0  0  0  0
   25.7963   -3.2492   11.7982 C   0  0  2  0  0  0  0  0  0  0  0  0
   26.9552   -3.8281   12.4000 O   0  0  0  0  0  0  0  0  0  0  0  0
   30.0739   -3.2977   14.7976 C   0  0  2  0  0  0  0  0  0  0  0  0
   29.9635   -3.4562   16.2215 O   0  0  0  0  0  0  0  0  0  0  0  0
   19.5262   -5.2221   14.5144 C   0  0  2  0  0  0  0  0  0  0  0  0
   19.5729   -3.8486   14.9962 O   0  0  0  0  0  0  0  0  0  0  0  0
   19.2315   -3.5078   18.4790 C   0  0  2  0  0  0  0  0  0  0  0  0
   20.0683   -2.5924   17.7186 O   0  0  0  0  0  0  0  0  0  0  0  0
   23.8924   -2.0875   18.9597 C   0  0  0  0  0  0  0  0  0  0  0  0
   24.2490   -2.8901   20.0947 O   0  0  0  0  0  0  0  0  0  0  0  0
   25.4210   -2.0754   12.6824 C   0  0  1  0  0  0  0  0  0  0  0  0
   24.7351   -2.0532   13.9527 O   0  0  0  0  0  0  0  0  0  0  0  0
   29.4249   -2.0290   14.2556 C   0  0  2  0  0  0  0  0  0  0  0  0
   28.9346   -1.9585   12.9079 O   0  0  0  0  0  0  0  0  0  0  0  0
   20.9377   -5.5999   14.2187 C   0  0  0  0  0  0  0  0  0  0  0  0
   20.9371   -6.9463   13.8095 O   0  0  0  0  0  0  0  0  0  0  0  0
   19.9844   -4.1467   19.6945 C   0  0  1  0  0  0  0  0  0  0  0  0
   20.3000   -3.0711   20.6179 O   0  0  0  0  0  0  0  0  0  0  0  0
   26.3285   -0.8110   12.5789 C   0  0  0  0  0  0  0  0  0  0  0  0
   25.8606    0.3164   13.4124 N   0  0  0  0  0  0  0  0  0  0  0  0
   29.8352   -0.6274   14.7017 C   0  0  0  0  0  0  0  0  0  0  0  0
   29.6837   -0.5009   16.1404 O   0  0  0  0  0  0  0  0  0  0  0  0
  1  2  1  1  0  0  0
  1  8  1  0  0  0  0
  1 36  1  0  0  0  0
  3  4  1  1  0  0  0
  3 10  1  0  0  0  0
  3 47  1  0  0  0  0
  5 11  1  0  0  0  0
  5 30  1  0  0  0  0
  5 38  1  1  0  0  0
  6 21  1  1  0  0  0
  6 42  1  0  0  0  0
  7 15  1  0  0  0  0
  7 44  1  0  0  0  0
  7 32  1  1  0  0  0
  8  9  1  1  0  0  0
  8 17  1  0  0  0  0
 11 12  1  6  0  0  0
 11 20  1  0  0  0  0
 13  6  1  0  0  0  0
 13 14  1  1  0  0  0
 15 16  1  6  0  0  0
 15 24  1  0  0  0  0
 17 26  1  0  0  0  0
 18 10  1  0  0  0  0
 18 19  1  6  0  0  0
 20 21  1  6  0  0  0
 20 29  1  0  0  0  0
 22 13  1  0  0  0  0
 22 23  1  6  0  0  0
 24 25  1  6  0  0  0
 24 33  1  0  0  0  0
 26 27  1  1  0  0  0
 26 35  1  0  0  0  0
 28  2  1  6  0  0  0
 28 18  1  0  0  0  0
 29 30  1  0  0  0  0
 29 39  1  1  0  0  0
 31 22  1  0  0  0  0
 31 32  1  1  0  0  0
 31 41  1  0  0  0  0
 33 34  1  1  0  0  0
 33 43  1  0  0  0  0
 35 36  1  0  0  0  0
 35 45  1  6  0  0  0
 37 28  1  0  0  0  0
 37 38  1  6  0  0  0
 39 40  1  0  0  0  0
 41 42  1  0  0  0  0
 41 49  1  1  0  0  0
 43 44  1  0  0  0  0
 43 51  1  6  0  0  0
 45 46  1  0  0  0  0
 47 37  1  0  0  0  0
 47 48  1  1  0  0  0
 49 50  1  0  0  0  0
 51 52  1  0  0  0  0
M  END
>  <CHROM.1>
157.43664887,177.66637204,167.64000680,-162.63058968,77.02797237,-164.27097123
-168.22183149,171.24764251,-65.51249273,-63.09725910,176.86010386,-57.64734187
23.20276205,-3.65722586,15.40310220,2.84204847,0.19950712,1.45338266

>  <Name>
2esj_lig

>  <RI>
0

>  <Rbt.Current_Directory>
/home/itssahil/PROJECTS/Mol_Feturizer/New_Systems/rnas/2esj

>  <Rbt.Executable>
rbdock ($Id: //depot/dev/client3/rdock/2013.1/src/exe/rbdock.cxx#4 $)

>  <Rbt.Library>
libRbt.so (2013.1, Build901 2013/11/27)

>  <Rbt.Parameter_File>
/export/apps/rDock/src/rDock_2013.1_src/data/scripts/dock_solv.prm

>  <Rbt.Receptor>
prm/pocket_docking_4.prm

>  <SCORE>
-11.4433

>  <SCORE.INTER>
-2.35578

>  <SCORE.INTER.CONST>
1

>  <SCORE.INTER.POLAR>
-0.782021

>  <SCORE.INTER.ROT>
12

>  <SCORE.INTER.SOLV>
16.8384

>  <SCORE.INTER.VDW>
-16.1766

>  <SCORE.INTER.norm>
-0.0453035

>  <SCORE.INTRA>
-9.08749

>  <SCORE.INTRA.DIHEDRAL>
-20.1081

>  <SCORE.INTRA.DIHEDRAL.0>
32.9766

>  <SCORE.INTRA.POLAR>
0

>  <SCORE.INTRA.POLAR.0>
0

>  <SCORE.INTRA.REPUL>
0

>  <SCORE.INTRA.REPUL.0>
0

>  <SCORE.INTRA.SOLV>
-0.903547

>  <SCORE.INTRA.SOLV.lig_0>
-114.358

>  <SCORE.INTRA.VDW>
1.41835

>  <SCORE.INTRA.VDW.0>
-8.24257

>  <SCORE.INTRA.norm>
-0.174759

>  <SCORE.RESTR>
0

>  <SCORE.RESTR.CAVITY>
0

>  <SCORE.RESTR.norm>
0

>  <SCORE.SYSTEM>
0

>  <SCORE.SYSTEM.CONST>
0

>  <SCORE.SYSTEM.DIHEDRAL>
0

>  <SCORE.SYSTEM.SOLV>
0

>  <SCORE.SYSTEM.norm>
0

>  <SCORE.heavy>
52

>  <SCORE.norm>
-0.220063

>  <RMSD>
5.112

$$$$
2esj_lig
 OpenBabel11021811423D
libRbt.so/2013.1/901 2013/11/27
 52 56  0  0  0  0  0  0  0  0999 V2000
   18.1176   -7.1553   16.0590 C   0  0  2  0  0  0  0  0  0  0  0  0
   18.7297   -6.1750   16.9188 O   0  0  0  0  0  0  0  0  0  0  0  0
   18.1110   -4.9535   20.9702 C   0  0  2  0  0  0  0  0  0  0  0  0
   17.9577   -4.9071   22.4336 N   0  0  0  0  0  0  0  0  0  0  0  0
   21.9713   -4.8349   18.0537 C   0  0  1  0  0  0  0  0  0  0  0  0
   23.8563   -2.6721   15.0464 C   0  0  1  0  0  0  0  0  0  0  0  0
   28.2869   -0.1953   14.7246 C   0  0  1  0  0  0  0  0  0  0  0  0
   18.8911   -8.4934   16.2491 C   0  0  2  0  0  0  0  0  0  0  0  0
   18.9102   -8.9280   17.6455 N   0  0  0  0  0  0  0  0  0  0  0  0
   17.1061   -6.0013   20.3458 C   0  0  0  0  0  0  0  0  0  0  0  0
   21.5058   -4.4838   16.6399 C   0  0  2  0  0  0  0  0  0  0  0  0
   22.0501   -5.3763   15.6436 O   0  0  0  0  0  0  0  0  0  0  0  0
   25.1936   -3.5165   14.8467 C   0  0  2  0  0  0  0  0  0  0  0  0
   26.0826   -3.3981   16.0326 N   0  0  0  0  0  0  0  0  0  0  0  0
   28.9891   -0.3009   13.3758 C   0  0  1  0  0  0  0  0  0  0  0  0
   29.3403    1.0210   12.9199 O   0  0  0  0  0  0  0  0  0  0  0  0
   20.3523   -8.3738   15.7111 C   0  0  0  0  0  0  0  0  0  0  0  0
   17.2438   -5.9941   18.7702 C   0  0  2  0  0  0  0  0  0  0  0  0
   16.3300   -6.9692   18.1660 N   0  0  0  0  0  0  0  0  0  0  0  0
   21.9961   -3.0687   16.5337 C   0  0  2  0  0  0  0  0  0  0  0  0
   23.3827   -3.0439   16.3075 O   0  0  0  0  0  0  0  0  0  0  0  0
   25.8620   -3.1061   13.4611 C   0  0  1  0  0  0  0  0  0  0  0  0
   24.8790   -3.2064   12.4255 O   0  0  0  0  0  0  0  0  0  0  0  0
   30.2521   -1.1536   13.3643 C   0  0  1  0  0  0  0  0  0  0  0  0
   30.8923   -0.9450   12.1006 O   0  0  0  0  0  0  0  0  0  0  0  0
   20.3057   -7.8879   14.2321 C   0  0  2  0  0  0  0  0  0  0  0  0
   21.5981   -7.8311   13.6554 O   0  0  0  0  0  0  0  0  0  0  0  0
   18.7070   -6.2947   18.3535 C   0  0  2  0  0  0  0  0  0  0  0  0
   21.8364   -2.4593   17.9417 C   0  0  2  0  0  0  0  0  0  0  0  0
   22.0014   -3.5956   18.7751 O   0  0  0  0  0  0  0  0  0  0  0  0
   26.3272   -1.5919   13.4694 C   0  0  2  0  0  0  0  0  0  0  0  0
   27.3281   -1.5368   14.4871 O   0  0  0  0  0  0  0  0  0  0  0  0
   31.2321   -0.8191   14.4903 C   0  0  2  0  0  0  0  0  0  0  0  0
   32.1930   -1.8864   14.5373 O   0  0  0  0  0  0  0  0  0  0  0  0
   19.6029   -6.5082   14.1939 C   0  0  2  0  0  0  0  0  0  0  0  0
   18.2478   -6.6990   14.6920 O   0  0  0  0  0  0  0  0  0  0  0  0
   19.7678   -5.3688   19.0305 C   0  0  2  0  0  0  0  0  0  0  0  0
   21.1029   -5.7852   18.6301 O   0  0  0  0  0  0  0  0  0  0  0  0
   20.4937   -1.7973   18.2490 C   0  0  0  0  0  0  0  0  0  0  0  0
   20.3447   -0.6856   17.3537 O   0  0  0  0  0  0  0  0  0  0  0  0
   25.1502   -0.8043   14.0121 C   0  0  1  0  0  0  0  0  0  0  0  0
   24.1461   -1.1841   14.9776 O   0  0  0  0  0  0  0  0  0  0  0  0
   30.5063   -0.5702   15.8078 C   0  0  2  0  0  0  0  0  0  0  0  0
   29.1908    0.0046   15.8383 O   0  0  0  0  0  0  0  0  0  0  0  0
   19.4583   -5.9639   12.8135 C   0  0  0  0  0  0  0  0  0  0  0  0
   18.8894   -4.6815   12.9231 O   0  0  0  0  0  0  0  0  0  0  0  0
   19.5811   -5.3513   20.5852 C   0  0  1  0  0  0  0  0  0  0  0  0
   20.4674   -4.3289   21.1129 O   0  0  0  0  0  0  0  0  0  0  0  0
   25.3034    0.7478   14.0304 C   0  0  0  0  0  0  0  0  0  0  0  0
   25.6836    1.2840   15.3543 N   0  0  0  0  0  0  0  0  0  0  0  0
   31.2303   -0.2058   17.1019 C   0  0  0  0  0  0  0  0  0  0  0  0
   32.2090   -1.2282   17.4271 O   0  0  0  0  0  0  0  0  0  0  0  0
  1  2  1  1  0  0  0
  1  8  1  0  0  0  0
  1 36  1  0  0  0  0
  3  4  1  1  0  0  0
  3 10  1  0  0  0  0
  3 47  1  0  0  0  0
  5 11  1  0  0  0  0
  5 30  1  0  0  0  0
  5 38  1  1  0  0  0
  6 21  1  1  0  0  0
  6 42  1  0  0  0  0
  7 15  1  0  0  0  0
  7 44  1  0  0  0  0
  7 32  1  1  0  0  0
  8  9  1  1  0  0  0
  8 17  1  0  0  0  0
 11 12  1  6  0  0  0
 11 20  1  0  0  0  0
 13  6  1  0  0  0  0
 13 14  1  1  0  0  0
 15 16  1  1  0  0  0
 15 24  1  0  0  0  0
 17 26  1  0  0  0  0
 18 10  1  0  0  0  0
 18 19  1  6  0  0  0
 20 21  1  1  0  0  0
 20 29  1  0  0  0  0
 22 13  1  0  0  0  0
 22 23  1  6  0  0  0
 24 25  1  6  0  0  0
 24 33  1  0  0  0  0
 26 27  1  1  0  0  0
 26 35  1  0  0  0  0
 28  2  1  6  0  0  0
 28 18  1  0  0  0  0
 29 30  1  0  0  0  0
 29 39  1  6  0  0  0
 31 22  1  0  0  0  0
 31 32  1  1  0  0  0
 31 41  1  0  0  0  0
 33 34  1  1  0  0  0
 33 43  1  0  0  0  0
 35 36  1  0  0  0  0
 35 45  1  6  0  0  0
 37 28  1  0  0  0  0
 37 38  1  1  0  0  0
 39 40  1  0  0  0  0
 41 42  1  0  0  0  0
 41 49  1  1  0  0  0
 43 44  1  0  0  0  0
 43 51  1  1  0  0  0
 45 46  1  0  0  0  0
 47 37  1  0  0  0  0
 47 48  1  1  0  0  0
 49 50  1  0  0  0  0
 51 52  1  0  0  0  0
M  END
>  <CHROM.1>
-64.70167840,-71.69341765,-147.65518283,-65.05132516,108.17654603,-72.15355862
-63.04771168,170.68464821,-176.27129009,125.45677411,-99.29398916,-57.04542316
23.30516029,-3.61201725,16.10638256,3.04663662,0.53415897,1.22223122

>  <Name>
2esj_lig

>  <RI>
0

>  <Rbt.Current_Directory>
/home/itssahil/PROJECTS/Mol_Feturizer/New_Systems/rnas/2esj

>  <Rbt.Executable>
rbdock ($Id: //depot/dev/client3/rdock/2013.1/src/exe/rbdock.cxx#4 $)

>  <Rbt.Library>
libRbt.so (2013.1, Build901 2013/11/27)

>  <Rbt.Parameter_File>
/export/apps/rDock/src/rDock_2013.1_src/data/scripts/dock_solv.prm

>  <Rbt.Receptor>
prm/pocket_docking_4.prm

>  <SCORE>
-6.76702

>  <SCORE.INTER>
-5.78012

>  <SCORE.INTER.CONST>
1

>  <SCORE.INTER.POLAR>
-1.61823

>  <SCORE.INTER.ROT>
12

>  <SCORE.INTER.SOLV>
17.131

>  <SCORE.INTER.VDW>
-15.7696

>  <SCORE.INTER.norm>
-0.111156

>  <SCORE.INTRA>
-0.986904

>  <SCORE.INTRA.DIHEDRAL>
-8.27645

>  <SCORE.INTRA.DIHEDRAL.0>
32.9766

>  <SCORE.INTRA.POLAR>
0

>  <SCORE.INTRA.POLAR.0>
0

>  <SCORE.INTRA.REPUL>
0

>  <SCORE.INTRA.REPUL.0>
0

>  <SCORE.INTRA.SOLV>
3.38041

>  <SCORE.INTRA.SOLV.lig_0>
-114.358

>  <SCORE.INTRA.VDW>
1.46112

>  <SCORE.INTRA.VDW.0>
-8.24257

>  <SCORE.INTRA.norm>
-0.0189789

>  <SCORE.RESTR>
0

>  <SCORE.RESTR.CAVITY>
0

>  <SCORE.RESTR.norm>
0

>  <SCORE.SYSTEM>
0

>  <SCORE.SYSTEM.CONST>
0

>  <SCORE.SYSTEM.DIHEDRAL>
0

>  <SCORE.SYSTEM.SOLV>
0

>  <SCORE.SYSTEM.norm>
0

>  <SCORE.heavy>
52

>  <SCORE.norm>
-0.130135

>  <RMSD>
5.115

$$$$
2esj_lig
 OpenBabel11021811423D
libRbt.so/2013.1/901 2013/11/27
 52 56  0  0  0  0  0  0  0  0999 V2000
   20.5783   -7.7747   13.1084 C   0  0  2  0  0  0  0  0  0  0  0  0
   19.4413   -7.5421   13.9617 O   0  0  0  0  0  0  0  0  0  0  0  0
   18.0310   -9.4555   17.5167 C   0  0  2  0  0  0  0  0  0  0  0  0
   17.8890  -10.0044   18.8753 N   0  0  0  0  0  0  0  0  0  0  0  0
   19.5983   -5.2737   16.5495 C   0  0  1  0  0  0  0  0  0  0  0  0
   22.3665   -2.3432   16.8207 C   0  0  1  0  0  0  0  0  0  0  0  0
   27.2755   -2.2981   16.3126 C   0  0  1  0  0  0  0  0  0  0  0  0
   21.7825   -6.9905   13.7082 C   0  0  2  0  0  0  0  0  0  0  0  0
   22.0540   -7.3689   15.0947 N   0  0  0  0  0  0  0  0  0  0  0  0
   19.3289  -10.0329   16.8241 C   0  0  0  0  0  0  0  0  0  0  0  0
   19.4603   -3.7557   16.6722 C   0  0  2  0  0  0  0  0  0  0  0  0
   19.7377   -3.0753   15.4290 O   0  0  0  0  0  0  0  0  0  0  0  0
   23.5900   -2.8168   15.9152 C   0  0  2  0  0  0  0  0  0  0  0  0
   24.4061   -3.8446   16.6144 N   0  0  0  0  0  0  0  0  0  0  0  0
   27.8265   -3.1453   17.4537 C   0  0  1  0  0  0  0  0  0  0  0  0
   28.4732   -4.3123   16.9075 O   0  0  0  0  0  0  0  0  0  0  0  0
   21.5456   -5.4496   13.6159 C   0  0  0  0  0  0  0  0  0  0  0  0
   19.4325   -9.4788   15.3464 C   0  0  2  0  0  0  0  0  0  0  0  0
   20.6376   -9.9897   14.6849 N   0  0  0  0  0  0  0  0  0  0  0  0
   20.4545   -3.4775   17.7624 C   0  0  2  0  0  0  0  0  0  0  0  0
   21.7649   -3.5264   17.2577 O   0  0  0  0  0  0  0  0  0  0  0  0
   24.3978   -1.5349   15.4260 C   0  0  1  0  0  0  0  0  0  0  0  0
   23.4813   -0.6091   14.8331 O   0  0  0  0  0  0  0  0  0  0  0  0
   28.8220   -2.4397   18.3666 C   0  0  1  0  0  0  0  0  0  0  0  0
   29.4006   -3.4382   19.2142 O   0  0  0  0  0  0  0  0  0  0  0  0
   21.2360   -5.0759   12.1360 C   0  0  2  0  0  0  0  0  0  0  0  0
   21.0860   -3.6778   11.9661 O   0  0  0  0  0  0  0  0  0  0  0  0
   19.4339   -7.9280   15.3489 C   0  0  2  0  0  0  0  0  0  0  0  0
   20.3785   -4.6834   18.7214 C   0  0  2  0  0  0  0  0  0  0  0  0
   20.0103   -5.7354   17.8434 O   0  0  0  0  0  0  0  0  0  0  0  0
   25.0586   -0.7679   16.6443 C   0  0  2  0  0  0  0  0  0  0  0  0
   25.9879   -1.7063   17.1886 O   0  0  0  0  0  0  0  0  0  0  0  0
   29.9343   -1.7057   17.6156 C   0  0  2  0  0  0  0  0  0  0  0  0
   30.5875   -0.8517   18.5688 O   0  0  0  0  0  0  0  0  0  0  0  0
   19.9653   -5.8437   11.6946 C   0  0  2  0  0  0  0  0  0  0  0  0
   20.2639   -7.2659   11.7908 O   0  0  0  0  0  0  0  0  0  0  0  0
   18.2370   -7.2887   16.1233 C   0  0  2  0  0  0  0  0  0  0  0  0
   18.3780   -5.8407   16.1267 O   0  0  0  0  0  0  0  0  0  0  0  0
   19.3571   -4.5892   19.8543 C   0  0  0  0  0  0  0  0  0  0  0  0
   19.7896   -3.5468   20.7408 O   0  0  0  0  0  0  0  0  0  0  0  0
   23.9632   -0.6290   17.6841 C   0  0  1  0  0  0  0  0  0  0  0  0
   22.8556   -1.5042   17.9870 O   0  0  0  0  0  0  0  0  0  0  0  0
   29.3953   -0.9790   16.3884 C   0  0  2  0  0  0  0  0  0  0  0  0
   28.2788   -1.4938   15.6466 O   0  0  0  0  0  0  0  0  0  0  0  0
   19.5992   -5.5982   10.2705 C   0  0  0  0  0  0  0  0  0  0  0  0
   18.4071   -6.3006   10.0143 O   0  0  0  0  0  0  0  0  0  0  0  0
   18.1224   -7.8882   17.5654 C   0  0  1  0  0  0  0  0  0  0  0  0
   16.8844   -7.3916   18.1399 O   0  0  0  0  0  0  0  0  0  0  0  0
   24.3198    0.1910   18.9621 C   0  0  0  0  0  0  0  0  0  0  0  0
   25.7466    0.5695   19.0369 N   0  0  0  0  0  0  0  0  0  0  0  0
   30.2811   -0.1708   15.4430 C   0  0  0  0  0  0  0  0  0  0  0  0
   30.4187   -0.8671   14.1761 O   0  0  0  0  0  0  0  0  0  0  0  0
  1  2  1  1  0  0  0
  1  8  1  0  0  0  0
  1 36  1  0  0  0  0
  3  4  1  1  0  0  0
  3 10  1  0  0  0  0
  3 47  1  0  0  0  0
  5 11  1  0  0  0  0
  5 30  1  0  0  0  0
  5 38  1  1  0  0  0
  6 21  1  1  0  0  0
  6 42  1  0  0  0  0
  7 15  1  0  0  0  0
  7 44  1  0  0  0  0
  7 32  1  1  0  0  0
  8  9  1  1  0  0  0
  8 17  1  0  0  0  0
 11 12  1  6  0  0  0
 11 20  1  0  0  0  0
 13  6  1  0  0  0  0
 13 14  1  1  0  0  0
 15 16  1  6  0  0  0
 15 24  1  0  0  0  0
 17 26  1  0  0  0  0
 18 10  1  0  0  0  0
 18 19  1  1  0  0  0
 20 21  1  6  0  0  0
 20 29  1  0  0  0  0
 22 13  1  0  0  0  0
 22 23  1  1  0  0  0
 24 25  1  1  0  0  0
 24 33  1  0  0  0  0
 26 27  1  1  0  0  0
 26 35  1  0  0  0  0
 28  2  1  6  0  0  0
 28 18  1  0  0  0  0
 29 30  1  0  0  0  0
 29 39  1  1  0  0  0
 31 22  1  0  0  0  0
 31 32  1  1  0  0  0
 31 41  1  0  0  0  0
 33 34  1  1  0  0  0
 33 43  1  0  0  0  0
 35 36  1  0  0  0  0
 35 45  1  6  0  0  0
 37 28  1  0  0  0  0
 37 38  1  1  0  0  0
 39 40  1  0  0  0  0
 41 42  1  0  0  0  0
 41 49  1  1  0  0  0
 43 44  1  0  0  0  0
 43 51  1  6  0  0  0
 45 46  1  0  0  0  0
 47 37  1  0  0  0  0
 47 48  1  6  0  0  0
 49 50  1  0  0  0  0
 51 52  1  0  0  0  0
M  END
>  <CHROM.1>
-60.96814591,-171.62251281,-162.37938956,178.16173049,93.16522166,-68.19174564
-67.04899751,61.84983960,-177.52304017,-51.63000778,-7.27433335,108.80804911
22.70925350,-4.36378943,16.10793084,-2.86429313,0.54271738,1.35680271

>  <Name>
2esj_lig

>  <RI>
0

>  <Rbt.Current_Directory>
/home/itssahil/PROJECTS/Mol_Feturizer/New_Systems/rnas/2esj

>  <Rbt.Executable>
rbdock ($Id: //depot/dev/client3/rdock/2013.1/src/exe/rbdock.cxx#4 $)

>  <Rbt.Library>
libRbt.so (2013.1, Build901 2013/11/27)

>  <Rbt.Parameter_File>
/export/apps/rDock/src/rDock_2013.1_src/data/scripts/dock_solv.prm

>  <Rbt.Receptor>
prm/pocket_docking_4.prm

>  <SCORE>
-11.1514

>  <SCORE.INTER>
-6.09868

>  <SCORE.INTER.CONST>
1

>  <SCORE.INTER.POLAR>
-0.914739

>  <SCORE.INTER.ROT>
12

>  <SCORE.INTER.SOLV>
9.64959

>  <SCORE.INTER.VDW>
-15.8332

>  <SCORE.INTER.norm>
-0.117282

>  <SCORE.INTRA>
-5.05268

>  <SCORE.INTRA.DIHEDRAL>
-19.5981

>  <SCORE.INTRA.DIHEDRAL.0>
32.9766

>  <SCORE.INTRA.POLAR>
0

>  <SCORE.INTRA.POLAR.0>
0

>  <SCORE.INTRA.REPUL>
0

>  <SCORE.INTRA.REPUL.0>
0

>  <SCORE.INTRA.SOLV>
3.84933

>  <SCORE.INTRA.SOLV.lig_0>
-114.358

>  <SCORE.INTRA.VDW>
2.82173

>  <SCORE.INTRA.VDW.0>
-8.24257

>  <SCORE.INTRA.norm>
-0.097167

>  <SCORE.RESTR>
0

>  <SCORE.RESTR.CAVITY>
0

>  <SCORE.RESTR.norm>
0

>  <SCORE.SYSTEM>
0

>  <SCORE.SYSTEM.CONST>
0

>  <SCORE.SYSTEM.DIHEDRAL>
0

>  <SCORE.SYSTEM.SOLV>
0

>  <SCORE.SYSTEM.norm>
0

>  <SCORE.heavy>
52

>  <SCORE.norm>
-0.214449

>  <RMSD>
5.120

$$$$
2esj_lig
 OpenBabel11021811423D
libRbt.so/2013.1/901 2013/11/27
 52 56  0  0  0  0  0  0  0  0999 V2000
   18.5040   -6.4389   17.4723 C   0  0  2  0  0  0  0  0  0  0  0  0
   17.8367   -5.3708   16.7732 O   0  0  0  0  0  0  0  0  0  0  0  0
   17.8628   -3.5270   12.9148 C   0  0  2  0  0  0  0  0  0  0  0  0
   18.2405   -2.8266   11.6762 N   0  0  0  0  0  0  0  0  0  0  0  0
   20.3663   -6.8377   14.6743 C   0  0  1  0  0  0  0  0  0  0  0  0
   24.3878   -6.8925   14.6997 C   0  0  1  0  0  0  0  0  0  0  0  0
   26.7126   -2.7463   17.1125 C   0  0  1  0  0  0  0  0  0  0  0  0
   17.6542   -6.7769   18.7327 C   0  0  2  0  0  0  0  0  0  0  0  0
   16.2748   -7.1248   18.3930 N   0  0  0  0  0  0  0  0  0  0  0  0
   18.1802   -2.6259   14.1736 C   0  0  0  0  0  0  0  0  0  0  0  0
   20.9507   -8.2499   14.7255 C   0  0  2  0  0  0  0  0  0  0  0  0
   20.9607   -8.7934   16.0633 O   0  0  0  0  0  0  0  0  0  0  0  0
   25.3034   -6.9581   16.0030 C   0  0  2  0  0  0  0  0  0  0  0  0
   24.6101   -6.3589   17.1740 N   0  0  0  0  0  0  0  0  0  0  0  0
   25.8877   -2.7808   18.3939 C   0  0  1  0  0  0  0  0  0  0  0  0
   26.6182   -2.1179   19.4453 O   0  0  0  0  0  0  0  0  0  0  0  0
   17.6670   -5.5903   19.7480 C   0  0  0  0  0  0  0  0  0  0  0  0
   17.7137   -3.3697   15.4892 C   0  0  2  0  0  0  0  0  0  0  0  0
   18.0097   -2.5592   16.6751 N   0  0  0  0  0  0  0  0  0  0  0  0
   22.3153   -8.0026   14.1503 C   0  0  2  0  0  0  0  0  0  0  0  0
   23.1499   -7.3982   15.1055 O   0  0  0  0  0  0  0  0  0  0  0  0
   26.7259   -6.3263   15.6678 C   0  0  1  0  0  0  0  0  0  0  0  0
   27.2431   -6.9507   14.4882 O   0  0  0  0  0  0  0  0  0  0  0  0
   24.5103   -2.1358   18.2990 C   0  0  1  0  0  0  0  0  0  0  0  0
   23.9902   -2.0503   19.6303 O   0  0  0  0  0  0  0  0  0  0  0  0
   19.1450   -5.2242   20.0753 C   0  0  2  0  0  0  0  0  0  0  0  0
   19.2305   -4.2026   21.0527 O   0  0  0  0  0  0  0  0  0  0  0  0
   18.3986   -4.7568   15.5983 C   0  0  2  0  0  0  0  0  0  0  0  0
   22.1293   -6.9132   13.0741 C   0  0  2  0  0  0  0  0  0  0  0  0
   21.0277   -6.1794   13.5850 O   0  0  0  0  0  0  0  0  0  0  0  0
   26.6076   -4.7846   15.3236 C   0  0  2  0  0  0  0  0  0  0  0  0
   26.1230   -4.1911   16.5291 O   0  0  0  0  0  0  0  0  0  0  0  0
   24.5244   -0.7416   17.6698 C   0  0  2  0  0  0  0  0  0  0  0  0
   23.1603   -0.4077   17.3657 O   0  0  0  0  0  0  0  0  0  0  0  0
   19.8490   -4.8137   18.7581 C   0  0  2  0  0  0  0  0  0  0  0  0
   19.8130   -5.9677   17.8705 O   0  0  0  0  0  0  0  0  0  0  0  0
   18.2252   -5.6569   14.3332 C   0  0  2  0  0  0  0  0  0  0  0  0
   18.9664   -6.8958   14.5125 O   0  0  0  0  0  0  0  0  0  0  0  0
   21.8025   -7.3991   11.6625 C   0  0  0  0  0  0  0  0  0  0  0  0
   20.5821   -8.1506   11.7357 O   0  0  0  0  0  0  0  0  0  0  0  0
   25.4690   -4.6730   14.3279 C   0  0  1  0  0  0  0  0  0  0  0  0
   24.2685   -5.4648   14.1993 O   0  0  0  0  0  0  0  0  0  0  0  0
   25.4675   -0.6773   16.4736 C   0  0  2  0  0  0  0  0  0  0  0  0
   26.6594   -1.4761   16.4190 O   0  0  0  0  0  0  0  0  0  0  0  0
   21.2913   -4.4855   18.9438 C   0  0  0  0  0  0  0  0  0  0  0  0
   21.3598   -3.2644   19.6397 O   0  0  0  0  0  0  0  0  0  0  0  0
   18.6447   -4.8839   13.0375 C   0  0  1  0  0  0  0  0  0  0  0  0
   18.2724   -5.7118   11.9038 O   0  0  0  0  0  0  0  0  0  0  0  0
   25.2016   -3.2550   13.7359 C   0  0  0  0  0  0  0  0  0  0  0  0
   24.2811   -3.2662   12.5795 N   0  0  0  0  0  0  0  0  0  0  0  0
   25.6910    0.5930   15.6563 C   0  0  0  0  0  0  0  0  0  0  0  0
   26.3449    1.5996   16.4736 O   0  0  0  0  0  0  0  0  0  0  0  0
  1  2  1  1  0  0  0
  1  8  1  0  0  0  0
  1 36  1  0  0  0  0
  3  4  1  6  0  0  0
  3 10  1  0  0  0  0
  3 47  1  0  0  0  0
  5 11  1  0  0  0  0
  5 30  1  0  0  0  0
  5 38  1  6  0  0  0
  6 21  1  1  0  0  0
  6 42  1  0  0  0  0
  7 15  1  0  0  0  0
  7 44  1  0  0  0  0
  7 32  1  6  0  0  0
  8  9  1  6  0  0  0
  8 17  1  0  0  0  0
 11 12  1  1  0  0  0
 11 20  1  0  0  0  0
 13  6  1  0  0  0  0
 13 14  1  1  0  0  0
 15 16  1  1  0  0  0
 15 24  1  0  0  0  0
 17 26  1  0  0  0  0
 18 10  1  0  0  0  0
 18 19  1  1  0  0  0
 20 21  1  1  0  0  0
 20 29  1  0  0  0  0
 22 13  1  0  0  0  0
 22 23  1  6  0  0  0
 24 25  1  1  0  0  0
 24 33  1  0  0  0  0
 26 27  1  1  0  0  0
 26 35  1  0  0  0  0
 28  2  1  1  0  0  0
 28 18  1  0  0  0  0
 29 30  1  0  0  0  0
 29 39  1  6  0  0  0
 31 22  1  0  0  0  0
 31 32  1  1  0  0  0
 31 41  1  0  0  0  0
 33 34  1  6  0  0  0
 33 43  1  0  0  0  0
 35 36  1  0  0  0  0
 35 45  1  1  0  0  0
 37 28  1  0  0  0  0
 37 38  1  1  0  0  0
 39 40  1  0  0  0  0
 41 42  1  0  0  0  0
 41 49  1  1  0  0  0
 43 44  1  0  0  0  0
 43 51  1  1  0  0  0
 45 46  1  0  0  0  0
 47 37  1  0  0  0  0
 47 48  1  6  0  0  0
 49 50  1  0  0  0  0
 51 52  1  0  0  0  0
M  END
>  <CHROM.1>
176.18814387,-175.15643135,-153.24133680,-175.70629842,-169.74109163,-158.63679012
59.19855071,138.14527002,-70.98376334,-61.85875269,167.98254949,66.02336830
22.02795043,-4.64325138,15.98046304,2.76078536,-0.27899988,-2.20450481

>  <Name>
2esj_lig

>  <RI>
0

>  <Rbt.Current_Directory>
/home/itssahil/PROJECTS/Mol_Feturizer/New_Systems/rnas/2esj

>  <Rbt.Executable>
rbdock ($Id: //depot/dev/client3/rdock/2013.1/src/exe/rbdock.cxx#4 $)

>  <Rbt.Library>
libRbt.so (2013.1, Build901 2013/11/27)

>  <Rbt.Parameter_File>
/export/apps/rDock/src/rDock_2013.1_src/data/scripts/dock_solv.prm

>  <Rbt.Receptor>
prm/pocket_docking_4.prm

>  <SCORE>
-17.9483

>  <SCORE.INTER>
-11.0739

>  <SCORE.INTER.CONST>
1

>  <SCORE.INTER.POLAR>
-1.80442

>  <SCORE.INTER.ROT>
12

>  <SCORE.INTER.SOLV>
16.8887

>  <SCORE.INTER.VDW>
-18.5974

>  <SCORE.INTER.norm>
-0.212959

>  <SCORE.INTRA>
-6.97427

>  <SCORE.INTRA.DIHEDRAL>
-16.2344

>  <SCORE.INTRA.DIHEDRAL.0>
32.9766

>  <SCORE.INTRA.POLAR>
0

>  <SCORE.INTRA.POLAR.0>
0

>  <SCORE.INTRA.REPUL>
0

>  <SCORE.INTRA.REPUL.0>
0

>  <SCORE.INTRA.SOLV>
-1.01314

>  <SCORE.INTRA.SOLV.lig_0>
-114.358

>  <SCORE.INTRA.VDW>
1.64952

>  <SCORE.INTRA.VDW.0>
-8.24257

>  <SCORE.INTRA.norm>
-0.134121

>  <SCORE.RESTR>
0.0998216

>  <SCORE.RESTR.CAVITY>
0.0998216

>  <SCORE.RESTR.norm>
0.00191965

>  <SCORE.SYSTEM>
0

>  <SCORE.SYSTEM.CONST>
0

>  <SCORE.SYSTEM.DIHEDRAL>
0

>  <SCORE.SYSTEM.SOLV>
0

>  <SCORE.SYSTEM.norm>
0

>  <SCORE.heavy>
52

>  <SCORE.norm>
-0.34516

>  <RMSD>
5.128

$$$$
2esj_lig
 OpenBabel11021811423D
libRbt.so/2013.1/901 2013/11/27
 52 56  0  0  0  0  0  0  0  0999 V2000
   20.7750   -7.0333   22.1158 C   0  0  2  0  0  0  0  0  0  0  0  0
   20.7900   -6.5338   20.7648 O   0  0  0  0  0  0  0  0  0  0  0  0
   16.6636   -7.0665   19.7763 C   0  0  2  0  0  0  0  0  0  0  0  0
   15.3392   -7.0306   19.1345 N   0  0  0  0  0  0  0  0  0  0  0  0
   20.3583   -8.0125   17.4278 C   0  0  1  0  0  0  0  0  0  0  0  0
   21.5994   -7.0627   13.5187 C   0  0  1  0  0  0  0  0  0  0  0  0
   24.9336   -3.5903   11.6856 C   0  0  1  0  0  0  0  0  0  0  0  0
   22.1947   -6.8078   22.7145 C   0  0  2  0  0  0  0  0  0  0  0  0
   22.6036   -5.4047   22.6558 N   0  0  0  0  0  0  0  0  0  0  0  0
   17.1810   -5.5986   20.0501 C   0  0  0  0  0  0  0  0  0  0  0  0
   21.6488   -8.6072   16.8625 C   0  0  2  0  0  0  0  0  0  0  0  0
   22.8183   -7.8542   17.2507 O   0  0  0  0  0  0  0  0  0  0  0  0
   23.0902   -7.4999   13.1616 C   0  0  2  0  0  0  0  0  0  0  0  0
   24.0696   -6.8571   14.0773 N   0  0  0  0  0  0  0  0  0  0  0  0
   26.0667   -3.6718   12.7019 C   0  0  1  0  0  0  0  0  0  0  0  0
   27.1789   -2.8819   12.2356 O   0  0  0  0  0  0  0  0  0  0  0  0
   23.2530   -7.6991   21.9902 C   0  0  0  0  0  0  0  0  0  0  0  0
   18.5763   -5.6580   20.7925 C   0  0  2  0  0  0  0  0  0  0  0  0
   19.0857   -4.3065   21.0467 N   0  0  0  0  0  0  0  0  0  0  0  0
   21.3486   -8.5652   15.3920 C   0  0  2  0  0  0  0  0  0  0  0  0
   21.4895   -7.2572   14.8981 O   0  0  0  0  0  0  0  0  0  0  0  0
   23.3478   -7.2409   11.6119 C   0  0  1  0  0  0  0  0  0  0  0  0
   22.2998   -7.8600   10.8589 O   0  0  0  0  0  0  0  0  0  0  0  0
   25.7143   -3.2037   14.1087 C   0  0  1  0  0  0  0  0  0  0  0  0
   26.9379   -3.1271   14.8484 O   0  0  0  0  0  0  0  0  0  0  0  0
   22.7838   -9.1832   22.0462 C   0  0  2  0  0  0  0  0  0  0  0  0
   23.7379  -10.0592   21.4731 O   0  0  0  0  0  0  0  0  0  0  0  0
   19.5987   -6.4727   19.9583 C   0  0  2  0  0  0  0  0  0  0  0  0
   19.8389   -8.8535   15.2604 C   0  0  2  0  0  0  0  0  0  0  0  0
   19.3318   -8.3300   16.4777 O   0  0  0  0  0  0  0  0  0  0  0  0
   23.2757   -5.6973   11.2636 C   0  0  2  0  0  0  0  0  0  0  0  0
   24.3525   -5.1190   12.0028 O   0  0  0  0  0  0  0  0  0  0  0  0
   25.0118   -1.8454   14.1487 C   0  0  2  0  0  0  0  0  0  0  0  0
   24.4743   -1.6930   15.4726 O   0  0  0  0  0  0  0  0  0  0  0  0
   21.4126   -9.2884   21.3336 C   0  0  2  0  0  0  0  0  0  0  0  0
   20.4773   -8.4486   22.0691 O   0  0  0  0  0  0  0  0  0  0  0  0
   19.1008   -7.8959   19.5490 C   0  0  2  0  0  0  0  0  0  0  0  0
   20.1012   -8.5386   18.7108 O   0  0  0  0  0  0  0  0  0  0  0  0
   19.4346  -10.3218   15.1338 C   0  0  0  0  0  0  0  0  0  0  0  0
   20.0090  -10.8253   13.9188 O   0  0  0  0  0  0  0  0  0  0  0  0
   22.0085   -5.1871   11.9225 C   0  0  1  0  0  0  0  0  0  0  0  0
   21.3606   -5.6125   13.1406 O   0  0  0  0  0  0  0  0  0  0  0  0
   23.9797   -1.7165   13.0341 C   0  0  2  0  0  0  0  0  0  0  0  0
   24.1646   -2.3658   11.7668 O   0  0  0  0  0  0  0  0  0  0  0  0
   20.8403  -10.6645   21.3675 C   0  0  0  0  0  0  0  0  0  0  0  0
   19.6804  -10.6588   20.5708 O   0  0  0  0  0  0  0  0  0  0  0  0
   17.6958   -7.8184   18.8617 C   0  0  1  0  0  0  0  0  0  0  0  0
   17.2245   -9.1817   18.6927 O   0  0  0  0  0  0  0  0  0  0  0  0
   21.6357   -3.6975   11.6488 C   0  0  0  0  0  0  0  0  0  0  0  0
   20.3990   -3.5388   10.8549 N   0  0  0  0  0  0  0  0  0  0  0  0
   23.1328   -0.4634   12.8237 C   0  0  0  0  0  0  0  0  0  0  0  0
   22.2781   -0.2434   13.9768 O   0  0  0  0  0  0  0  0  0  0  0  0
  1  2  1  6  0  0  0
  1  8  1  0  0  0  0
  1 36  1  0  0  0  0
  3  4  1  6  0  0  0
  3 10  1  0  0  0  0
  3 47  1  0  0  0  0
  5 11  1  0  0  0  0
  5 30  1  0  0  0  0
  5 38  1  1  0  0  0
  6 21  1  1  0  0  0
  6 42  1  0  0  0  0
  7 15  1  0  0  0  0
  7 44  1  0  0  0  0
  7 32  1  1  0  0  0
  8  9  1  6  0  0  0
  8 17  1  0  0  0  0
 11 12  1  6  0  0  0
 11 20  1  0  0  0  0
 13  6  1  0  0  0  0
 13 14  1  1  0  0  0
 15 16  1  6  0  0  0
 15 24  1  0  0  0  0
 17 26  1  0  0  0  0
 18 10  1  0  0  0  0
 18 19  1  6  0  0  0
 20 21  1  1  0  0  0
 20 29  1  0  0  0  0
 22 13  1  0  0  0  0
 22 23  1  6  0  0  0
 24 25  1  1  0  0  0
 24 33  1  0  0  0  0
 26 27  1  6  0  0  0
 26 35  1  0  0  0  0
 28  2  1  1  0  0  0
 28 18  1  0  0  0  0
 29 30  1  0  0  0  0
 29 39  1  1  0  0  0
 31 22  1  0  0  0  0
 31 32  1  1  0  0  0
 31 41  1  0  0  0  0
 33 34  1  1  0  0  0
 33 43  1  0  0  0  0
 35 36  1  0  0  0  0
 35 45  1  1  0  0  0
 37 28  1  0  0  0  0
 37 38  1  6  0  0  0
 39 40  1  0  0  0  0
 41 42  1  0  0  0  0
 41 49  1  1  0  0  0
 43 44  1  0  0  0  0
 43 51  1  6  0  0  0
 45 46  1  0  0  0  0
 47 37  1  0  0  0  0
 47 48  1  1  0  0  0
 49 50  1  0  0  0  0
 51 52  1  0  0  0  0
M  END
>  <CHROM.1>
-174.11033775,166.36558792,-75.82513132,-175.87524904,163.41007818,54.78766666
-62.95406518,164.41177154,-173.73424758,-67.03855428,113.30890567,-63.17122407
21.68707144,-6.35266883,16.50120743,-2.24554557,-0.87016220,-1.61081150

>  <Name>
2esj_lig

>  <RI>
0

>  <Rbt.Current_Directory>
/home/itssahil/PROJECTS/Mol_Feturizer/New_Systems/rnas/2esj

>  <Rbt.Executable>
rbdock ($Id: //depot/dev/client3/rdock/2013.1/src/exe/rbdock.cxx#4 $)

>  <Rbt.Library>
libRbt.so (2013.1, Build901 2013/11/27)

>  <Rbt.Parameter_File>
/export/apps/rDock/src/rDock_2013.1_src/data/scripts/dock_solv.prm

>  <Rbt.Receptor>
prm/pocket_docking_8.prm

>  <SCORE>
-22.4963

>  <SCORE.INTER>
-12.1694

>  <SCORE.INTER.CONST>
1

>  <SCORE.INTER.POLAR>
-0.979796

>  <SCORE.INTER.ROT>
12

>  <SCORE.INTER.SOLV>
18.1246

>  <SCORE.INTER.VDW>
-22.4885

>  <SCORE.INTER.norm>
-0.234027

>  <SCORE.INTRA>
-10.3269

>  <SCORE.INTRA.DIHEDRAL>
-22.5929

>  <SCORE.INTRA.DIHEDRAL.0>
32.9766

>  <SCORE.INTRA.POLAR>
0

>  <SCORE.INTRA.POLAR.0>
0

>  <SCORE.INTRA.REPUL>
0

>  <SCORE.INTRA.REPUL.0>
0

>  <SCORE.INTRA.SOLV>
-1.54119

>  <SCORE.INTRA.SOLV.lig_0>
-114.358

>  <SCORE.INTRA.VDW>
1.74016

>  <SCORE.INTRA.VDW.0>
-8.24257

>  <SCORE.INTRA.norm>
-0.198593

>  <SCORE.RESTR>
0

>  <SCORE.RESTR.CAVITY>
0

>  <SCORE.RESTR.norm>
0

>  <SCORE.SYSTEM>
0

>  <SCORE.SYSTEM.CONST>
0

>  <SCORE.SYSTEM.DIHEDRAL>
0

>  <SCORE.SYSTEM.SOLV>
0

>  <SCORE.SYSTEM.norm>
0

>  <SCORE.heavy>
52

>  <SCORE.norm>
-0.43262

>  <RMSD>
5.150

$$$$
2esj_lig
 OpenBabel11021811423D
libRbt.so/2013.1/901 2013/11/27
 52 56  0  0  0  0  0  0  0  0999 V2000
   19.8730   -9.4495   18.6320 C   0  0  2  0  0  0  0  0  0  0  0  0
   19.8969   -9.7290   17.2192 O   0  0  0  0  0  0  0  0  0  0  0  0
   23.0946   -9.4639   14.3921 C   0  0  2  0  0  0  0  0  0  0  0  0
   24.0763   -9.0073   13.3945 N   0  0  0  0  0  0  0  0  0  0  0  0
   22.6658   -7.1361   18.1018 C   0  0  1  0  0  0  0  0  0  0  0  0
   23.5159   -3.0946   18.7525 C   0  0  1  0  0  0  0  0  0  0  0  0
   23.9050   -0.4400   14.4638 C   0  0  1  0  0  0  0  0  0  0  0  0
   18.9049  -10.4727   19.2959 C   0  0  2  0  0  0  0  0  0  0  0  0
   19.2884  -11.8569   19.0197 N   0  0  0  0  0  0  0  0  0  0  0  0
   21.6246   -9.1861   13.8829 C   0  0  0  0  0  0  0  0  0  0  0  0
   22.5256   -6.5712   19.5159 C   0  0  2  0  0  0  0  0  0  0  0  0
   21.1640   -6.2081   19.8313 O   0  0  0  0  0  0  0  0  0  0  0  0
   22.6789   -2.2019   17.7309 C   0  0  2  0  0  0  0  0  0  0  0  0
   22.4835   -2.9100   16.4381 N   0  0  0  0  0  0  0  0  0  0  0  0
   24.1063   -1.4817   13.3693 C   0  0  1  0  0  0  0  0  0  0  0  0
   23.0455   -1.3617   12.4004 O   0  0  0  0  0  0  0  0  0  0  0  0
   17.4332  -10.2281   18.8340 C   0  0  0  0  0  0  0  0  0  0  0  0
   20.5845   -9.7363   14.9398 C   0  0  2  0  0  0  0  0  0  0  0  0
   19.2104   -9.4786   14.4969 N   0  0  0  0  0  0  0  0  0  0  0  0
   23.4722   -5.4082   19.4414 C   0  0  2  0  0  0  0  0  0  0  0  0
   22.8890   -4.3433   18.7342 O   0  0  0  0  0  0  0  0  0  0  0  0
   23.3629   -0.7687   17.6162 C   0  0  1  0  0  0  0  0  0  0  0  0
   23.5460   -0.2367   18.9324 O   0  0  0  0  0  0  0  0  0  0  0  0
   25.4341   -1.3970   12.6262 C   0  0  1  0  0  0  0  0  0  0  0  0
   25.3468   -2.2788   11.5014 O   0  0  0  0  0  0  0  0  0  0  0  0
   17.0573   -8.7434   19.1170 C   0  0  2  0  0  0  0  0  0  0  0  0
   15.7058   -8.4712   18.7920 O   0  0  0  0  0  0  0  0  0  0  0  0
   20.8336   -9.0938   16.3291 C   0  0  2  0  0  0  0  0  0  0  0  0
   24.6339   -5.8662   18.5357 C   0  0  2  0  0  0  0  0  0  0  0  0
   23.9873   -6.7847   17.6689 O   0  0  0  0  0  0  0  0  0  0  0  0
   24.8126   -0.8684   16.9855 C   0  0  2  0  0  0  0  0  0  0  0  0
   24.5887   -1.3684   15.6663 O   0  0  0  0  0  0  0  0  0  0  0  0
   25.7799    0.0116   12.1403 C   0  0  2  0  0  0  0  0  0  0  0  0
   27.1634   -0.0091   11.7529 O   0  0  0  0  0  0  0  0  0  0  0  0
   18.0289   -7.8345   18.3240 C   0  0  2  0  0  0  0  0  0  0  0  0
   19.3727   -8.1042   18.8163 O   0  0  0  0  0  0  0  0  0  0  0  0
   22.3036   -9.2276   16.8412 C   0  0  2  0  0  0  0  0  0  0  0  0
   22.4422   -8.5286   18.1095 O   0  0  0  0  0  0  0  0  0  0  0  0
   25.8041   -6.5630   19.2291 C   0  0  0  0  0  0  0  0  0  0  0  0
   26.8427   -6.7373   18.2541 O   0  0  0  0  0  0  0  0  0  0  0  0
   25.5090   -1.9890   17.7335 C   0  0  1  0  0  0  0  0  0  0  0  0
   24.9657   -3.1936   18.3151 O   0  0  0  0  0  0  0  0  0  0  0  0
   25.4378    1.0645   13.1885 C   0  0  2  0  0  0  0  0  0  0  0  0
   24.3306    0.8918   14.0864 O   0  0  0  0  0  0  0  0  0  0  0  0
   17.7919   -6.3814   18.5574 C   0  0  0  0  0  0  0  0  0  0  0  0
   16.4686   -6.1020   18.1687 O   0  0  0  0  0  0  0  0  0  0  0  0
   23.3184   -8.7245   15.7599 C   0  0  1  0  0  0  0  0  0  0  0  0
   24.6503   -9.0615   16.2308 O   0  0  0  0  0  0  0  0  0  0  0  0
   27.0075   -2.2344   17.3771 C   0  0  0  0  0  0  0  0  0  0  0  0
   27.1984   -2.8977   16.0700 N   0  0  0  0  0  0  0  0  0  0  0  0
   25.6656    2.5590   12.9734 C   0  0  0  0  0  0  0  0  0  0  0  0
   27.0892    2.8433   12.9373 O   0  0  0  0  0  0  0  0  0  0  0  0
  1  2  1  6  0  0  0
  1  8  1  0  0  0  0
  1 36  1  0  0  0  0
  3  4  1  6  0  0  0
  3 10  1  0  0  0  0
  3 47  1  0  0  0  0
  5 11  1  0  0  0  0
  5 30  1  0  0  0  0
  5 38  1  1  0  0  0
  6 21  1  6  0  0  0
  6 42  1  0  0  0  0
  7 15  1  0  0  0  0
  7 44  1  0  0  0  0
  7 32  1  1  0  0  0
  8  9  1  6  0  0  0
  8 17  1  0  0  0  0
 11 12  1  6  0  0  0
 11 20  1  0  0  0  0
 13  6  1  0  0  0  0
 13 14  1  6  0  0  0
 15 16  1  6  0  0  0
 15 24  1  0  0  0  0
 17 26  1  0  0  0  0
 18 10  1  0  0  0  0
 18 19  1  6  0  0  0
 20 21  1  6  0  0  0
 20 29  1  0  0  0  0
 22 13  1  0  0  0  0
 22 23  1  1  0  0  0
 24 25  1  6  0  0  0
 24 33  1  0  0  0  0
 26 27  1  6  0  0  0
 26 35  1  0  0  0  0
 28  2  1  1  0  0  0
 28 18  1  0  0  0  0
 29 30  1  0  0  0  0
 29 39  1  1  0  0  0
 31 22  1  0  0  0  0
 31 32  1  6  0  0  0
 31 41  1  0  0  0  0
 33 34  1  1  0  0  0
 33 43  1  0  0  0  0
 35 36  1  0  0  0  0
 35 45  1  1  0  0  0
 37 28  1  0  0  0  0
 37 38  1  1  0  0  0
 39 40  1  0  0  0  0
 41 42  1  0  0  0  0
 41 49  1  6  0  0  0
 43 44  1  0  0  0  0
 43 51  1  6  0  0  0
 45 46  1  0  0  0  0
 47 37  1  0  0  0  0
 47 48  1  1  0  0  0
 49 50  1  0  0  0  0
 51 52  1  0  0  0  0
M  END
>  <CHROM.1>
-171.03028312,169.68966548,173.83491691,174.17034230,169.13791061,176.37234546
-172.17128538,71.82159575,-59.19308978,-83.08569748,-74.35208802,-68.54762135
22.76103927,-5.07541442,16.56192803,2.51197510,-0.86264451,-2.73383132

>  <Name>
2esj_lig

>  <RI>
1.62275e+07

>  <Rbt.Current_Directory>
/home/itssahil/PROJECTS/Mol_Feturizer/New_Systems/rnas/2esj

>  <Rbt.Executable>
rbdock ($Id: //depot/dev/client3/rdock/2013.1/src/exe/rbdock.cxx#4 $)

>  <Rbt.Library>
libRbt.so (2013.1, Build901 2013/11/27)

>  <Rbt.Parameter_File>
/export/apps/rDock/src/rDock_2013.1_src/data/scripts/dock_solv.prm

>  <Rbt.Receptor>
prm/pocket_docking_5.prm

>  <SCORE>
-12.4189

>  <SCORE.INTER>
-3.32422

>  <SCORE.INTER.CONST>
1

>  <SCORE.INTER.POLAR>
-0.979796

>  <SCORE.INTER.ROT>
12

>  <SCORE.INTER.SOLV>
11.9162

>  <SCORE.INTER.VDW>
-14.5222

>  <SCORE.INTER.norm>
-0.0639274

>  <SCORE.INTRA>
-9.09464

>  <SCORE.INTRA.DIHEDRAL>
-22.7803

>  <SCORE.INTRA.DIHEDRAL.0>
32.9766

>  <SCORE.INTRA.POLAR>
0

>  <SCORE.INTRA.POLAR.0>
0

>  <SCORE.INTRA.REPUL>
0

>  <SCORE.INTRA.REPUL.0>
0

>  <SCORE.INTRA.SOLV>
-1.56264

>  <SCORE.INTRA.SOLV.lig_0>
-114.358

>  <SCORE.INTRA.VDW>
3.07684

>  <SCORE.INTRA.VDW.0>
-8.24257

>  <SCORE.INTRA.norm>
-0.174897

>  <SCORE.RESTR>
0

>  <SCORE.RESTR.CAVITY>
0

>  <SCORE.RESTR.norm>
0

>  <SCORE.SYSTEM>
0

>  <SCORE.SYSTEM.CONST>
0

>  <SCORE.SYSTEM.DIHEDRAL>
0

>  <SCORE.SYSTEM.SOLV>
0

>  <SCORE.SYSTEM.norm>
0

>  <SCORE.heavy>
52

>  <SCORE.norm>
-0.238824

>  <RMSD>
5.192

$$$$
2esj_lig
 OpenBabel11021811423D
libRbt.so/2013.1/901 2013/11/27
 52 56  0  0  0  0  0  0  0  0999 V2000
   19.4711   -8.7452   15.2549 C   0  0  2  0  0  0  0  0  0  0  0  0
   20.3135   -8.1875   16.2815 O   0  0  0  0  0  0  0  0  0  0  0  0
   17.4483   -7.1750   19.2904 C   0  0  2  0  0  0  0  0  0  0  0  0
   16.7582   -6.6266   20.4695 N   0  0  0  0  0  0  0  0  0  0  0  0
   20.2596   -4.9528   16.3177 C   0  0  1  0  0  0  0  0  0  0  0  0
   23.6471   -2.6969   16.9841 C   0  0  1  0  0  0  0  0  0  0  0  0
   27.4580   -1.0720   14.3912 C   0  0  1  0  0  0  0  0  0  0  0  0
   20.2975   -9.8360   14.5117 C   0  0  2  0  0  0  0  0  0  0  0  0
   20.8022  -10.8637   15.4218 N   0  0  0  0  0  0  0  0  0  0  0  0
   18.7440   -7.9654   19.7308 C   0  0  0  0  0  0  0  0  0  0  0  0
   20.2987   -3.5697   15.6665 C   0  0  2  0  0  0  0  0  0  0  0  0
   20.7038   -3.6244   14.2815 O   0  0  0  0  0  0  0  0  0  0  0  0
   24.1958   -1.5427   16.0312 C   0  0  2  0  0  0  0  0  0  0  0  0
   24.4217   -2.0505   14.6521 N   0  0  0  0  0  0  0  0  0  0  0  0
   27.8360   -2.0811   13.3130 C   0  0  1  0  0  0  0  0  0  0  0  0
   27.5940   -1.5009   12.0156 O   0  0  0  0  0  0  0  0  0  0  0  0
   21.4847   -9.1957   13.7245 C   0  0  0  0  0  0  0  0  0  0  0  0
   19.4385   -8.5964   18.4576 C   0  0  2  0  0  0  0  0  0  0  0  0
   20.6530   -9.3252   18.8379 N   0  0  0  0  0  0  0  0  0  0  0  0
   21.2753   -2.8703   16.5673 C   0  0  2  0  0  0  0  0  0  0  0  0
   22.5894   -3.2736   16.2761 O   0  0  0  0  0  0  0  0  0  0  0  0
   25.4647   -0.8669   16.7156 C   0  0  1  0  0  0  0  0  0  0  0  0
   25.1218   -0.4866   18.0522 O   0  0  0  0  0  0  0  0  0  0  0  0
   29.2810   -2.5635   13.3506 C   0  0  1  0  0  0  0  0  0  0  0  0
   29.5118   -3.3037   12.1468 O   0  0  0  0  0  0  0  0  0  0  0  0
   20.9247   -8.0902   12.7810 C   0  0  2  0  0  0  0  0  0  0  0  0
   21.9417   -7.5186   11.9778 O   0  0  0  0  0  0  0  0  0  0  0  0
   19.7733   -7.4926   17.4210 C   0  0  2  0  0  0  0  0  0  0  0  0
   21.0186   -3.4275   17.9827 C   0  0  2  0  0  0  0  0  0  0  0  0
   20.5626   -4.7418   17.7037 O   0  0  0  0  0  0  0  0  0  0  0  0
   26.6632   -1.8935   16.8528 C   0  0  2  0  0  0  0  0  0  0  0  0
   27.0000   -2.2236   15.5045 O   0  0  0  0  0  0  0  0  0  0  0  0
   30.3060   -1.4328   13.4548 C   0  0  2  0  0  0  0  0  0  0  0  0
   31.5637   -2.0401   13.7925 O   0  0  0  0  0  0  0  0  0  0  0  0
   20.2153   -7.0215   13.6491 C   0  0  2  0  0  0  0  0  0  0  0  0
   19.1161   -7.6836   14.3378 O   0  0  0  0  0  0  0  0  0  0  0  0
   18.5574   -6.5929   17.0297 C   0  0  2  0  0  0  0  0  0  0  0  0
   18.9981   -5.5503   16.1158 O   0  0  0  0  0  0  0  0  0  0  0  0
   19.9719   -2.6966   18.8228 C   0  0  0  0  0  0  0  0  0  0  0  0
   19.9345   -3.3274   20.1114 O   0  0  0  0  0  0  0  0  0  0  0  0
   26.0585   -3.1534   17.4422 C   0  0  1  0  0  0  0  0  0  0  0  0
   24.7365   -3.7109   17.2806 O   0  0  0  0  0  0  0  0  0  0  0  0
   29.8496   -0.3523   14.4289 C   0  0  2  0  0  0  0  0  0  0  0  0
   28.4579   -0.0467   14.6063 O   0  0  0  0  0  0  0  0  0  0  0  0
   19.5953   -5.9313   12.8431 C   0  0  0  0  0  0  0  0  0  0  0  0
   18.3637   -6.4114   12.3608 O   0  0  0  0  0  0  0  0  0  0  0  0
   17.8544   -6.0199   18.3064 C   0  0  1  0  0  0  0  0  0  0  0  0
   16.6348   -5.3647   17.8677 O   0  0  0  0  0  0  0  0  0  0  0  0
   27.0523   -4.3066   17.7818 C   0  0  0  0  0  0  0  0  0  0  0  0
   26.9328   -4.7933   19.1723 N   0  0  0  0  0  0  0  0  0  0  0  0
   30.6683    0.9023   14.7247 C   0  0  0  0  0  0  0  0  0  0  0  0
   30.9497    1.6131   13.4901 O   0  0  0  0  0  0  0  0  0  0  0  0
  1  2  1  1  0  0  0
  1  8  1  0  0  0  0
  1 36  1  0  0  0  0
  3  4  1  1  0  0  0
  3 10  1  0  0  0  0
  3 47  1  0  0  0  0
  5 11  1  0  0  0  0
  5 30  1  0  0  0  0
  5 38  1  1  0  0  0
  6 21  1  6  0  0  0
  6 42  1  0  0  0  0
  7 15  1  0  0  0  0
  7 44  1  0  0  0  0
  7 32  1  1  0  0  0
  8  9  1  1  0  0  0
  8 17  1  0  0  0  0
 11 12  1  6  0  0  0
 11 20  1  0  0  0  0
 13  6  1  0  0  0  0
 13 14  1  6  0  0  0
 15 16  1  6  0  0  0
 15 24  1  0  0  0  0
 17 26  1  0  0  0  0
 18 10  1  0  0  0  0
 18 19  1  1  0  0  0
 20 21  1  6  0  0  0
 20 29  1  0  0  0  0
 22 13  1  0  0  0  0
 22 23  1  1  0  0  0
 24 25  1  6  0  0  0
 24 33  1  0  0  0  0
 26 27  1  1  0  0  0
 26 35  1  0  0  0  0
 28  2  1  6  0  0  0
 28 18  1  0  0  0  0
 29 30  1  0  0  0  0
 29 39  1  6  0  0  0
 31 22  1  0  0  0  0
 31 32  1  6  0  0  0
 31 41  1  0  0  0  0
 33 34  1  1  0  0  0
 33 43  1  0  0  0  0
 35 36  1  0  0  0  0
 35 45  1  6  0  0  0
 37 28  1  0  0  0  0
 37 38  1  6  0  0  0
 39 40  1  0  0  0  0
 41 42  1  0  0  0  0
 41 49  1  6  0  0  0
 43 44  1  0  0  0  0
 43 51  1  6  0  0  0
 45 46  1  0  0  0  0
 47 37  1  0  0  0  0
 47 48  1  6  0  0  0
 49 50  1  0  0  0  0
 51 52  1  0  0  0  0
M  END
>  <CHROM.1>
-159.14971814,-157.07984607,-97.73050542,172.67107193,177.95965683,85.29397092
-177.25065263,58.30388322,80.54624244,-37.96158346,127.00645757,56.00339568
23.08132047,-4.43293010,15.86308122,-2.99288778,0.56544918,0.92752878

>  <Name>
2esj_lig

>  <RI>
1.01272e+07

>  <Rbt.Current_Directory>
/home/itssahil/PROJECTS/Mol_Feturizer/New_Systems/rnas/2esj

>  <Rbt.Executable>
rbdock ($Id: //depot/dev/client3/rdock/2013.1/src/exe/rbdock.cxx#4 $)

>  <Rbt.Library>
libRbt.so (2013.1, Build901 2013/11/27)

>  <Rbt.Parameter_File>
/export/apps/rDock/src/rDock_2013.1_src/data/scripts/dock_solv.prm

>  <Rbt.Receptor>
prm/pocket_docking_3.prm

>  <SCORE>
-5.49685

>  <SCORE.INTER>
-2.05888

>  <SCORE.INTER.CONST>
1

>  <SCORE.INTER.POLAR>
-1.54361

>  <SCORE.INTER.ROT>
12

>  <SCORE.INTER.SOLV>
7.72945

>  <SCORE.INTER.VDW>
-10.4037

>  <SCORE.INTER.norm>
-0.0395938

>  <SCORE.INTRA>
-3.62942

>  <SCORE.INTRA.DIHEDRAL>
-11.9266

>  <SCORE.INTRA.DIHEDRAL.0>
32.9766

>  <SCORE.INTRA.POLAR>
0

>  <SCORE.INTRA.POLAR.0>
0

>  <SCORE.INTRA.REPUL>
0

>  <SCORE.INTRA.REPUL.0>
0

>  <SCORE.INTRA.SOLV>
-1.84504

>  <SCORE.INTRA.SOLV.lig_0>
-114.358

>  <SCORE.INTRA.VDW>
3.2564

>  <SCORE.INTRA.VDW.0>
-8.24257

>  <SCORE.INTRA.norm>
-0.0697966

>  <SCORE.RESTR>
0.191452

>  <SCORE.RESTR.CAVITY>
0.191452

>  <SCORE.RESTR.norm>
0.00368176

>  <SCORE.SYSTEM>
0

>  <SCORE.SYSTEM.CONST>
0

>  <SCORE.SYSTEM.DIHEDRAL>
0

>  <SCORE.SYSTEM.SOLV>
0

>  <SCORE.SYSTEM.norm>
0

>  <SCORE.heavy>
52

>  <SCORE.norm>
-0.105709

>  <RMSD>
5.207

$$$$
2esj_lig
 OpenBabel11021811423D
libRbt.so/2013.1/901 2013/11/27
 52 56  0  0  0  0  0  0  0  0999 V2000
   18.5610   -7.6211   19.3716 C   0  0  2  0  0  0  0  0  0  0  0  0
   19.3563   -7.4385   18.1846 O   0  0  0  0  0  0  0  0  0  0  0  0
   20.8239  -11.4080   17.5705 C   0  0  2  0  0  0  0  0  0  0  0  0
   21.5515  -12.5978   17.0991 N   0  0  0  0  0  0  0  0  0  0  0  0
   23.0477   -7.7234   18.7206 C   0  0  1  0  0  0  0  0  0  0  0  0
   26.5884   -5.9725   17.2507 C   0  0  1  0  0  0  0  0  0  0  0  0
   27.9247   -1.2341   16.9394 C   0  0  1  0  0  0  0  0  0  0  0  0
   17.4736   -6.5065   19.3833 C   0  0  2  0  0  0  0  0  0  0  0  0
   16.6556   -6.5188   18.1709 N   0  0  0  0  0  0  0  0  0  0  0  0
   20.1238  -10.6761   16.3574 C   0  0  0  0  0  0  0  0  0  0  0  0
   23.6610   -6.5080   19.4170 C   0  0  2  0  0  0  0  0  0  0  0  0
   23.0600   -5.2667   18.9887 O   0  0  0  0  0  0  0  0  0  0  0  0
   27.0251   -4.6812   18.0773 C   0  0  2  0  0  0  0  0  0  0  0  0
   25.9765   -3.6287   18.0180 N   0  0  0  0  0  0  0  0  0  0  0  0
   26.6390   -0.5171   16.5439 C   0  0  1  0  0  0  0  0  0  0  0  0
   26.2352    0.3575   17.6165 O   0  0  0  0  0  0  0  0  0  0  0  0
   18.1214   -5.0980   19.5715 C   0  0  0  0  0  0  0  0  0  0  0  0
   19.2995   -9.4360   16.8905 C   0  0  2  0  0  0  0  0  0  0  0  0
   18.6498   -8.7303   15.7811 N   0  0  0  0  0  0  0  0  0  0  0  0
   25.1012   -6.6640   19.0225 C   0  0  2  0  0  0  0  0  0  0  0  0
   25.2934   -6.2588   17.6909 O   0  0  0  0  0  0  0  0  0  0  0  0
   28.4694   -4.2201   17.5910 C   0  0  1  0  0  0  0  0  0  0  0  0
   29.3548   -5.3436   17.6407 O   0  0  0  0  0  0  0  0  0  0  0  0
   26.7218    0.3112   15.2674 C   0  0  1  0  0  0  0  0  0  0  0  0
   25.5205    1.0862   15.1869 O   0  0  0  0  0  0  0  0  0  0  0  0
   19.0045   -5.1177   20.8543 C   0  0  2  0  0  0  0  0  0  0  0  0
   19.5631   -3.8454   21.1287 O   0  0  0  0  0  0  0  0  0  0  0  0
   20.2230   -8.4706   17.6779 C   0  0  2  0  0  0  0  0  0  0  0  0
   25.3691   -8.1829   18.9930 C   0  0  2  0  0  0  0  0  0  0  0  0
   24.0953   -8.7001   18.6427 O   0  0  0  0  0  0  0  0  0  0  0  0
   28.4485   -3.7537   16.0773 C   0  0  2  0  0  0  0  0  0  0  0  0
   27.5857   -2.6152   16.0718 O   0  0  0  0  0  0  0  0  0  0  0  0
   27.9321    1.2453   15.2159 C   0  0  2  0  0  0  0  0  0  0  0  0
   28.0441    1.7080   13.8601 O   0  0  0  0  0  0  0  0  0  0  0  0
   20.1020   -6.1957   20.6743 C   0  0  2  0  0  0  0  0  0  0  0  0
   19.4282   -7.4777   20.5211 O   0  0  0  0  0  0  0  0  0  0  0  0
   21.0395   -9.1560   18.8201 C   0  0  2  0  0  0  0  0  0  0  0  0
   21.9232   -8.1801   19.4391 O   0  0  0  0  0  0  0  0  0  0  0  0
   25.8300   -8.8187   20.3041 C   0  0  0  0  0  0  0  0  0  0  0  0
   24.7937   -8.6084   21.2744 O   0  0  0  0  0  0  0  0  0  0  0  0
   27.6993   -4.8366   15.3249 C   0  0  1  0  0  0  0  0  0  0  0  0
   26.6196   -5.6908   15.7598 O   0  0  0  0  0  0  0  0  0  0  0  0
   29.1867    0.5650   15.7521 C   0  0  2  0  0  0  0  0  0  0  0  0
   29.1142   -0.4211   16.7933 O   0  0  0  0  0  0  0  0  0  0  0  0
   20.9836   -6.3372   21.8681 C   0  0  0  0  0  0  0  0  0  0  0  0
   20.1751   -6.7512   22.9429 O   0  0  0  0  0  0  0  0  0  0  0  0
   21.8070  -10.4101   18.2812 C   0  0  1  0  0  0  0  0  0  0  0  0
   22.3746  -11.0930   19.4304 O   0  0  0  0  0  0  0  0  0  0  0  0
   27.6211   -4.6773   13.7753 C   0  0  0  0  0  0  0  0  0  0  0  0
   28.9311   -4.8147   13.1046 N   0  0  0  0  0  0  0  0  0  0  0  0
   30.5432    1.2618   15.8307 C   0  0  0  0  0  0  0  0  0  0  0  0
   31.0448    1.5226   14.4932 O   0  0  0  0  0  0  0  0  0  0  0  0
  1  2  1  6  0  0  0
  1  8  1  0  0  0  0
  1 36  1  0  0  0  0
  3  4  1  6  0  0  0
  3 10  1  0  0  0  0
  3 47  1  0  0  0  0
  5 11  1  0  0  0  0
  5 30  1  0  0  0  0
  5 38  1  1  0  0  0
  6 21  1  1  0  0  0
  6 42  1  0  0  0  0
  7 15  1  0  0  0  0
  7 44  1  0  0  0  0
  7 32  1  6  0  0  0
  8  9  1  6  0  0  0
  8 17  1  0  0  0  0
 11 12  1  6  0  0  0
 11 20  1  0  0  0  0
 13  6  1  0  0  0  0
 13 14  1  6  0  0  0
 15 16  1  1  0  0  0
 15 24  1  0  0  0  0
 17 26  1  0  0  0  0
 18 10  1  0  0  0  0
 18 19  1  6  0  0  0
 20 21  1  6  0  0  0
 20 29  1  0  0  0  0
 22 13  1  0  0  0  0
 22 23  1  6  0  0  0
 24 25  1  1  0  0  0
 24 33  1  0  0  0  0
 26 27  1  6  0  0  0
 26 35  1  0  0  0  0
 28  2  1  1  0  0  0
 28 18  1  0  0  0  0
 29 30  1  0  0  0  0
 29 39  1  1  0  0  0
 31 22  1  0  0  0  0
 31 32  1  1  0  0  0
 31 41  1  0  0  0  0
 33 34  1  6  0  0  0
 33 43  1  0  0  0  0
 35 36  1  0  0  0  0
 35 45  1  1  0  0  0
 37 28  1  0  0  0  0
 37 38  1  6  0  0  0
 39 40  1  0  0  0  0
 41 42  1  0  0  0  0
 41 49  1  6  0  0  0
 43 44  1  0  0  0  0
 43 51  1  1  0  0  0
 45 46  1  0  0  0  0
 47 37  1  0  0  0  0
 47 48  1  1  0  0  0
 49 50  1  0  0  0  0
 51 52  1  0  0  0  0
M  END
>  <CHROM.1>
-163.89094573,168.09860463,-65.95268440,-177.73800160,162.32685016,80.77121646
60.77139380,61.67321137,62.24984140,-71.62971287,66.88406864,-67.13847978
24.08222690,-5.34652652,17.80739583,2.42496997,-0.37110031,3.10989230

>  <Name>
2esj_lig

>  <RI>
2.18877e+07

>  <Rbt.Current_Directory>
/home/itssahil/PROJECTS/Mol_Feturizer/New_Systems/rnas/2esj

>  <Rbt.Executable>
rbdock ($Id: //depot/dev/client3/rdock/2013.1/src/exe/rbdock.cxx#4 $)

>  <Rbt.Library>
libRbt.so (2013.1, Build901 2013/11/27)

>  <Rbt.Parameter_File>
/export/apps/rDock/src/rDock_2013.1_src/data/scripts/dock_solv.prm

>  <Rbt.Receptor>
prm/pocket_docking_7.prm

>  <SCORE>
-12.2508

>  <SCORE.INTER>
-3.49087

>  <SCORE.INTER.CONST>
1

>  <SCORE.INTER.POLAR>
-0.979796

>  <SCORE.INTER.ROT>
12

>  <SCORE.INTER.SOLV>
16.6924

>  <SCORE.INTER.VDW>
-16.2254

>  <SCORE.INTER.norm>
-0.067132

>  <SCORE.INTRA>
-8.75989

>  <SCORE.INTRA.DIHEDRAL>
-21.8932

>  <SCORE.INTRA.DIHEDRAL.0>
32.9766

>  <SCORE.INTRA.POLAR>
0

>  <SCORE.INTRA.POLAR.0>
0

>  <SCORE.INTRA.REPUL>
0

>  <SCORE.INTRA.REPUL.0>
0

>  <SCORE.INTRA.SOLV>
-0.202703

>  <SCORE.INTRA.SOLV.lig_0>
-114.358

>  <SCORE.INTRA.VDW>
2.28807

>  <SCORE.INTRA.VDW.0>
-8.24257

>  <SCORE.INTRA.norm>
-0.168459

>  <SCORE.RESTR>
0

>  <SCORE.RESTR.CAVITY>
0

>  <SCORE.RESTR.norm>
0

>  <SCORE.SYSTEM>
0

>  <SCORE.SYSTEM.CONST>
0

>  <SCORE.SYSTEM.DIHEDRAL>
0

>  <SCORE.SYSTEM.SOLV>
0

>  <SCORE.SYSTEM.norm>
0

>  <SCORE.heavy>
52

>  <SCORE.norm>
-0.235591

>  <RMSD>
5.211

$$$$
2esj_lig
 OpenBabel11021811423D
libRbt.so/2013.1/901 2013/11/27
 52 56  0  0  0  0  0  0  0  0999 V2000
   18.2158   -5.8708   17.8801 C   0  0  2  0  0  0  0  0  0  0  0  0
   19.1465   -5.2634   16.9639 O   0  0  0  0  0  0  0  0  0  0  0  0
   16.4188   -3.6912   14.0698 C   0  0  2  0  0  0  0  0  0  0  0  0
   15.8058   -3.0429   12.8988 N   0  0  0  0  0  0  0  0  0  0  0  0
   19.8773   -6.6067   13.7756 C   0  0  1  0  0  0  0  0  0  0  0  0
   23.2882   -5.1541   13.5584 C   0  0  1  0  0  0  0  0  0  0  0  0
   26.3982   -2.4708   10.8248 C   0  0  1  0  0  0  0  0  0  0  0  0
   18.8616   -5.8349   19.2967 C   0  0  2  0  0  0  0  0  0  0  0  0
   19.2236   -4.4781   19.7057 N   0  0  0  0  0  0  0  0  0  0  0  0
   17.3750   -2.6804   14.8191 C   0  0  0  0  0  0  0  0  0  0  0  0
   21.0895   -6.7779   14.6919 C   0  0  2  0  0  0  0  0  0  0  0  0
   21.4464   -5.5525   15.3675 O   0  0  0  0  0  0  0  0  0  0  0  0
   23.4030   -4.0080   12.4564 C   0  0  2  0  0  0  0  0  0  0  0  0
   23.8997   -4.5550   11.1660 N   0  0  0  0  0  0  0  0  0  0  0  0
   27.4384   -1.6083   11.5301 C   0  0  1  0  0  0  0  0  0  0  0  0
   28.2932   -0.9958   10.5439 O   0  0  0  0  0  0  0  0  0  0  0  0
   20.1179   -6.7606   19.3600 C   0  0  0  0  0  0  0  0  0  0  0  0
   17.9774   -3.3752   16.1059 C   0  0  2  0  0  0  0  0  0  0  0  0
   18.8804   -2.4613   16.8132 N   0  0  0  0  0  0  0  0  0  0  0  0
   22.1135   -7.2584   13.7047 C   0  0  2  0  0  0  0  0  0  0  0  0
   22.5896   -6.1879   12.9291 O   0  0  0  0  0  0  0  0  0  0  0  0
   24.2582   -2.8035   13.0503 C   0  0  1  0  0  0  0  0  0  0  0  0
   23.7068   -2.4242   14.3155 O   0  0  0  0  0  0  0  0  0  0  0  0
   26.8757   -0.5036   12.4162 C   0  0  1  0  0  0  0  0  0  0  0  0
   27.9726    0.3347   12.7960 O   0  0  0  0  0  0  0  0  0  0  0  0
   19.7121   -8.1916   18.8983 C   0  0  2  0  0  0  0  0  0  0  0  0
   20.7896   -9.1047   19.0047 O   0  0  0  0  0  0  0  0  0  0  0  0
   18.7229   -4.6786   15.7182 C   0  0  2  0  0  0  0  0  0  0  0  0
   21.3475   -8.1388   12.6959 C   0  0  2  0  0  0  0  0  0  0  0  0
   20.0584   -7.5462   12.7069 O   0  0  0  0  0  0  0  0  0  0  0  0
   25.7511   -3.2440   13.3446 C   0  0  2  0  0  0  0  0  0  0  0  0
   26.2780   -3.5815   12.0606 O   0  0  0  0  0  0  0  0  0  0  0  0
   25.8008    0.3456   11.7353 C   0  0  2  0  0  0  0  0  0  0  0  0
   25.1605    1.1135   12.7673 O   0  0  0  0  0  0  0  0  0  0  0  0
   19.1806   -8.1033   17.4461 C   0  0  2  0  0  0  0  0  0  0  0  0
   18.0067   -7.2417   17.4667 O   0  0  0  0  0  0  0  0  0  0  0  0
   17.8698   -5.6749   14.8693 C   0  0  2  0  0  0  0  0  0  0  0  0
   18.6858   -6.8210   14.4993 O   0  0  0  0  0  0  0  0  0  0  0  0
   21.2252   -9.6223   13.0420 C   0  0  0  0  0  0  0  0  0  0  0  0
   20.4863   -9.7206   14.2684 O   0  0  0  0  0  0  0  0  0  0  0  0
   25.6502   -4.5545   14.1013 C   0  0  1  0  0  0  0  0  0  0  0  0
   24.6656   -5.6063   14.0074 O   0  0  0  0  0  0  0  0  0  0  0  0
   24.8488   -0.5133   10.9104 C   0  0  2  0  0  0  0  0  0  0  0  0
   25.2970   -1.7150   10.2648 O   0  0  0  0  0  0  0  0  0  0  0  0
   18.7153   -9.4155   16.9132 C   0  0  0  0  0  0  0  0  0  0  0  0
   17.7869   -9.9388   17.8320 O   0  0  0  0  0  0  0  0  0  0  0  0
   17.2420   -4.9543   13.6288 C   0  0  1  0  0  0  0  0  0  0  0  0
   16.3183   -5.8893   13.0108 O   0  0  0  0  0  0  0  0  0  0  0  0
   26.9913   -5.1657   14.6118 C   0  0  0  0  0  0  0  0  0  0  0  0
   28.1031   -5.0283   13.6476 N   0  0  0  0  0  0  0  0  0  0  0  0
   23.6833    0.0664   10.1122 C   0  0  0  0  0  0  0  0  0  0  0  0
   24.1806    0.9929    9.1107 O   0  0  0  0  0  0  0  0  0  0  0  0
  1  2  1  6  0  0  0
  1  8  1  0  0  0  0
  1 36  1  0  0  0  0
  3  4  1  6  0  0  0
  3 10  1  0  0  0  0
  3 47  1  0  0  0  0
  5 11  1  0  0  0  0
  5 30  1  0  0  0  0
  5 38  1  1  0  0  0
  6 21  1  6  0  0  0
  6 42  1  0  0  0  0
  7 15  1  0  0  0  0
  7 44  1  0  0  0  0
  7 32  1  1  0  0  0
  8  9  1  6  0  0  0
  8 17  1  0  0  0  0
 11 12  1  6  0  0  0
 11 20  1  0  0  0  0
 13  6  1  0  0  0  0
 13 14  1  6  0  0  0
 15 16  1  6  0  0  0
 15 24  1  0  0  0  0
 17 26  1  0  0  0  0
 18 10  1  0  0  0  0
 18 19  1  6  0  0  0
 20 21  1  6  0  0  0
 20 29  1  0  0  0  0
 22 13  1  0  0  0  0
 22 23  1  1  0  0  0
 24 25  1  6  0  0  0
 24 33  1  0  0  0  0
 26 27  1  6  0  0  0
 26 35  1  0  0  0  0
 28  2  1  1  0  0  0
 28 18  1  0  0  0  0
 29 30  1  0  0  0  0
 29 39  1  1  0  0  0
 31 22  1  0  0  0  0
 31 32  1  6  0  0  0
 31 41  1  0  0  0  0
 33 34  1  1  0  0  0
 33 43  1  0  0  0  0
 35 36  1  0  0  0  0
 35 45  1  1  0  0  0
 37 28  1  0  0  0  0
 37 38  1  6  0  0  0
 39 40  1  0  0  0  0
 41 42  1  0  0  0  0
 41 49  1  6  0  0  0
 43 44  1  0  0  0  0
 43 51  1  6  0  0  0
 45 46  1  0  0  0  0
 47 37  1  0  0  0  0
 47 48  1  1  0  0  0
 49 50  1  0  0  0  0
 51 52  1  0  0  0  0
M  END
>  <CHROM.1>
-156.30872531,105.04975827,-168.81366648,65.98174707,63.81748283,71.66420391
62.18159670,61.74786919,53.29715260,-57.63054129,-39.72683940,60.62563371
21.89000753,-4.66148885,14.20949118,2.38283847,-0.19899482,2.62668490

>  <Name>
2esj_lig

>  <RI>
0

>  <Rbt.Current_Directory>
/home/itssahil/PROJECTS/Mol_Feturizer/New_Systems/rnas/2esj

>  <Rbt.Executable>
rbdock ($Id: //depot/dev/client3/rdock/2013.1/src/exe/rbdock.cxx#4 $)

>  <Rbt.Library>
libRbt.so (2013.1, Build901 2013/11/27)

>  <Rbt.Parameter_File>
/export/apps/rDock/src/rDock_2013.1_src/data/scripts/dock_solv.prm

>  <Rbt.Receptor>
prm/pocket_docking_6.prm

>  <SCORE>
-12.4455

>  <SCORE.INTER>
-6.6195

>  <SCORE.INTER.CONST>
1

>  <SCORE.INTER.POLAR>
-0.818654

>  <SCORE.INTER.ROT>
12

>  <SCORE.INTER.SOLV>
17.8118

>  <SCORE.INTER.VDW>
-19.2214

>  <SCORE.INTER.norm>
-0.127298

>  <SCORE.INTRA>
-5.82601

>  <SCORE.INTRA.DIHEDRAL>
-17.651

>  <SCORE.INTRA.DIHEDRAL.0>
32.9766

>  <SCORE.INTRA.POLAR>
0

>  <SCORE.INTRA.POLAR.0>
0

>  <SCORE.INTRA.REPUL>
0

>  <SCORE.INTRA.REPUL.0>
0

>  <SCORE.INTRA.SOLV>
2.40071

>  <SCORE.INTRA.SOLV.lig_0>
-114.358

>  <SCORE.INTRA.VDW>
1.79913

>  <SCORE.INTRA.VDW.0>
-8.24257

>  <SCORE.INTRA.norm>
-0.112039

>  <SCORE.RESTR>
0

>  <SCORE.RESTR.CAVITY>
0

>  <SCORE.RESTR.norm>
0

>  <SCORE.SYSTEM>
0

>  <SCORE.SYSTEM.CONST>
0

>  <SCORE.SYSTEM.DIHEDRAL>
0

>  <SCORE.SYSTEM.SOLV>
0

>  <SCORE.SYSTEM.norm>
0

>  <SCORE.heavy>
52

>  <SCORE.norm>
-0.239337

>  <RMSD>
5.234

$$$$
2esj_lig
 OpenBabel11021811423D
libRbt.so/2013.1/901 2013/11/27
 52 56  0  0  0  0  0  0  0  0999 V2000
   18.9808   -8.4459   18.0255 C   0  0  2  0  0  0  0  0  0  0  0  0
   20.3195   -7.9582   18.2374 O   0  0  0  0  0  0  0  0  0  0  0  0
   20.7390   -8.8555   22.3976 C   0  0  2  0  0  0  0  0  0  0  0  0
   21.2498   -9.0674   23.7620 N   0  0  0  0  0  0  0  0  0  0  0  0
   21.5895   -5.2773   19.5478 C   0  0  1  0  0  0  0  0  0  0  0  0
   24.9322   -3.3134   17.9395 C   0  0  1  0  0  0  0  0  0  0  0  0
   26.6711   -3.4290   13.2838 C   0  0  1  0  0  0  0  0  0  0  0  0
   18.6929   -8.3753   16.4967 C   0  0  2  0  0  0  0  0  0  0  0  0
   19.6765   -9.1223   15.7133 N   0  0  0  0  0  0  0  0  0  0  0  0
   21.5647   -9.7178   21.3621 C   0  0  0  0  0  0  0  0  0  0  0  0
   21.4687   -3.8185   19.1053 C   0  0  2  0  0  0  0  0  0  0  0  0
   20.9276   -3.6904   17.7725 O   0  0  0  0  0  0  0  0  0  0  0  0
   24.6766   -2.0219   17.0407 C   0  0  2  0  0  0  0  0  0  0  0  0
   23.7993   -2.3411   15.8834 N   0  0  0  0  0  0  0  0  0  0  0  0
   27.8817   -2.5653   12.9493 C   0  0  1  0  0  0  0  0  0  0  0  0
   28.9249   -3.4010   12.4090 O   0  0  0  0  0  0  0  0  0  0  0  0
   18.6405   -6.8931   16.0074 C   0  0  0  0  0  0  0  0  0  0  0  0
   20.9643   -9.5230   19.9119 C   0  0  2  0  0  0  0  0  0  0  0  0
   21.7223  -10.3033   18.9284 N   0  0  0  0  0  0  0  0  0  0  0  0
   22.8965   -3.3733   19.2363 C   0  0  2  0  0  0  0  0  0  0  0  0
   23.6624   -3.8534   18.1605 O   0  0  0  0  0  0  0  0  0  0  0  0
   26.0788   -1.3696   16.6622 C   0  0  1  0  0  0  0  0  0  0  0  0
   26.8382   -1.1776   17.8603 O   0  0  0  0  0  0  0  0  0  0  0  0
   27.6225   -1.4367   11.9586 C   0  0  1  0  0  0  0  0  0  0  0  0
   28.8961   -0.8965   11.5895 O   0  0  0  0  0  0  0  0  0  0  0  0
   17.6046   -6.1145   16.8712 C   0  0  2  0  0  0  0  0  0  0  0  0
   17.4495   -4.7776   16.4298 O   0  0  0  0  0  0  0  0  0  0  0  0
   20.9621   -8.0214   19.5244 C   0  0  2  0  0  0  0  0  0  0  0  0
   23.4620   -4.1219   20.4608 C   0  0  2  0  0  0  0  0  0  0  0  0
   22.7060   -5.3225   20.4471 O   0  0  0  0  0  0  0  0  0  0  0  0
   26.9419   -2.3397   15.7549 C   0  0  2  0  0  0  0  0  0  0  0  0
   26.1726   -2.4808   14.5596 O   0  0  0  0  0  0  0  0  0  0  0  0
   26.8761   -1.8810   10.6994 C   0  0  2  0  0  0  0  0  0  0  0  0
   26.4376   -0.6866   10.0317 O   0  0  0  0  0  0  0  0  0  0  0  0
   18.0577   -6.1776   18.3510 C   0  0  2  0  0  0  0  0  0  0  0  0
   18.0679   -7.5807   18.7409 O   0  0  0  0  0  0  0  0  0  0  0  0
   20.2637   -7.0925   20.5686 C   0  0  2  0  0  0  0  0  0  0  0  0
   20.3857   -5.7062   20.1445 O   0  0  0  0  0  0  0  0  0  0  0  0
   23.2956   -3.4348   21.8157 C   0  0  0  0  0  0  0  0  0  0  0  0
   24.0868   -2.2377   21.7934 O   0  0  0  0  0  0  0  0  0  0  0  0
   26.8889   -3.6936   16.4361 C   0  0  1  0  0  0  0  0  0  0  0  0
   25.8373   -4.2967   17.2204 O   0  0  0  0  0  0  0  0  0  0  0  0
   25.7567   -2.8620   11.0296 C   0  0  2  0  0  0  0  0  0  0  0  0
   25.8665   -3.7766   12.1310 O   0  0  0  0  0  0  0  0  0  0  0  0
   17.1099   -5.5013   19.2819 C   0  0  0  0  0  0  0  0  0  0  0  0
   17.6714   -5.5586   20.5709 O   0  0  0  0  0  0  0  0  0  0  0  0
   20.8378   -7.3379   22.0047 C   0  0  1  0  0  0  0  0  0  0  0  0
   20.0102   -6.5871   22.9323 O   0  0  0  0  0  0  0  0  0  0  0  0
   27.7524   -4.8253   15.7985 C   0  0  0  0  0  0  0  0  0  0  0  0
   26.9668   -6.0173   15.4156 N   0  0  0  0  0  0  0  0  0  0  0  0
   24.8509   -3.4806    9.9673 C   0  0  0  0  0  0  0  0  0  0  0  0
   23.9152   -2.4860    9.4733 O   0  0  0  0  0  0  0  0  0  0  0  0
  1  2  1  6  0  0  0
  1  8  1  0  0  0  0
  1 36  1  0  0  0  0
  3  4  1  1  0  0  0
  3 10  1  0  0  0  0
  3 47  1  0  0  0  0
  5 11  1  0  0  0  0
  5 30  1  0  0  0  0
  5 38  1  1  0  0  0
  6 21  1  6  0  0  0
  6 42  1  0  0  0  0
  7 15  1  0  0  0  0
  7 44  1  0  0  0  0
  7 32  1  1  0  0  0
  8  9  1  6  0  0  0
  8 17  1  0  0  0  0
 11 12  1  6  0  0  0
 11 20  1  0  0  0  0
 13  6  1  0  0  0  0
 13 14  1  6  0  0  0
 15 16  1  6  0  0  0
 15 24  1  0  0  0  0
 17 26  1  0  0  0  0
 18 10  1  0  0  0  0
 18 19  1  6  0  0  0
 20 21  1  6  0  0  0
 20 29  1  0  0  0  0
 22 13  1  0  0  0  0
 22 23  1  1  0  0  0
 24 25  1  6  0  0  0
 24 33  1  0  0  0  0
 26 27  1  6  0  0  0
 26 35  1  0  0  0  0
 28  2  1  6  0  0  0
 28 18  1  0  0  0  0
 29 30  1  0  0  0  0
 29 39  1  1  0  0  0
 31 22  1  0  0  0  0
 31 32  1  6  0  0  0
 31 41  1  0  0  0  0
 33 34  1  1  0  0  0
 33 43  1  0  0  0  0
 35 36  1  0  0  0  0
 35 45  1  1  0  0  0
 37 28  1  0  0  0  0
 37 38  1  6  0  0  0
 39 40  1  0  0  0  0
 41 42  1  0  0  0  0
 41 49  1  6  0  0  0
 43 44  1  0  0  0  0
 43 51  1  6  0  0  0
 45 46  1  0  0  0  0
 47 37  1  0  0  0  0
 47 48  1  1  0  0  0
 49 50  1  0  0  0  0
 51 52  1  0  0  0  0
M  END
>  <CHROM.1>
-173.13404743,176.55610383,-86.14463932,-65.81880067,166.05496659,58.10462631
-65.84708014,-179.65609204,-176.53715608,-38.46542718,-122.83086772,-73.21371532
23.00202072,-4.85623805,17.10475094,2.36729425,0.53544434,1.66733460

>  <Name>
2esj_lig

>  <RI>
2.18877e+07

>  <Rbt.Current_Directory>
/home/itssahil/PROJECTS/Mol_Feturizer/New_Systems/rnas/2esj

>  <Rbt.Executable>
rbdock ($Id: //depot/dev/client3/rdock/2013.1/src/exe/rbdock.cxx#4 $)

>  <Rbt.Library>
libRbt.so (2013.1, Build901 2013/11/27)

>  <Rbt.Parameter_File>
/export/apps/rDock/src/rDock_2013.1_src/data/scripts/dock_solv.prm

>  <Rbt.Receptor>
prm/pocket_docking_7.prm

>  <SCORE>
-12.8802

>  <SCORE.INTER>
-4.88514

>  <SCORE.INTER.CONST>
1

>  <SCORE.INTER.POLAR>
-0.749237

>  <SCORE.INTER.ROT>
12

>  <SCORE.INTER.SOLV>
17.5408

>  <SCORE.INTER.VDW>
-18.2062

>  <SCORE.INTER.norm>
-0.0939449

>  <SCORE.INTRA>
-7.99507

>  <SCORE.INTRA.DIHEDRAL>
-21.149

>  <SCORE.INTRA.DIHEDRAL.0>
32.9766

>  <SCORE.INTRA.POLAR>
0

>  <SCORE.INTRA.POLAR.0>
0

>  <SCORE.INTRA.REPUL>
0

>  <SCORE.INTRA.REPUL.0>
0

>  <SCORE.INTRA.SOLV>
-0.37474

>  <SCORE.INTRA.SOLV.lig_0>
-114.358

>  <SCORE.INTRA.VDW>
2.76679

>  <SCORE.INTRA.VDW.0>
-8.24257

>  <SCORE.INTRA.norm>
-0.153751

>  <SCORE.RESTR>
0

>  <SCORE.RESTR.CAVITY>
0

>  <SCORE.RESTR.norm>
0

>  <SCORE.SYSTEM>
0

>  <SCORE.SYSTEM.CONST>
0

>  <SCORE.SYSTEM.DIHEDRAL>
0

>  <SCORE.SYSTEM.SOLV>
0

>  <SCORE.SYSTEM.norm>
0

>  <SCORE.heavy>
52

>  <SCORE.norm>
-0.247696

>  <RMSD>
5.287

$$$$
2esj_lig
 OpenBabel11021811423D
libRbt.so/2013.1/901 2013/11/27
 52 56  0  0  0  0  0  0  0  0999 V2000
   17.7763   -4.2710   16.2522 C   0  0  2  0  0  0  0  0  0  0  0  0
   18.2567   -5.6287   16.2254 O   0  0  0  0  0  0  0  0  0  0  0  0
   20.1288   -5.8801   20.0621 C   0  0  2  0  0  0  0  0  0  0  0  0
   20.6844   -6.3394   21.3457 N   0  0  0  0  0  0  0  0  0  0  0  0
   22.3350   -6.1714   16.0135 C   0  0  1  0  0  0  0  0  0  0  0  0
   26.2762   -5.5827   14.6306 C   0  0  1  0  0  0  0  0  0  0  0  0
   28.9801   -1.2481   15.9158 C   0  0  1  0  0  0  0  0  0  0  0  0
   17.3747   -3.8872   14.7975 C   0  0  2  0  0  0  0  0  0  0  0  0
   16.3845   -4.8056   14.2361 N   0  0  0  0  0  0  0  0  0  0  0  0
   18.6043   -6.2806   19.9489 C   0  0  0  0  0  0  0  0  0  0  0  0
   23.1919   -7.3563   15.5662 C   0  0  2  0  0  0  0  0  0  0  0  0
   23.8538   -8.0061   16.6730 O   0  0  0  0  0  0  0  0  0  0  0  0
   27.2834   -5.1303   15.7805 C   0  0  2  0  0  0  0  0  0  0  0  0
   26.6327   -4.1745   16.7154 N   0  0  0  0  0  0  0  0  0  0  0  0
   29.7668   -2.3123   16.6720 C   0  0  1  0  0  0  0  0  0  0  0  0
   31.1333   -1.8766   16.8182 O   0  0  0  0  0  0  0  0  0  0  0  0
   18.6298   -3.8292   13.8698 C   0  0  0  0  0  0  0  0  0  0  0  0
   18.0102   -5.7278   18.5913 C   0  0  2  0  0  0  0  0  0  0  0  0
   16.5976   -6.0981   18.4552 N   0  0  0  0  0  0  0  0  0  0  0  0
   24.1228   -6.6741   14.6058 C   0  0  2  0  0  0  0  0  0  0  0  0
   25.1094   -5.9562   15.3026 O   0  0  0  0  0  0  0  0  0  0  0  0
   28.6299   -4.6061   15.1117 C   0  0  1  0  0  0  0  0  0  0  0  0
   29.1064   -5.5958   14.1940 O   0  0  0  0  0  0  0  0  0  0  0  0
   29.2320   -2.6560   18.0570 C   0  0  1  0  0  0  0  0  0  0  0  0
   30.2134   -3.4783   18.6979 O   0  0  0  0  0  0  0  0  0  0  0  0
   19.6772   -2.8642   14.5002 C   0  0  2  0  0  0  0  0  0  0  0  0
   20.8131   -2.7044   13.6693 O   0  0  0  0  0  0  0  0  0  0  0  0
   18.8271   -6.2617   17.3861 C   0  0  2  0  0  0  0  0  0  0  0  0
   23.2859   -5.5803   13.9109 C   0  0  2  0  0  0  0  0  0  0  0  0
   22.3438   -5.2460   14.9177 O   0  0  0  0  0  0  0  0  0  0  0  0
   28.3772   -3.3025   14.2479 C   0  0  2  0  0  0  0  0  0  0  0  0
   27.9372   -2.3307   15.1978 O   0  0  0  0  0  0  0  0  0  0  0  0
   28.9481   -1.4321   18.9296 C   0  0  2  0  0  0  0  0  0  0  0  0
   28.1730   -1.8895   20.0497 O   0  0  0  0  0  0  0  0  0  0  0  0
   20.0646   -3.4100   15.8970 C   0  0  2  0  0  0  0  0  0  0  0  0
   18.8549   -3.4208   16.7080 O   0  0  0  0  0  0  0  0  0  0  0  0
   20.3645   -6.0044   17.4914 C   0  0  2  0  0  0  0  0  0  0  0  0
   21.0379   -6.6093   16.3525 O   0  0  0  0  0  0  0  0  0  0  0  0
   22.5435   -5.9947   12.6410 C   0  0  0  0  0  0  0  0  0  0  0  0
   21.8423   -4.8411   12.1542 O   0  0  0  0  0  0  0  0  0  0  0  0
   27.1665   -3.6091   13.3874 C   0  0  1  0  0  0  0  0  0  0  0  0
   26.0199   -4.4421   13.6629 O   0  0  0  0  0  0  0  0  0  0  0  0
   28.2920   -0.3136   18.1277 C   0  0  2  0  0  0  0  0  0  0  0  0
   28.5871   -0.1209   16.7357 O   0  0  0  0  0  0  0  0  0  0  0  0
   21.0327   -2.5354   16.6184 C   0  0  0  0  0  0  0  0  0  0  0  0
   20.4079   -1.2907   16.8196 O   0  0  0  0  0  0  0  0  0  0  0  0
   20.9221   -6.5134   18.8633 C   0  0  1  0  0  0  0  0  0  0  0  0
   22.3001   -6.0651   18.9601 O   0  0  0  0  0  0  0  0  0  0  0  0
   26.7572   -2.5171   12.3517 C   0  0  0  0  0  0  0  0  0  0  0  0
   25.3792   -2.6792   11.8422 N   0  0  0  0  0  0  0  0  0  0  0  0
   27.9047    1.0318   18.7373 C   0  0  0  0  0  0  0  0  0  0  0  0
   27.0511    1.7647   17.8192 O   0  0  0  0  0  0  0  0  0  0  0  0
  1  2  1  6  0  0  0
  1  8  1  0  0  0  0
  1 36  1  0  0  0  0
  3  4  1  1  0  0  0
  3 10  1  0  0  0  0
  3 47  1  0  0  0  0
  5 11  1  0  0  0  0
  5 30  1  0  0  0  0
  5 38  1  6  0  0  0
  6 21  1  1  0  0  0
  6 42  1  0  0  0  0
  7 15  1  0  0  0  0
  7 44  1  0  0  0  0
  7 32  1  1  0  0  0
  8  9  1  6  0  0  0
  8 17  1  0  0  0  0
 11 12  1  1  0  0  0
 11 20  1  0  0  0  0
 13  6  1  0  0  0  0
 13 14  1  6  0  0  0
 15 16  1  1  0  0  0
 15 24  1  0  0  0  0
 17 26  1  0  0  0  0
 18 10  1  0  0  0  0
 18 19  1  6  0  0  0
 20 21  1  1  0  0  0
 20 29  1  0  0  0  0
 22 13  1  0  0  0  0
 22 23  1  6  0  0  0
 24 25  1  1  0  0  0
 24 33  1  0  0  0  0
 26 27  1  6  0  0  0
 26 35  1  0  0  0  0
 28  2  1  6  0  0  0
 28 18  1  0  0  0  0
 29 30  1  0  0  0  0
 29 39  1  6  0  0  0
 31 22  1  0  0  0  0
 31 32  1  1  0  0  0
 31 41  1  0  0  0  0
 33 34  1  1  0  0  0
 33 43  1  0  0  0  0
 35 36  1  0  0  0  0
 35 45  1  1  0  0  0
 37 28  1  0  0  0  0
 37 38  1  6  0  0  0
 39 40  1  0  0  0  0
 41 42  1  0  0  0  0
 41 49  1  1  0  0  0
 43 44  1  0  0  0  0
 43 51  1  1  0  0  0
 45 46  1  0  0  0  0
 47 37  1  0  0  0  0
 47 48  1  1  0  0  0
 49 50  1  0  0  0  0
 51 52  1  0  0  0  0
M  END
>  <CHROM.1>
174.18144303,141.59261046,-166.45890408,-65.51695115,161.50904621,36.50823566
-179.61941672,94.76049741,62.05578817,160.68167238,-162.82935596,-167.65257462
23.75434542,-4.06652066,16.19748063,3.09051061,-0.29399752,-1.78594626

>  <Name>
2esj_lig

>  <RI>
0

>  <Rbt.Current_Directory>
/home/itssahil/PROJECTS/Mol_Feturizer/New_Systems/rnas/2esj

>  <Rbt.Executable>
rbdock ($Id: //depot/dev/client3/rdock/2013.1/src/exe/rbdock.cxx#4 $)

>  <Rbt.Library>
libRbt.so (2013.1, Build901 2013/11/27)

>  <Rbt.Parameter_File>
/export/apps/rDock/src/rDock_2013.1_src/data/scripts/dock_solv.prm

>  <Rbt.Receptor>
prm/pocket_docking_6.prm

>  <SCORE>
-8.9486

>  <SCORE.INTER>
-5.17908

>  <SCORE.INTER.CONST>
1

>  <SCORE.INTER.POLAR>
-1.95959

>  <SCORE.INTER.ROT>
12

>  <SCORE.INTER.SOLV>
12.7164

>  <SCORE.INTER.VDW>
-12.7595

>  <SCORE.INTER.norm>
-0.0995976

>  <SCORE.INTRA>
-3.76952

>  <SCORE.INTRA.DIHEDRAL>
-11.7065

>  <SCORE.INTRA.DIHEDRAL.0>
32.9766

>  <SCORE.INTRA.POLAR>
0

>  <SCORE.INTRA.POLAR.0>
0

>  <SCORE.INTRA.REPUL>
0.0126972

>  <SCORE.INTRA.REPUL.0>
0

>  <SCORE.INTRA.SOLV>
0.121657

>  <SCORE.INTRA.SOLV.lig_0>
-114.358

>  <SCORE.INTRA.VDW>
1.95942

>  <SCORE.INTRA.VDW.0>
-8.24257

>  <SCORE.INTRA.norm>
-0.0724908

>  <SCORE.RESTR>
0

>  <SCORE.RESTR.CAVITY>
0

>  <SCORE.RESTR.norm>
0

>  <SCORE.SYSTEM>
0

>  <SCORE.SYSTEM.CONST>
0

>  <SCORE.SYSTEM.DIHEDRAL>
0

>  <SCORE.SYSTEM.SOLV>
0

>  <SCORE.SYSTEM.norm>
0

>  <SCORE.heavy>
52

>  <SCORE.norm>
-0.172088

>  <RMSD>
5.304

$$$$
2esj_lig
 OpenBabel11021811423D
libRbt.so/2013.1/901 2013/11/27
 52 56  0  0  0  0  0  0  0  0999 V2000
   21.1729   -9.4391   20.2686 C   0  0  2  0  0  0  0  0  0  0  0  0
   19.9832  -10.2479   20.3421 O   0  0  0  0  0  0  0  0  0  0  0  0
   18.6744  -13.7843   18.3249 C   0  0  2  0  0  0  0  0  0  0  0  0
   18.1529  -14.7522   17.3459 N   0  0  0  0  0  0  0  0  0  0  0  0
   21.7350  -10.5701   17.3315 C   0  0  1  0  0  0  0  0  0  0  0  0
   21.8747   -8.2295   13.9366 C   0  0  1  0  0  0  0  0  0  0  0  0
   23.9808   -3.9664   12.4905 C   0  0  1  0  0  0  0  0  0  0  0  0
   21.8709   -9.5050   21.6591 C   0  0  2  0  0  0  0  0  0  0  0  0
   22.1687  -10.8784   22.0644 N   0  0  0  0  0  0  0  0  0  0  0  0
   17.6180  -12.6366   18.5785 C   0  0  0  0  0  0  0  0  0  0  0  0
   23.1030  -10.4065   16.6680 C   0  0  2  0  0  0  0  0  0  0  0  0
   23.9057   -9.3890   17.3051 O   0  0  0  0  0  0  0  0  0  0  0  0
   23.1811   -8.3409   13.0298 C   0  0  2  0  0  0  0  0  0  0  0  0
   24.3658   -7.7747   13.7275 N   0  0  0  0  0  0  0  0  0  0  0  0
   23.6381   -3.5434   11.0667 C   0  0  1  0  0  0  0  0  0  0  0  0
   23.0025   -2.2497   11.0970 O   0  0  0  0  0  0  0  0  0  0  0  0
   21.0019   -8.8062   22.7525 C   0  0  0  0  0  0  0  0  0  0  0  0
   18.1707  -11.6402   19.6755 C   0  0  2  0  0  0  0  0  0  0  0  0
   17.2135  -10.5563   19.9200 N   0  0  0  0  0  0  0  0  0  0  0  0
   22.6885  -10.0751   15.2636 C   0  0  2  0  0  0  0  0  0  0  0  0
   22.2566   -8.7406   15.1798 O   0  0  0  0  0  0  0  0  0  0  0  0
   22.8747   -7.7070   11.6017 C   0  0  1  0  0  0  0  0  0  0  0  0
   21.6795   -8.2972   11.0804 O   0  0  0  0  0  0  0  0  0  0  0  0
   24.8205   -3.4644   10.1086 C   0  0  1  0  0  0  0  0  0  0  0  0
   24.3536   -2.8336    8.9109 O   0  0  0  0  0  0  0  0  0  0  0  0
   20.6793   -7.3552   22.2875 C   0  0  2  0  0  0  0  0  0  0  0  0
   19.9560   -6.6358   23.2700 O   0  0  0  0  0  0  0  0  0  0  0  0
   19.5419  -11.0617   19.2394 C   0  0  2  0  0  0  0  0  0  0  0  0
   21.4120  -10.8982   14.9943 C   0  0  2  0  0  0  0  0  0  0  0  0
   20.8429  -10.9920   16.2906 O   0  0  0  0  0  0  0  0  0  0  0  0
   22.5782   -6.1547   11.7095 C   0  0  2  0  0  0  0  0  0  0  0  0
   23.7986   -5.5964   12.1986 O   0  0  0  0  0  0  0  0  0  0  0  0
   26.0118   -2.6811   10.6627 C   0  0  2  0  0  0  0  0  0  0  0  0
   27.1292   -2.9583    9.8029 O   0  0  0  0  0  0  0  0  0  0  0  0
   19.9020   -7.4331   20.9500 C   0  0  2  0  0  0  0  0  0  0  0  0
   20.7750   -8.0783   19.9792 O   0  0  0  0  0  0  0  0  0  0  0  0
   20.6005  -12.1452   18.8569 C   0  0  2  0  0  0  0  0  0  0  0  0
   21.8164  -11.4947   18.3934 O   0  0  0  0  0  0  0  0  0  0  0  0
   21.6145  -12.3032   14.4279 C   0  0  0  0  0  0  0  0  0  0  0  0
   20.3190  -12.8311   14.1077 O   0  0  0  0  0  0  0  0  0  0  0  0
   21.5793   -6.0056   12.8409 C   0  0  1  0  0  0  0  0  0  0  0  0
   21.4184   -6.7861   14.0449 O   0  0  0  0  0  0  0  0  0  0  0  0
   26.2570   -3.0019   12.1329 C   0  0  2  0  0  0  0  0  0  0  0  0
   25.1741   -3.3352   13.0149 O   0  0  0  0  0  0  0  0  0  0  0  0
   19.5793   -6.0929   20.3826 C   0  0  0  0  0  0  0  0  0  0  0  0
   18.6931   -5.4597   21.2736 O   0  0  0  0  0  0  0  0  0  0  0  0
   20.0155  -13.1503   17.8082 C   0  0  1  0  0  0  0  0  0  0  0  0
   20.9816  -14.2240   17.6567 O   0  0  0  0  0  0  0  0  0  0  0  0
   21.0303   -4.5683   13.0967 C   0  0  0  0  0  0  0  0  0  0  0  0
   20.1481   -4.4793   14.2793 N   0  0  0  0  0  0  0  0  0  0  0  0
   27.3749   -2.3590   12.9507 C   0  0  0  0  0  0  0  0  0  0  0  0
   28.6546   -2.9377   12.5819 O   0  0  0  0  0  0  0  0  0  0  0  0
  1  2  1  1  0  0  0
  1  8  1  0  0  0  0
  1 36  1  0  0  0  0
  3  4  1  6  0  0  0
  3 10  1  0  0  0  0
  3 47  1  0  0  0  0
  5 11  1  0  0  0  0
  5 30  1  0  0  0  0
  5 38  1  1  0  0  0
  6 21  1  1  0  0  0
  6 42  1  0  0  0  0
  7 15  1  0  0  0  0
  7 44  1  0  0  0  0
  7 32  1  6  0  0  0
  8  9  1  1  0  0  0
  8 17  1  0  0  0  0
 11 12  1  1  0  0  0
 11 20  1  0  0  0  0
 13  6  1  0  0  0  0
 13 14  1  1  0  0  0
 15 16  1  1  0  0  0
 15 24  1  0  0  0  0
 17 26  1  0  0  0  0
 18 10  1  0  0  0  0
 18 19  1  6  0  0  0
 20 21  1  1  0  0  0
 20 29  1  0  0  0  0
 22 13  1  0  0  0  0
 22 23  1  1  0  0  0
 24 25  1  6  0  0  0
 24 33  1  0  0  0  0
 26 27  1  1  0  0  0
 26 35  1  0  0  0  0
 28  2  1  1  0  0  0
 28 18  1  0  0  0  0
 29 30  1  0  0  0  0
 29 39  1  1  0  0  0
 31 22  1  0  0  0  0
 31 32  1  1  0  0  0
 31 41  1  0  0  0  0
 33 34  1  6  0  0  0
 33 43  1  0  0  0  0
 35 36  1  0  0  0  0
 35 45  1  6  0  0  0
 37 28  1  0  0  0  0
 37 38  1  6  0  0  0
 39 40  1  0  0  0  0
 41 42  1  0  0  0  0
 41 49  1  1  0  0  0
 43 44  1  0  0  0  0
 43 51  1  1  0  0  0
 45 46  1  0  0  0  0
 47 37  1  0  0  0  0
 47 48  1  1  0  0  0
 49 50  1  0  0  0  0
 51 52  1  0  0  0  0
M  END
>  <CHROM.1>
-142.10008976,-159.01516567,-61.10606180,-57.82370507,177.70407868,-174.30217052
-173.41859319,-179.56652905,-65.00024905,-55.11854556,-175.35667766,-74.87979950
21.97324129,-8.01578714,15.91876933,-2.96493386,-1.13826009,-2.24485407

>  <Name>
2esj_lig

>  <RI>
0

>  <Rbt.Current_Directory>
/home/itssahil/PROJECTS/Mol_Feturizer/New_Systems/rnas/2esj

>  <Rbt.Executable>
rbdock ($Id: //depot/dev/client3/rdock/2013.1/src/exe/rbdock.cxx#4 $)

>  <Rbt.Library>
libRbt.so (2013.1, Build901 2013/11/27)

>  <Rbt.Parameter_File>
/export/apps/rDock/src/rDock_2013.1_src/data/scripts/dock_solv.prm

>  <Rbt.Receptor>
prm/pocket_docking_6.prm

>  <SCORE>
-15.0679

>  <SCORE.INTER>
-8.85459

>  <SCORE.INTER.CONST>
1

>  <SCORE.INTER.POLAR>
-0.272221

>  <SCORE.INTER.ROT>
12

>  <SCORE.INTER.SOLV>
16.1619

>  <SCORE.INTER.VDW>
-21.983

>  <SCORE.INTER.norm>
-0.170281

>  <SCORE.INTRA>
-6.21562

>  <SCORE.INTRA.DIHEDRAL>
-20.2178

>  <SCORE.INTRA.DIHEDRAL.0>
32.9766

>  <SCORE.INTRA.POLAR>
0

>  <SCORE.INTRA.POLAR.0>
0

>  <SCORE.INTRA.REPUL>
0

>  <SCORE.INTRA.REPUL.0>
0

>  <SCORE.INTRA.SOLV>
-2.11795

>  <SCORE.INTRA.SOLV.lig_0>
-114.358

>  <SCORE.INTRA.VDW>
4.95228

>  <SCORE.INTRA.VDW.0>
-8.24257

>  <SCORE.INTRA.norm>
-0.119531

>  <SCORE.RESTR>
0.00230432

>  <SCORE.RESTR.CAVITY>
0.00230432

>  <SCORE.RESTR.norm>
4.43138e-05

>  <SCORE.SYSTEM>
0

>  <SCORE.SYSTEM.CONST>
0

>  <SCORE.SYSTEM.DIHEDRAL>
0

>  <SCORE.SYSTEM.SOLV>
0

>  <SCORE.SYSTEM.norm>
0

>  <SCORE.heavy>
52

>  <SCORE.norm>
-0.289767

>  <RMSD>
5.317

$$$$
2esj_lig
 OpenBabel11021811423D
libRbt.so/2013.1/901 2013/11/27
 52 56  0  0  0  0  0  0  0  0999 V2000
   20.1959   -7.9848   12.1252 C   0  0  2  0  0  0  0  0  0  0  0  0
   19.4975   -7.6658   13.3439 O   0  0  0  0  0  0  0  0  0  0  0  0
   18.7759   -9.9226   16.9040 C   0  0  2  0  0  0  0  0  0  0  0  0
   18.9117  -10.6899   18.1531 N   0  0  0  0  0  0  0  0  0  0  0  0
   20.9923   -6.0285   15.9271 C   0  0  1  0  0  0  0  0  0  0  0  0
   24.0412   -4.0180   14.8521 C   0  0  1  0  0  0  0  0  0  0  0  0
   28.8693   -4.0627   13.0499 C   0  0  1  0  0  0  0  0  0  0  0  0
   21.6884   -7.5867   12.3224 C   0  0  2  0  0  0  0  0  0  0  0  0
   22.2878   -8.2443   13.4832 N   0  0  0  0  0  0  0  0  0  0  0  0
   19.6158  -10.6001   15.7494 C   0  0  0  0  0  0  0  0  0  0  0  0
   21.2898   -4.5307   16.0077 C   0  0  2  0  0  0  0  0  0  0  0  0
   21.3297   -3.9065   14.7060 O   0  0  0  0  0  0  0  0  0  0  0  0
   24.9907   -4.8617   13.8889 C   0  0  2  0  0  0  0  0  0  0  0  0
   26.0161   -5.6060   14.6670 N   0  0  0  0  0  0  0  0  0  0  0  0
   29.5007   -4.8484   14.1934 C   0  0  1  0  0  0  0  0  0  0  0  0
   30.1798   -6.0016   13.6573 O   0  0  0  0  0  0  0  0  0  0  0  0
   21.8393   -6.0378   12.4541 C   0  0  0  0  0  0  0  0  0  0  0  0
   19.4105   -9.7964   14.4027 C   0  0  2  0  0  0  0  0  0  0  0  0
   20.1913  -10.3976   13.3166 N   0  0  0  0  0  0  0  0  0  0  0  0
   22.6101   -4.5516   16.7221 C   0  0  2  0  0  0  0  0  0  0  0  0
   23.6407   -4.9205   15.8410 O   0  0  0  0  0  0  0  0  0  0  0  0
   25.5701   -3.8988   12.7609 C   0  0  1  0  0  0  0  0  0  0  0  0
   24.4822   -3.2042   12.1422 O   0  0  0  0  0  0  0  0  0  0  0  0
   30.4958   -4.0707   15.0462 C   0  0  1  0  0  0  0  0  0  0  0  0
   31.1508   -5.0153   15.8999 O   0  0  0  0  0  0  0  0  0  0  0  0
   21.1738   -5.3607   11.2194 C   0  0  2  0  0  0  0  0  0  0  0  0
   21.3419   -3.9545   11.2356 O   0  0  0  0  0  0  0  0  0  0  0  0
   19.8071   -8.3095   14.5942 C   0  0  2  0  0  0  0  0  0  0  0  0
   22.5328   -5.7264   17.7189 C   0  0  2  0  0  0  0  0  0  0  0  0
   21.6552   -6.6205   17.0530 O   0  0  0  0  0  0  0  0  0  0  0  0
   26.5018   -2.7775   13.3803 C   0  0  2  0  0  0  0  0  0  0  0  0
   27.5892   -3.5024   13.9569 O   0  0  0  0  0  0  0  0  0  0  0  0
   31.5445   -3.3112   14.2317 C   0  0  2  0  0  0  0  0  0  0  0  0
   32.1925   -2.3994   15.1336 O   0  0  0  0  0  0  0  0  0  0  0  0
   19.6764   -5.7559   11.1947 C   0  0  2  0  0  0  0  0  0  0  0  0
   19.6134   -7.2042   11.0550 O   0  0  0  0  0  0  0  0  0  0  0  0
   19.1003   -7.6091   15.7987 C   0  0  2  0  0  0  0  0  0  0  0  0
   19.5993   -6.2490   15.9314 O   0  0  0  0  0  0  0  0  0  0  0  0
   21.9739   -5.4075   19.1051 C   0  0  0  0  0  0  0  0  0  0  0  0
   22.7350   -4.3132   19.6369 O   0  0  0  0  0  0  0  0  0  0  0  0
   25.7285   -2.2025   14.5514 C   0  0  1  0  0  0  0  0  0  0  0  0
   24.7903   -2.8390   15.4454 O   0  0  0  0  0  0  0  0  0  0  0  0
   30.9275   -2.6480   13.0053 C   0  0  2  0  0  0  0  0  0  0  0  0
   29.8092   -3.2352   12.3224 O   0  0  0  0  0  0  0  0  0  0  0  0
   18.9444   -5.1997   10.0211 C   0  0  0  0  0  0  0  0  0  0  0  0
   17.5799   -5.4960   10.1957 O   0  0  0  0  0  0  0  0  0  0  0  0
   19.2732   -8.4470   17.1102 C   0  0  1  0  0  0  0  0  0  0  0  0
   18.4325   -7.8357   18.1246 O   0  0  0  0  0  0  0  0  0  0  0  0
   26.3819   -0.9923   15.2871 C   0  0  0  0  0  0  0  0  0  0  0  0
   25.9677    0.3180   14.7430 N   0  0  0  0  0  0  0  0  0  0  0  0
   31.7394   -1.8306   12.0032 C   0  0  0  0  0  0  0  0  0  0  0  0
   32.9357   -2.5603   11.6220 O   0  0  0  0  0  0  0  0  0  0  0  0
  1  2  1  1  0  0  0
  1  8  1  0  0  0  0
  1 36  1  0  0  0  0
  3  4  1  1  0  0  0
  3 10  1  0  0  0  0
  3 47  1  0  0  0  0
  5 11  1  0  0  0  0
  5 30  1  0  0  0  0
  5 38  1  1  0  0  0
  6 21  1  1  0  0  0
  6 42  1  0  0  0  0
  7 15  1  0  0  0  0
  7 44  1  0  0  0  0
  7 32  1  1  0  0  0
  8  9  1  1  0  0  0
  8 17  1  0  0  0  0
 11 12  1  6  0  0  0
 11 20  1  0  0  0  0
 13  6  1  0  0  0  0
 13 14  1  1  0  0  0
 15 16  1  6  0  0  0
 15 24  1  0  0  0  0
 17 26  1  0  0  0  0
 18 10  1  0  0  0  0
 18 19  1  6  0  0  0
 20 21  1  6  0  0  0
 20 29  1  0  0  0  0
 22 13  1  0  0  0  0
 22 23  1  1  0  0  0
 24 25  1  1  0  0  0
 24 33  1  0  0  0  0
 26 27  1  1  0  0  0
 26 35  1  0  0  0  0
 28  2  1  6  0  0  0
 28 18  1  0  0  0  0
 29 30  1  0  0  0  0
 29 39  1  1  0  0  0
 31 22  1  0  0  0  0
 31 32  1  1  0  0  0
 31 41  1  0  0  0  0
 33 34  1  1  0  0  0
 33 43  1  0  0  0  0
 35 36  1  0  0  0  0
 35 45  1  6  0  0  0
 37 28  1  0  0  0  0
 37 38  1  1  0  0  0
 39 40  1  0  0  0  0
 41 42  1  0  0  0  0
 41 49  1  1  0  0  0
 43 44  1  0  0  0  0
 43 51  1  6  0  0  0
 45 46  1  0  0  0  0
 47 37  1  0  0  0  0
 47 48  1  1  0  0  0
 49 50  1  0  0  0  0
 51 52  1  0  0  0  0
M  END
>  <CHROM.1>
-63.40206084,177.19590829,-169.13431304,-173.01034545,71.25454719,-65.82362946
-53.96981013,80.78578563,-173.30833261,-48.97659149,91.26914710,48.00643529
23.82178158,-5.35023182,14.36664867,2.96273540,0.39231120,1.80141282

>  <Name>
2esj_lig

>  <RI>
1.62275e+07

>  <Rbt.Current_Directory>
/home/itssahil/PROJECTS/Mol_Feturizer/New_Systems/rnas/2esj

>  <Rbt.Executable>
rbdock ($Id: //depot/dev/client3/rdock/2013.1/src/exe/rbdock.cxx#4 $)

>  <Rbt.Library>
libRbt.so (2013.1, Build901 2013/11/27)

>  <Rbt.Parameter_File>
/export/apps/rDock/src/rDock_2013.1_src/data/scripts/dock_solv.prm

>  <Rbt.Receptor>
prm/pocket_docking_5.prm

>  <SCORE>
-12.9439

>  <SCORE.INTER>
-4.98212

>  <SCORE.INTER.CONST>
1

>  <SCORE.INTER.POLAR>
-0.799005

>  <SCORE.INTER.ROT>
12

>  <SCORE.INTER.SOLV>
10.457

>  <SCORE.INTER.VDW>
-15.7437

>  <SCORE.INTER.norm>
-0.0958099

>  <SCORE.INTRA>
-7.96178

>  <SCORE.INTRA.DIHEDRAL>
-23.5137

>  <SCORE.INTRA.DIHEDRAL.0>
32.9766

>  <SCORE.INTRA.POLAR>
0

>  <SCORE.INTRA.POLAR.0>
0

>  <SCORE.INTRA.REPUL>
0

>  <SCORE.INTRA.REPUL.0>
0

>  <SCORE.INTRA.SOLV>
2.33423

>  <SCORE.INTRA.SOLV.lig_0>
-114.358

>  <SCORE.INTRA.VDW>
2.62793

>  <SCORE.INTRA.VDW.0>
-8.24257

>  <SCORE.INTRA.norm>
-0.153111

>  <SCORE.RESTR>
0

>  <SCORE.RESTR.CAVITY>
0

>  <SCORE.RESTR.norm>
0

>  <SCORE.SYSTEM>
0

>  <SCORE.SYSTEM.CONST>
0

>  <SCORE.SYSTEM.DIHEDRAL>
0

>  <SCORE.SYSTEM.SOLV>
0

>  <SCORE.SYSTEM.norm>
0

>  <SCORE.heavy>
52

>  <SCORE.norm>
-0.248921

>  <RMSD>
5.323

$$$$
2esj_lig
 OpenBabel11021811423D
libRbt.so/2013.1/901 2013/11/27
 52 56  0  0  0  0  0  0  0  0999 V2000
   19.6427   -8.4768   14.3935 C   0  0  2  0  0  0  0  0  0  0  0  0
   18.7758   -7.5258   15.0407 O   0  0  0  0  0  0  0  0  0  0  0  0
   17.1220   -7.3540   18.9807 C   0  0  2  0  0  0  0  0  0  0  0  0
   16.9240   -7.2786   20.4375 N   0  0  0  0  0  0  0  0  0  0  0  0
   19.7994   -4.4396   16.9661 C   0  0  1  0  0  0  0  0  0  0  0  0
   22.2677   -3.4024   17.2576 C   0  0  1  0  0  0  0  0  0  0  0  0
   27.1553   -2.5632   16.0805 C   0  0  1  0  0  0  0  0  0  0  0  0
   21.1051   -8.1319   14.8026 C   0  0  2  0  0  0  0  0  0  0  0  0
   21.2871   -8.1267   16.2538 N   0  0  0  0  0  0  0  0  0  0  0  0
   18.0531   -8.5777   18.6158 C   0  0  0  0  0  0  0  0  0  0  0  0
   19.4782   -3.5277   18.1509 C   0  0  2  0  0  0  0  0  0  0  0  0
   19.3206   -2.1475   17.7565 O   0  0  0  0  0  0  0  0  0  0  0  0
   23.7335   -3.9856   17.4867 C   0  0  2  0  0  0  0  0  0  0  0  0
   24.5289   -3.0983   18.3761 N   0  0  0  0  0  0  0  0  0  0  0  0
   27.5865   -1.3899   15.2081 C   0  0  1  0  0  0  0  0  0  0  0  0
   28.9001   -0.9558   15.6137 O   0  0  0  0  0  0  0  0  0  0  0  0
   21.5397   -6.7544   14.2089 C   0  0  0  0  0  0  0  0  0  0  0  0
   18.2059   -8.6778   17.0447 C   0  0  2  0  0  0  0  0  0  0  0  0
   19.0777   -9.7991   16.6795 N   0  0  0  0  0  0  0  0  0  0  0  0
   20.6700   -3.7863   19.0267 C   0  0  2  0  0  0  0  0  0  0  0  0
   21.7968   -3.1031   18.5388 O   0  0  0  0  0  0  0  0  0  0  0  0
   24.3965   -4.2883   16.0711 C   0  0  1  0  0  0  0  0  0  0  0  0
   23.4979   -5.0948   15.3024 O   0  0  0  0  0  0  0  0  0  0  0  0
   27.6254   -1.6716   13.7109 C   0  0  1  0  0  0  0  0  0  0  0  0
   28.2688   -0.5551   13.0866 O   0  0  0  0  0  0  0  0  0  0  0  0
   21.3147   -6.7772   12.6679 C   0  0  2  0  0  0  0  0  0  0  0  0
   21.7616   -5.5822   12.0527 O   0  0  0  0  0  0  0  0  0  0  0  0
   18.7639   -7.3500   16.4697 C   0  0  2  0  0  0  0  0  0  0  0  0
   21.0228   -5.2753   18.8315 C   0  0  2  0  0  0  0  0  0  0  0  0
   20.5966   -5.5068   17.4982 O   0  0  0  0  0  0  0  0  0  0  0  0
   24.6070   -2.9595   15.2349 C   0  0  2  0  0  0  0  0  0  0  0  0
   25.5315   -2.1972   16.0124 O   0  0  0  0  0  0  0  0  0  0  0  0
   28.3709   -2.9562   13.3445 C   0  0  2  0  0  0  0  0  0  0  0  0
   28.0561   -3.2437   11.9723 O   0  0  0  0  0  0  0  0  0  0  0  0
   19.8105   -7.0295   12.3983 C   0  0  2  0  0  0  0  0  0  0  0  0
   19.4822   -8.3313   12.9627 O   0  0  0  0  0  0  0  0  0  0  0  0
   17.9567   -6.0809   16.8922 C   0  0  2  0  0  0  0  0  0  0  0  0
   18.6075   -4.8922   16.3631 O   0  0  0  0  0  0  0  0  0  0  0  0
   20.3286   -6.2675   19.7639 C   0  0  0  0  0  0  0  0  0  0  0  0
   20.7264   -5.9506   21.1059 O   0  0  0  0  0  0  0  0  0  0  0  0
   23.2907   -2.2107   15.3168 C   0  0  1  0  0  0  0  0  0  0  0  0
   22.3137   -2.1659   16.3789 O   0  0  0  0  0  0  0  0  0  0  0  0
   28.0451   -4.0876   14.3131 C   0  0  2  0  0  0  0  0  0  0  0  0
   27.7486   -3.8263   15.6935 O   0  0  0  0  0  0  0  0  0  0  0  0
   19.4839   -7.1192   10.9465 C   0  0  0  0  0  0  0  0  0  0  0  0
   19.4514   -5.8069   10.4396 O   0  0  0  0  0  0  0  0  0  0  0  0
   17.7739   -6.0285   18.4466 C   0  0  1  0  0  0  0  0  0  0  0  0
   16.8580   -4.9389   18.7350 O   0  0  0  0  0  0  0  0  0  0  0  0
   23.1870   -0.8967   14.4829 C   0  0  0  0  0  0  0  0  0  0  0  0
   24.3971   -0.0521   14.5664 N   0  0  0  0  0  0  0  0  0  0  0  0
   28.6531   -5.4836   14.1981 C   0  0  0  0  0  0  0  0  0  0  0  0
   30.1025   -5.3957   14.2124 O   0  0  0  0  0  0  0  0  0  0  0  0
  1  2  1  1  0  0  0
  1  8  1  0  0  0  0
  1 36  1  0  0  0  0
  3  4  1  1  0  0  0
  3 10  1  0  0  0  0
  3 47  1  0  0  0  0
  5 11  1  0  0  0  0
  5 30  1  0  0  0  0
  5 38  1  1  0  0  0
  6 21  1  1  0  0  0
  6 42  1  0  0  0  0
  7 15  1  0  0  0  0
  7 44  1  0  0  0  0
  7 32  1  6  0  0  0
  8  9  1  1  0  0  0
  8 17  1  0  0  0  0
 11 12  1  6  0  0  0
 11 20  1  0  0  0  0
 13  6  1  0  0  0  0
 13 14  1  6  0  0  0
 15 16  1  1  0  0  0
 15 24  1  0  0  0  0
 17 26  1  0  0  0  0
 18 10  1  0  0  0  0
 18 19  1  1  0  0  0
 20 21  1  6  0  0  0
 20 29  1  0  0  0  0
 22 13  1  0  0  0  0
 22 23  1  6  0  0  0
 24 25  1  6  0  0  0
 24 33  1  0  0  0  0
 26 27  1  1  0  0  0
 26 35  1  0  0  0  0
 28  2  1  6  0  0  0
 28 18  1  0  0  0  0
 29 30  1  0  0  0  0
 29 39  1  1  0  0  0
 31 22  1  0  0  0  0
 31 32  1  1  0  0  0
 31 41  1  0  0  0  0
 33 34  1  6  0  0  0
 33 43  1  0  0  0  0
 35 36  1  0  0  0  0
 35 45  1  6  0  0  0
 37 28  1  0  0  0  0
 37 38  1  1  0  0  0
 39 40  1  0  0  0  0
 41 42  1  0  0  0  0
 41 49  1  1  0  0  0
 43 44  1  0  0  0  0
 43 51  1  1  0  0  0
 45 46  1  0  0  0  0
 47 37  1  0  0  0  0
 47 48  1  6  0  0  0
 49 50  1  0  0  0  0
 51 52  1  0  0  0  0
M  END
>  <CHROM.1>
-56.99833235,-86.10077639,-117.10780929,106.41475990,-60.77782223,-66.64043046
-61.88461245,75.24697722,-77.87583430,-74.35084248,-42.94308942,56.19979643
22.32075200,-4.83933310,15.86767805,3.09702031,0.51861454,1.08851285

>  <Name>
2esj_lig

>  <RI>
1.01272e+07

>  <Rbt.Current_Directory>
/home/itssahil/PROJECTS/Mol_Feturizer/New_Systems/rnas/2esj

>  <Rbt.Executable>
rbdock ($Id: //depot/dev/client3/rdock/2013.1/src/exe/rbdock.cxx#4 $)

>  <Rbt.Library>
libRbt.so (2013.1, Build901 2013/11/27)

>  <Rbt.Parameter_File>
/export/apps/rDock/src/rDock_2013.1_src/data/scripts/dock_solv.prm

>  <Rbt.Receptor>
prm/pocket_docking_3.prm

>  <SCORE>
6.62432

>  <SCORE.INTER>
-1.71242

>  <SCORE.INTER.CONST>
1

>  <SCORE.INTER.POLAR>
-0.618558

>  <SCORE.INTER.ROT>
12

>  <SCORE.INTER.SOLV>
10.6253

>  <SCORE.INTER.VDW>
-14.2215

>  <SCORE.INTER.norm>
-0.0329312

>  <SCORE.INTRA>
8.11676

>  <SCORE.INTRA.DIHEDRAL>
-8.34346

>  <SCORE.INTRA.DIHEDRAL.0>
32.9766

>  <SCORE.INTRA.POLAR>
0

>  <SCORE.INTRA.POLAR.0>
0

>  <SCORE.INTRA.REPUL>
0

>  <SCORE.INTRA.REPUL.0>
0

>  <SCORE.INTRA.SOLV>
9.4422

>  <SCORE.INTRA.SOLV.lig_0>
-114.358

>  <SCORE.INTRA.VDW>
7.56739

>  <SCORE.INTRA.VDW.0>
-8.24257

>  <SCORE.INTRA.norm>
0.156092

>  <SCORE.RESTR>
0.219983

>  <SCORE.RESTR.CAVITY>
0.219983

>  <SCORE.RESTR.norm>
0.00423044

>  <SCORE.SYSTEM>
0

>  <SCORE.SYSTEM.CONST>
0

>  <SCORE.SYSTEM.DIHEDRAL>
0

>  <SCORE.SYSTEM.SOLV>
0

>  <SCORE.SYSTEM.norm>
0

>  <SCORE.heavy>
52

>  <SCORE.norm>
0.127391

>  <RMSD>
5.363

$$$$
2esj_lig
 OpenBabel11021811423D
libRbt.so/2013.1/901 2013/11/27
 52 56  0  0  0  0  0  0  0  0999 V2000
   19.0843   -6.4992   18.7438 C   0  0  2  0  0  0  0  0  0  0  0  0
   19.5782   -5.2131   18.3232 O   0  0  0  0  0  0  0  0  0  0  0  0
   17.7337   -4.1836   14.6049 C   0  0  2  0  0  0  0  0  0  0  0  0
   17.4519   -3.6991   13.2436 N   0  0  0  0  0  0  0  0  0  0  0  0
   21.3815   -6.6748   15.8019 C   0  0  1  0  0  0  0  0  0  0  0  0
   25.4393   -6.7120   16.5342 C   0  0  1  0  0  0  0  0  0  0  0  0
   27.4515   -2.7539   19.1818 C   0  0  1  0  0  0  0  0  0  0  0  0
   17.5735   -6.3330   19.0827 C   0  0  2  0  0  0  0  0  0  0  0  0
   16.8096   -5.7963   17.9568 N   0  0  0  0  0  0  0  0  0  0  0  0
   18.3264   -3.0171   15.4912 C   0  0  0  0  0  0  0  0  0  0  0  0
   22.2775   -7.7425   16.4309 C   0  0  2  0  0  0  0  0  0  0  0  0
   22.5732   -7.4662   17.8171 O   0  0  0  0  0  0  0  0  0  0  0  0
   25.0379   -6.4732   18.0584 C   0  0  2  0  0  0  0  0  0  0  0  0
   24.2562   -5.2181   18.2150 N   0  0  0  0  0  0  0  0  0  0  0  0
   26.2158   -2.0260   19.6982 C   0  0  1  0  0  0  0  0  0  0  0  0
   26.6219   -1.0133   20.6406 O   0  0  0  0  0  0  0  0  0  0  0  0
   17.3805   -5.4219   20.3364 C   0  0  0  0  0  0  0  0  0  0  0  0
   18.5669   -3.5401   16.9643 C   0  0  2  0  0  0  0  0  0  0  0  0
   19.1303   -2.4789   17.8052 N   0  0  0  0  0  0  0  0  0  0  0  0
   23.4692   -7.6712   15.5204 C   0  0  2  0  0  0  0  0  0  0  0  0
   24.2505   -6.5423   15.8197 O   0  0  0  0  0  0  0  0  0  0  0  0
   26.3478   -6.5667   18.9587 C   0  0  1  0  0  0  0  0  0  0  0  0
   27.0292   -7.7891   18.6585 O   0  0  0  0  0  0  0  0  0  0  0  0
   25.3596   -1.3578   18.6293 C   0  0  1  0  0  0  0  0  0  0  0  0
   24.3992   -0.5396   19.3064 O   0  0  0  0  0  0  0  0  0  0  0  0
   18.2211   -6.0006   21.5130 C   0  0  2  0  0  0  0  0  0  0  0  0
   18.0314   -5.2642   22.7079 O   0  0  0  0  0  0  0  0  0  0  0  0
   19.5042   -4.7756   16.9535 C   0  0  2  0  0  0  0  0  0  0  0  0
   22.9092   -7.3755   14.1137 C   0  0  2  0  0  0  0  0  0  0  0  0
   21.7376   -6.6333   14.4131 O   0  0  0  0  0  0  0  0  0  0  0  0
   27.3702   -5.4067   18.6145 C   0  0  2  0  0  0  0  0  0  0  0  0
   26.6717   -4.2088   18.9572 O   0  0  0  0  0  0  0  0  0  0  0  0
   26.1581   -0.4965   17.6492 C   0  0  2  0  0  0  0  0  0  0  0  0
   25.2851   -0.2015   16.5467 O   0  0  0  0  0  0  0  0  0  0  0  0
   19.7096   -6.0205   21.0855 C   0  0  2  0  0  0  0  0  0  0  0  0
   19.8155   -6.8972   19.9274 O   0  0  0  0  0  0  0  0  0  0  0  0
   19.0383   -5.9235   16.0015 C   0  0  2  0  0  0  0  0  0  0  0  0
   20.0237   -6.9937   16.0116 O   0  0  0  0  0  0  0  0  0  0  0  0
   22.5361   -8.5873   13.2606 C   0  0  0  0  0  0  0  0  0  0  0  0
   21.9802   -8.0965   12.0320 O   0  0  0  0  0  0  0  0  0  0  0  0
   27.4827   -5.3947   17.1021 C   0  0  1  0  0  0  0  0  0  0  0  0
   26.4984   -5.7171   16.0963 O   0  0  0  0  0  0  0  0  0  0  0  0
   27.4665   -1.1699   17.2504 C   0  0  2  0  0  0  0  0  0  0  0  0
   28.1753   -2.0227   18.1626 O   0  0  0  0  0  0  0  0  0  0  0  0
   20.6080   -6.6030   22.1228 C   0  0  0  0  0  0  0  0  0  0  0  0
   20.3034   -7.9732   22.2234 O   0  0  0  0  0  0  0  0  0  0  0  0
   18.7574   -5.3742   14.5621 C   0  0  1  0  0  0  0  0  0  0  0  0
   18.1491   -6.4521   13.8021 O   0  0  0  0  0  0  0  0  0  0  0  0
   28.5184   -4.4012   16.4914 C   0  0  0  0  0  0  0  0  0  0  0  0
   28.8406   -4.6855   15.0772 N   0  0  0  0  0  0  0  0  0  0  0  0
   28.4711   -0.5359   16.2911 C   0  0  0  0  0  0  0  0  0  0  0  0
   28.8277    0.7935   16.7541 O   0  0  0  0  0  0  0  0  0  0  0  0
  1  2  1  1  0  0  0
  1  8  1  0  0  0  0
  1 36  1  0  0  0  0
  3  4  1  6  0  0  0
  3 10  1  0  0  0  0
  3 47  1  0  0  0  0
  5 11  1  0  0  0  0
  5 30  1  0  0  0  0
  5 38  1  6  0  0  0
  6 21  1  6  0  0  0
  6 42  1  0  0  0  0
  7 15  1  0  0  0  0
  7 44  1  0  0  0  0
  7 32  1  6  0  0  0
  8  9  1  6  0  0  0
  8 17  1  0  0  0  0
 11 12  1  1  0  0  0
 11 20  1  0  0  0  0
 13  6  1  0  0  0  0
 13 14  1  6  0  0  0
 15 16  1  1  0  0  0
 15 24  1  0  0  0  0
 17 26  1  0  0  0  0
 18 10  1  0  0  0  0
 18 19  1  1  0  0  0
 20 21  1  1  0  0  0
 20 29  1  0  0  0  0
 22 13  1  0  0  0  0
 22 23  1  6  0  0  0
 24 25  1  1  0  0  0
 24 33  1  0  0  0  0
 26 27  1  1  0  0  0
 26 35  1  0  0  0  0
 28  2  1  1  0  0  0
 28 18  1  0  0  0  0
 29 30  1  0  0  0  0
 29 39  1  1  0  0  0
 31 22  1  0  0  0  0
 31 32  1  6  0  0  0
 31 41  1  0  0  0  0
 33 34  1  6  0  0  0
 33 43  1  0  0  0  0
 35 36  1  0  0  0  0
 35 45  1  1  0  0  0
 37 28  1  0  0  0  0
 37 38  1  6  0  0  0
 39 40  1  0  0  0  0
 41 42  1  0  0  0  0
 41 49  1  6  0  0  0
 43 44  1  0  0  0  0
 43 51  1  1  0  0  0
 45 46  1  0  0  0  0
 47 37  1  0  0  0  0
 47 48  1  6  0  0  0
 49 50  1  0  0  0  0
 51 52  1  0  0  0  0
M  END
>  <CHROM.1>
-87.50439457,155.34289851,-94.05107559,-172.18343816,103.38462510,116.19192759
177.19105429,162.47766015,67.71726392,-50.47808864,164.52287117,53.98069981
22.81366936,-4.90157665,17.46147990,2.98547436,-0.32182617,-2.00230112

>  <Name>
2esj_lig

>  <RI>
0

>  <Rbt.Current_Directory>
/home/itssahil/PROJECTS/Mol_Feturizer/New_Systems/rnas/2esj

>  <Rbt.Executable>
rbdock ($Id: //depot/dev/client3/rdock/2013.1/src/exe/rbdock.cxx#4 $)

>  <Rbt.Library>
libRbt.so (2013.1, Build901 2013/11/27)

>  <Rbt.Parameter_File>
/export/apps/rDock/src/rDock_2013.1_src/data/scripts/dock_solv.prm

>  <Rbt.Receptor>
prm/pocket_docking_4.prm

>  <SCORE>
-7.47912

>  <SCORE.INTER>
-10.9158

>  <SCORE.INTER.CONST>
1

>  <SCORE.INTER.POLAR>
-1.57953

>  <SCORE.INTER.ROT>
12

>  <SCORE.INTER.SOLV>
15.9925

>  <SCORE.INTER.VDW>
-18.9429

>  <SCORE.INTER.norm>
-0.209919

>  <SCORE.INTRA>
3.43665

>  <SCORE.INTRA.DIHEDRAL>
-2.7411

>  <SCORE.INTRA.DIHEDRAL.0>
32.9766

>  <SCORE.INTRA.POLAR>
0

>  <SCORE.INTRA.POLAR.0>
0

>  <SCORE.INTRA.REPUL>
0

>  <SCORE.INTRA.REPUL.0>
0

>  <SCORE.INTRA.SOLV>
2.90283

>  <SCORE.INTRA.SOLV.lig_0>
-114.358

>  <SCORE.INTRA.VDW>
3.35579

>  <SCORE.INTRA.VDW.0>
-8.24257

>  <SCORE.INTRA.norm>
0.0660895

>  <SCORE.RESTR>
0

>  <SCORE.RESTR.CAVITY>
0

>  <SCORE.RESTR.norm>
0

>  <SCORE.SYSTEM>
0

>  <SCORE.SYSTEM.CONST>
0

>  <SCORE.SYSTEM.DIHEDRAL>
0

>  <SCORE.SYSTEM.SOLV>
0

>  <SCORE.SYSTEM.norm>
0

>  <SCORE.heavy>
52

>  <SCORE.norm>
-0.143829

>  <RMSD>
5.364

$$$$
2esj_lig
 OpenBabel11021811423D
libRbt.so/2013.1/901 2013/11/27
 52 56  0  0  0  0  0  0  0  0999 V2000
   20.5355   -9.1933   14.2600 C   0  0  2  0  0  0  0  0  0  0  0  0
   20.5412   -9.3534   15.6915 O   0  0  0  0  0  0  0  0  0  0  0  0
   18.7216   -7.3291   18.9899 C   0  0  2  0  0  0  0  0  0  0  0  0
   18.3544   -6.3615   20.0369 N   0  0  0  0  0  0  0  0  0  0  0  0
   19.2988   -6.1011   14.6992 C   0  0  1  0  0  0  0  0  0  0  0  0
   20.9438   -2.6026   13.4856 C   0  0  1  0  0  0  0  0  0  0  0  0
   25.6532   -1.8099   15.6122 C   0  0  1  0  0  0  0  0  0  0  0  0
   21.0354  -10.5300   13.6369 C   0  0  2  0  0  0  0  0  0  0  0  0
   20.2292  -11.6741   14.0615 N   0  0  0  0  0  0  0  0  0  0  0  0
   20.2554   -7.6953   19.0944 C   0  0  0  0  0  0  0  0  0  0  0  0
   18.8098   -5.6206   13.3322 C   0  0  2  0  0  0  0  0  0  0  0  0
   19.4936   -6.2752   12.2417 O   0  0  0  0  0  0  0  0  0  0  0  0
   22.2637   -2.5053   12.5970 C   0  0  2  0  0  0  0  0  0  0  0  0
   23.1549   -3.6717   12.8341 N   0  0  0  0  0  0  0  0  0  0  0  0
   26.4899   -2.9355   15.0152 C   0  0  1  0  0  0  0  0  0  0  0  0
   27.8856   -2.6682   15.2580 O   0  0  0  0  0  0  0  0  0  0  0  0
   22.5368  -10.7806   13.9864 C   0  0  0  0  0  0  0  0  0  0  0  0
   20.6174   -8.7791   18.0007 C   0  0  2  0  0  0  0  0  0  0  0  0
   22.0406   -9.1270   18.0675 N   0  0  0  0  0  0  0  0  0  0  0  0
   19.0909   -4.1499   13.4421 C   0  0  2  0  0  0  0  0  0  0  0  0
   20.4626   -3.8970   13.2721 O   0  0  0  0  0  0  0  0  0  0  0  0
   22.9405   -1.0831   12.8305 C   0  0  1  0  0  0  0  0  0  0  0  0
   21.9558   -0.0637   12.6307 O   0  0  0  0  0  0  0  0  0  0  0  0
   26.1787   -4.3299   15.5457 C   0  0  1  0  0  0  0  0  0  0  0  0
   27.2022   -5.2057   15.0604 O   0  0  0  0  0  0  0  0  0  0  0  0
   23.3696   -9.5403   13.5462 C   0  0  2  0  0  0  0  0  0  0  0  0
   24.7558   -9.7324   13.7643 O   0  0  0  0  0  0  0  0  0  0  0  0
   20.2538   -8.2614   16.5848 C   0  0  2  0  0  0  0  0  0  0  0  0
   18.8222   -3.7771   14.9146 C   0  0  2  0  0  0  0  0  0  0  0  0
   19.1372   -4.9861   15.5869 O   0  0  0  0  0  0  0  0  0  0  0  0
   23.4364   -0.9171   14.3258 C   0  0  2  0  0  0  0  0  0  0  0  0
   24.4380   -1.9240   14.4782 O   0  0  0  0  0  0  0  0  0  0  0  0
   26.1242   -4.4107   17.0723 C   0  0  2  0  0  0  0  0  0  0  0  0
   25.5246   -5.6744   17.4015 O   0  0  0  0  0  0  0  0  0  0  0  0
   22.8386   -8.3008   14.3084 C   0  0  2  0  0  0  0  0  0  0  0  0
   21.4458   -8.1200   13.9234 O   0  0  0  0  0  0  0  0  0  0  0  0
   18.7780   -7.7685   16.4436 C   0  0  2  0  0  0  0  0  0  0  0  0
   18.5686   -7.2372   15.1056 O   0  0  0  0  0  0  0  0  0  0  0  0
   17.3928   -3.3627   15.2622 C   0  0  0  0  0  0  0  0  0  0  0  0
   17.0561   -2.2376   14.4373 O   0  0  0  0  0  0  0  0  0  0  0  0
   22.2755   -1.3619   15.1945 C   0  0  1  0  0  0  0  0  0  0  0  0
   21.2638   -2.3624   14.9495 O   0  0  0  0  0  0  0  0  0  0  0  0
   25.4116   -3.2033   17.6712 C   0  0  2  0  0  0  0  0  0  0  0  0
   25.4764   -1.9123   17.0459 O   0  0  0  0  0  0  0  0  0  0  0  0
   23.5350   -7.0386   13.9287 C   0  0  0  0  0  0  0  0  0  0  0  0
   24.8177   -7.0742   14.5063 O   0  0  0  0  0  0  0  0  0  0  0  0
   18.4258   -6.7350   17.5662 C   0  0  1  0  0  0  0  0  0  0  0  0
   16.9985   -6.4795   17.4825 O   0  0  0  0  0  0  0  0  0  0  0  0
   22.4602   -1.2007   16.7349 C   0  0  0  0  0  0  0  0  0  0  0  0
   22.0404   -2.3912   17.5037 N   0  0  0  0  0  0  0  0  0  0  0  0
   25.2180   -3.0109   19.1736 C   0  0  0  0  0  0  0  0  0  0  0  0
   24.3849   -1.8475   19.4211 O   0  0  0  0  0  0  0  0  0  0  0  0
  1  2  1  1  0  0  0
  1  8  1  0  0  0  0
  1 36  1  0  0  0  0
  3  4  1  1  0  0  0
  3 10  1  0  0  0  0
  3 47  1  0  0  0  0
  5 11  1  0  0  0  0
  5 30  1  0  0  0  0
  5 38  1  1  0  0  0
  6 21  1  1  0  0  0
  6 42  1  0  0  0  0
  7 15  1  0  0  0  0
  7 44  1  0  0  0  0
  7 32  1  6  0  0  0
  8  9  1  1  0  0  0
  8 17  1  0  0  0  0
 11 12  1  6  0  0  0
 11 20  1  0  0  0  0
 13  6  1  0  0  0  0
 13 14  1  1  0  0  0
 15 16  1  1  0  0  0
 15 24  1  0  0  0  0
 17 26  1  0  0  0  0
 18 10  1  0  0  0  0
 18 19  1  6  0  0  0
 20 21  1  1  0  0  0
 20 29  1  0  0  0  0
 22 13  1  0  0  0  0
 22 23  1  1  0  0  0
 24 25  1  1  0  0  0
 24 33  1  0  0  0  0
 26 27  1  1  0  0  0
 26 35  1  0  0  0  0
 28  2  1  6  0  0  0
 28 18  1  0  0  0  0
 29 30  1  0  0  0  0
 29 39  1  6  0  0  0
 31 22  1  0  0  0  0
 31 32  1  6  0  0  0
 31 41  1  0  0  0  0
 33 34  1  6  0  0  0
 33 43  1  0  0  0  0
 35 36  1  0  0  0  0
 35 45  1  6  0  0  0
 37 28  1  0  0  0  0
 37 38  1  6  0  0  0
 39 40  1  0  0  0  0
 41 42  1  0  0  0  0
 41 49  1  1  0  0  0
 43 44  1  0  0  0  0
 43 51  1  1  0  0  0
 45 46  1  0  0  0  0
 47 37  1  0  0  0  0
 47 48  1  1  0  0  0
 49 50  1  0  0  0  0
 51 52  1  0  0  0  0
M  END
>  <CHROM.1>
174.02882390,-173.47522942,-154.38134560,-166.76895162,-173.05169857,-169.88763190
-57.98201889,155.73414338,-73.57186918,-63.26369839,-134.39346850,-173.95033132
21.96166018,-5.25978774,15.41665720,-2.25259623,-0.04467431,-0.04036004

>  <Name>
2esj_lig

>  <RI>
0

>  <Rbt.Current_Directory>
/home/itssahil/PROJECTS/Mol_Feturizer/New_Systems/rnas/2esj

>  <Rbt.Executable>
rbdock ($Id: //depot/dev/client3/rdock/2013.1/src/exe/rbdock.cxx#4 $)

>  <Rbt.Library>
libRbt.so (2013.1, Build901 2013/11/27)

>  <Rbt.Parameter_File>
/export/apps/rDock/src/rDock_2013.1_src/data/scripts/dock_solv.prm

>  <Rbt.Receptor>
prm/pocket_docking_6.prm

>  <SCORE>
-11.973

>  <SCORE.INTER>
-4.44581

>  <SCORE.INTER.CONST>
1

>  <SCORE.INTER.POLAR>
-1.03278

>  <SCORE.INTER.ROT>
12

>  <SCORE.INTER.SOLV>
10.9008

>  <SCORE.INTER.VDW>
-14.7549

>  <SCORE.INTER.norm>
-0.0854963

>  <SCORE.INTRA>
-7.52717

>  <SCORE.INTRA.DIHEDRAL>
-19.9248

>  <SCORE.INTRA.DIHEDRAL.0>
32.9766

>  <SCORE.INTRA.POLAR>
0

>  <SCORE.INTRA.POLAR.0>
0

>  <SCORE.INTRA.REPUL>
0.0142795

>  <SCORE.INTRA.REPUL.0>
0

>  <SCORE.INTRA.SOLV>
2.26792

>  <SCORE.INTRA.SOLV.lig_0>
-114.358

>  <SCORE.INTRA.VDW>
1.22986

>  <SCORE.INTRA.VDW.0>
-8.24257

>  <SCORE.INTRA.norm>
-0.144753

>  <SCORE.RESTR>
0

>  <SCORE.RESTR.CAVITY>
0

>  <SCORE.RESTR.norm>
0

>  <SCORE.SYSTEM>
0

>  <SCORE.SYSTEM.CONST>
0

>  <SCORE.SYSTEM.DIHEDRAL>
0

>  <SCORE.SYSTEM.SOLV>
0

>  <SCORE.SYSTEM.norm>
0

>  <SCORE.heavy>
52

>  <SCORE.norm>
-0.23025

>  <RMSD>
5.365

$$$$
2esj_lig
 OpenBabel11021811423D
libRbt.so/2013.1/901 2013/11/27
 52 56  0  0  0  0  0  0  0  0999 V2000
   19.1377   -6.4548   12.2434 C   0  0  2  0  0  0  0  0  0  0  0  0
   19.9577   -5.9218   13.3009 O   0  0  0  0  0  0  0  0  0  0  0  0
   18.8651   -8.6013   16.4496 C   0  0  2  0  0  0  0  0  0  0  0  0
   18.7850   -9.3543   17.7121 N   0  0  0  0  0  0  0  0  0  0  0  0
   19.4202   -4.0524   16.0538 C   0  0  1  0  0  0  0  0  0  0  0  0
   22.0713   -1.4897   17.9439 C   0  0  1  0  0  0  0  0  0  0  0  0
   26.8380   -1.9045   16.5077 C   0  0  1  0  0  0  0  0  0  0  0  0
   19.5702   -5.7591   10.9190 C   0  0  2  0  0  0  0  0  0  0  0  0
   20.9963   -5.9313   10.6436 N   0  0  0  0  0  0  0  0  0  0  0  0
   20.3055   -8.7443   15.8154 C   0  0  0  0  0  0  0  0  0  0  0  0
   18.8755   -2.7035   16.5252 C   0  0  2  0  0  0  0  0  0  0  0  0
   18.8319   -1.7259   15.4633 O   0  0  0  0  0  0  0  0  0  0  0  0
   23.1895   -0.8719   16.9903 C   0  0  2  0  0  0  0  0  0  0  0  0
   23.5301   -1.8102   15.8883 N   0  0  0  0  0  0  0  0  0  0  0  0
   26.7960   -3.1365   15.6111 C   0  0  1  0  0  0  0  0  0  0  0  0
   27.1653   -2.7588   14.2697 O   0  0  0  0  0  0  0  0  0  0  0  0
   19.2155   -4.2384   10.9467 C   0  0  0  0  0  0  0  0  0  0  0  0
   20.3542   -7.9787   14.4322 C   0  0  2  0  0  0  0  0  0  0  0  0
   21.6864   -8.0846   13.8282 N   0  0  0  0  0  0  0  0  0  0  0  0
   19.8512   -2.3815   17.6200 C   0  0  2  0  0  0  0  0  0  0  0  0
   21.0687   -1.9356   17.0786 O   0  0  0  0  0  0  0  0  0  0  0  0
   24.4240   -0.4010   17.8787 C   0  0  1  0  0  0  0  0  0  0  0  0
   23.9421    0.4405   18.9315 O   0  0  0  0  0  0  0  0  0  0  0  0
   27.6990   -4.2861   16.0416 C   0  0  1  0  0  0  0  0  0  0  0  0
   27.7091   -5.2395   14.9734 O   0  0  0  0  0  0  0  0  0  0  0  0
   17.6989   -4.0812   11.2644 C   0  0  2  0  0  0  0  0  0  0  0  0
   17.2912   -2.7253   11.2289 O   0  0  0  0  0  0  0  0  0  0  0  0
   19.9649   -6.4898   14.6239 C   0  0  2  0  0  0  0  0  0  0  0  0
   20.2072   -3.7301   18.2790 C   0  0  2  0  0  0  0  0  0  0  0  0
   20.0662   -4.6342   17.1947 O   0  0  0  0  0  0  0  0  0  0  0  0
   25.1238   -1.6291   18.5938 C   0  0  2  0  0  0  0  0  0  0  0  0
   25.6204   -2.4265   17.5178 O   0  0  0  0  0  0  0  0  0  0  0  0
   29.1344   -3.8591   16.3535 C   0  0  2  0  0  0  0  0  0  0  0  0
   29.7592   -4.9613   17.0313 O   0  0  0  0  0  0  0  0  0  0  0  0
   17.4207   -4.7246   12.6456 C   0  0  2  0  0  0  0  0  0  0  0  0
   17.7574   -6.1375   12.5405 O   0  0  0  0  0  0  0  0  0  0  0  0
   18.6015   -6.2745   15.3559 C   0  0  2  0  0  0  0  0  0  0  0  0
   18.3729   -4.8508   15.5490 O   0  0  0  0  0  0  0  0  0  0  0  0
   19.3128   -4.1811   19.4333 C   0  0  0  0  0  0  0  0  0  0  0  0
   19.8447   -5.4159   19.9353 O   0  0  0  0  0  0  0  0  0  0  0  0
   24.0003   -2.4365   19.2150 C   0  0  1  0  0  0  0  0  0  0  0  0
   22.6403   -2.6285   18.7699 O   0  0  0  0  0  0  0  0  0  0  0  0
   29.1717   -2.5452   17.1261 C   0  0  2  0  0  0  0  0  0  0  0  0
   28.1739   -1.5324   16.9250 O   0  0  0  0  0  0  0  0  0  0  0  0
   15.9823   -4.6749   13.0344 C   0  0  0  0  0  0  0  0  0  0  0  0
   15.2527   -5.3512   12.0393 O   0  0  0  0  0  0  0  0  0  0  0  0
   18.5556   -7.0813   16.6973 C   0  0  1  0  0  0  0  0  0  0  0  0
   17.2005   -6.9847   17.2106 O   0  0  0  0  0  0  0  0  0  0  0  0
   24.4239   -3.6632   20.0803 C   0  0  0  0  0  0  0  0  0  0  0  0
   24.6902   -3.3203   21.4931 N   0  0  0  0  0  0  0  0  0  0  0  0
   30.4709   -1.8730   17.5642 C   0  0  0  0  0  0  0  0  0  0  0  0
   30.2142   -0.9759   18.6769 O   0  0  0  0  0  0  0  0  0  0  0  0
  1  2  1  1  0  0  0
  1  8  1  0  0  0  0
  1 36  1  0  0  0  0
  3  4  1  1  0  0  0
  3 10  1  0  0  0  0
  3 47  1  0  0  0  0
  5 11  1  0  0  0  0
  5 30  1  0  0  0  0
  5 38  1  1  0  0  0
  6 21  1  6  0  0  0
  6 42  1  0  0  0  0
  7 15  1  0  0  0  0
  7 44  1  0  0  0  0
  7 32  1  1  0  0  0
  8  9  1  1  0  0  0
  8 17  1  0  0  0  0
 11 12  1  6  0  0  0
 11 20  1  0  0  0  0
 13  6  1  0  0  0  0
 13 14  1  6  0  0  0
 15 16  1  6  0  0  0
 15 24  1  0  0  0  0
 17 26  1  0  0  0  0
 18 10  1  0  0  0  0
 18 19  1  1  0  0  0
 20 21  1  6  0  0  0
 20 29  1  0  0  0  0
 22 13  1  0  0  0  0
 22 23  1  1  0  0  0
 24 25  1  6  0  0  0
 24 33  1  0  0  0  0
 26 27  1  1  0  0  0
 26 35  1  0  0  0  0
 28  2  1  6  0  0  0
 28 18  1  0  0  0  0
 29 30  1  0  0  0  0
 29 39  1  1  0  0  0
 31 22  1  0  0  0  0
 31 32  1  6  0  0  0
 31 41  1  0  0  0  0
 33 34  1  1  0  0  0
 33 43  1  0  0  0  0
 35 36  1  0  0  0  0
 35 45  1  6  0  0  0
 37 28  1  0  0  0  0
 37 38  1  1  0  0  0
 39 40  1  0  0  0  0
 41 42  1  0  0  0  0
 41 49  1  6  0  0  0
 43 44  1  0  0  0  0
 43 51  1  6  0  0  0
 45 46  1  0  0  0  0
 47 37  1  0  0  0  0
 47 48  1  6  0  0  0
 49 50  1  0  0  0  0
 51 52  1  0  0  0  0
M  END
>  <CHROM.1>
-170.34715860,-164.96822207,-171.82988105,-176.91608780,175.18146259,56.99798590
-177.60549049,66.53963293,58.74255529,-46.80158195,87.07598175,-157.94042068
22.07288810,-4.10518955,15.97591351,-2.69394064,0.20336121,1.24189242

>  <Name>
2esj_lig

>  <RI>
0

>  <Rbt.Current_Directory>
/home/itssahil/PROJECTS/Mol_Feturizer/New_Systems/rnas/2esj

>  <Rbt.Executable>
rbdock ($Id: //depot/dev/client3/rdock/2013.1/src/exe/rbdock.cxx#4 $)

>  <Rbt.Library>
libRbt.so (2013.1, Build901 2013/11/27)

>  <Rbt.Parameter_File>
/export/apps/rDock/src/rDock_2013.1_src/data/scripts/dock_solv.prm

>  <Rbt.Receptor>
prm/pocket_docking_6.prm

>  <SCORE>
-19.7811

>  <SCORE.INTER>
-9.39162

>  <SCORE.INTER.CONST>
1

>  <SCORE.INTER.POLAR>
-0.820875

>  <SCORE.INTER.ROT>
12

>  <SCORE.INTER.SOLV>
10.7919

>  <SCORE.INTER.VDW>
-18.7221

>  <SCORE.INTER.norm>
-0.180608

>  <SCORE.INTRA>
-10.3895

>  <SCORE.INTRA.DIHEDRAL>
-24.282

>  <SCORE.INTRA.DIHEDRAL.0>
32.9766

>  <SCORE.INTRA.POLAR>
0

>  <SCORE.INTRA.POLAR.0>
0

>  <SCORE.INTRA.REPUL>
0

>  <SCORE.INTRA.REPUL.0>
0

>  <SCORE.INTRA.SOLV>
-2.67112

>  <SCORE.INTRA.SOLV.lig_0>
-114.358

>  <SCORE.INTRA.VDW>
3.08707

>  <SCORE.INTRA.VDW.0>
-8.24257

>  <SCORE.INTRA.norm>
-0.199798

>  <SCORE.RESTR>
0

>  <SCORE.RESTR.CAVITY>
0

>  <SCORE.RESTR.norm>
0

>  <SCORE.SYSTEM>
0

>  <SCORE.SYSTEM.CONST>
0

>  <SCORE.SYSTEM.DIHEDRAL>
0

>  <SCORE.SYSTEM.SOLV>
0

>  <SCORE.SYSTEM.norm>
0

>  <SCORE.heavy>
52

>  <SCORE.norm>
-0.380406

>  <RMSD>
5.504

$$$$
2esj_lig
 OpenBabel11021811423D
libRbt.so/2013.1/901 2013/11/27
 52 56  0  0  0  0  0  0  0  0999 V2000
   18.2032   -4.9935   13.8822 C   0  0  2  0  0  0  0  0  0  0  0  0
   18.5322   -6.3936   13.9622 O   0  0  0  0  0  0  0  0  0  0  0  0
   19.4446   -9.1687   17.0854 C   0  0  2  0  0  0  0  0  0  0  0  0
   20.0829   -9.9174   18.1805 N   0  0  0  0  0  0  0  0  0  0  0  0
   19.2397   -4.6401   16.9427 C   0  0  1  0  0  0  0  0  0  0  0  0
   22.0854   -1.8061   17.9251 C   0  0  1  0  0  0  0  0  0  0  0  0
   26.4435   -2.3164   15.6696 C   0  0  1  0  0  0  0  0  0  0  0  0
   17.0141   -4.8476   12.8873 C   0  0  2  0  0  0  0  0  0  0  0  0
   15.8614   -5.6576   13.2801 N   0  0  0  0  0  0  0  0  0  0  0  0
   20.3911   -9.1325   15.8204 C   0  0  0  0  0  0  0  0  0  0  0  0
   18.7347   -3.2312   17.2566 C   0  0  2  0  0  0  0  0  0  0  0  0
   18.4967   -2.4531   16.0636 O   0  0  0  0  0  0  0  0  0  0  0  0
   22.9979   -1.3054   16.7177 C   0  0  2  0  0  0  0  0  0  0  0  0
   23.1733   -2.3758   15.7006 N   0  0  0  0  0  0  0  0  0  0  0  0
   26.4299   -3.7080   15.0477 C   0  0  1  0  0  0  0  0  0  0  0  0
   26.4759   -3.5856   13.6120 O   0  0  0  0  0  0  0  0  0  0  0  0
   17.4534   -5.2195   11.4355 C   0  0  0  0  0  0  0  0  0  0  0  0
   19.6649   -8.3762   14.6362 C   0  0  2  0  0  0  0  0  0  0  0  0
   20.5288   -8.3167   13.4526 N   0  0  0  0  0  0  0  0  0  0  0  0
   19.8589   -2.7213   18.1111 C   0  0  2  0  0  0  0  0  0  0  0  0
   20.9632   -2.3730   17.3151 O   0  0  0  0  0  0  0  0  0  0  0  0
   24.3515   -0.7080   17.3058 C   0  0  1  0  0  0  0  0  0  0  0  0
   24.0319    0.2584   18.3122 O   0  0  0  0  0  0  0  0  0  0  0  0
   27.5686   -4.6247   15.4784 C   0  0  1  0  0  0  0  0  0  0  0  0
   27.5290   -5.7768   14.6291 O   0  0  0  0  0  0  0  0  0  0  0  0
   18.6947   -4.3614   11.0500 C   0  0  2  0  0  0  0  0  0  0  0  0
   19.1005   -4.5931    9.7130 O   0  0  0  0  0  0  0  0  0  0  0  0
   19.2546   -6.9473   15.0778 C   0  0  2  0  0  0  0  0  0  0  0  0
   20.3537   -3.9338   18.9263 C   0  0  2  0  0  0  0  0  0  0  0  0
   20.0728   -5.0130   18.0492 O   0  0  0  0  0  0  0  0  0  0  0  0
   25.2075   -1.8237   18.0351 C   0  0  2  0  0  0  0  0  0  0  0  0
   25.5359   -2.7493   16.9978 O   0  0  0  0  0  0  0  0  0  0  0  0
   28.9507   -3.9754   15.3879 C   0  0  2  0  0  0  0  0  0  0  0  0
   29.8586   -4.8259   16.1070 O   0  0  0  0  0  0  0  0  0  0  0  0
   19.8330   -4.6720   12.0535 C   0  0  2  0  0  0  0  0  0  0  0  0
   19.3605   -4.2873   13.3763 O   0  0  0  0  0  0  0  0  0  0  0  0
   18.4146   -6.9013   16.3943 C   0  0  2  0  0  0  0  0  0  0  0  0
   18.1510   -5.5168   16.7548 O   0  0  0  0  0  0  0  0  0  0  0  0
   19.6642   -4.1796   20.2679 C   0  0  0  0  0  0  0  0  0  0  0  0
   19.8851   -3.0215   21.0861 O   0  0  0  0  0  0  0  0  0  0  0  0
   24.2382   -2.5559   18.9431 C   0  0  1  0  0  0  0  0  0  0  0  0
   22.8289   -2.8204   18.7745 O   0  0  0  0  0  0  0  0  0  0  0  0
   28.9234   -2.5316   15.8767 C   0  0  2  0  0  0  0  0  0  0  0  0
   27.7577   -1.7096   15.7118 O   0  0  0  0  0  0  0  0  0  0  0  0
   21.0637   -3.8670   11.8088 C   0  0  0  0  0  0  0  0  0  0  0  0
   20.7130   -2.5104   11.9381 O   0  0  0  0  0  0  0  0  0  0  0  0
   19.1273   -7.6985   17.5383 C   0  0  1  0  0  0  0  0  0  0  0  0
   18.2000   -7.7708   18.6538 O   0  0  0  0  0  0  0  0  0  0  0  0
   24.8485   -3.6538   19.8678 C   0  0  0  0  0  0  0  0  0  0  0  0
   24.9430   -3.2416   21.2841 N   0  0  0  0  0  0  0  0  0  0  0  0
   30.1583   -1.6335   15.8911 C   0  0  0  0  0  0  0  0  0  0  0  0
   29.8358   -0.3571   16.5039 O   0  0  0  0  0  0  0  0  0  0  0  0
  1  2  1  6  0  0  0
  1  8  1  0  0  0  0
  1 36  1  0  0  0  0
  3  4  1  1  0  0  0
  3 10  1  0  0  0  0
  3 47  1  0  0  0  0
  5 11  1  0  0  0  0
  5 30  1  0  0  0  0
  5 38  1  1  0  0  0
  6 21  1  6  0  0  0
  6 42  1  0  0  0  0
  7 15  1  0  0  0  0
  7 44  1  0  0  0  0
  7 32  1  1  0  0  0
  8  9  1  1  0  0  0
  8 17  1  0  0  0  0
 11 12  1  6  0  0  0
 11 20  1  0  0  0  0
 13  6  1  0  0  0  0
 13 14  1  6  0  0  0
 15 16  1  6  0  0  0
 15 24  1  0  0  0  0
 17 26  1  0  0  0  0
 18 10  1  0  0  0  0
 18 19  1  6  0  0  0
 20 21  1  6  0  0  0
 20 29  1  0  0  0  0
 22 13  1  0  0  0  0
 22 23  1  1  0  0  0
 24 25  1  6  0  0  0
 24 33  1  0  0  0  0
 26 27  1  6  0  0  0
 26 35  1  0  0  0  0
 28  2  1  6  0  0  0
 28 18  1  0  0  0  0
 29 30  1  0  0  0  0
 29 39  1  1  0  0  0
 31 22  1  0  0  0  0
 31 32  1  6  0  0  0
 31 41  1  0  0  0  0
 33 34  1  1  0  0  0
 33 43  1  0  0  0  0
 35 36  1  0  0  0  0
 35 45  1  6  0  0  0
 37 28  1  0  0  0  0
 37 38  1  1  0  0  0
 39 40  1  0  0  0  0
 41 42  1  0  0  0  0
 41 49  1  6  0  0  0
 43 44  1  0  0  0  0
 43 51  1  6  0  0  0
 45 46  1  0  0  0  0
 47 37  1  0  0  0  0
 47 48  1  1  0  0  0
 49 50  1  0  0  0  0
 51 52  1  0  0  0  0
M  END
>  <CHROM.1>
-159.01552774,177.65779614,-169.92571971,178.69864298,176.48120252,-167.97395531
-60.69123543,61.71826303,60.32864886,-57.20588240,105.64367326,-175.65466047
22.15513088,-4.21171755,16.01319737,-2.90686159,0.34726929,1.44220845

>  <Name>
2esj_lig

>  <RI>
0

>  <Rbt.Current_Directory>
/home/itssahil/PROJECTS/Mol_Feturizer/New_Systems/rnas/2esj

>  <Rbt.Executable>
rbdock ($Id: //depot/dev/client3/rdock/2013.1/src/exe/rbdock.cxx#4 $)

>  <Rbt.Library>
libRbt.so (2013.1, Build901 2013/11/27)

>  <Rbt.Parameter_File>
/export/apps/rDock/src/rDock_2013.1_src/data/scripts/dock_solv.prm

>  <Rbt.Receptor>
prm/pocket_docking_6.prm

>  <SCORE>
-22.4517

>  <SCORE.INTER>
-11.6645

>  <SCORE.INTER.CONST>
1

>  <SCORE.INTER.POLAR>
-1.80442

>  <SCORE.INTER.ROT>
12

>  <SCORE.INTER.SOLV>
14.9663

>  <SCORE.INTER.VDW>
-18.3504

>  <SCORE.INTER.norm>
-0.224318

>  <SCORE.INTRA>
-10.7872

>  <SCORE.INTRA.DIHEDRAL>
-24.4346

>  <SCORE.INTRA.DIHEDRAL.0>
32.9766

>  <SCORE.INTRA.POLAR>
0

>  <SCORE.INTRA.POLAR.0>
0

>  <SCORE.INTRA.REPUL>
0

>  <SCORE.INTRA.REPUL.0>
0

>  <SCORE.INTRA.SOLV>
-3.09608

>  <SCORE.INTRA.SOLV.lig_0>
-114.358

>  <SCORE.INTRA.VDW>
2.97815

>  <SCORE.INTRA.VDW.0>
-8.24257

>  <SCORE.INTRA.norm>
-0.207446

>  <SCORE.RESTR>
0

>  <SCORE.RESTR.CAVITY>
0

>  <SCORE.RESTR.norm>
0

>  <SCORE.SYSTEM>
0

>  <SCORE.SYSTEM.CONST>
0

>  <SCORE.SYSTEM.DIHEDRAL>
0

>  <SCORE.SYSTEM.SOLV>
0

>  <SCORE.SYSTEM.norm>
0

>  <SCORE.heavy>
52

>  <SCORE.norm>
-0.431764

>  <RMSD>
5.519

$$$$
2esj_lig
 OpenBabel11021811423D
libRbt.so/2013.1/901 2013/11/27
 52 56  0  0  0  0  0  0  0  0999 V2000
   20.1879   -9.4798   16.0846 C   0  0  2  0  0  0  0  0  0  0  0  0
   21.0412   -9.3390   17.2365 O   0  0  0  0  0  0  0  0  0  0  0  0
   24.8746   -7.5674   17.9104 C   0  0  2  0  0  0  0  0  0  0  0  0
   26.3167   -7.2763   17.9645 N   0  0  0  0  0  0  0  0  0  0  0  0
   22.4515   -6.8083   14.1507 C   0  0  1  0  0  0  0  0  0  0  0  0
   22.3062   -3.7776   11.2769 C   0  0  1  0  0  0  0  0  0  0  0  0
   24.2085    0.8877   12.8718 C   0  0  1  0  0  0  0  0  0  0  0  0
   18.7247   -9.6182   16.5994 C   0  0  2  0  0  0  0  0  0  0  0  0
   18.3249   -8.4902   17.4403 N   0  0  0  0  0  0  0  0  0  0  0  0
   24.5712   -8.9655   18.5818 C   0  0  0  0  0  0  0  0  0  0  0  0
   22.0841   -7.1752   12.7124 C   0  0  2  0  0  0  0  0  0  0  0  0
   23.2171   -7.6644   11.9624 O   0  0  0  0  0  0  0  0  0  0  0  0
   23.7006   -3.0090   11.1983 C   0  0  2  0  0  0  0  0  0  0  0  0
   24.3623   -2.9647   12.5292 N   0  0  0  0  0  0  0  0  0  0  0  0
   25.1464    0.6328   11.6975 C   0  0  1  0  0  0  0  0  0  0  0  0
   25.6065    1.8956   11.1761 O   0  0  0  0  0  0  0  0  0  0  0  0
   18.5333  -10.9564   17.3815 C   0  0  0  0  0  0  0  0  0  0  0  0
   23.0125   -9.2335   18.5673 C   0  0  2  0  0  0  0  0  0  0  0  0
   22.7047  -10.5330   19.1735 N   0  0  0  0  0  0  0  0  0  0  0  0
   21.5423   -5.8627   12.2247 C   0  0  2  0  0  0  0  0  0  0  0  0
   22.5911   -4.9691   11.9492 O   0  0  0  0  0  0  0  0  0  0  0  0
   23.4709   -1.5900   10.5137 C   0  0  1  0  0  0  0  0  0  0  0  0
   22.7723   -1.7798    9.2789 O   0  0  0  0  0  0  0  0  0  0  0  0
   26.3696   -0.2192   12.0143 C   0  0  1  0  0  0  0  0  0  0  0  0
   27.2380   -0.1523   10.8778 O   0  0  0  0  0  0  0  0  0  0  0  0
   18.9872  -12.1384   16.4745 C   0  0  2  0  0  0  0  0  0  0  0  0
   18.7678  -13.3927   17.0950 O   0  0  0  0  0  0  0  0  0  0  0  0
   22.4662   -9.1709   17.1173 C   0  0  2  0  0  0  0  0  0  0  0  0
   20.8194   -5.2293   13.4313 C   0  0  2  0  0  0  0  0  0  0  0  0
   21.5603   -5.7483   14.5244 O   0  0  0  0  0  0  0  0  0  0  0  0
   22.5388   -0.6646   11.3992 C   0  0  2  0  0  0  0  0  0  0  0  0
   23.2798   -0.4694   12.6046 O   0  0  0  0  0  0  0  0  0  0  0  0
   27.1307    0.2345   13.2612 C   0  0  2  0  0  0  0  0  0  0  0  0
   28.0414   -0.8236   13.6017 O   0  0  0  0  0  0  0  0  0  0  0  0
   20.4799  -11.9328   16.1159 C   0  0  2  0  0  0  0  0  0  0  0  0
   20.5792  -10.6808   15.3786 O   0  0  0  0  0  0  0  0  0  0  0  0
   22.8343   -7.8599   16.3512 C   0  0  2  0  0  0  0  0  0  0  0  0
   22.3400   -7.9397   14.9854 O   0  0  0  0  0  0  0  0  0  0  0  0
   19.3437   -5.5866   13.6054 C   0  0  0  0  0  0  0  0  0  0  0  0
   19.2583   -7.0115   13.7535 O   0  0  0  0  0  0  0  0  0  0  0  0
   21.3524   -1.5270   11.7851 C   0  0  1  0  0  0  0  0  0  0  0  0
   21.2783   -2.9488   12.0250 O   0  0  0  0  0  0  0  0  0  0  0  0
   26.1788    0.6286   14.3851 C   0  0  2  0  0  0  0  0  0  0  0  0
   24.8941    1.2065   14.1069 O   0  0  0  0  0  0  0  0  0  0  0  0
   21.0129  -12.9865   15.2059 C   0  0  0  0  0  0  0  0  0  0  0  0
   21.0304  -14.1958   15.9253 O   0  0  0  0  0  0  0  0  0  0  0  0
   24.3748   -7.5873   16.4214 C   0  0  1  0  0  0  0  0  0  0  0  0
   24.6034   -6.2669   15.8615 O   0  0  0  0  0  0  0  0  0  0  0  0
   20.2135   -0.8224   12.5846 C   0  0  0  0  0  0  0  0  0  0  0  0
   18.9901   -1.6425   12.7088 N   0  0  0  0  0  0  0  0  0  0  0  0
   26.6581    1.1311   15.7450 C   0  0  0  0  0  0  0  0  0  0  0  0
   25.7383    0.7031   16.7840 O   0  0  0  0  0  0  0  0  0  0  0  0
  1  2  1  1  0  0  0
  1  8  1  0  0  0  0
  1 36  1  0  0  0  0
  3  4  1  6  0  0  0
  3 10  1  0  0  0  0
  3 47  1  0  0  0  0
  5 11  1  0  0  0  0
  5 30  1  0  0  0  0
  5 38  1  1  0  0  0
  6 21  1  1  0  0  0
  6 42  1  0  0  0  0
  7 15  1  0  0  0  0
  7 44  1  0  0  0  0
  7 32  1  1  0  0  0
  8  9  1  1  0  0  0
  8 17  1  0  0  0  0
 11 12  1  6  0  0  0
 11 20  1  0  0  0  0
 13  6  1  0  0  0  0
 13 14  1  1  0  0  0
 15 16  1  1  0  0  0
 15 24  1  0  0  0  0
 17 26  1  0  0  0  0
 18 10  1  0  0  0  0
 18 19  1  6  0  0  0
 20 21  1  1  0  0  0
 20 29  1  0  0  0  0
 22 13  1  0  0  0  0
 22 23  1  6  0  0  0
 24 25  1  6  0  0  0
 24 33  1  0  0  0  0
 26 27  1  1  0  0  0
 26 35  1  0  0  0  0
 28  2  1  1  0  0  0
 28 18  1  0  0  0  0
 29 30  1  0  0  0  0
 29 39  1  1  0  0  0
 31 22  1  0  0  0  0
 31 32  1  1  0  0  0
 31 41  1  0  0  0  0
 33 34  1  1  0  0  0
 33 43  1  0  0  0  0
 35 36  1  0  0  0  0
 35 45  1  6  0  0  0
 37 28  1  0  0  0  0
 37 38  1  6  0  0  0
 39 40  1  0  0  0  0
 41 42  1  0  0  0  0
 41 49  1  1  0  0  0
 43 44  1  0  0  0  0
 43 51  1  1  0  0  0
 45 46  1  0  0  0  0
 47 37  1  0  0  0  0
 47 48  1  1  0  0  0
 49 50  1  0  0  0  0
 51 52  1  0  0  0  0
M  END
>  <CHROM.1>
-179.18457972,170.91366711,177.74460727,-61.73994057,169.44316119,-173.28311350
59.49839756,97.40578510,-67.34824885,174.03921757,169.31471119,-146.97820304
22.70427382,-5.31111149,14.34061585,1.99082257,0.60104809,2.52545823

>  <Name>
2esj_lig

>  <RI>
2.18877e+07

>  <Rbt.Current_Directory>
/home/itssahil/PROJECTS/Mol_Feturizer/New_Systems/rnas/2esj

>  <Rbt.Executable>
rbdock ($Id: //depot/dev/client3/rdock/2013.1/src/exe/rbdock.cxx#4 $)

>  <Rbt.Library>
libRbt.so (2013.1, Build901 2013/11/27)

>  <Rbt.Parameter_File>
/export/apps/rDock/src/rDock_2013.1_src/data/scripts/dock_solv.prm

>  <Rbt.Receptor>
prm/pocket_docking_7.prm

>  <SCORE>
-11.8613

>  <SCORE.INTER>
-3.9202

>  <SCORE.INTER.CONST>
1

>  <SCORE.INTER.POLAR>
-0.814446

>  <SCORE.INTER.ROT>
12

>  <SCORE.INTER.SOLV>
9.81489

>  <SCORE.INTER.VDW>
-14.7703

>  <SCORE.INTER.norm>
-0.0753884

>  <SCORE.INTRA>
-7.94106

>  <SCORE.INTRA.DIHEDRAL>
-20.6788

>  <SCORE.INTRA.DIHEDRAL.0>
32.9766

>  <SCORE.INTRA.POLAR>
0

>  <SCORE.INTRA.POLAR.0>
0

>  <SCORE.INTRA.REPUL>
0

>  <SCORE.INTRA.REPUL.0>
0

>  <SCORE.INTRA.SOLV>
-1.41141

>  <SCORE.INTRA.SOLV.lig_0>
-114.358

>  <SCORE.INTRA.VDW>
3.10405

>  <SCORE.INTRA.VDW.0>
-8.24257

>  <SCORE.INTRA.norm>
-0.152713

>  <SCORE.RESTR>
0

>  <SCORE.RESTR.CAVITY>
0

>  <SCORE.RESTR.norm>
0

>  <SCORE.SYSTEM>
0

>  <SCORE.SYSTEM.CONST>
0

>  <SCORE.SYSTEM.DIHEDRAL>
0

>  <SCORE.SYSTEM.SOLV>
0

>  <SCORE.SYSTEM.norm>
0

>  <SCORE.heavy>
52

>  <SCORE.norm>
-0.228101

>  <RMSD>
5.538

$$$$
2esj_lig
 OpenBabel11021811423D
libRbt.so/2013.1/901 2013/11/27
 52 56  0  0  0  0  0  0  0  0999 V2000
   19.9294   -7.4528   12.6707 C   0  0  2  0  0  0  0  0  0  0  0  0
   20.6347   -6.9780   13.8335 O   0  0  0  0  0  0  0  0  0  0  0  0
   18.5527   -9.1676   16.8599 C   0  0  2  0  0  0  0  0  0  0  0  0
   18.1334   -9.8072   18.1178 N   0  0  0  0  0  0  0  0  0  0  0  0
   20.1769   -4.8650   16.3221 C   0  0  1  0  0  0  0  0  0  0  0  0
   23.1662   -2.3963   18.0024 C   0  0  1  0  0  0  0  0  0  0  0  0
   27.6292   -1.0336   15.9682 C   0  0  1  0  0  0  0  0  0  0  0  0
   20.6714   -6.9044   11.4162 C   0  0  2  0  0  0  0  0  0  0  0  0
   22.0819   -7.2907   11.3947 N   0  0  0  0  0  0  0  0  0  0  0  0
   20.0027   -9.6490   16.4558 C   0  0  0  0  0  0  0  0  0  0  0  0
   20.0221   -3.3439   16.3547 C   0  0  2  0  0  0  0  0  0  0  0  0
   20.4472   -2.7208   15.1233 O   0  0  0  0  0  0  0  0  0  0  0  0
   23.3009   -0.9511   17.3432 C   0  0  2  0  0  0  0  0  0  0  0  0
   23.5254   -1.0513   15.8767 N   0  0  0  0  0  0  0  0  0  0  0  0
   27.3582   -0.3797   14.6183 C   0  0  1  0  0  0  0  0  0  0  0  0
   28.5918    0.1498   14.0924 O   0  0  0  0  0  0  0  0  0  0  0  0
   20.5461   -5.3501   11.3298 C   0  0  0  0  0  0  0  0  0  0  0  0
   20.4115   -8.9981   15.0735 C   0  0  2  0  0  0  0  0  0  0  0  0
   21.7608   -9.4187   14.6818 N   0  0  0  0  0  0  0  0  0  0  0  0
   20.8760   -3.0071   17.5428 C   0  0  2  0  0  0  0  0  0  0  0  0
   22.2381   -3.0695   17.2036 O   0  0  0  0  0  0  0  0  0  0  0  0
   24.4034   -0.1212   18.1374 C   0  0  1  0  0  0  0  0  0  0  0  0
   24.0963   -0.1630   19.5348 O   0  0  0  0  0  0  0  0  0  0  0  0
   26.7508   -1.2947   13.5618 C   0  0  1  0  0  0  0  0  0  0  0  0
   26.7896   -0.5884   12.3169 O   0  0  0  0  0  0  0  0  0  0  0  0
   19.0382   -4.9635   11.3780 C   0  0  2  0  0  0  0  0  0  0  0  0
   18.8470   -3.5683   11.2259 O   0  0  0  0  0  0  0  0  0  0  0  0
   20.3313   -7.4517   15.1589 C   0  0  2  0  0  0  0  0  0  0  0  0
   20.6864   -4.1670   18.5420 C   0  0  2  0  0  0  0  0  0  0  0  0
   20.4297   -5.2620   17.6771 O   0  0  0  0  0  0  0  0  0  0  0  0
   25.8378   -0.7770   17.9909 C   0  0  2  0  0  0  0  0  0  0  0  0
   26.1248   -0.6874   16.5945 O   0  0  0  0  0  0  0  0  0  0  0  0
   27.4806   -2.6304   13.4097 C   0  0  2  0  0  0  0  0  0  0  0  0
   26.6277   -3.4850   12.6306 O   0  0  0  0  0  0  0  0  0  0  0  0
   18.4451   -5.4784   12.7130 C   0  0  2  0  0  0  0  0  0  0  0  0
   18.5816   -6.9283   12.7164 O   0  0  0  0  0  0  0  0  0  0  0  0
   18.9576   -6.9098   15.6691 C   0  0  2  0  0  0  0  0  0  0  0  0
   19.0182   -5.4607   15.7822 O   0  0  0  0  0  0  0  0  0  0  0  0
   19.5348   -4.0274   19.5369 C   0  0  0  0  0  0  0  0  0  0  0  0
   19.5544   -5.1843   20.3860 O   0  0  0  0  0  0  0  0  0  0  0  0
   25.6440   -2.2545   18.2734 C   0  0  1  0  0  0  0  0  0  0  0  0
   24.5072   -3.1066   18.0161 O   0  0  0  0  0  0  0  0  0  0  0  0
   27.8787   -3.2075   14.7636 C   0  0  2  0  0  0  0  0  0  0  0  0
   28.2141   -2.3547   15.8691 O   0  0  0  0  0  0  0  0  0  0  0  0
   16.9859   -5.2047   12.8484 C   0  0  0  0  0  0  0  0  0  0  0  0
   16.6019   -5.5954   14.1445 O   0  0  0  0  0  0  0  0  0  0  0  0
   18.5485   -7.6042   17.0117 C   0  0  1  0  0  0  0  0  0  0  0  0
   17.1878   -7.1935   17.3106 O   0  0  0  0  0  0  0  0  0  0  0  0
   26.9339   -3.1311   18.2978 C   0  0  0  0  0  0  0  0  0  0  0  0
   27.3663   -3.5004   19.6621 N   0  0  0  0  0  0  0  0  0  0  0  0
   28.6298   -4.5280   14.9180 C   0  0  0  0  0  0  0  0  0  0  0  0
   28.6593   -4.9211   16.3156 O   0  0  0  0  0  0  0  0  0  0  0  0
  1  2  1  1  0  0  0
  1  8  1  0  0  0  0
  1 36  1  0  0  0  0
  3  4  1  1  0  0  0
  3 10  1  0  0  0  0
  3 47  1  0  0  0  0
  5 11  1  0  0  0  0
  5 30  1  0  0  0  0
  5 38  1  1  0  0  0
  6 21  1  6  0  0  0
  6 42  1  0  0  0  0
  7 15  1  0  0  0  0
  7 44  1  0  0  0  0
  7 32  1  6  0  0  0
  8  9  1  1  0  0  0
  8 17  1  0  0  0  0
 11 12  1  6  0  0  0
 11 20  1  0  0  0  0
 13  6  1  0  0  0  0
 13 14  1  6  0  0  0
 15 16  1  6  0  0  0
 15 24  1  0  0  0  0
 17 26  1  0  0  0  0
 18 10  1  0  0  0  0
 18 19  1  1  0  0  0
 20 21  1  6  0  0  0
 20 29  1  0  0  0  0
 22 13  1  0  0  0  0
 22 23  1  1  0  0  0
 24 25  1  6  0  0  0
 24 33  1  0  0  0  0
 26 27  1  1  0  0  0
 26 35  1  0  0  0  0
 28  2  1  6  0  0  0
 28 18  1  0  0  0  0
 29 30  1  0  0  0  0
 29 39  1  1  0  0  0
 31 22  1  0  0  0  0
 31 32  1  6  0  0  0
 31 41  1  0  0  0  0
 33 34  1  1  0  0  0
 33 43  1  0  0  0  0
 35 36  1  0  0  0  0
 35 45  1  6  0  0  0
 37 28  1  0  0  0  0
 37 38  1  1  0  0  0
 39 40  1  0  0  0  0
 41 42  1  0  0  0  0
 41 49  1  6  0  0  0
 43 44  1  0  0  0  0
 43 51  1  6  0  0  0
 45 46  1  0  0  0  0
 47 37  1  0  0  0  0
 47 48  1  6  0  0  0
 49 50  1  0  0  0  0
 51 52  1  0  0  0  0
M  END
>  <CHROM.1>
-171.00379778,-179.67267200,-91.16417329,-164.91953012,159.69542459,53.17156266
-178.63117433,170.28870295,-174.21667081,-41.97319579,104.18132034,-170.17415971
22.48396848,-4.31190838,15.62779920,-2.92509579,0.54335995,1.36203070

>  <Name>
2esj_lig

>  <RI>
0

>  <Rbt.Current_Directory>
/home/itssahil/PROJECTS/Mol_Feturizer/New_Systems/rnas/2esj

>  <Rbt.Executable>
rbdock ($Id: //depot/dev/client3/rdock/2013.1/src/exe/rbdock.cxx#4 $)

>  <Rbt.Library>
libRbt.so (2013.1, Build901 2013/11/27)

>  <Rbt.Parameter_File>
/export/apps/rDock/src/rDock_2013.1_src/data/scripts/dock_solv.prm

>  <Rbt.Receptor>
prm/pocket_docking_4.prm

>  <SCORE>
-20.3139

>  <SCORE.INTER>
-12.3576

>  <SCORE.INTER.CONST>
1

>  <SCORE.INTER.POLAR>
-2.1654

>  <SCORE.INTER.ROT>
12

>  <SCORE.INTER.SOLV>
10.3495

>  <SCORE.INTER.VDW>
-16.0702

>  <SCORE.INTER.norm>
-0.237646

>  <SCORE.INTRA>
-7.95629

>  <SCORE.INTRA.DIHEDRAL>
-18.3438

>  <SCORE.INTRA.DIHEDRAL.0>
32.9766

>  <SCORE.INTRA.POLAR>
0

>  <SCORE.INTRA.POLAR.0>
0

>  <SCORE.INTRA.REPUL>
0

>  <SCORE.INTRA.REPUL.0>
0

>  <SCORE.INTRA.SOLV>
-1.49526

>  <SCORE.INTRA.SOLV.lig_0>
-114.358

>  <SCORE.INTRA.VDW>
1.96326

>  <SCORE.INTRA.VDW.0>
-8.24257

>  <SCORE.INTRA.norm>
-0.153006

>  <SCORE.RESTR>
0

>  <SCORE.RESTR.CAVITY>
0

>  <SCORE.RESTR.norm>
0

>  <SCORE.SYSTEM>
0

>  <SCORE.SYSTEM.CONST>
0

>  <SCORE.SYSTEM.DIHEDRAL>
0

>  <SCORE.SYSTEM.SOLV>
0

>  <SCORE.SYSTEM.norm>
0

>  <SCORE.heavy>
52

>  <SCORE.norm>
-0.390651

>  <RMSD>
5.560

$$$$
2esj_lig
 OpenBabel11021811423D
libRbt.so/2013.1/901 2013/11/27
 52 56  0  0  0  0  0  0  0  0999 V2000
   19.7281   -8.2820   14.9547 C   0  0  2  0  0  0  0  0  0  0  0  0
   20.6933   -7.6752   15.8350 O   0  0  0  0  0  0  0  0  0  0  0  0
   18.1634   -6.7058   19.1438 C   0  0  2  0  0  0  0  0  0  0  0  0
   17.6195   -6.2272   20.4254 N   0  0  0  0  0  0  0  0  0  0  0  0
   20.9675   -4.3435   16.3774 C   0  0  1  0  0  0  0  0  0  0  0  0
   24.3251   -2.3117   17.3257 C   0  0  1  0  0  0  0  0  0  0  0  0
   29.0724   -2.0356   15.9769 C   0  0  1  0  0  0  0  0  0  0  0  0
   20.5159   -9.0815   13.8753 C   0  0  2  0  0  0  0  0  0  0  0  0
   21.4143  -10.0726   14.4667 N   0  0  0  0  0  0  0  0  0  0  0  0
   19.3744   -7.6898   19.3946 C   0  0  0  0  0  0  0  0  0  0  0  0
   21.3013   -3.2164   15.3992 C   0  0  2  0  0  0  0  0  0  0  0  0
   21.9669   -3.6974   14.2114 O   0  0  0  0  0  0  0  0  0  0  0  0
   24.7949   -0.9487   16.6454 C   0  0  2  0  0  0  0  0  0  0  0  0
   25.2333   -1.1748   15.2427 N   0  0  0  0  0  0  0  0  0  0  0  0
   29.4967   -1.0972   14.8532 C   0  0  1  0  0  0  0  0  0  0  0  0
   30.9350   -1.0966   14.7544 O   0  0  0  0  0  0  0  0  0  0  0  0
   21.3247   -8.1190   12.9487 C   0  0  0  0  0  0  0  0  0  0  0  0
   19.9067   -8.2391   18.0102 C   0  0  2  0  0  0  0  0  0  0  0  0
   21.0413   -9.1457   18.2144 N   0  0  0  0  0  0  0  0  0  0  0  0
   22.1533   -2.3402   16.2713 C   0  0  2  0  0  0  0  0  0  0  0  0
   23.4414   -2.8848   16.4073 O   0  0  0  0  0  0  0  0  0  0  0  0
   25.8743   -0.2481   17.5829 C   0  0  1  0  0  0  0  0  0  0  0  0
   25.3438   -0.1539   18.9090 O   0  0  0  0  0  0  0  0  0  0  0  0
   28.9308   -1.4305   13.4780 C   0  0  1  0  0  0  0  0  0  0  0  0
   29.6136   -0.6053   12.5278 O   0  0  0  0  0  0  0  0  0  0  0  0
   20.3513   -7.0606   12.3505 C   0  0  2  0  0  0  0  0  0  0  0  0
   21.0066   -6.1992   11.4368 O   0  0  0  0  0  0  0  0  0  0  0  0
   20.3137   -7.0648   17.0826 C   0  0  2  0  0  0  0  0  0  0  0  0
   21.5529   -2.4428   17.6885 C   0  0  2  0  0  0  0  0  0  0  0  0
   21.0088   -3.7531   17.6839 O   0  0  0  0  0  0  0  0  0  0  0  0
   27.1891   -1.1231   17.7052 C   0  0  2  0  0  0  0  0  0  0  0  0
   27.7076   -1.1671   16.3749 O   0  0  0  0  0  0  0  0  0  0  0  0
   29.0941   -2.8994   13.0836 C   0  0  2  0  0  0  0  0  0  0  0  0
   28.2543   -3.1194   11.9386 O   0  0  0  0  0  0  0  0  0  0  0  0
   19.7108   -6.2713   13.5193 C   0  0  2  0  0  0  0  0  0  0  0  0
   18.9640   -7.2253   14.3275 O   0  0  0  0  0  0  0  0  0  0  0  0
   19.1984   -5.9883   16.8870 C   0  0  2  0  0  0  0  0  0  0  0  0
   19.7102   -4.9016   16.0662 O   0  0  0  0  0  0  0  0  0  0  0  0
   20.4536   -1.4398   18.0367 C   0  0  0  0  0  0  0  0  0  0  0  0
   19.3447   -1.6927   17.1615 O   0  0  0  0  0  0  0  0  0  0  0  0
   26.7171   -2.5327   18.0057 C   0  0  1  0  0  0  0  0  0  0  0  0
   25.5143   -3.2160   17.5921 O   0  0  0  0  0  0  0  0  0  0  0  0
   28.8092   -3.8289   14.2582 C   0  0  2  0  0  0  0  0  0  0  0  0
   29.0991   -3.4358   15.6084 O   0  0  0  0  0  0  0  0  0  0  0  0
   18.7187   -5.2558   13.0644 C   0  0  0  0  0  0  0  0  0  0  0  0
   17.5534   -5.9460   12.6823 O   0  0  0  0  0  0  0  0  0  0  0  0
   18.6507   -5.4957   18.2688 C   0  0  1  0  0  0  0  0  0  0  0  0
   17.4983   -4.6540   17.9989 O   0  0  0  0  0  0  0  0  0  0  0  0
   27.8281   -3.5926   18.2801 C   0  0  0  0  0  0  0  0  0  0  0  0
   27.3469   -4.7618   19.0457 N   0  0  0  0  0  0  0  0  0  0  0  0
   28.9045   -5.3496   14.1592 C   0  0  0  0  0  0  0  0  0  0  0  0
   30.2957   -5.7536   14.0585 O   0  0  0  0  0  0  0  0  0  0  0  0
  1  2  1  1  0  0  0
  1  8  1  0  0  0  0
  1 36  1  0  0  0  0
  3  4  1  1  0  0  0
  3 10  1  0  0  0  0
  3 47  1  0  0  0  0
  5 11  1  0  0  0  0
  5 30  1  0  0  0  0
  5 38  1  6  0  0  0
  6 21  1  6  0  0  0
  6 42  1  0  0  0  0
  7 15  1  0  0  0  0
  7 44  1  0  0  0  0
  7 32  1  6  0  0  0
  8  9  1  1  0  0  0
  8 17  1  0  0  0  0
 11 12  1  6  0  0  0
 11 20  1  0  0  0  0
 13  6  1  0  0  0  0
 13 14  1  6  0  0  0
 15 16  1  6  0  0  0
 15 24  1  0  0  0  0
 17 26  1  0  0  0  0
 18 10  1  0  0  0  0
 18 19  1  1  0  0  0
 20 21  1  1  0  0  0
 20 29  1  0  0  0  0
 22 13  1  0  0  0  0
 22 23  1  1  0  0  0
 24 25  1  6  0  0  0
 24 33  1  0  0  0  0
 26 27  1  6  0  0  0
 26 35  1  0  0  0  0
 28  2  1  6  0  0  0
 28 18  1  0  0  0  0
 29 30  1  0  0  0  0
 29 39  1  6  0  0  0
 31 22  1  0  0  0  0
 31 32  1  6  0  0  0
 31 41  1  0  0  0  0
 33 34  1  6  0  0  0
 33 43  1  0  0  0  0
 35 36  1  0  0  0  0
 35 45  1  6  0  0  0
 37 28  1  0  0  0  0
 37 38  1  1  0  0  0
 39 40  1  0  0  0  0
 41 42  1  0  0  0  0
 41 49  1  6  0  0  0
 43 44  1  0  0  0  0
 43 51  1  6  0  0  0
 45 46  1  0  0  0  0
 47 37  1  0  0  0  0
 47 48  1  6  0  0  0
 49 50  1  0  0  0  0
 51 52  1  0  0  0  0
M  END
>  <CHROM.1>
-168.53766017,-179.56208558,-74.44407250,-149.38143115,-171.41948365,70.61986395
63.40899419,-177.47675979,74.81334237,-47.83780697,158.08262373,71.56339871
23.36752771,-4.30421313,15.88245223,-2.94072651,0.40093068,0.87604761

>  <Name>
2esj_lig

>  <RI>
1.01272e+07

>  <Rbt.Current_Directory>
/home/itssahil/PROJECTS/Mol_Feturizer/New_Systems/rnas/2esj

>  <Rbt.Executable>
rbdock ($Id: //depot/dev/client3/rdock/2013.1/src/exe/rbdock.cxx#4 $)

>  <Rbt.Library>
libRbt.so (2013.1, Build901 2013/11/27)

>  <Rbt.Parameter_File>
/export/apps/rDock/src/rDock_2013.1_src/data/scripts/dock_solv.prm

>  <Rbt.Receptor>
prm/pocket_docking_3.prm

>  <SCORE>
-12.0637

>  <SCORE.INTER>
-5.52016

>  <SCORE.INTER.CONST>
1

>  <SCORE.INTER.POLAR>
-1.15981

>  <SCORE.INTER.ROT>
12

>  <SCORE.INTER.SOLV>
7.49471

>  <SCORE.INTER.VDW>
-13.9123

>  <SCORE.INTER.norm>
-0.106157

>  <SCORE.INTRA>
-7.0328

>  <SCORE.INTRA.DIHEDRAL>
-19.8604

>  <SCORE.INTRA.DIHEDRAL.0>
32.9766

>  <SCORE.INTRA.POLAR>
0

>  <SCORE.INTRA.POLAR.0>
0

>  <SCORE.INTRA.REPUL>
0

>  <SCORE.INTRA.REPUL.0>
0

>  <SCORE.INTRA.SOLV>
-1.20158

>  <SCORE.INTRA.SOLV.lig_0>
-114.358

>  <SCORE.INTRA.VDW>
3.49818

>  <SCORE.INTRA.VDW.0>
-8.24257

>  <SCORE.INTRA.norm>
-0.135246

>  <SCORE.RESTR>
0.489259

>  <SCORE.RESTR.CAVITY>
0.489259

>  <SCORE.RESTR.norm>
0.00940882

>  <SCORE.SYSTEM>
0

>  <SCORE.SYSTEM.CONST>
0

>  <SCORE.SYSTEM.DIHEDRAL>
0

>  <SCORE.SYSTEM.SOLV>
0

>  <SCORE.SYSTEM.norm>
0

>  <SCORE.heavy>
52

>  <SCORE.norm>
-0.231994

>  <RMSD>
5.563

$$$$
2esj_lig
 OpenBabel11021811423D
libRbt.so/2013.1/901 2013/11/27
 52 56  0  0  0  0  0  0  0  0999 V2000
   19.0181  -10.8122   16.4998 C   0  0  2  0  0  0  0  0  0  0  0  0
   19.7462   -9.9878   17.4298 O   0  0  0  0  0  0  0  0  0  0  0  0
   17.5275   -6.3669   17.9346 C   0  0  2  0  0  0  0  0  0  0  0  0
   17.1161   -4.9668   18.1294 N   0  0  0  0  0  0  0  0  0  0  0  0
   20.5884   -7.4342   14.8656 C   0  0  1  0  0  0  0  0  0  0  0  0
   24.3812   -5.7902   14.0981 C   0  0  1  0  0  0  0  0  0  0  0  0
   24.7486   -0.8657   14.3787 C   0  0  1  0  0  0  0  0  0  0  0  0
   18.9791  -12.2553   17.0837 C   0  0  2  0  0  0  0  0  0  0  0  0
   18.3928  -12.2946   18.4231 N   0  0  0  0  0  0  0  0  0  0  0  0
   18.4785   -6.8283   19.1094 C   0  0  0  0  0  0  0  0  0  0  0  0
   21.8450   -8.2798   15.0766 C   0  0  2  0  0  0  0  0  0  0  0  0
   22.2858   -8.2772   16.4517 O   0  0  0  0  0  0  0  0  0  0  0  0
   24.7112   -4.5606   15.0575 C   0  0  2  0  0  0  0  0  0  0  0  0
   23.4926   -3.7536   15.3307 N   0  0  0  0  0  0  0  0  0  0  0  0
   25.7911   -0.1998   13.4879 C   0  0  1  0  0  0  0  0  0  0  0  0
   25.7022    1.2308   13.6429 O   0  0  0  0  0  0  0  0  0  0  0  0
   20.4086  -12.8837   17.1121 C   0  0  0  0  0  0  0  0  0  0  0  0
   18.8616   -8.3504   18.9147 C   0  0  2  0  0  0  0  0  0  0  0  0
   19.7561   -8.8005   19.9862 N   0  0  0  0  0  0  0  0  0  0  0  0
   22.7911   -7.6068   14.1247 C   0  0  2  0  0  0  0  0  0  0  0  0
   23.2603   -6.3991   14.6685 O   0  0  0  0  0  0  0  0  0  0  0  0
   25.9360   -3.7448   14.4497 C   0  0  1  0  0  0  0  0  0  0  0  0
   27.0084   -4.6534   14.1791 O   0  0  0  0  0  0  0  0  0  0  0  0
   27.2337   -0.6131   13.7532 C   0  0  1  0  0  0  0  0  0  0  0  0
   28.0725    0.2728   13.0036 O   0  0  0  0  0  0  0  0  0  0  0  0
   21.0196  -12.8088   15.6815 C   0  0  2  0  0  0  0  0  0  0  0  0
   22.2895  -13.4329   15.6178 O   0  0  0  0  0  0  0  0  0  0  0  0
   19.5250   -8.5685   17.5300 C   0  0  2  0  0  0  0  0  0  0  0  0
   21.9354   -7.1660   12.9192 C   0  0  2  0  0  0  0  0  0  0  0  0
   20.6720   -6.9369   13.5228 O   0  0  0  0  0  0  0  0  0  0  0  0
   25.5614   -3.0918   13.0559 C   0  0  2  0  0  0  0  0  0  0  0  0
   24.5160   -2.1700   13.3688 O   0  0  0  0  0  0  0  0  0  0  0  0
   27.6294   -0.5576   15.2298 C   0  0  2  0  0  0  0  0  0  0  0  0
   28.8775   -1.2588   15.3534 O   0  0  0  0  0  0  0  0  0  0  0  0
   21.0938  -11.3202   15.2602 C   0  0  2  0  0  0  0  0  0  0  0  0
   19.7308  -10.8076   15.2405 O   0  0  0  0  0  0  0  0  0  0  0  0
   18.6888   -8.0247   16.3275 C   0  0  2  0  0  0  0  0  0  0  0  0
   19.4343   -8.2124   15.0924 O   0  0  0  0  0  0  0  0  0  0  0  0
   21.7788   -8.1812   11.7877 C   0  0  0  0  0  0  0  0  0  0  0  0
   21.1328   -7.5133   10.6939 O   0  0  0  0  0  0  0  0  0  0  0  0
   24.9040   -4.1954   12.2496 C   0  0  1  0  0  0  0  0  0  0  0  0
   24.0952   -5.3083   12.6877 O   0  0  0  0  0  0  0  0  0  0  0  0
   26.5184   -1.0918   16.1269 C   0  0  2  0  0  0  0  0  0  0  0  0
   25.1352   -0.9409   15.7723 O   0  0  0  0  0  0  0  0  0  0  0  0
   21.6225  -11.1292   13.8794 C   0  0  0  0  0  0  0  0  0  0  0  0
   22.9803  -11.4987   13.8927 O   0  0  0  0  0  0  0  0  0  0  0  0
   18.2775   -6.5324   16.5644 C   0  0  1  0  0  0  0  0  0  0  0  0
   17.3503   -6.1693   15.5071 O   0  0  0  0  0  0  0  0  0  0  0  0
   24.5243   -3.8470   10.7775 C   0  0  0  0  0  0  0  0  0  0  0  0
   23.5142   -2.7732   10.6707 N   0  0  0  0  0  0  0  0  0  0  0  0
   26.6309   -1.1475   17.6487 C   0  0  0  0  0  0  0  0  0  0  0  0
   27.3504   -2.3437   18.0491 O   0  0  0  0  0  0  0  0  0  0  0  0
  1  2  1  1  0  0  0
  1  8  1  0  0  0  0
  1 36  1  0  0  0  0
  3  4  1  1  0  0  0
  3 10  1  0  0  0  0
  3 47  1  0  0  0  0
  5 11  1  0  0  0  0
  5 30  1  0  0  0  0
  5 38  1  6  0  0  0
  6 21  1  1  0  0  0
  6 42  1  0  0  0  0
  7 15  1  0  0  0  0
  7 44  1  0  0  0  0
  7 32  1  6  0  0  0
  8  9  1  1  0  0  0
  8 17  1  0  0  0  0
 11 12  1  1  0  0  0
 11 20  1  0  0  0  0
 13  6  1  0  0  0  0
 13 14  1  6  0  0  0
 15 16  1  1  0  0  0
 15 24  1  0  0  0  0
 17 26  1  0  0  0  0
 18 10  1  0  0  0  0
 18 19  1  1  0  0  0
 20 21  1  1  0  0  0
 20 29  1  0  0  0  0
 22 13  1  0  0  0  0
 22 23  1  6  0  0  0
 24 25  1  6  0  0  0
 24 33  1  0  0  0  0
 26 27  1  1  0  0  0
 26 35  1  0  0  0  0
 28  2  1  6  0  0  0
 28 18  1  0  0  0  0
 29 30  1  0  0  0  0
 29 39  1  6  0  0  0
 31 22  1  0  0  0  0
 31 32  1  1  0  0  0
 31 41  1  0  0  0  0
 33 34  1  6  0  0  0
 33 43  1  0  0  0  0
 35 36  1  0  0  0  0
 35 45  1  6  0  0  0
 37 28  1  0  0  0  0
 37 38  1  6  0  0  0
 39 40  1  0  0  0  0
 41 42  1  0  0  0  0
 41 49  1  6  0  0  0
 43 44  1  0  0  0  0
 43 51  1  1  0  0  0
 45 46  1  0  0  0  0
 47 37  1  0  0  0  0
 47 48  1  6  0  0  0
 49 50  1  0  0  0  0
 51 52  1  0  0  0  0
M  END
>  <CHROM.1>
-153.59670147,104.67547799,-173.86944174,62.29732763,164.59145397,111.49656994
-171.36798506,62.66582910,-68.17848074,-69.83746784,-63.21151615,-82.96545906
22.59438174,-6.16226999,15.12220582,2.56049269,-0.78591588,-2.56653907

>  <Name>
2esj_lig

>  <RI>
0

>  <Rbt.Current_Directory>
/home/itssahil/PROJECTS/Mol_Feturizer/New_Systems/rnas/2esj

>  <Rbt.Executable>
rbdock ($Id: //depot/dev/client3/rdock/2013.1/src/exe/rbdock.cxx#4 $)

>  <Rbt.Library>
libRbt.so (2013.1, Build901 2013/11/27)

>  <Rbt.Parameter_File>
/export/apps/rDock/src/rDock_2013.1_src/data/scripts/dock_solv.prm

>  <Rbt.Receptor>
prm/pocket_docking_4.prm

>  <SCORE>
-7.75029

>  <SCORE.INTER>
-4.49344

>  <SCORE.INTER.CONST>
1

>  <SCORE.INTER.POLAR>
-0.988766

>  <SCORE.INTER.ROT>
12

>  <SCORE.INTER.SOLV>
15.1225

>  <SCORE.INTER.VDW>
-16.3406

>  <SCORE.INTER.norm>
-0.0864123

>  <SCORE.INTRA>
-3.29939

>  <SCORE.INTRA.DIHEDRAL>
-9.52535

>  <SCORE.INTRA.DIHEDRAL.0>
32.9766

>  <SCORE.INTRA.POLAR>
0

>  <SCORE.INTRA.POLAR.0>
0

>  <SCORE.INTRA.REPUL>
0

>  <SCORE.INTRA.REPUL.0>
0

>  <SCORE.INTRA.SOLV>
0.316944

>  <SCORE.INTRA.SOLV.lig_0>
-114.358

>  <SCORE.INTRA.VDW>
1.30481

>  <SCORE.INTRA.VDW.0>
-8.24257

>  <SCORE.INTRA.norm>
-0.0634498

>  <SCORE.RESTR>
0.0425455

>  <SCORE.RESTR.CAVITY>
0.0425455

>  <SCORE.RESTR.norm>
0.000818183

>  <SCORE.SYSTEM>
0

>  <SCORE.SYSTEM.CONST>
0

>  <SCORE.SYSTEM.DIHEDRAL>
0

>  <SCORE.SYSTEM.SOLV>
0

>  <SCORE.SYSTEM.norm>
0

>  <SCORE.heavy>
52

>  <SCORE.norm>
-0.149044

>  <RMSD>
5.570

$$$$
2esj_lig
 OpenBabel11021811423D
libRbt.so/2013.1/901 2013/11/27
 52 56  0  0  0  0  0  0  0  0999 V2000
   19.8391   -7.3206   12.5470 C   0  0  2  0  0  0  0  0  0  0  0  0
   20.6361   -6.5691   13.4823 O   0  0  0  0  0  0  0  0  0  0  0  0
   18.4657   -7.3667   17.0797 C   0  0  2  0  0  0  0  0  0  0  0  0
   18.0473   -7.5262   18.4821 N   0  0  0  0  0  0  0  0  0  0  0  0
   20.6871   -3.7386   15.3584 C   0  0  1  0  0  0  0  0  0  0  0  0
   23.8265   -1.6950   14.7020 C   0  0  1  0  0  0  0  0  0  0  0  0
   28.7596   -1.7974   15.2203 C   0  0  1  0  0  0  0  0  0  0  0  0
   20.4334   -7.0824   11.1275 C   0  0  2  0  0  0  0  0  0  0  0  0
   21.8487   -7.4436   11.0523 N   0  0  0  0  0  0  0  0  0  0  0  0
   19.7773   -8.2026   16.7996 C   0  0  0  0  0  0  0  0  0  0  0  0
   20.8709   -2.3331   14.7846 C   0  0  2  0  0  0  0  0  0  0  0  0
   21.4932   -2.3474   13.4816 O   0  0  0  0  0  0  0  0  0  0  0  0
   25.1119   -2.6377   14.7178 C   0  0  2  0  0  0  0  0  0  0  0  0
   25.6967   -2.7214   16.0824 N   0  0  0  0  0  0  0  0  0  0  0  0
   29.5989   -0.9463   14.2744 C   0  0  1  0  0  0  0  0  0  0  0  0
   30.9828   -1.0214   14.6714 O   0  0  0  0  0  0  0  0  0  0  0  0
   20.2411   -5.5971   10.6849 C   0  0  0  0  0  0  0  0  0  0  0  0
   20.1774   -8.0665   15.2755 C   0  0  2  0  0  0  0  0  0  0  0  0
   21.4013   -8.8232   14.9917 N   0  0  0  0  0  0  0  0  0  0  0  0
   21.7084   -1.7052   15.8609 C   0  0  2  0  0  0  0  0  0  0  0  0
   23.0402   -2.1432   15.7667 O   0  0  0  0  0  0  0  0  0  0  0  0
   26.1194   -2.1572   13.5824 C   0  0  1  0  0  0  0  0  0  0  0  0
   25.4089   -2.0618   12.3436 O   0  0  0  0  0  0  0  0  0  0  0  0
   29.5104   -1.3293   12.8020 C   0  0  1  0  0  0  0  0  0  0  0  0
   30.5264   -0.5939   12.1114 O   0  0  0  0  0  0  0  0  0  0  0  0
   18.7314   -5.2305   10.7959 C   0  0  2  0  0  0  0  0  0  0  0  0
   18.4733   -3.9163   10.3350 O   0  0  0  0  0  0  0  0  0  0  0  0
   20.3647   -6.5745   14.8963 C   0  0  2  0  0  0  0  0  0  0  0  0
   21.2100   -2.3085   17.1903 C   0  0  2  0  0  0  0  0  0  0  0  0
   20.7676   -3.5936   16.7831 O   0  0  0  0  0  0  0  0  0  0  0  0
   26.6712   -0.7019   13.8769 C   0  0  2  0  0  0  0  0  0  0  0  0
   27.4003   -0.8421   15.0972 O   0  0  0  0  0  0  0  0  0  0  0  0
   29.7012   -2.8246   12.5414 C   0  0  2  0  0  0  0  0  0  0  0  0
   29.2853   -3.0681   11.1878 O   0  0  0  0  0  0  0  0  0  0  0  0
   18.2918   -5.4147   12.2696 C   0  0  2  0  0  0  0  0  0  0  0  0
   18.4831   -6.8187   12.6058 O   0  0  0  0  0  0  0  0  0  0  0  0
   19.1467   -5.6651   15.2575 C   0  0  2  0  0  0  0  0  0  0  0  0
   19.4583   -4.2823   14.9301 O   0  0  0  0  0  0  0  0  0  0  0  0
   20.0626   -1.5745   17.8834 C   0  0  0  0  0  0  0  0  0  0  0  0
   18.9043   -1.6928   17.0444 O   0  0  0  0  0  0  0  0  0  0  0  0
   25.4550    0.1356   14.2225 C   0  0  1  0  0  0  0  0  0  0  0  0
   24.2252   -0.2414   14.8783 O   0  0  0  0  0  0  0  0  0  0  0  0
   28.9763   -3.6706   13.5822 C   0  0  2  0  0  0  0  0  0  0  0  0
   28.8179   -3.2160   14.9350 O   0  0  0  0  0  0  0  0  0  0  0  0
   16.8435   -5.1359   12.4867 C   0  0  0  0  0  0  0  0  0  0  0  0
   16.5539   -5.4318   13.8316 O   0  0  0  0  0  0  0  0  0  0  0  0
   18.7359   -5.8534   16.7568 C   0  0  1  0  0  0  0  0  0  0  0  0
   17.4917   -5.1308   16.9554 O   0  0  0  0  0  0  0  0  0  0  0  0
   25.7048    1.6570   14.4591 C   0  0  0  0  0  0  0  0  0  0  0  0
   26.1795    2.3679   13.2533 N   0  0  0  0  0  0  0  0  0  0  0  0
   29.0001   -5.1974   13.5779 C   0  0  0  0  0  0  0  0  0  0  0  0
   30.3724   -5.6718   13.6015 O   0  0  0  0  0  0  0  0  0  0  0  0
  1  2  1  1  0  0  0
  1  8  1  0  0  0  0
  1 36  1  0  0  0  0
  3  4  1  1  0  0  0
  3 10  1  0  0  0  0
  3 47  1  0  0  0  0
  5 11  1  0  0  0  0
  5 30  1  0  0  0  0
  5 38  1  1  0  0  0
  6 21  1  1  0  0  0
  6 42  1  0  0  0  0
  7 15  1  0  0  0  0
  7 44  1  0  0  0  0
  7 32  1  6  0  0  0
  8  9  1  1  0  0  0
  8 17  1  0  0  0  0
 11 12  1  6  0  0  0
 11 20  1  0  0  0  0
 13  6  1  0  0  0  0
 13 14  1  1  0  0  0
 15 16  1  1  0  0  0
 15 24  1  0  0  0  0
 17 26  1  0  0  0  0
 18 10  1  0  0  0  0
 18 19  1  1  0  0  0
 20 21  1  6  0  0  0
 20 29  1  0  0  0  0
 22 13  1  0  0  0  0
 22 23  1  6  0  0  0
 24 25  1  6  0  0  0
 24 33  1  0  0  0  0
 26 27  1  1  0  0  0
 26 35  1  0  0  0  0
 28  2  1  6  0  0  0
 28 18  1  0  0  0  0
 29 30  1  0  0  0  0
 29 39  1  6  0  0  0
 31 22  1  0  0  0  0
 31 32  1  1  0  0  0
 31 41  1  0  0  0  0
 33 34  1  6  0  0  0
 33 43  1  0  0  0  0
 35 36  1  0  0  0  0
 35 45  1  6  0  0  0
 37 28  1  0  0  0  0
 37 38  1  1  0  0  0
 39 40  1  0  0  0  0
 41 42  1  0  0  0  0
 41 49  1  1  0  0  0
 43 44  1  0  0  0  0
 43 51  1  1  0  0  0
 45 46  1  0  0  0  0
 47 37  1  0  0  0  0
 47 48  1  6  0  0  0
 49 50  1  0  0  0  0
 51 52  1  0  0  0  0
M  END
>  <CHROM.1>
-179.51234822,174.06581524,-166.93738188,65.52728122,70.92323863,47.49493561
66.15835725,63.83037209,175.77353794,-48.45936231,64.46965451,55.76574394
23.08409017,-3.69075818,14.27077606,-2.85045968,0.29588117,0.57288645

>  <Name>
2esj_lig

>  <RI>
1.62275e+07

>  <Rbt.Current_Directory>
/home/itssahil/PROJECTS/Mol_Feturizer/New_Systems/rnas/2esj

>  <Rbt.Executable>
rbdock ($Id: //depot/dev/client3/rdock/2013.1/src/exe/rbdock.cxx#4 $)

>  <Rbt.Library>
libRbt.so (2013.1, Build901 2013/11/27)

>  <Rbt.Parameter_File>
/export/apps/rDock/src/rDock_2013.1_src/data/scripts/dock_solv.prm

>  <Rbt.Receptor>
prm/pocket_docking_5.prm

>  <SCORE>
-23.4295

>  <SCORE.INTER>
-12.6774

>  <SCORE.INTER.CONST>
1

>  <SCORE.INTER.POLAR>
-1.79432

>  <SCORE.INTER.ROT>
12

>  <SCORE.INTER.SOLV>
9.79785

>  <SCORE.INTER.VDW>
-17.3365

>  <SCORE.INTER.norm>
-0.243796

>  <SCORE.INTRA>
-10.7521

>  <SCORE.INTRA.DIHEDRAL>
-24.6142

>  <SCORE.INTRA.DIHEDRAL.0>
32.9766

>  <SCORE.INTRA.POLAR>
0

>  <SCORE.INTRA.POLAR.0>
0

>  <SCORE.INTRA.REPUL>
0

>  <SCORE.INTRA.REPUL.0>
0

>  <SCORE.INTRA.SOLV>
-0.878653

>  <SCORE.INTRA.SOLV.lig_0>
-114.358

>  <SCORE.INTRA.VDW>
1.99432

>  <SCORE.INTRA.VDW.0>
-8.24257

>  <SCORE.INTRA.norm>
-0.206771

>  <SCORE.RESTR>
0

>  <SCORE.RESTR.CAVITY>
0

>  <SCORE.RESTR.norm>
0

>  <SCORE.SYSTEM>
0

>  <SCORE.SYSTEM.CONST>
0

>  <SCORE.SYSTEM.DIHEDRAL>
0

>  <SCORE.SYSTEM.SOLV>
0

>  <SCORE.SYSTEM.norm>
0

>  <SCORE.heavy>
52

>  <SCORE.norm>
-0.450567

>  <RMSD>
5.578

$$$$
2esj_lig
 OpenBabel11021811423D
libRbt.so/2013.1/901 2013/11/27
 52 56  0  0  0  0  0  0  0  0999 V2000
   20.3736   -8.8492   13.6034 C   0  0  2  0  0  0  0  0  0  0  0  0
   20.9762   -8.0388   14.6306 O   0  0  0  0  0  0  0  0  0  0  0  0
   17.5354   -7.3128   17.0641 C   0  0  2  0  0  0  0  0  0  0  0  0
   16.6108   -6.8942   18.1305 N   0  0  0  0  0  0  0  0  0  0  0  0
   20.8390   -4.7228   15.1767 C   0  0  1  0  0  0  0  0  0  0  0  0
   23.8954   -2.3388   16.6847 C   0  0  1  0  0  0  0  0  0  0  0  0
   28.3295   -0.5637   15.1368 C   0  0  1  0  0  0  0  0  0  0  0  0
   21.5143   -9.3376   12.6625 C   0  0  2  0  0  0  0  0  0  0  0  0
   22.5576  -10.0621   13.3875 N   0  0  0  0  0  0  0  0  0  0  0  0
   18.6977   -8.2007   17.6626 C   0  0  0  0  0  0  0  0  0  0  0  0
   21.4853   -3.7067   14.2342 C   0  0  2  0  0  0  0  0  0  0  0  0
   22.5027   -4.3002   13.3986 O   0  0  0  0  0  0  0  0  0  0  0  0
   24.5841   -1.2835   15.7083 C   0  0  2  0  0  0  0  0  0  0  0  0
   25.2758   -1.9678   14.5839 N   0  0  0  0  0  0  0  0  0  0  0  0
   28.7591   -1.6712   14.1817 C   0  0  1  0  0  0  0  0  0  0  0  0
   28.8906   -1.1264   12.8534 O   0  0  0  0  0  0  0  0  0  0  0  0
   22.1445   -8.1402   11.8827 C   0  0  0  0  0  0  0  0  0  0  0  0
   19.6464   -8.6894   16.4952 C   0  0  2  0  0  0  0  0  0  0  0  0
   20.7430   -9.5056   17.0262 N   0  0  0  0  0  0  0  0  0  0  0  0
   22.0075   -2.7072   15.2254 C   0  0  2  0  0  0  0  0  0  0  0  0
   23.1744   -3.1892   15.8422 O   0  0  0  0  0  0  0  0  0  0  0  0
   25.5015   -0.3063   16.5676 C   0  0  1  0  0  0  0  0  0  0  0  0
   24.7259    0.2279   17.6455 O   0  0  0  0  0  0  0  0  0  0  0  0
   30.0681   -2.3659   14.5370 C   0  0  1  0  0  0  0  0  0  0  0  0
   30.4251   -3.1918   13.4231 O   0  0  0  0  0  0  0  0  0  0  0  0
   21.0118   -7.3722   11.1391 C   0  0  2  0  0  0  0  0  0  0  0  0
   21.5241   -6.3158   10.3467 O   0  0  0  0  0  0  0  0  0  0  0  0
   20.2077   -7.4755   15.7101 C   0  0  2  0  0  0  0  0  0  0  0  0
   20.9718   -2.6642   16.3678 C   0  0  2  0  0  0  0  0  0  0  0  0
   20.4504   -3.9835   16.3427 O   0  0  0  0  0  0  0  0  0  0  0  0
   26.7021   -1.0866   17.2450 C   0  0  2  0  0  0  0  0  0  0  0  0
   27.4702   -1.5749   16.1441 O   0  0  0  0  0  0  0  0  0  0  0  0
   31.2155   -1.4009   14.8408 C   0  0  2  0  0  0  0  0  0  0  0  0
   32.2609   -2.1752   15.4509 O   0  0  0  0  0  0  0  0  0  0  0  0
   19.9997   -6.8564   12.1919 C   0  0  2  0  0  0  0  0  0  0  0  0
   19.4438   -8.0221   12.8650 O   0  0  0  0  0  0  0  0  0  0  0  0
   19.1136   -6.4884   15.1908 C   0  0  2  0  0  0  0  0  0  0  0  0
   19.7512   -5.3548   14.5391 O   0  0  0  0  0  0  0  0  0  0  0  0
   19.8263   -1.6646   16.2112 C   0  0  0  0  0  0  0  0  0  0  0  0
   19.0048   -1.7613   17.3839 O   0  0  0  0  0  0  0  0  0  0  0  0
   26.0835   -2.3137   17.8866 C   0  0  1  0  0  0  0  0  0  0  0  0
   24.9426   -3.0985   17.4780 O   0  0  0  0  0  0  0  0  0  0  0  0
   30.7435   -0.2161   15.6762 C   0  0  2  0  0  0  0  0  0  0  0  0
   29.4125    0.3066   15.5452 O   0  0  0  0  0  0  0  0  0  0  0  0
   18.8397   -6.1419   11.5866 C   0  0  0  0  0  0  0  0  0  0  0  0
   17.8430   -6.0423   12.5750 O   0  0  0  0  0  0  0  0  0  0  0  0
   18.1554   -6.0575   16.3521 C   0  0  1  0  0  0  0  0  0  0  0  0
   17.0658   -5.3065   15.7537 O   0  0  0  0  0  0  0  0  0  0  0  0
   27.0418   -3.2173   18.7221 C   0  0  0  0  0  0  0  0  0  0  0  0
   26.3832   -4.4222   19.2693 N   0  0  0  0  0  0  0  0  0  0  0  0
   31.6715    0.9121   16.1208 C   0  0  0  0  0  0  0  0  0  0  0  0
   32.2893    1.5316   14.9618 O   0  0  0  0  0  0  0  0  0  0  0  0
  1  2  1  1  0  0  0
  1  8  1  0  0  0  0
  1 36  1  0  0  0  0
  3  4  1  1  0  0  0
  3 10  1  0  0  0  0
  3 47  1  0  0  0  0
  5 11  1  0  0  0  0
  5 30  1  0  0  0  0
  5 38  1  6  0  0  0
  6 21  1  6  0  0  0
  6 42  1  0  0  0  0
  7 15  1  0  0  0  0
  7 44  1  0  0  0  0
  7 32  1  1  0  0  0
  8  9  1  1  0  0  0
  8 17  1  0  0  0  0
 11 12  1  1  0  0  0
 11 20  1  0  0  0  0
 13  6  1  0  0  0  0
 13 14  1  6  0  0  0
 15 16  1  6  0  0  0
 15 24  1  0  0  0  0
 17 26  1  0  0  0  0
 18 10  1  0  0  0  0
 18 19  1  1  0  0  0
 20 21  1  1  0  0  0
 20 29  1  0  0  0  0
 22 13  1  0  0  0  0
 22 23  1  1  0  0  0
 24 25  1  6  0  0  0
 24 33  1  0  0  0  0
 26 27  1  1  0  0  0
 26 35  1  0  0  0  0
 28  2  1  6  0  0  0
 28 18  1  0  0  0  0
 29 30  1  0  0  0  0
 29 39  1  6  0  0  0
 31 22  1  0  0  0  0
 31 32  1  6  0  0  0
 31 41  1  0  0  0  0
 33 34  1  1  0  0  0
 33 43  1  0  0  0  0
 35 36  1  0  0  0  0
 35 45  1  6  0  0  0
 37 28  1  0  0  0  0
 37 38  1  1  0  0  0
 39 40  1  0  0  0  0
 41 42  1  0  0  0  0
 41 49  1  6  0  0  0
 43 44  1  0  0  0  0
 43 51  1  6  0  0  0
 45 46  1  0  0  0  0
 47 37  1  0  0  0  0
 47 48  1  6  0  0  0
 49 50  1  0  0  0  0
 51 52  1  0  0  0  0
M  END
>  <CHROM.1>
-177.02016617,171.46591284,-71.99353785,-175.06996065,172.77046585,62.86363532
-178.60351210,68.59027466,164.65092147,-46.32645908,-177.59144025,57.45051931
23.50210683,-4.12722984,15.20583898,-2.71582867,0.35165476,0.78715638

>  <Name>
2esj_lig

>  <RI>
0

>  <Rbt.Current_Directory>
/home/itssahil/PROJECTS/Mol_Feturizer/New_Systems/rnas/2esj

>  <Rbt.Executable>
rbdock ($Id: //depot/dev/client3/rdock/2013.1/src/exe/rbdock.cxx#4 $)

>  <Rbt.Library>
libRbt.so (2013.1, Build901 2013/11/27)

>  <Rbt.Parameter_File>
/export/apps/rDock/src/rDock_2013.1_src/data/scripts/dock_solv.prm

>  <Rbt.Receptor>
prm/pocket_docking_4.prm

>  <SCORE>
-13.729

>  <SCORE.INTER>
-3.75442

>  <SCORE.INTER.CONST>
1

>  <SCORE.INTER.POLAR>
-1.4609

>  <SCORE.INTER.ROT>
12

>  <SCORE.INTER.SOLV>
13.7241

>  <SCORE.INTER.VDW>
-13.808

>  <SCORE.INTER.norm>
-0.0722004

>  <SCORE.INTRA>
-9.9837

>  <SCORE.INTRA.DIHEDRAL>
-24.3939

>  <SCORE.INTRA.DIHEDRAL.0>
32.9766

>  <SCORE.INTRA.POLAR>
0

>  <SCORE.INTRA.POLAR.0>
0

>  <SCORE.INTRA.REPUL>
0

>  <SCORE.INTRA.REPUL.0>
0

>  <SCORE.INTRA.SOLV>
-1.40807

>  <SCORE.INTRA.SOLV.lig_0>
-114.358

>  <SCORE.INTRA.VDW>
2.91726

>  <SCORE.INTRA.VDW.0>
-8.24257

>  <SCORE.INTRA.norm>
-0.191994

>  <SCORE.RESTR>
0.00916566

>  <SCORE.RESTR.CAVITY>
0.00916566

>  <SCORE.RESTR.norm>
0.000176263

>  <SCORE.SYSTEM>
0

>  <SCORE.SYSTEM.CONST>
0

>  <SCORE.SYSTEM.DIHEDRAL>
0

>  <SCORE.SYSTEM.SOLV>
0

>  <SCORE.SYSTEM.norm>
0

>  <SCORE.heavy>
52

>  <SCORE.norm>
-0.264018

>  <RMSD>
5.596

$$$$
2esj_lig
 OpenBabel11021811423D
libRbt.so/2013.1/901 2013/11/27
 52 56  0  0  0  0  0  0  0  0999 V2000
   19.2359   -9.6064   14.5974 C   0  0  2  0  0  0  0  0  0  0  0  0
   20.0038   -9.4790   15.8094 O   0  0  0  0  0  0  0  0  0  0  0  0
   16.8661   -8.7506   18.6222 C   0  0  2  0  0  0  0  0  0  0  0  0
   16.0819   -8.4564   19.8330 N   0  0  0  0  0  0  0  0  0  0  0  0
   20.6623   -6.5479   17.1248 C   0  0  1  0  0  0  0  0  0  0  0  0
   24.4762   -5.3155   18.5264 C   0  0  1  0  0  0  0  0  0  0  0  0
   28.3101   -3.8350   15.7094 C   0  0  1  0  0  0  0  0  0  0  0  0
   20.0277  -10.5423   13.6371 C   0  0  2  0  0  0  0  0  0  0  0  0
   20.3124  -11.8430   14.2423 N   0  0  0  0  0  0  0  0  0  0  0  0
   17.8193   -9.9861   18.8723 C   0  0  0  0  0  0  0  0  0  0  0  0
   21.3647   -5.2892   16.6138 C   0  0  2  0  0  0  0  0  0  0  0  0
   22.1236   -5.5327   15.4096 O   0  0  0  0  0  0  0  0  0  0  0  0
   25.0154   -4.1455   17.5875 C   0  0  2  0  0  0  0  0  0  0  0  0
   25.0816   -4.5862   16.1689 N   0  0  0  0  0  0  0  0  0  0  0  0
   28.2224   -4.7406   14.4864 C   0  0  1  0  0  0  0  0  0  0  0  0
   27.9714   -3.9348   13.3175 O   0  0  0  0  0  0  0  0  0  0  0  0
   21.3593   -9.8694   13.1757 C   0  0  0  0  0  0  0  0  0  0  0  0
   18.6091  -10.3237   17.5442 C   0  0  2  0  0  0  0  0  0  0  0  0
   19.5124  -11.4600   17.7534 N   0  0  0  0  0  0  0  0  0  0  0  0
   22.2017   -4.9380   17.8096 C   0  0  2  0  0  0  0  0  0  0  0  0
   23.3222   -5.7819   17.8911 O   0  0  0  0  0  0  0  0  0  0  0  0
   26.3839   -3.5925   18.1847 C   0  0  1  0  0  0  0  0  0  0  0  0
   26.1889   -3.2690   19.5653 O   0  0  0  0  0  0  0  0  0  0  0  0
   29.4580   -5.5904   14.2156 C   0  0  1  0  0  0  0  0  0  0  0  0
   29.2897   -6.1823   12.9227 O   0  0  0  0  0  0  0  0  0  0  0  0
   21.0320   -8.4780   12.5570 C   0  0  2  0  0  0  0  0  0  0  0  0
   22.1903   -7.8432   12.0459 O   0  0  0  0  0  0  0  0  0  0  0  0
   19.4040   -9.0842   17.0574 C   0  0  2  0  0  0  0  0  0  0  0  0
   21.3572   -5.3184   19.0431 C   0  0  2  0  0  0  0  0  0  0  0  0
   20.5870   -6.4030   18.5498 O   0  0  0  0  0  0  0  0  0  0  0  0
   27.5165   -4.6996   18.1565 C   0  0  2  0  0  0  0  0  0  0  0  0
   27.7078   -4.9721   16.7675 O   0  0  0  0  0  0  0  0  0  0  0  0
   30.7679   -4.8009   14.2450 C   0  0  2  0  0  0  0  0  0  0  0  0
   31.8338   -5.7635   14.2892 O   0  0  0  0  0  0  0  0  0  0  0  0
   20.3386   -7.6139   13.6395 C   0  0  2  0  0  0  0  0  0  0  0  0
   19.1033   -8.2914   14.0081 O   0  0  0  0  0  0  0  0  0  0  0  0
   18.5409   -7.7910   16.9037 C   0  0  2  0  0  0  0  0  0  0  0  0
   19.3959   -6.6788   16.5181 O   0  0  0  0  0  0  0  0  0  0  0  0
   20.4213   -4.2394   19.5868 C   0  0  0  0  0  0  0  0  0  0  0  0
   19.5092   -3.8886   18.5359 O   0  0  0  0  0  0  0  0  0  0  0  0
   26.8818   -5.9503   18.7337 C   0  0  1  0  0  0  0  0  0  0  0  0
   25.5155   -6.4123   18.6673 O   0  0  0  0  0  0  0  0  0  0  0  0
   30.7868   -3.7912   15.3872 C   0  0  2  0  0  0  0  0  0  0  0  0
   29.5821   -3.1553   15.8414 O   0  0  0  0  0  0  0  0  0  0  0  0
   19.9342   -6.2680   13.1423 C   0  0  0  0  0  0  0  0  0  0  0  0
   18.6037   -6.3659   12.6946 O   0  0  0  0  0  0  0  0  0  0  0  0
   17.7291   -7.5040   18.2116 C   0  0  1  0  0  0  0  0  0  0  0  0
   16.8167   -6.4123   17.9202 O   0  0  0  0  0  0  0  0  0  0  0  0
   27.8204   -7.1822   18.9192 C   0  0  0  0  0  0  0  0  0  0  0  0
   28.4805   -7.2228   20.2411 N   0  0  0  0  0  0  0  0  0  0  0  0
   31.9646   -2.8567   15.6536 C   0  0  0  0  0  0  0  0  0  0  0  0
   31.7204   -2.0820   16.8573 O   0  0  0  0  0  0  0  0  0  0  0  0
  1  2  1  1  0  0  0
  1  8  1  0  0  0  0
  1 36  1  0  0  0  0
  3  4  1  1  0  0  0
  3 10  1  0  0  0  0
  3 47  1  0  0  0  0
  5 11  1  0  0  0  0
  5 30  1  0  0  0  0
  5 38  1  6  0  0  0
  6 21  1  6  0  0  0
  6 42  1  0  0  0  0
  7 15  1  0  0  0  0
  7 44  1  0  0  0  0
  7 32  1  1  0  0  0
  8  9  1  1  0  0  0
  8 17  1  0  0  0  0
 11 12  1  6  0  0  0
 11 20  1  0  0  0  0
 13  6  1  0  0  0  0
 13 14  1  6  0  0  0
 15 16  1  6  0  0  0
 15 24  1  0  0  0  0
 17 26  1  0  0  0  0
 18 10  1  0  0  0  0
 18 19  1  1  0  0  0
 20 21  1  6  0  0  0
 20 29  1  0  0  0  0
 22 13  1  0  0  0  0
 22 23  1  1  0  0  0
 24 25  1  6  0  0  0
 24 33  1  0  0  0  0
 26 27  1  1  0  0  0
 26 35  1  0  0  0  0
 28  2  1  6  0  0  0
 28 18  1  0  0  0  0
 29 30  1  0  0  0  0
 29 39  1  6  0  0  0
 31 22  1  0  0  0  0
 31 32  1  6  0  0  0
 31 41  1  0  0  0  0
 33 34  1  1  0  0  0
 33 43  1  0  0  0  0
 35 36  1  0  0  0  0
 35 45  1  6  0  0  0
 37 28  1  0  0  0  0
 37 38  1  1  0  0  0
 39 40  1  0  0  0  0
 41 42  1  0  0  0  0
 41 49  1  6  0  0  0
 43 44  1  0  0  0  0
 43 51  1  6  0  0  0
 45 46  1  0  0  0  0
 47 37  1  0  0  0  0
 47 48  1  6  0  0  0
 49 50  1  0  0  0  0
 51 52  1  0  0  0  0
M  END
>  <CHROM.1>
-158.41160375,-177.87567120,-67.06802111,-178.94193124,153.13004796,74.26214232
59.58659802,65.50714008,92.90581027,-40.85714480,89.97403254,-176.19168700
23.40590598,-6.39965882,16.39653586,-3.04124509,0.34645725,1.14358845

>  <Name>
2esj_lig

>  <RI>
1.62275e+07

>  <Rbt.Current_Directory>
/home/itssahil/PROJECTS/Mol_Feturizer/New_Systems/rnas/2esj

>  <Rbt.Executable>
rbdock ($Id: //depot/dev/client3/rdock/2013.1/src/exe/rbdock.cxx#4 $)

>  <Rbt.Library>
libRbt.so (2013.1, Build901 2013/11/27)

>  <Rbt.Parameter_File>
/export/apps/rDock/src/rDock_2013.1_src/data/scripts/dock_solv.prm

>  <Rbt.Receptor>
prm/pocket_docking_5.prm

>  <SCORE>
-17.7534

>  <SCORE.INTER>
-12.5049

>  <SCORE.INTER.CONST>
1

>  <SCORE.INTER.POLAR>
-1.84612

>  <SCORE.INTER.ROT>
12

>  <SCORE.INTER.SOLV>
14.6919

>  <SCORE.INTER.VDW>
-18.6802

>  <SCORE.INTER.norm>
-0.24048

>  <SCORE.INTRA>
-5.25589

>  <SCORE.INTRA.DIHEDRAL>
-16.8952

>  <SCORE.INTRA.DIHEDRAL.0>
32.9766

>  <SCORE.INTRA.POLAR>
0

>  <SCORE.INTRA.POLAR.0>
0

>  <SCORE.INTRA.REPUL>
0

>  <SCORE.INTRA.REPUL.0>
0

>  <SCORE.INTRA.SOLV>
-0.0867052

>  <SCORE.INTRA.SOLV.lig_0>
-114.358

>  <SCORE.INTRA.VDW>
3.23505

>  <SCORE.INTRA.VDW.0>
-8.24257

>  <SCORE.INTRA.norm>
-0.101075

>  <SCORE.RESTR>
0.0074198

>  <SCORE.RESTR.CAVITY>
0.0074198

>  <SCORE.RESTR.norm>
0.000142689

>  <SCORE.SYSTEM>
0

>  <SCORE.SYSTEM.CONST>
0

>  <SCORE.SYSTEM.DIHEDRAL>
0

>  <SCORE.SYSTEM.SOLV>
0

>  <SCORE.SYSTEM.norm>
0

>  <SCORE.heavy>
52

>  <SCORE.norm>
-0.341412

>  <RMSD>
5.615

$$$$
2esj_lig
 OpenBabel11021811423D
libRbt.so/2013.1/901 2013/11/27
 52 56  0  0  0  0  0  0  0  0999 V2000
   20.5534   -9.1464   14.2889 C   0  0  2  0  0  0  0  0  0  0  0  0
   20.6552   -9.2985   15.7177 O   0  0  0  0  0  0  0  0  0  0  0  0
   18.7020   -7.4304   19.0318 C   0  0  2  0  0  0  0  0  0  0  0  0
   18.2753   -6.5021   20.0918 N   0  0  0  0  0  0  0  0  0  0  0  0
   19.2155   -6.0689   14.7880 C   0  0  1  0  0  0  0  0  0  0  0  0
   20.5771   -2.4742   13.7759 C   0  0  1  0  0  0  0  0  0  0  0  0
   25.3554   -1.1149   14.4661 C   0  0  1  0  0  0  0  0  0  0  0  0
   21.0599  -10.4681   13.6397 C   0  0  2  0  0  0  0  0  0  0  0  0
   20.3230  -11.6374   14.1180 N   0  0  0  0  0  0  0  0  0  0  0  0
   20.2516   -7.7191   19.1459 C   0  0  0  0  0  0  0  0  0  0  0  0
   18.9372   -5.7446   13.3197 C   0  0  2  0  0  0  0  0  0  0  0  0
   19.8998   -6.3507   12.4300 O   0  0  0  0  0  0  0  0  0  0  0  0
   21.3559   -1.8562   12.5298 C   0  0  2  0  0  0  0  0  0  0  0  0
   22.4791   -2.7363   12.1115 N   0  0  0  0  0  0  0  0  0  0  0  0
   25.6738    0.3753   14.4258 C   0  0  1  0  0  0  0  0  0  0  0  0
   26.3730    0.7429   15.6317 O   0  0  0  0  0  0  0  0  0  0  0  0
   22.5882  -10.6641   13.8942 C   0  0  0  0  0  0  0  0  0  0  0  0
   20.6795   -8.7629   18.0373 C   0  0  2  0  0  0  0  0  0  0  0  0
   22.1180   -9.0383   18.1129 N   0  0  0  0  0  0  0  0  0  0  0  0
   18.9902   -4.2446   13.3556 C   0  0  2  0  0  0  0  0  0  0  0  0
   20.3218   -3.8004   13.4172 O   0  0  0  0  0  0  0  0  0  0  0  0
   21.7673   -0.3561   12.8696 C   0  0  1  0  0  0  0  0  0  0  0  0
   20.6064    0.3522   13.3161 O   0  0  0  0  0  0  0  0  0  0  0  0
   26.5134    0.8296   13.2379 C   0  0  1  0  0  0  0  0  0  0  0  0
   26.9063    2.1833   13.4902 O   0  0  0  0  0  0  0  0  0  0  0  0
   23.3473   -9.3977   13.3983 C   0  0  2  0  0  0  0  0  0  0  0  0
   24.7505   -9.5399   13.5288 O   0  0  0  0  0  0  0  0  0  0  0  0
   20.3032   -8.2390   16.6270 C   0  0  2  0  0  0  0  0  0  0  0  0
   18.3959   -3.8333   14.7185 C   0  0  2  0  0  0  0  0  0  0  0  0
   18.7371   -4.9420   15.5354 O   0  0  0  0  0  0  0  0  0  0  0  0
   22.7979   -0.2968   14.0711 C   0  0  2  0  0  0  0  0  0  0  0  0
   23.9515   -0.9807   13.5793 O   0  0  0  0  0  0  0  0  0  0  0  0
   27.7604   -0.0244   13.0017 C   0  0  2  0  0  0  0  0  0  0  0  0
   28.2603    0.3194   11.6991 O   0  0  0  0  0  0  0  0  0  0  0  0
   22.8221   -8.1735   14.1886 C   0  0  2  0  0  0  0  0  0  0  0  0
   21.4022   -8.0437   13.8920 O   0  0  0  0  0  0  0  0  0  0  0  0
   18.8054   -7.8202   16.4790 C   0  0  2  0  0  0  0  0  0  0  0  0
   18.5818   -7.2762   15.1484 O   0  0  0  0  0  0  0  0  0  0  0  0
   16.8837   -3.6171   14.7647 C   0  0  0  0  0  0  0  0  0  0  0  0
   16.2608   -4.9093   14.7212 O   0  0  0  0  0  0  0  0  0  0  0  0
   22.2216   -1.1933   15.1501 C   0  0  1  0  0  0  0  0  0  0  0  0
   21.4239   -2.3911   15.0326 O   0  0  0  0  0  0  0  0  0  0  0  0
   27.4655   -1.5085   13.1887 C   0  0  2  0  0  0  0  0  0  0  0  0
   26.4822   -1.9610   14.1321 O   0  0  0  0  0  0  0  0  0  0  0  0
   23.4481   -6.8897   13.7616 C   0  0  0  0  0  0  0  0  0  0  0  0
   23.1436   -6.7042   12.4003 O   0  0  0  0  0  0  0  0  0  0  0  0
   18.3896   -6.8266   17.6157 C   0  0  1  0  0  0  0  0  0  0  0  0
   16.9519   -6.6433   17.5216 O   0  0  0  0  0  0  0  0  0  0  0  0
   22.9962   -1.2362   16.5033 C   0  0  0  0  0  0  0  0  0  0  0  0
   22.1539   -1.6402   17.6487 N   0  0  0  0  0  0  0  0  0  0  0  0
   28.5257   -2.5954   13.0264 C   0  0  0  0  0  0  0  0  0  0  0  0
   27.8995   -3.9054   13.0454 O   0  0  0  0  0  0  0  0  0  0  0  0
  1  2  1  1  0  0  0
  1  8  1  0  0  0  0
  1 36  1  0  0  0  0
  3  4  1  1  0  0  0
  3 10  1  0  0  0  0
  3 47  1  0  0  0  0
  5 11  1  0  0  0  0
  5 30  1  0  0  0  0
  5 38  1  1  0  0  0
  6 21  1  6  0  0  0
  6 42  1  0  0  0  0
  7 15  1  0  0  0  0
  7 44  1  0  0  0  0
  7 32  1  6  0  0  0
  8  9  1  1  0  0  0
  8 17  1  0  0  0  0
 11 12  1  6  0  0  0
 11 20  1  0  0  0  0
 13  6  1  0  0  0  0
 13 14  1  1  0  0  0
 15 16  1  1  0  0  0
 15 24  1  0  0  0  0
 17 26  1  0  0  0  0
 18 10  1  0  0  0  0
 18 19  1  6  0  0  0
 20 21  1  1  0  0  0
 20 29  1  0  0  0  0
 22 13  1  0  0  0  0
 22 23  1  1  0  0  0
 24 25  1  1  0  0  0
 24 33  1  0  0  0  0
 26 27  1  1  0  0  0
 26 35  1  0  0  0  0
 28  2  1  6  0  0  0
 28 18  1  0  0  0  0
 29 30  1  0  0  0  0
 29 39  1  6  0  0  0
 31 22  1  0  0  0  0
 31 32  1  6  0  0  0
 31 41  1  0  0  0  0
 33 34  1  6  0  0  0
 33 43  1  0  0  0  0
 35 36  1  0  0  0  0
 35 45  1  6  0  0  0
 37 28  1  0  0  0  0
 37 38  1  6  0  0  0
 39 40  1  0  0  0  0
 41 42  1  0  0  0  0
 41 49  1  6  0  0  0
 43 44  1  0  0  0  0
 43 51  1  1  0  0  0
 45 46  1  0  0  0  0
 47 37  1  0  0  0  0
 47 48  1  1  0  0  0
 49 50  1  0  0  0  0
 51 52  1  0  0  0  0
M  END
>  <CHROM.1>
178.13046780,175.31231089,-120.33468553,-66.55338181,-164.89286761,-174.90570784
74.09765355,176.78203893,60.39468226,-65.71088980,156.33377916,-170.50608429
22.02999213,-4.61467683,14.66008130,-2.27771144,0.33608825,-0.01900039

>  <Name>
2esj_lig

>  <RI>
0

>  <Rbt.Current_Directory>
/home/itssahil/PROJECTS/Mol_Feturizer/New_Systems/rnas/2esj

>  <Rbt.Executable>
rbdock ($Id: //depot/dev/client3/rdock/2013.1/src/exe/rbdock.cxx#4 $)

>  <Rbt.Library>
libRbt.so (2013.1, Build901 2013/11/27)

>  <Rbt.Parameter_File>
/export/apps/rDock/src/rDock_2013.1_src/data/scripts/dock_solv.prm

>  <Rbt.Receptor>
prm/pocket_docking_6.prm

>  <SCORE>
-17.4288

>  <SCORE.INTER>
-10.848

>  <SCORE.INTER.CONST>
1

>  <SCORE.INTER.POLAR>
-1.98418

>  <SCORE.INTER.ROT>
12

>  <SCORE.INTER.SOLV>
12.9345

>  <SCORE.INTER.VDW>
-16.5296

>  <SCORE.INTER.norm>
-0.208616

>  <SCORE.INTRA>
-6.5808

>  <SCORE.INTRA.DIHEDRAL>
-18.0169

>  <SCORE.INTRA.DIHEDRAL.0>
32.9766

>  <SCORE.INTRA.POLAR>
0

>  <SCORE.INTRA.POLAR.0>
0

>  <SCORE.INTRA.REPUL>
0

>  <SCORE.INTRA.REPUL.0>
0

>  <SCORE.INTRA.SOLV>
-2.5488

>  <SCORE.INTRA.SOLV.lig_0>
-114.358

>  <SCORE.INTRA.VDW>
3.70204

>  <SCORE.INTRA.VDW.0>
-8.24257

>  <SCORE.INTRA.norm>
-0.126554

>  <SCORE.RESTR>
0

>  <SCORE.RESTR.CAVITY>
0

>  <SCORE.RESTR.norm>
0

>  <SCORE.SYSTEM>
0

>  <SCORE.SYSTEM.CONST>
0

>  <SCORE.SYSTEM.DIHEDRAL>
0

>  <SCORE.SYSTEM.SOLV>
0

>  <SCORE.SYSTEM.norm>
0

>  <SCORE.heavy>
52

>  <SCORE.norm>
-0.335169

>  <RMSD>
5.617

$$$$
2esj_lig
 OpenBabel11021811423D
libRbt.so/2013.1/901 2013/11/27
 52 56  0  0  0  0  0  0  0  0999 V2000
   19.1420   -7.5222   15.5913 C   0  0  2  0  0  0  0  0  0  0  0  0
   19.9145   -6.3222   15.3963 O   0  0  0  0  0  0  0  0  0  0  0  0
   17.1648   -4.0281   13.0587 C   0  0  2  0  0  0  0  0  0  0  0  0
   16.5119   -2.9895   12.2448 N   0  0  0  0  0  0  0  0  0  0  0  0
   21.4666   -5.6776   12.5683 C   0  0  1  0  0  0  0  0  0  0  0  0
   25.1577   -3.7641   12.1996 C   0  0  1  0  0  0  0  0  0  0  0  0
   27.4085   -1.7346   16.4901 C   0  0  1  0  0  0  0  0  0  0  0  0
   19.7200   -8.2540   16.8385 C   0  0  2  0  0  0  0  0  0  0  0  0
   19.7184   -7.4042   18.0289 N   0  0  0  0  0  0  0  0  0  0  0  0
   17.6735   -3.4164   14.4241 C   0  0  0  0  0  0  0  0  0  0  0  0
   22.3824   -6.0742   11.4096 C   0  0  2  0  0  0  0  0  0  0  0  0
   23.1571   -7.2577   11.7004 O   0  0  0  0  0  0  0  0  0  0  0  0
   26.2525   -4.1964   13.2746 C   0  0  2  0  0  0  0  0  0  0  0  0
   25.6221   -4.5035   14.5858 N   0  0  0  0  0  0  0  0  0  0  0  0
   28.4419   -2.7656   16.0511 C   0  0  1  0  0  0  0  0  0  0  0  0
   29.7445   -2.3575   16.5150 O   0  0  0  0  0  0  0  0  0  0  0  0
   21.1664   -8.7729   16.5595 C   0  0  0  0  0  0  0  0  0  0  0  0
   18.3182   -4.5579   15.3090 C   0  0  2  0  0  0  0  0  0  0  0  0
   18.8114   -4.0133   16.5782 N   0  0  0  0  0  0  0  0  0  0  0  0
   23.1992   -4.8228   11.2653 C   0  0  2  0  0  0  0  0  0  0  0  0
   24.1688   -4.7482   12.2796 O   0  0  0  0  0  0  0  0  0  0  0  0
   27.3967   -3.0901   13.3209 C   0  0  1  0  0  0  0  0  0  0  0  0
   27.8640   -2.8519   11.9891 O   0  0  0  0  0  0  0  0  0  0  0  0
   28.1921   -4.1869   16.5406 C   0  0  1  0  0  0  0  0  0  0  0  0
   29.3651   -4.9508   16.2393 O   0  0  0  0  0  0  0  0  0  0  0  0
   21.1457   -9.6548   15.2760 C   0  0  2  0  0  0  0  0  0  0  0  0
   22.4148  -10.2231   15.0069 O   0  0  0  0  0  0  0  0  0  0  0  0
   19.4683   -5.2561   14.5375 C   0  0  2  0  0  0  0  0  0  0  0  0
   22.2414   -3.6546   11.5776 C   0  0  2  0  0  0  0  0  0  0  0  0
   21.3391   -4.2508   12.4960 O   0  0  0  0  0  0  0  0  0  0  0  0
   26.8374   -1.7008   13.8370 C   0  0  2  0  0  0  0  0  0  0  0  0
   26.4130   -1.9673   15.1747 O   0  0  0  0  0  0  0  0  0  0  0  0
   27.8974   -4.2802   18.0388 C   0  0  2  0  0  0  0  0  0  0  0  0
   27.3841   -5.6003   18.2812 O   0  0  0  0  0  0  0  0  0  0  0  0
   20.6481   -8.7853   14.0947 C   0  0  2  0  0  0  0  0  0  0  0  0
   19.2952   -8.3523   14.4160 O   0  0  0  0  0  0  0  0  0  0  0  0
   19.0631   -5.7807   13.1228 C   0  0  2  0  0  0  0  0  0  0  0  0
   20.2292   -6.3459   12.4615 O   0  0  0  0  0  0  0  0  0  0  0  0
   21.4574   -3.0825   10.3971 C   0  0  0  0  0  0  0  0  0  0  0  0
   22.4049   -2.4993    9.4906 O   0  0  0  0  0  0  0  0  0  0  0  0
   25.5663   -1.4519   13.0480 C   0  0  1  0  0  0  0  0  0  0  0  0
   24.6020   -2.3895   12.5229 O   0  0  0  0  0  0  0  0  0  0  0  0
   26.9770   -3.1552   18.4988 C   0  0  2  0  0  0  0  0  0  0  0  0
   27.0111   -1.8614   17.8769 O   0  0  0  0  0  0  0  0  0  0  0  0
   20.5419   -9.5430   12.8153 C   0  0  0  0  0  0  0  0  0  0  0  0
   19.5442  -10.5206   12.9855 O   0  0  0  0  0  0  0  0  0  0  0  0
   18.3814   -4.6486   12.2827 C   0  0  1  0  0  0  0  0  0  0  0  0
   17.8656   -5.2631   11.0721 O   0  0  0  0  0  0  0  0  0  0  0  0
   24.8574   -0.0835   13.2883 C   0  0  0  0  0  0  0  0  0  0  0  0
   23.6327   -0.1934   14.1084 N   0  0  0  0  0  0  0  0  0  0  0  0
   26.5219   -2.9908   19.9471 C   0  0  0  0  0  0  0  0  0  0  0  0
   27.6620   -2.6862   20.7934 O   0  0  0  0  0  0  0  0  0  0  0  0
  1  2  1  6  0  0  0
  1  8  1  0  0  0  0
  1 36  1  0  0  0  0
  3  4  1  6  0  0  0
  3 10  1  0  0  0  0
  3 47  1  0  0  0  0
  5 11  1  0  0  0  0
  5 30  1  0  0  0  0
  5 38  1  6  0  0  0
  6 21  1  1  0  0  0
  6 42  1  0  0  0  0
  7 15  1  0  0  0  0
  7 44  1  0  0  0  0
  7 32  1  6  0  0  0
  8  9  1  1  0  0  0
  8 17  1  0  0  0  0
 11 12  1  1  0  0  0
 11 20  1  0  0  0  0
 13  6  1  0  0  0  0
 13 14  1  1  0  0  0
 15 16  1  1  0  0  0
 15 24  1  0  0  0  0
 17 26  1  0  0  0  0
 18 10  1  0  0  0  0
 18 19  1  1  0  0  0
 20 21  1  1  0  0  0
 20 29  1  0  0  0  0
 22 13  1  0  0  0  0
 22 23  1  6  0  0  0
 24 25  1  1  0  0  0
 24 33  1  0  0  0  0
 26 27  1  6  0  0  0
 26 35  1  0  0  0  0
 28  2  1  1  0  0  0
 28 18  1  0  0  0  0
 29 30  1  0  0  0  0
 29 39  1  6  0  0  0
 31 22  1  0  0  0  0
 31 32  1  1  0  0  0
 31 41  1  0  0  0  0
 33 34  1  6  0  0  0
 33 43  1  0  0  0  0
 35 36  1  0  0  0  0
 35 45  1  6  0  0  0
 37 28  1  0  0  0  0
 37 38  1  6  0  0  0
 39 40  1  0  0  0  0
 41 42  1  0  0  0  0
 41 49  1  1  0  0  0
 43 44  1  0  0  0  0
 43 51  1  1  0  0  0
 45 46  1  0  0  0  0
 47 37  1  0  0  0  0
 47 48  1  6  0  0  0
 49 50  1  0  0  0  0
 51 52  1  0  0  0  0
M  END
>  <CHROM.1>
-165.11098345,-157.40132365,-166.45307523,-62.42580989,170.34736675,73.51816323
-64.73700878,92.57688112,64.91669707,-41.51858787,-105.31299807,65.27639517
23.10275263,-4.75380721,14.38037609,-3.11983136,-0.50888106,-0.87893919

>  <Name>
2esj_lig

>  <RI>
1.62275e+07

>  <Rbt.Current_Directory>
/home/itssahil/PROJECTS/Mol_Feturizer/New_Systems/rnas/2esj

>  <Rbt.Executable>
rbdock ($Id: //depot/dev/client3/rdock/2013.1/src/exe/rbdock.cxx#4 $)

>  <Rbt.Library>
libRbt.so (2013.1, Build901 2013/11/27)

>  <Rbt.Parameter_File>
/export/apps/rDock/src/rDock_2013.1_src/data/scripts/dock_solv.prm

>  <Rbt.Receptor>
prm/pocket_docking_5.prm

>  <SCORE>
-6.43667

>  <SCORE.INTER>
-0.884489

>  <SCORE.INTER.CONST>
1

>  <SCORE.INTER.POLAR>
-0.406568

>  <SCORE.INTER.ROT>
12

>  <SCORE.INTER.SOLV>
8.31743

>  <SCORE.INTER.VDW>
-13.6069

>  <SCORE.INTER.norm>
-0.0170094

>  <SCORE.INTRA>
-5.55218

>  <SCORE.INTRA.DIHEDRAL>
-16.5962

>  <SCORE.INTRA.DIHEDRAL.0>
32.9766

>  <SCORE.INTRA.POLAR>
0

>  <SCORE.INTRA.POLAR.0>
0

>  <SCORE.INTRA.REPUL>
0

>  <SCORE.INTRA.REPUL.0>
0

>  <SCORE.INTRA.SOLV>
0.0215419

>  <SCORE.INTRA.SOLV.lig_0>
-114.358

>  <SCORE.INTRA.VDW>
2.73515

>  <SCORE.INTRA.VDW.0>
-8.24257

>  <SCORE.INTRA.norm>
-0.106773

>  <SCORE.RESTR>
0

>  <SCORE.RESTR.CAVITY>
0

>  <SCORE.RESTR.norm>
0

>  <SCORE.SYSTEM>
0

>  <SCORE.SYSTEM.CONST>
0

>  <SCORE.SYSTEM.DIHEDRAL>
0

>  <SCORE.SYSTEM.SOLV>
0

>  <SCORE.SYSTEM.norm>
0

>  <SCORE.heavy>
52

>  <SCORE.norm>
-0.123782

>  <RMSD>
5.623

$$$$
2esj_lig
 OpenBabel11021811423D
libRbt.so/2013.1/901 2013/11/27
 52 56  0  0  0  0  0  0  0  0999 V2000
   20.1433   -8.6204   14.3937 C   0  0  2  0  0  0  0  0  0  0  0  0
   21.3069   -8.1498   15.1003 O   0  0  0  0  0  0  0  0  0  0  0  0
   20.4293   -9.4064   19.0927 C   0  0  2  0  0  0  0  0  0  0  0  0
   20.4231   -9.6074   20.5511 N   0  0  0  0  0  0  0  0  0  0  0  0
   20.7285   -5.3283   17.1188 C   0  0  1  0  0  0  0  0  0  0  0  0
   23.0393   -1.9924   18.0844 C   0  0  1  0  0  0  0  0  0  0  0  0
   27.9559   -2.5303   17.8589 C   0  0  1  0  0  0  0  0  0  0  0  0
   20.6330   -9.2760   13.0688 C   0  0  2  0  0  0  0  0  0  0  0  0
   21.5986  -10.3487   13.3060 N   0  0  0  0  0  0  0  0  0  0  0  0
   21.8501   -9.7572   18.4961 C   0  0  0  0  0  0  0  0  0  0  0  0
   20.1754   -3.9405   16.7921 C   0  0  2  0  0  0  0  0  0  0  0  0
   20.4115   -3.5632   15.4184 O   0  0  0  0  0  0  0  0  0  0  0  0
   24.3306   -1.7899   17.1718 C   0  0  2  0  0  0  0  0  0  0  0  0
   24.9010   -3.0983   16.7548 N   0  0  0  0  0  0  0  0  0  0  0  0
   28.1719   -4.0375   17.7868 C   0  0  1  0  0  0  0  0  0  0  0  0
   28.7689   -4.3702   16.5174 O   0  0  0  0  0  0  0  0  0  0  0  0
   21.2524   -8.2068   12.1137 C   0  0  0  0  0  0  0  0  0  0  0  0
   21.8202   -9.5924   16.9234 C   0  0  2  0  0  0  0  0  0  0  0  0
   23.1326   -9.8994   16.3454 N   0  0  0  0  0  0  0  0  0  0  0  0
   20.9168   -3.1067   17.7967 C   0  0  2  0  0  0  0  0  0  0  0  0
   22.2443   -2.9032   17.3835 O   0  0  0  0  0  0  0  0  0  0  0  0
   25.3473   -0.8213   17.9223 C   0  0  1  0  0  0  0  0  0  0  0  0
   24.6498    0.3638   18.3191 O   0  0  0  0  0  0  0  0  0  0  0  0
   29.0489   -4.6229   18.8870 C   0  0  1  0  0  0  0  0  0  0  0  0
   29.3305   -5.9798   18.5271 O   0  0  0  0  0  0  0  0  0  0  0  0
   20.2150   -7.0657   11.8957 C   0  0  2  0  0  0  0  0  0  0  0  0
   20.6837   -6.0967   10.9751 O   0  0  0  0  0  0  0  0  0  0  0  0
   21.3832   -8.1552   16.5382 C   0  0  2  0  0  0  0  0  0  0  0  0
   21.0488   -3.9836   19.0589 C   0  0  2  0  0  0  0  0  0  0  0  0
   21.0865   -5.2903   18.5073 O   0  0  0  0  0  0  0  0  0  0  0  0
   25.8864   -1.4738   19.2613 C   0  0  2  0  0  0  0  0  0  0  0  0
   26.6029   -2.6301   18.8257 O   0  0  0  0  0  0  0  0  0  0  0  0
   30.3643   -3.8697   19.0932 C   0  0  2  0  0  0  0  0  0  0  0  0
   30.9178   -4.3303   20.3366 O   0  0  0  0  0  0  0  0  0  0  0  0
   19.8884   -6.4341   13.2718 C   0  0  2  0  0  0  0  0  0  0  0  0
   19.3031   -7.4796   14.0997 O   0  0  0  0  0  0  0  0  0  0  0  0
   20.0402   -7.6980   17.1928 C   0  0  2  0  0  0  0  0  0  0  0  0
   19.7661   -6.3170   16.8265 O   0  0  0  0  0  0  0  0  0  0  0  0
   19.9080   -3.8950   20.0720 C   0  0  0  0  0  0  0  0  0  0  0  0
   20.1757   -4.8501   21.1092 O   0  0  0  0  0  0  0  0  0  0  0  0
   24.6610   -2.0012   19.9827 C   0  0  1  0  0  0  0  0  0  0  0  0
   23.4266   -2.5282   19.4504 O   0  0  0  0  0  0  0  0  0  0  0  0
   30.1624   -2.3604   19.0173 C   0  0  2  0  0  0  0  0  0  0  0  0
   29.1571   -1.7835   18.1697 O   0  0  0  0  0  0  0  0  0  0  0  0
   18.8634   -5.3547   13.1909 C   0  0  0  0  0  0  0  0  0  0  0  0
   17.6191   -5.9707   12.9617 O   0  0  0  0  0  0  0  0  0  0  0  0
   20.0730   -7.9170   18.7430 C   0  0  1  0  0  0  0  0  0  0  0  0
   18.7347   -7.6545   19.2423 O   0  0  0  0  0  0  0  0  0  0  0  0
   24.8982   -2.6103   21.3988 C   0  0  0  0  0  0  0  0  0  0  0  0
   24.8354   -4.0869   21.4202 N   0  0  0  0  0  0  0  0  0  0  0  0
   31.3035   -1.3583   19.1762 C   0  0  0  0  0  0  0  0  0  0  0  0
   31.7841   -1.3675   20.5465 O   0  0  0  0  0  0  0  0  0  0  0  0
  1  2  1  1  0  0  0
  1  8  1  0  0  0  0
  1 36  1  0  0  0  0
  3  4  1  1  0  0  0
  3 10  1  0  0  0  0
  3 47  1  0  0  0  0
  5 11  1  0  0  0  0
  5 30  1  0  0  0  0
  5 38  1  1  0  0  0
  6 21  1  6  0  0  0
  6 42  1  0  0  0  0
  7 15  1  0  0  0  0
  7 44  1  0  0  0  0
  7 32  1  1  0  0  0
  8  9  1  1  0  0  0
  8 17  1  0  0  0  0
 11 12  1  6  0  0  0
 11 20  1  0  0  0  0
 13  6  1  0  0  0  0
 13 14  1  1  0  0  0
 15 16  1  6  0  0  0
 15 24  1  0  0  0  0
 17 26  1  0  0  0  0
 18 10  1  0  0  0  0
 18 19  1  1  0  0  0
 20 21  1  6  0  0  0
 20 29  1  0  0  0  0
 22 13  1  0  0  0  0
 22 23  1  1  0  0  0
 24 25  1  6  0  0  0
 24 33  1  0  0  0  0
 26 27  1  6  0  0  0
 26 35  1  0  0  0  0
 28  2  1  6  0  0  0
 28 18  1  0  0  0  0
 29 30  1  0  0  0  0
 29 39  1  1  0  0  0
 31 22  1  0  0  0  0
 31 32  1  6  0  0  0
 31 41  1  0  0  0  0
 33 34  1  1  0  0  0
 33 43  1  0  0  0  0
 35 36  1  0  0  0  0
 35 45  1  6  0  0  0
 37 28  1  0  0  0  0
 37 38  1  1  0  0  0
 39 40  1  0  0  0  0
 41 42  1  0  0  0  0
 41 49  1  6  0  0  0
 43 44  1  0  0  0  0
 43 51  1  6  0  0  0
 45 46  1  0  0  0  0
 47 37  1  0  0  0  0
 47 48  1  6  0  0  0
 49 50  1  0  0  0  0
 51 52  1  0  0  0  0
M  END
>  <CHROM.1>
-146.21922089,-173.78788392,-168.21261149,-179.56895276,170.77861150,83.32266309
175.83693436,63.04492676,73.15512189,-56.36921194,-104.95537976,-68.92060567
23.38859815,-5.07143354,17.35084310,-2.51969934,0.14979367,0.88246788

>  <Name>
2esj_lig

>  <RI>
0

>  <Rbt.Current_Directory>
/home/itssahil/PROJECTS/Mol_Feturizer/New_Systems/rnas/2esj

>  <Rbt.Executable>
rbdock ($Id: //depot/dev/client3/rdock/2013.1/src/exe/rbdock.cxx#4 $)

>  <Rbt.Library>
libRbt.so (2013.1, Build901 2013/11/27)

>  <Rbt.Parameter_File>
/export/apps/rDock/src/rDock_2013.1_src/data/scripts/dock_solv.prm

>  <Rbt.Receptor>
prm/pocket_docking_8.prm

>  <SCORE>
-12.3882

>  <SCORE.INTER>
-5.10178

>  <SCORE.INTER.CONST>
1

>  <SCORE.INTER.POLAR>
-1.37074

>  <SCORE.INTER.ROT>
12

>  <SCORE.INTER.SOLV>
8.13312

>  <SCORE.INTER.VDW>
-13.1431

>  <SCORE.INTER.norm>
-0.0981112

>  <SCORE.INTRA>
-7.28639

>  <SCORE.INTRA.DIHEDRAL>
-18.9493

>  <SCORE.INTRA.DIHEDRAL.0>
32.9766

>  <SCORE.INTRA.POLAR>
0

>  <SCORE.INTRA.POLAR.0>
0

>  <SCORE.INTRA.REPUL>
0

>  <SCORE.INTRA.REPUL.0>
0

>  <SCORE.INTRA.SOLV>
-0.107733

>  <SCORE.INTRA.SOLV.lig_0>
-114.358

>  <SCORE.INTRA.VDW>
2.24214

>  <SCORE.INTRA.VDW.0>
-8.24257

>  <SCORE.INTRA.norm>
-0.140123

>  <SCORE.RESTR>
0

>  <SCORE.RESTR.CAVITY>
0

>  <SCORE.RESTR.norm>
0

>  <SCORE.SYSTEM>
0

>  <SCORE.SYSTEM.CONST>
0

>  <SCORE.SYSTEM.DIHEDRAL>
0

>  <SCORE.SYSTEM.SOLV>
0

>  <SCORE.SYSTEM.norm>
0

>  <SCORE.heavy>
52

>  <SCORE.norm>
-0.238234

>  <RMSD>
5.639

$$$$
2esj_lig
 OpenBabel11021811423D
libRbt.so/2013.1/901 2013/11/27
 52 56  0  0  0  0  0  0  0  0999 V2000
   19.7392   -6.8878   15.0449 C   0  0  2  0  0  0  0  0  0  0  0  0
   18.8109   -6.6738   13.9645 O   0  0  0  0  0  0  0  0  0  0  0  0
   18.3929   -4.1515   10.5365 C   0  0  2  0  0  0  0  0  0  0  0  0
   18.2544   -3.0054    9.6229 N   0  0  0  0  0  0  0  0  0  0  0  0
   21.4512   -4.2916   13.8679 C   0  0  1  0  0  0  0  0  0  0  0  0
   23.3425   -2.3720   16.9725 C   0  0  1  0  0  0  0  0  0  0  0  0
   28.3972   -1.7412   16.3526 C   0  0  1  0  0  0  0  0  0  0  0  0
   19.2828   -8.1659   15.8087 C   0  0  2  0  0  0  0  0  0  0  0  0
   19.1893   -9.3316   14.9303 N   0  0  0  0  0  0  0  0  0  0  0  0
   17.2446   -4.1301   11.6221 C   0  0  0  0  0  0  0  0  0  0  0  0
   22.9154   -4.2939   14.3091 C   0  0  2  0  0  0  0  0  0  0  0  0
   23.1509   -5.1721   15.4310 O   0  0  0  0  0  0  0  0  0  0  0  0
   23.9447   -0.9001   16.8625 C   0  0  2  0  0  0  0  0  0  0  0  0
   24.5050   -0.6517   15.5078 N   0  0  0  0  0  0  0  0  0  0  0  0
   28.5384   -0.7912   15.1689 C   0  0  1  0  0  0  0  0  0  0  0  0
   29.9223   -0.4121   15.0284 O   0  0  0  0  0  0  0  0  0  0  0  0
   17.9144   -7.9293   16.5231 C   0  0  0  0  0  0  0  0  0  0  0  0
   17.3748   -5.3995   12.5567 C   0  0  2  0  0  0  0  0  0  0  0  0
   16.3273   -5.3966   13.5831 N   0  0  0  0  0  0  0  0  0  0  0  0
   23.1118   -2.8372   14.6146 C   0  0  2  0  0  0  0  0  0  0  0  0
   22.5242   -2.5094   15.8482 O   0  0  0  0  0  0  0  0  0  0  0  0
   24.9622   -0.6666   18.0647 C   0  0  1  0  0  0  0  0  0  0  0  0
   24.3110   -1.0033   19.2940 O   0  0  0  0  0  0  0  0  0  0  0  0
   28.0637   -1.3438   13.8304 C   0  0  1  0  0  0  0  0  0  0  0  0
   28.4868   -0.4235   12.8184 O   0  0  0  0  0  0  0  0  0  0  0  0
   18.0329   -6.6709   17.4331 C   0  0  2  0  0  0  0  0  0  0  0  0
   16.8468   -6.4422   18.1728 O   0  0  0  0  0  0  0  0  0  0  0  0
   18.7775   -5.4439   13.2165 C   0  0  2  0  0  0  0  0  0  0  0  0
   22.2620   -2.0702   13.5807 C   0  0  2  0  0  0  0  0  0  0  0  0
   21.2063   -2.9844   13.3305 O   0  0  0  0  0  0  0  0  0  0  0  0
   26.2129   -1.6331   17.9599 C   0  0  2  0  0  0  0  0  0  0  0  0
   26.8550   -1.2471   16.7437 O   0  0  0  0  0  0  0  0  0  0  0  0
   28.6098   -2.7362   13.5097 C   0  0  2  0  0  0  0  0  0  0  0  0
   27.8442   -3.2394   12.4027 O   0  0  0  0  0  0  0  0  0  0  0  0
   18.3922   -5.4563   16.5416 C   0  0  2  0  0  0  0  0  0  0  0  0
   19.6801   -5.7394   15.9233 O   0  0  0  0  0  0  0  0  0  0  0  0
   19.9637   -5.3474   12.2043 C   0  0  2  0  0  0  0  0  0  0  0  0
   21.2231   -5.3219   12.9321 O   0  0  0  0  0  0  0  0  0  0  0  0
   22.9488   -1.7174   12.2618 C   0  0  0  0  0  0  0  0  0  0  0  0
   21.9663   -1.1065   11.4125 O   0  0  0  0  0  0  0  0  0  0  0  0
   25.6430   -3.0143   17.6994 C   0  0  1  0  0  0  0  0  0  0  0  0
   24.4529   -3.4064   16.9822 O   0  0  0  0  0  0  0  0  0  0  0  0
   28.6012   -3.6373   14.7395 C   0  0  2  0  0  0  0  0  0  0  0  0
   28.7937   -3.1025   16.0581 O   0  0  0  0  0  0  0  0  0  0  0  0
   18.5790   -4.1969   17.3171 C   0  0  0  0  0  0  0  0  0  0  0  0
   18.9697   -3.1960   16.4085 O   0  0  0  0  0  0  0  0  0  0  0  0
   19.7884   -4.1133   11.2564 C   0  0  1  0  0  0  0  0  0  0  0  0
   20.8153   -4.2079   10.2337 O   0  0  0  0  0  0  0  0  0  0  0  0
   26.6668   -4.1901   17.6551 C   0  0  0  0  0  0  0  0  0  0  0  0
   26.1631   -5.4304   18.2817 N   0  0  0  0  0  0  0  0  0  0  0  0
   29.0999   -5.0804   14.7183 C   0  0  0  0  0  0  0  0  0  0  0  0
   28.4172   -5.8256   13.6756 O   0  0  0  0  0  0  0  0  0  0  0  0
  1  2  1  6  0  0  0
  1  8  1  0  0  0  0
  1 36  1  0  0  0  0
  3  4  1  6  0  0  0
  3 10  1  0  0  0  0
  3 47  1  0  0  0  0
  5 11  1  0  0  0  0
  5 30  1  0  0  0  0
  5 38  1  6  0  0  0
  6 21  1  6  0  0  0
  6 42  1  0  0  0  0
  7 15  1  0  0  0  0
  7 44  1  0  0  0  0
  7 32  1  6  0  0  0
  8  9  1  6  0  0  0
  8 17  1  0  0  0  0
 11 12  1  1  0  0  0
 11 20  1  0  0  0  0
 13  6  1  0  0  0  0
 13 14  1  6  0  0  0
 15 16  1  6  0  0  0
 15 24  1  0  0  0  0
 17 26  1  0  0  0  0
 18 10  1  0  0  0  0
 18 19  1  1  0  0  0
 20 21  1  1  0  0  0
 20 29  1  0  0  0  0
 22 13  1  0  0  0  0
 22 23  1  1  0  0  0
 24 25  1  6  0  0  0
 24 33  1  0  0  0  0
 26 27  1  6  0  0  0
 26 35  1  0  0  0  0
 28  2  1  6  0  0  0
 28 18  1  0  0  0  0
 29 30  1  0  0  0  0
 29 39  1  6  0  0  0
 31 22  1  0  0  0  0
 31 32  1  6  0  0  0
 31 41  1  0  0  0  0
 33 34  1  6  0  0  0
 33 43  1  0  0  0  0
 35 36  1  0  0  0  0
 35 45  1  1  0  0  0
 37 28  1  0  0  0  0
 37 38  1  1  0  0  0
 39 40  1  0  0  0  0
 41 42  1  0  0  0  0
 41 49  1  6  0  0  0
 43 44  1  0  0  0  0
 43 51  1  6  0  0  0
 45 46  1  0  0  0  0
 47 37  1  0  0  0  0
 47 48  1  6  0  0  0
 49 50  1  0  0  0  0
 51 52  1  0  0  0  0
M  END
>  <CHROM.1>
167.63953523,-169.01946199,81.33291138,-169.25343018,101.69567098,-159.49235629
175.65089959,166.39823421,176.86408507,-59.05168617,141.44849502,-54.31821762
22.86117939,-3.77693346,14.82137082,3.09468195,-0.37529793,-1.33183622

>  <Name>
2esj_lig

>  <RI>
1.62275e+07

>  <Rbt.Current_Directory>
/home/itssahil/PROJECTS/Mol_Feturizer/New_Systems/rnas/2esj

>  <Rbt.Executable>
rbdock ($Id: //depot/dev/client3/rdock/2013.1/src/exe/rbdock.cxx#4 $)

>  <Rbt.Library>
libRbt.so (2013.1, Build901 2013/11/27)

>  <Rbt.Parameter_File>
/export/apps/rDock/src/rDock_2013.1_src/data/scripts/dock_solv.prm

>  <Rbt.Receptor>
prm/pocket_docking_5.prm

>  <SCORE>
-13.7008

>  <SCORE.INTER>
-7.48924

>  <SCORE.INTER.CONST>
1

>  <SCORE.INTER.POLAR>
-2.23764

>  <SCORE.INTER.ROT>
12

>  <SCORE.INTER.SOLV>
15.3456

>  <SCORE.INTER.VDW>
-14.2492

>  <SCORE.INTER.norm>
-0.144024

>  <SCORE.INTRA>
-6.36006

>  <SCORE.INTRA.DIHEDRAL>
-15.462

>  <SCORE.INTRA.DIHEDRAL.0>
32.9766

>  <SCORE.INTRA.POLAR>
0

>  <SCORE.INTRA.POLAR.0>
0

>  <SCORE.INTRA.REPUL>
0.0164131

>  <SCORE.INTRA.REPUL.0>
0

>  <SCORE.INTRA.SOLV>
0.344126

>  <SCORE.INTRA.SOLV.lig_0>
-114.358

>  <SCORE.INTRA.VDW>
1.11681

>  <SCORE.INTRA.VDW.0>
-8.24257

>  <SCORE.INTRA.norm>
-0.122309

>  <SCORE.RESTR>
0.148519

>  <SCORE.RESTR.CAVITY>
0.148519

>  <SCORE.RESTR.norm>
0.00285614

>  <SCORE.SYSTEM>
0

>  <SCORE.SYSTEM.CONST>
0

>  <SCORE.SYSTEM.DIHEDRAL>
0

>  <SCORE.SYSTEM.SOLV>
0

>  <SCORE.SYSTEM.norm>
0

>  <SCORE.heavy>
52

>  <SCORE.norm>
-0.263477

>  <RMSD>
5.693

$$$$
2esj_lig
 OpenBabel11021811423D
libRbt.so/2013.1/901 2013/11/27
 52 56  0  0  0  0  0  0  0  0999 V2000
   17.9251   -6.6082   16.5492 C   0  0  2  0  0  0  0  0  0  0  0  0
   18.9569   -5.8160   15.9305 O   0  0  0  0  0  0  0  0  0  0  0  0
   19.1255   -3.0794   12.6487 C   0  0  2  0  0  0  0  0  0  0  0  0
   18.8937   -1.9699   11.7092 N   0  0  0  0  0  0  0  0  0  0  0  0
   21.5424   -2.5293   16.4649 C   0  0  1  0  0  0  0  0  0  0  0  0
   24.8375   -0.1061   17.4708 C   0  0  1  0  0  0  0  0  0  0  0  0
   29.2196   -1.6233   15.3155 C   0  0  1  0  0  0  0  0  0  0  0  0
   17.7716   -6.1136   18.0178 C   0  0  2  0  0  0  0  0  0  0  0  0
   17.4794   -4.6824   18.0920 N   0  0  0  0  0  0  0  0  0  0  0  0
   17.7943   -3.9032   12.8646 C   0  0  0  0  0  0  0  0  0  0  0  0
   21.3634   -1.3244   17.3894 C   0  0  2  0  0  0  0  0  0  0  0  0
   20.9155   -0.1485   16.6809 O   0  0  0  0  0  0  0  0  0  0  0  0
   25.7100    0.0770   16.1493 C   0  0  2  0  0  0  0  0  0  0  0  0
   25.6932   -1.1585   15.3222 N   0  0  0  0  0  0  0  0  0  0  0  0
   28.1938   -1.5401   14.1911 C   0  0  1  0  0  0  0  0  0  0  0  0
   28.7724   -0.8373   13.0733 O   0  0  0  0  0  0  0  0  0  0  0  0
   19.0521   -6.4371   18.8514 C   0  0  0  0  0  0  0  0  0  0  0  0
   18.0770   -5.1244   13.8292 C   0  0  2  0  0  0  0  0  0  0  0  0
   16.8526   -5.8988   14.0570 N   0  0  0  0  0  0  0  0  0  0  0  0
   22.7469   -1.2099   17.9612 C   0  0  2  0  0  0  0  0  0  0  0  0
   23.6190   -0.6263   17.0267 O   0  0  0  0  0  0  0  0  0  0  0  0
   27.1597    0.5957   16.5546 C   0  0  1  0  0  0  0  0  0  0  0  0
   27.0213    1.7450   17.3965 O   0  0  0  0  0  0  0  0  0  0  0  0
   27.6719   -2.8797   13.6856 C   0  0  1  0  0  0  0  0  0  0  0  0
   26.9182   -2.6189   12.4964 O   0  0  0  0  0  0  0  0  0  0  0  0
   19.3549   -7.9606   18.7375 C   0  0  2  0  0  0  0  0  0  0  0  0
   20.4630   -8.3384   19.5347 O   0  0  0  0  0  0  0  0  0  0  0  0
   18.6594   -4.6256   15.1771 C   0  0  2  0  0  0  0  0  0  0  0  0
   23.2660   -2.6555   18.1043 C   0  0  2  0  0  0  0  0  0  0  0  0
   22.5899   -3.3174   17.0471 O   0  0  0  0  0  0  0  0  0  0  0  0
   27.9386   -0.4803   17.4176 C   0  0  2  0  0  0  0  0  0  0  0  0
   28.0881   -1.5957   16.5379 O   0  0  0  0  0  0  0  0  0  0  0  0
   28.7746   -3.8933   13.3747 C   0  0  2  0  0  0  0  0  0  0  0  0
   28.1349   -5.1707   13.2199 O   0  0  0  0  0  0  0  0  0  0  0  0
   19.5838   -8.3021   17.2442 C   0  0  2  0  0  0  0  0  0  0  0  0
   18.3502   -7.9913   16.5353 O   0  0  0  0  0  0  0  0  0  0  0  0
   19.9118   -3.7031   15.0304 C   0  0  2  0  0  0  0  0  0  0  0  0
   20.3270   -3.2344   16.3435 O   0  0  0  0  0  0  0  0  0  0  0  0
   22.9570   -3.3625   19.4235 C   0  0  0  0  0  0  0  0  0  0  0  0
   23.5962   -2.6200   20.4721 O   0  0  0  0  0  0  0  0  0  0  0  0
   26.9630   -0.9323   18.4871 C   0  0  1  0  0  0  0  0  0  0  0  0
   25.5247   -1.0496   18.4407 O   0  0  0  0  0  0  0  0  0  0  0  0
   29.8734   -3.8661   14.4314 C   0  0  2  0  0  0  0  0  0  0  0  0
   30.2183   -2.6534   15.1185 O   0  0  0  0  0  0  0  0  0  0  0  0
   19.8368   -9.7522   17.0083 C   0  0  0  0  0  0  0  0  0  0  0  0
   21.0745  -10.0661   17.5996 O   0  0  0  0  0  0  0  0  0  0  0  0
   19.6262   -2.5304   14.0327 C   0  0  1  0  0  0  0  0  0  0  0  0
   20.8855   -1.8434   13.8054 O   0  0  0  0  0  0  0  0  0  0  0  0
   27.5144   -1.9294   19.5524 C   0  0  0  0  0  0  0  0  0  0  0  0
   26.7973   -1.8644   20.8432 N   0  0  0  0  0  0  0  0  0  0  0  0
   31.1067   -4.7646   14.3741 C   0  0  0  0  0  0  0  0  0  0  0  0
   30.8885   -5.9574   15.1731 O   0  0  0  0  0  0  0  0  0  0  0  0
  1  2  1  1  0  0  0
  1  8  1  0  0  0  0
  1 36  1  0  0  0  0
  3  4  1  6  0  0  0
  3 10  1  0  0  0  0
  3 47  1  0  0  0  0
  5 11  1  0  0  0  0
  5 30  1  0  0  0  0
  5 38  1  1  0  0  0
  6 21  1  6  0  0  0
  6 42  1  0  0  0  0
  7 15  1  0  0  0  0
  7 44  1  0  0  0  0
  7 32  1  1  0  0  0
  8  9  1  6  0  0  0
  8 17  1  0  0  0  0
 11 12  1  6  0  0  0
 11 20  1  0  0  0  0
 13  6  1  0  0  0  0
 13 14  1  1  0  0  0
 15 16  1  6  0  0  0
 15 24  1  0  0  0  0
 17 26  1  0  0  0  0
 18 10  1  0  0  0  0
 18 19  1  1  0  0  0
 20 21  1  6  0  0  0
 20 29  1  0  0  0  0
 22 13  1  0  0  0  0
 22 23  1  1  0  0  0
 24 25  1  6  0  0  0
 24 33  1  0  0  0  0
 26 27  1  1  0  0  0
 26 35  1  0  0  0  0
 28  2  1  1  0  0  0
 28 18  1  0  0  0  0
 29 30  1  0  0  0  0
 29 39  1  1  0  0  0
 31 22  1  0  0  0  0
 31 32  1  6  0  0  0
 31 41  1  0  0  0  0
 33 34  1  1  0  0  0
 33 43  1  0  0  0  0
 35 36  1  0  0  0  0
 35 45  1  1  0  0  0
 37 28  1  0  0  0  0
 37 38  1  1  0  0  0
 39 40  1  0  0  0  0
 41 42  1  0  0  0  0
 41 49  1  6  0  0  0
 43 44  1  0  0  0  0
 43 51  1  6  0  0  0
 45 46  1  0  0  0  0
 47 37  1  0  0  0  0
 47 48  1  6  0  0  0
 49 50  1  0  0  0  0
 51 52  1  0  0  0  0
M  END
>  <CHROM.1>
-93.58947029,136.83941867,164.41685182,-110.64445883,162.92559191,-74.79098258
-61.95134447,76.82312151,-66.95858447,171.77381927,153.91677426,-95.25714157
23.42218504,-3.44106587,16.21559423,-2.74299669,0.02734401,-0.09358354

>  <Name>
2esj_lig

>  <RI>
0

>  <Rbt.Current_Directory>
/home/itssahil/PROJECTS/Mol_Feturizer/New_Systems/rnas/2esj

>  <Rbt.Executable>
rbdock ($Id: //depot/dev/client3/rdock/2013.1/src/exe/rbdock.cxx#4 $)

>  <Rbt.Library>
libRbt.so (2013.1, Build901 2013/11/27)

>  <Rbt.Parameter_File>
/export/apps/rDock/src/rDock_2013.1_src/data/scripts/dock_solv.prm

>  <Rbt.Receptor>
prm/pocket_docking_4.prm

>  <SCORE>
1.2813

>  <SCORE.INTER>
-0.563634

>  <SCORE.INTER.CONST>
1

>  <SCORE.INTER.POLAR>
-1.10968

>  <SCORE.INTER.ROT>
12

>  <SCORE.INTER.SOLV>
15.0065

>  <SCORE.INTER.VDW>
-13.279

>  <SCORE.INTER.norm>
-0.0108391

>  <SCORE.INTRA>
1.75589

>  <SCORE.INTRA.DIHEDRAL>
-4.86698

>  <SCORE.INTRA.DIHEDRAL.0>
32.9766

>  <SCORE.INTRA.POLAR>
0

>  <SCORE.INTRA.POLAR.0>
0

>  <SCORE.INTRA.REPUL>
0.000468048

>  <SCORE.INTRA.REPUL.0>
0

>  <SCORE.INTRA.SOLV>
2.63536

>  <SCORE.INTRA.SOLV.lig_0>
-114.358

>  <SCORE.INTRA.VDW>
2.86936

>  <SCORE.INTRA.VDW.0>
-8.24257

>  <SCORE.INTRA.norm>
0.0337671

>  <SCORE.RESTR>
0.0890441

>  <SCORE.RESTR.CAVITY>
0.0890441

>  <SCORE.RESTR.norm>
0.00171239

>  <SCORE.SYSTEM>
0

>  <SCORE.SYSTEM.CONST>
0

>  <SCORE.SYSTEM.DIHEDRAL>
0

>  <SCORE.SYSTEM.SOLV>
0

>  <SCORE.SYSTEM.norm>
0

>  <SCORE.heavy>
52

>  <SCORE.norm>
0.0246404

>  <RMSD>
5.727

$$$$
2esj_lig
 OpenBabel11021811423D
libRbt.so/2013.1/901 2013/11/27
 52 56  0  0  0  0  0  0  0  0999 V2000
   19.5271   -5.4013   13.5263 C   0  0  2  0  0  0  0  0  0  0  0  0
   18.8625   -6.5047   14.1711 O   0  0  0  0  0  0  0  0  0  0  0  0
   17.4987   -7.8005   18.0115 C   0  0  2  0  0  0  0  0  0  0  0  0
   17.3836   -8.1396   19.4395 N   0  0  0  0  0  0  0  0  0  0  0  0
   19.2516   -3.9024   16.3980 C   0  0  1  0  0  0  0  0  0  0  0  0
   22.6778   -2.0198   17.7266 C   0  0  1  0  0  0  0  0  0  0  0  0
   27.0032   -1.8647   15.1218 C   0  0  1  0  0  0  0  0  0  0  0  0
   19.5139   -5.6771   11.9937 C   0  0  2  0  0  0  0  0  0  0  0  0
   18.1593   -5.8748   11.4788 N   0  0  0  0  0  0  0  0  0  0  0  0
   18.7326   -8.5487   17.3673 C   0  0  0  0  0  0  0  0  0  0  0  0
   19.1034   -2.4536   16.8644 C   0  0  2  0  0  0  0  0  0  0  0  0
   19.1145   -1.5174   15.7650 O   0  0  0  0  0  0  0  0  0  0  0  0
   23.5553   -1.0936   16.7709 C   0  0  2  0  0  0  0  0  0  0  0  0
   23.5664   -1.6192   15.3800 N   0  0  0  0  0  0  0  0  0  0  0  0
   26.3379   -2.3797   13.8507 C   0  0  1  0  0  0  0  0  0  0  0  0
   26.4794   -1.3932   12.8090 O   0  0  0  0  0  0  0  0  0  0  0  0
   20.4003   -6.9140   11.6424 C   0  0  0  0  0  0  0  0  0  0  0  0
   18.8047   -8.2192   15.8220 C   0  0  2  0  0  0  0  0  0  0  0  0
   19.9511   -8.8916   15.2019 N   0  0  0  0  0  0  0  0  0  0  0  0
   20.2853   -2.3394   17.7832 C   0  0  2  0  0  0  0  0  0  0  0  0
   21.4718   -2.1987   17.0438 O   0  0  0  0  0  0  0  0  0  0  0  0
   24.9927   -0.8907   17.4249 C   0  0  1  0  0  0  0  0  0  0  0  0
   24.8280   -0.4457   18.7752 O   0  0  0  0  0  0  0  0  0  0  0  0
   26.8794   -3.7027   13.3225 C   0  0  1  0  0  0  0  0  0  0  0  0
   26.3136   -3.9029   12.0225 O   0  0  0  0  0  0  0  0  0  0  0  0
   21.8289   -6.6897   12.2209 C   0  0  2  0  0  0  0  0  0  0  0  0
   22.7098   -7.7424   11.8716 O   0  0  0  0  0  0  0  0  0  0  0  0
   18.8919   -6.6869   15.5990 C   0  0  2  0  0  0  0  0  0  0  0  0
   20.4287   -3.7178   18.4607 C   0  0  2  0  0  0  0  0  0  0  0  0
   19.9210   -4.5904   17.4638 O   0  0  0  0  0  0  0  0  0  0  0  0
   25.7855   -2.2592   17.5150 C   0  0  2  0  0  0  0  0  0  0  0  0
   25.9609   -2.6547   16.1537 O   0  0  0  0  0  0  0  0  0  0  0  0
   28.4052   -3.7490   13.2239 C   0  0  2  0  0  0  0  0  0  0  0  0
   28.7682   -5.1245   13.0215 O   0  0  0  0  0  0  0  0  0  0  0  0
   21.7133   -6.5287   13.7570 C   0  0  2  0  0  0  0  0  0  0  0  0
   20.8908   -5.3534   14.0082 O   0  0  0  0  0  0  0  0  0  0  0  0
   17.7655   -5.8719   16.3118 C   0  0  2  0  0  0  0  0  0  0  0  0
   17.9863   -4.4496   16.1002 O   0  0  0  0  0  0  0  0  0  0  0  0
   19.6479   -3.9235   19.7582 C   0  0  0  0  0  0  0  0  0  0  0  0
   20.1224   -5.1364   20.3608 O   0  0  0  0  0  0  0  0  0  0  0  0
   24.8113   -3.2591   18.1078 C   0  0  1  0  0  0  0  0  0  0  0  0
   23.3757   -3.3435   17.9792 O   0  0  0  0  0  0  0  0  0  0  0  0
   29.0639   -3.0981   14.4351 C   0  0  2  0  0  0  0  0  0  0  0  0
   28.4452   -1.9983   15.1202 O   0  0  0  0  0  0  0  0  0  0  0  0
   23.0229   -6.2597   14.4167 C   0  0  0  0  0  0  0  0  0  0  0  0
   23.5648   -5.1046   13.8233 O   0  0  0  0  0  0  0  0  0  0  0  0
   17.6784   -6.2507   17.8288 C   0  0  1  0  0  0  0  0  0  0  0  0
   16.4948   -5.6029   18.3661 O   0  0  0  0  0  0  0  0  0  0  0  0
   25.3739   -4.6832   18.4049 C   0  0  0  0  0  0  0  0  0  0  0  0
   26.7693   -4.6728   18.8920 N   0  0  0  0  0  0  0  0  0  0  0  0
   30.5779   -2.9905   14.6025 C   0  0  0  0  0  0  0  0  0  0  0  0
   30.8972   -2.5373   15.9446 O   0  0  0  0  0  0  0  0  0  0  0  0
  1  2  1  1  0  0  0
  1  8  1  0  0  0  0
  1 36  1  0  0  0  0
  3  4  1  1  0  0  0
  3 10  1  0  0  0  0
  3 47  1  0  0  0  0
  5 11  1  0  0  0  0
  5 30  1  0  0  0  0
  5 38  1  1  0  0  0
  6 21  1  6  0  0  0
  6 42  1  0  0  0  0
  7 15  1  0  0  0  0
  7 44  1  0  0  0  0
  7 32  1  1  0  0  0
  8  9  1  1  0  0  0
  8 17  1  0  0  0  0
 11 12  1  6  0  0  0
 11 20  1  0  0  0  0
 13  6  1  0  0  0  0
 13 14  1  6  0  0  0
 15 16  1  6  0  0  0
 15 24  1  0  0  0  0
 17 26  1  0  0  0  0
 18 10  1  0  0  0  0
 18 19  1  1  0  0  0
 20 21  1  6  0  0  0
 20 29  1  0  0  0  0
 22 13  1  0  0  0  0
 22 23  1  1  0  0  0
 24 25  1  6  0  0  0
 24 33  1  0  0  0  0
 26 27  1  1  0  0  0
 26 35  1  0  0  0  0
 28  2  1  6  0  0  0
 28 18  1  0  0  0  0
 29 30  1  0  0  0  0
 29 39  1  1  0  0  0
 31 22  1  0  0  0  0
 31 32  1  6  0  0  0
 31 41  1  0  0  0  0
 33 34  1  1  0  0  0
 33 43  1  0  0  0  0
 35 36  1  0  0  0  0
 35 45  1  1  0  0  0
 37 28  1  0  0  0  0
 37 38  1  1  0  0  0
 39 40  1  0  0  0  0
 41 42  1  0  0  0  0
 41 49  1  6  0  0  0
 43 44  1  0  0  0  0
 43 51  1  6  0  0  0
 45 46  1  0  0  0  0
 47 37  1  0  0  0  0
 47 48  1  6  0  0  0
 49 50  1  0  0  0  0
 51 52  1  0  0  0  0
M  END
>  <CHROM.1>
169.33600604,-148.48875888,-147.63568369,-159.88728817,177.27724598,-149.77736977
-168.38258656,71.19445283,56.90959915,-51.78135044,36.75035372,-170.20619283
22.56791920,-4.36590978,15.75171659,-3.10456347,0.37433335,1.05744466

>  <Name>
2esj_lig

>  <RI>
1.01272e+07

>  <Rbt.Current_Directory>
/home/itssahil/PROJECTS/Mol_Feturizer/New_Systems/rnas/2esj

>  <Rbt.Executable>
rbdock ($Id: //depot/dev/client3/rdock/2013.1/src/exe/rbdock.cxx#4 $)

>  <Rbt.Library>
libRbt.so (2013.1, Build901 2013/11/27)

>  <Rbt.Parameter_File>
/export/apps/rDock/src/rDock_2013.1_src/data/scripts/dock_solv.prm

>  <Rbt.Receptor>
prm/pocket_docking_3.prm

>  <SCORE>
-9.78899

>  <SCORE.INTER>
-5.83109

>  <SCORE.INTER.CONST>
1

>  <SCORE.INTER.POLAR>
-0.790397

>  <SCORE.INTER.ROT>
12

>  <SCORE.INTER.SOLV>
12.704

>  <SCORE.INTER.VDW>
-17.0874

>  <SCORE.INTER.norm>
-0.112136

>  <SCORE.INTRA>
-4.31991

>  <SCORE.INTRA.DIHEDRAL>
-12.3207

>  <SCORE.INTRA.DIHEDRAL.0>
32.9766

>  <SCORE.INTRA.POLAR>
0

>  <SCORE.INTRA.POLAR.0>
0

>  <SCORE.INTRA.REPUL>
0.064616

>  <SCORE.INTRA.REPUL.0>
0

>  <SCORE.INTRA.SOLV>
-0.125022

>  <SCORE.INTRA.SOLV.lig_0>
-114.358

>  <SCORE.INTRA.VDW>
1.57985

>  <SCORE.INTRA.VDW.0>
-8.24257

>  <SCORE.INTRA.norm>
-0.0830751

>  <SCORE.RESTR>
0.362004

>  <SCORE.RESTR.CAVITY>
0.362004

>  <SCORE.RESTR.norm>
0.00696162

>  <SCORE.SYSTEM>
0

>  <SCORE.SYSTEM.CONST>
0

>  <SCORE.SYSTEM.DIHEDRAL>
0

>  <SCORE.SYSTEM.SOLV>
0

>  <SCORE.SYSTEM.norm>
0

>  <SCORE.heavy>
52

>  <SCORE.norm>
-0.18825

>  <RMSD>
5.732

$$$$
2esj_lig
 OpenBabel11021811423D
libRbt.so/2013.1/901 2013/11/27
 52 56  0  0  0  0  0  0  0  0999 V2000
   17.6723   -5.6552   16.2365 C   0  0  2  0  0  0  0  0  0  0  0  0
   18.5641   -4.7131   16.8624 O   0  0  0  0  0  0  0  0  0  0  0  0
   21.0784   -4.2252   20.2871 C   0  0  2  0  0  0  0  0  0  0  0  0
   21.9530   -4.4419   21.4514 N   0  0  0  0  0  0  0  0  0  0  0  0
   22.6288   -4.2727   15.9817 C   0  0  1  0  0  0  0  0  0  0  0  0
   25.8912   -2.6950   13.8877 C   0  0  1  0  0  0  0  0  0  0  0  0
   27.8304    1.2656   16.1808 C   0  0  1  0  0  0  0  0  0  0  0  0
   18.5456   -6.6710   15.4425 C   0  0  2  0  0  0  0  0  0  0  0  0
   19.5325   -7.3357   16.2931 N   0  0  0  0  0  0  0  0  0  0  0  0
   19.7214   -5.0153   20.4652 C   0  0  0  0  0  0  0  0  0  0  0  0
   23.2402   -5.0842   14.8388 C   0  0  2  0  0  0  0  0  0  0  0  0
   24.1829   -6.0724   15.3081 O   0  0  0  0  0  0  0  0  0  0  0  0
   26.9911   -2.2132   14.9361 C   0  0  2  0  0  0  0  0  0  0  0  0
   26.3570   -1.7179   16.1865 N   0  0  0  0  0  0  0  0  0  0  0  0
   28.1726    2.5475   15.4302 C   0  0  1  0  0  0  0  0  0  0  0  0
   28.4794    3.5860   16.3819 O   0  0  0  0  0  0  0  0  0  0  0  0
   19.2634   -5.9718   14.2446 C   0  0  0  0  0  0  0  0  0  0  0  0
   18.7723   -4.7232   19.2341 C   0  0  2  0  0  0  0  0  0  0  0  0
   17.5094   -5.4565   19.3683 N   0  0  0  0  0  0  0  0  0  0  0  0
   23.8549   -3.9854   14.0209 C   0  0  2  0  0  0  0  0  0  0  0  0
   25.0458   -3.5360   14.6161 O   0  0  0  0  0  0  0  0  0  0  0  0
   27.9681   -1.1786   14.2218 C   0  0  1  0  0  0  0  0  0  0  0  0
   28.4513   -1.7616   13.0072 O   0  0  0  0  0  0  0  0  0  0  0  0
   29.3411    2.4403   14.4578 C   0  0  1  0  0  0  0  0  0  0  0  0
   29.6629    3.7698   14.0345 O   0  0  0  0  0  0  0  0  0  0  0  0
   18.1952   -5.2530   13.3683 C   0  0  2  0  0  0  0  0  0  0  0  0
   18.7701   -4.6604   12.2175 O   0  0  0  0  0  0  0  0  0  0  0  0
   19.4777   -5.1010   17.9056 C   0  0  2  0  0  0  0  0  0  0  0  0
   22.8985   -2.7814   14.1439 C   0  0  2  0  0  0  0  0  0  0  0  0
   22.3393   -2.9796   15.4326 O   0  0  0  0  0  0  0  0  0  0  0  0
   27.2013    0.1394   13.7929 C   0  0  2  0  0  0  0  0  0  0  0  0
   26.7644    0.7100   15.0274 O   0  0  0  0  0  0  0  0  0  0  0  0
   30.5855    1.7846   15.0591 C   0  0  2  0  0  0  0  0  0  0  0  0
   31.4632    1.4742   13.9646 O   0  0  0  0  0  0  0  0  0  0  0  0
   17.4685   -4.2047   14.2470 C   0  0  2  0  0  0  0  0  0  0  0  0
   16.8128   -4.9267   15.3285 O   0  0  0  0  0  0  0  0  0  0  0  0
   20.8838   -4.4460   17.7194 C   0  0  2  0  0  0  0  0  0  0  0  0
   21.4838   -4.9253   16.4838 O   0  0  0  0  0  0  0  0  0  0  0  0
   21.7741   -2.6966   13.1122 C   0  0  0  0  0  0  0  0  0  0  0  0
   21.0584   -1.4760   13.3519 O   0  0  0  0  0  0  0  0  0  0  0  0
   25.9409   -0.3292   13.0916 C   0  0  1  0  0  0  0  0  0  0  0  0
   25.1378   -1.5077   13.3169 O   0  0  0  0  0  0  0  0  0  0  0  0
   30.2213    0.5873   15.9299 C   0  0  2  0  0  0  0  0  0  0  0  0
   28.9901    0.5480   16.6679 O   0  0  0  0  0  0  0  0  0  0  0  0
   16.3847   -3.4835   13.5207 C   0  0  0  0  0  0  0  0  0  0  0  0
   15.8828   -2.4940   14.3863 O   0  0  0  0  0  0  0  0  0  0  0  0
   21.7891   -4.7045   18.9708 C   0  0  1  0  0  0  0  0  0  0  0  0
   22.9916   -3.9074   18.8032 O   0  0  0  0  0  0  0  0  0  0  0  0
   25.0401    0.7811   12.4683 C   0  0  0  0  0  0  0  0  0  0  0  0
   24.2218    1.5015   13.4664 N   0  0  0  0  0  0  0  0  0  0  0  0
   31.2611   -0.2541   16.6665 C   0  0  0  0  0  0  0  0  0  0  0  0
   30.6732   -1.5144   17.0844 O   0  0  0  0  0  0  0  0  0  0  0  0
  1  2  1  6  0  0  0
  1  8  1  0  0  0  0
  1 36  1  0  0  0  0
  3  4  1  1  0  0  0
  3 10  1  0  0  0  0
  3 47  1  0  0  0  0
  5 11  1  0  0  0  0
  5 30  1  0  0  0  0
  5 38  1  6  0  0  0
  6 21  1  1  0  0  0
  6 42  1  0  0  0  0
  7 15  1  0  0  0  0
  7 44  1  0  0  0  0
  7 32  1  6  0  0  0
  8  9  1  1  0  0  0
  8 17  1  0  0  0  0
 11 12  1  1  0  0  0
 11 20  1  0  0  0  0
 13  6  1  0  0  0  0
 13 14  1  1  0  0  0
 15 16  1  1  0  0  0
 15 24  1  0  0  0  0
 17 26  1  0  0  0  0
 18 10  1  0  0  0  0
 18 19  1  1  0  0  0
 20 21  1  1  0  0  0
 20 29  1  0  0  0  0
 22 13  1  0  0  0  0
 22 23  1  6  0  0  0
 24 25  1  1  0  0  0
 24 33  1  0  0  0  0
 26 27  1  6  0  0  0
 26 35  1  0  0  0  0
 28  2  1  6  0  0  0
 28 18  1  0  0  0  0
 29 30  1  0  0  0  0
 29 39  1  6  0  0  0
 31 22  1  0  0  0  0
 31 32  1  1  0  0  0
 31 41  1  0  0  0  0
 33 34  1  6  0  0  0
 33 43  1  0  0  0  0
 35 36  1  0  0  0  0
 35 45  1  6  0  0  0
 37 28  1  0  0  0  0
 37 38  1  6  0  0  0
 39 40  1  0  0  0  0
 41 42  1  0  0  0  0
 41 49  1  1  0  0  0
 43 44  1  0  0  0  0
 43 51  1  1  0  0  0
 45 46  1  0  0  0  0
 47 37  1  0  0  0  0
 47 48  1  6  0  0  0
 49 50  1  0  0  0  0
 51 52  1  0  0  0  0
M  END
>  <CHROM.1>
-66.50311618,169.50797948,171.27624595,76.04145895,168.32611800,-97.62365362
-176.59526244,64.54658409,-175.27750551,167.58969338,-77.41011224,-163.79400598
23.61206781,-2.41764395,15.53284064,2.83776308,0.44118632,1.99037928

>  <Name>
2esj_lig

>  <RI>
1.62275e+07

>  <Rbt.Current_Directory>
/home/itssahil/PROJECTS/Mol_Feturizer/New_Systems/rnas/2esj

>  <Rbt.Executable>
rbdock ($Id: //depot/dev/client3/rdock/2013.1/src/exe/rbdock.cxx#4 $)

>  <Rbt.Library>
libRbt.so (2013.1, Build901 2013/11/27)

>  <Rbt.Parameter_File>
/export/apps/rDock/src/rDock_2013.1_src/data/scripts/dock_solv.prm

>  <Rbt.Receptor>
prm/pocket_docking_5.prm

>  <SCORE>
-4.04847

>  <SCORE.INTER>
3.50324

>  <SCORE.INTER.CONST>
1

>  <SCORE.INTER.POLAR>
-0.568673

>  <SCORE.INTER.ROT>
12

>  <SCORE.INTER.SOLV>
12.1012

>  <SCORE.INTER.VDW>
-11.4027

>  <SCORE.INTER.norm>
0.0673699

>  <SCORE.INTRA>
-7.5517

>  <SCORE.INTRA.DIHEDRAL>
-18.6679

>  <SCORE.INTRA.DIHEDRAL.0>
32.9766

>  <SCORE.INTRA.POLAR>
0

>  <SCORE.INTRA.POLAR.0>
0

>  <SCORE.INTRA.REPUL>
0

>  <SCORE.INTRA.REPUL.0>
0

>  <SCORE.INTRA.SOLV>
1.12979

>  <SCORE.INTRA.SOLV.lig_0>
-114.358

>  <SCORE.INTRA.VDW>
1.21735

>  <SCORE.INTRA.VDW.0>
-8.24257

>  <SCORE.INTRA.norm>
-0.145225

>  <SCORE.RESTR>
0

>  <SCORE.RESTR.CAVITY>
0

>  <SCORE.RESTR.norm>
0

>  <SCORE.SYSTEM>
0

>  <SCORE.SYSTEM.CONST>
0

>  <SCORE.SYSTEM.DIHEDRAL>
0

>  <SCORE.SYSTEM.SOLV>
0

>  <SCORE.SYSTEM.norm>
0

>  <SCORE.heavy>
52

>  <SCORE.norm>
-0.0778551

>  <RMSD>
5.737

$$$$
2esj_lig
 OpenBabel11021811423D
libRbt.so/2013.1/901 2013/11/27
 52 56  0  0  0  0  0  0  0  0999 V2000
   21.2056   -9.1015   17.7781 C   0  0  2  0  0  0  0  0  0  0  0  0
   21.6824   -7.7768   17.4738 O   0  0  0  0  0  0  0  0  0  0  0  0
   18.1495   -6.1212   15.7229 C   0  0  2  0  0  0  0  0  0  0  0  0
   17.1559   -5.2386   15.0896 N   0  0  0  0  0  0  0  0  0  0  0  0
   22.1552   -6.5048   13.8899 C   0  0  1  0  0  0  0  0  0  0  0  0
   25.3000   -4.4209   12.6462 C   0  0  1  0  0  0  0  0  0  0  0  0
   26.7020   -1.3804   16.2472 C   0  0  1  0  0  0  0  0  0  0  0  0
   22.2550   -9.7744   18.7114 C   0  0  2  0  0  0  0  0  0  0  0  0
   22.5016   -8.9914   19.9220 N   0  0  0  0  0  0  0  0  0  0  0  0
   18.7041   -5.4620   17.0478 C   0  0  0  0  0  0  0  0  0  0  0  0
   23.4738   -6.9387   13.2483 C   0  0  2  0  0  0  0  0  0  0  0  0
   24.5876   -6.8462   14.1627 O   0  0  0  0  0  0  0  0  0  0  0  0
   25.5578   -4.2760   14.2127 C   0  0  2  0  0  0  0  0  0  0  0  0
   24.5590   -3.3687   14.8371 N   0  0  0  0  0  0  0  0  0  0  0  0
   26.1558    0.0424   16.2751 C   0  0  1  0  0  0  0  0  0  0  0  0
   25.4641    0.2599   17.5212 O   0  0  0  0  0  0  0  0  0  0  0  0
   23.5993  -10.0176   17.9545 C   0  0  0  0  0  0  0  0  0  0  0  0
   19.7247   -6.4493   17.7444 C   0  0  2  0  0  0  0  0  0  0  0  0
   20.2652   -5.8549   18.9713 N   0  0  0  0  0  0  0  0  0  0  0  0
   23.5438   -5.9826   12.0928 C   0  0  2  0  0  0  0  0  0  0  0  0
   23.9370   -4.7072   12.5323 O   0  0  0  0  0  0  0  0  0  0  0  0
   27.0784   -3.8684   14.4508 C   0  0  1  0  0  0  0  0  0  0  0  0
   27.9194   -4.7861   13.7443 O   0  0  0  0  0  0  0  0  0  0  0  0
   27.1979    1.1430   16.1170 C   0  0  1  0  0  0  0  0  0  0  0  0
   26.5475    2.3862   16.4030 O   0  0  0  0  0  0  0  0  0  0  0  0
   23.3072  -10.8319   16.6594 C   0  0  2  0  0  0  0  0  0  0  0  0
   24.4963  -11.1554   15.9613 O   0  0  0  0  0  0  0  0  0  0  0  0
   20.8740   -6.8156   16.7698 C   0  0  2  0  0  0  0  0  0  0  0  0
   22.0889   -5.7829   11.6208 C   0  0  2  0  0  0  0  0  0  0  0  0
   21.3609   -5.9640   12.8250 O   0  0  0  0  0  0  0  0  0  0  0  0
   27.3956   -2.4390   13.8463 C   0  0  2  0  0  0  0  0  0  0  0  0
   26.5671   -1.5485   14.5953 O   0  0  0  0  0  0  0  0  0  0  0  0
   28.4095    0.9815   17.0368 C   0  0  2  0  0  0  0  0  0  0  0  0
   29.4183    1.8870   16.5601 O   0  0  0  0  0  0  0  0  0  0  0  0
   22.3328  -10.0124   15.7773 C   0  0  2  0  0  0  0  0  0  0  0  0
   21.1027   -9.8391   16.5374 O   0  0  0  0  0  0  0  0  0  0  0  0
   20.3911   -7.3633   15.3885 C   0  0  2  0  0  0  0  0  0  0  0  0
   21.5417   -7.6013   14.5306 O   0  0  0  0  0  0  0  0  0  0  0  0
   21.5744   -6.7624   10.5665 C   0  0  0  0  0  0  0  0  0  0  0  0
   20.2510   -6.3462   10.1990 O   0  0  0  0  0  0  0  0  0  0  0  0
   26.8189   -2.4498   12.4437 C   0  0  1  0  0  0  0  0  0  0  0  0
   25.6611   -3.1370   11.9222 O   0  0  0  0  0  0  0  0  0  0  0  0
   28.8599   -0.4728   17.1182 C   0  0  2  0  0  0  0  0  0  0  0  0
   27.9194   -1.5526   17.0124 O   0  0  0  0  0  0  0  0  0  0  0  0
   21.9430  -10.7199   14.5243 C   0  0  0  0  0  0  0  0  0  0  0  0
   23.0679  -10.7315   13.6790 O   0  0  0  0  0  0  0  0  0  0  0  0
   19.3441   -6.3958   14.7406 C   0  0  1  0  0  0  0  0  0  0  0  0
   18.8071   -7.0660   13.5693 O   0  0  0  0  0  0  0  0  0  0  0  0
   27.0848   -1.1823   11.5745 C   0  0  0  0  0  0  0  0  0  0  0  0
   28.3474   -1.2503   10.8091 N   0  0  0  0  0  0  0  0  0  0  0  0
   30.0402   -0.9328   17.9709 C   0  0  0  0  0  0  0  0  0  0  0  0
   31.2884   -0.5243   17.3512 O   0  0  0  0  0  0  0  0  0  0  0  0
  1  2  1  6  0  0  0
  1  8  1  0  0  0  0
  1 36  1  0  0  0  0
  3  4  1  6  0  0  0
  3 10  1  0  0  0  0
  3 47  1  0  0  0  0
  5 11  1  0  0  0  0
  5 30  1  0  0  0  0
  5 38  1  6  0  0  0
  6 21  1  1  0  0  0
  6 42  1  0  0  0  0
  7 15  1  0  0  0  0
  7 44  1  0  0  0  0
  7 32  1  6  0  0  0
  8  9  1  1  0  0  0
  8 17  1  0  0  0  0
 11 12  1  1  0  0  0
 11 20  1  0  0  0  0
 13  6  1  0  0  0  0
 13 14  1  6  0  0  0
 15 16  1  1  0  0  0
 15 24  1  0  0  0  0
 17 26  1  0  0  0  0
 18 10  1  0  0  0  0
 18 19  1  1  0  0  0
 20 21  1  1  0  0  0
 20 29  1  0  0  0  0
 22 13  1  0  0  0  0
 22 23  1  6  0  0  0
 24 25  1  1  0  0  0
 24 33  1  0  0  0  0
 26 27  1  6  0  0  0
 26 35  1  0  0  0  0
 28  2  1  1  0  0  0
 28 18  1  0  0  0  0
 29 30  1  0  0  0  0
 29 39  1  6  0  0  0
 31 22  1  0  0  0  0
 31 32  1  1  0  0  0
 31 41  1  0  0  0  0
 33 34  1  6  0  0  0
 33 43  1  0  0  0  0
 35 36  1  0  0  0  0
 35 45  1  6  0  0  0
 37 28  1  0  0  0  0
 37 38  1  6  0  0  0
 39 40  1  0  0  0  0
 41 42  1  0  0  0  0
 41 49  1  1  0  0  0
 43 44  1  0  0  0  0
 43 51  1  1  0  0  0
 45 46  1  0  0  0  0
 47 37  1  0  0  0  0
 47 48  1  6  0  0  0
 49 50  1  0  0  0  0
 51 52  1  0  0  0  0
M  END
>  <CHROM.1>
-171.97669421,170.01052905,-111.57012159,153.76942482,86.04955832,68.25064567
-175.86631734,60.47834125,-71.21327230,-78.28813872,88.46122396,-73.52789091
23.98758890,-4.98738660,15.10402694,-2.96640352,-0.83630285,-1.33073319

>  <Name>
2esj_lig

>  <RI>
1.62275e+07

>  <Rbt.Current_Directory>
/home/itssahil/PROJECTS/Mol_Feturizer/New_Systems/rnas/2esj

>  <Rbt.Executable>
rbdock ($Id: //depot/dev/client3/rdock/2013.1/src/exe/rbdock.cxx#4 $)

>  <Rbt.Library>
libRbt.so (2013.1, Build901 2013/11/27)

>  <Rbt.Parameter_File>
/export/apps/rDock/src/rDock_2013.1_src/data/scripts/dock_solv.prm

>  <Rbt.Receptor>
prm/pocket_docking_5.prm

>  <SCORE>
-8.55631

>  <SCORE.INTER>
-4.19847

>  <SCORE.INTER.CONST>
1

>  <SCORE.INTER.POLAR>
-1.25917

>  <SCORE.INTER.ROT>
12

>  <SCORE.INTER.SOLV>
11.2538

>  <SCORE.INTER.VDW>
-13.953

>  <SCORE.INTER.norm>
-0.0807398

>  <SCORE.INTRA>
-4.40017

>  <SCORE.INTRA.DIHEDRAL>
-12.2023

>  <SCORE.INTRA.DIHEDRAL.0>
32.9766

>  <SCORE.INTRA.POLAR>
0

>  <SCORE.INTRA.POLAR.0>
0

>  <SCORE.INTRA.REPUL>
0

>  <SCORE.INTRA.REPUL.0>
0

>  <SCORE.INTRA.SOLV>
-1.43676

>  <SCORE.INTRA.SOLV.lig_0>
-114.358

>  <SCORE.INTRA.VDW>
2.41935

>  <SCORE.INTRA.VDW.0>
-8.24257

>  <SCORE.INTRA.norm>
-0.0846187

>  <SCORE.RESTR>
0.0423245

>  <SCORE.RESTR.CAVITY>
0.0423245

>  <SCORE.RESTR.norm>
0.000813933

>  <SCORE.SYSTEM>
0

>  <SCORE.SYSTEM.CONST>
0

>  <SCORE.SYSTEM.DIHEDRAL>
0

>  <SCORE.SYSTEM.SOLV>
0

>  <SCORE.SYSTEM.norm>
0

>  <SCORE.heavy>
52

>  <SCORE.norm>
-0.164545

>  <RMSD>
5.744

$$$$
2esj_lig
 OpenBabel11021811423D
libRbt.so/2013.1/901 2013/11/27
 52 56  0  0  0  0  0  0  0  0999 V2000
   18.5248   -5.4116   14.0517 C   0  0  2  0  0  0  0  0  0  0  0  0
   18.6020   -6.8487   14.1121 O   0  0  0  0  0  0  0  0  0  0  0  0
   19.1271   -9.9491   17.0104 C   0  0  2  0  0  0  0  0  0  0  0  0
   19.6349  -10.8257   18.0787 N   0  0  0  0  0  0  0  0  0  0  0  0
   19.0729   -5.3606   17.1256 C   0  0  1  0  0  0  0  0  0  0  0  0
   21.8369   -2.3771   18.2759 C   0  0  1  0  0  0  0  0  0  0  0  0
   26.7054   -2.0844   16.0526 C   0  0  1  0  0  0  0  0  0  0  0  0
   17.4091   -5.0449   13.0291 C   0  0  2  0  0  0  0  0  0  0  0  0
   16.1217   -5.6467   13.3752 N   0  0  0  0  0  0  0  0  0  0  0  0
   20.1909   -9.8274   15.8481 C   0  0  0  0  0  0  0  0  0  0  0  0
   18.6286   -4.1286   17.9150 C   0  0  2  0  0  0  0  0  0  0  0  0
   18.1230   -3.0800   17.0604 O   0  0  0  0  0  0  0  0  0  0  0  0
   22.3647   -1.5070   17.0489 C   0  0  2  0  0  0  0  0  0  0  0  0
   22.6190   -2.3608   15.8584 N   0  0  0  0  0  0  0  0  0  0  0  0
   26.6604   -0.5640   15.9533 C   0  0  1  0  0  0  0  0  0  0  0  0
   27.9967   -0.0406   16.0910 O   0  0  0  0  0  0  0  0  0  0  0  0
   17.8192   -5.4657   11.5822 C   0  0  0  0  0  0  0  0  0  0  0  0
   19.6045   -8.9310   14.6844 C   0  0  2  0  0  0  0  0  0  0  0  0
   20.5790   -8.7908   13.5973 N   0  0  0  0  0  0  0  0  0  0  0  0
   19.9054   -3.7831   18.6252 C   0  0  2  0  0  0  0  0  0  0  0  0
   20.8028   -3.1535   17.7462 O   0  0  0  0  0  0  0  0  0  0  0  0
   23.6075   -0.6356   17.5297 C   0  0  1  0  0  0  0  0  0  0  0  0
   23.2401    0.0806   18.7132 O   0  0  0  0  0  0  0  0  0  0  0  0
   26.0703   -0.0131   14.6607 C   0  0  1  0  0  0  0  0  0  0  0  0
   26.3258    1.3957   14.6453 O   0  0  0  0  0  0  0  0  0  0  0  0
   19.2019   -4.8321   11.2468 C   0  0  2  0  0  0  0  0  0  0  0  0
   19.6001   -5.1108    9.9164 O   0  0  0  0  0  0  0  0  0  0  0  0
   19.1974   -7.5368   15.2280 C   0  0  2  0  0  0  0  0  0  0  0  0
   20.5849   -5.1290   18.9517 C   0  0  2  0  0  0  0  0  0  0  0  0
   20.1340   -5.9524   17.8879 O   0  0  0  0  0  0  0  0  0  0  0  0
   24.8316   -1.5524   17.9425 C   0  0  2  0  0  0  0  0  0  0  0  0
   25.1917   -2.2237   16.7341 O   0  0  0  0  0  0  0  0  0  0  0  0
   26.6535   -0.6480   13.3970 C   0  0  2  0  0  0  0  0  0  0  0  0
   25.7978   -0.2682   12.3069 O   0  0  0  0  0  0  0  0  0  0  0  0
   20.2386   -5.3523   12.2733 C   0  0  2  0  0  0  0  0  0  0  0  0
   19.8018   -4.9111   13.5907 O   0  0  0  0  0  0  0  0  0  0  0  0
   18.2372   -7.5860   16.4595 C   0  0  2  0  0  0  0  0  0  0  0  0
   17.9824   -6.2339   16.9318 O   0  0  0  0  0  0  0  0  0  0  0  0
   20.2105   -5.7751   20.2852 C   0  0  0  0  0  0  0  0  0  0  0  0
   20.6902   -4.9173   21.3310 O   0  0  0  0  0  0  0  0  0  0  0  0
   24.2546   -2.6238   18.8477 C   0  0  1  0  0  0  0  0  0  0  0  0
   22.9499   -3.2420   18.8382 O   0  0  0  0  0  0  0  0  0  0  0  0
   26.8325   -2.1534   13.5589 C   0  0  2  0  0  0  0  0  0  0  0  0
   27.1413   -2.7354   14.8347 O   0  0  0  0  0  0  0  0  0  0  0  0
   21.5974   -4.7713   12.0772 C   0  0  0  0  0  0  0  0  0  0  0  0
   21.4758   -3.3725   12.1713 O   0  0  0  0  0  0  0  0  0  0  0  0
   18.8128   -8.5186   17.5781 C   0  0  1  0  0  0  0  0  0  0  0  0
   17.7813   -8.6624   18.5904 O   0  0  0  0  0  0  0  0  0  0  0  0
   25.2752   -3.6138   19.4888 C   0  0  0  0  0  0  0  0  0  0  0  0
   25.0536   -5.0211   19.0952 N   0  0  0  0  0  0  0  0  0  0  0  0
   27.4049   -3.0470   12.4610 C   0  0  0  0  0  0  0  0  0  0  0  0
   26.5593   -2.9873   11.2820 O   0  0  0  0  0  0  0  0  0  0  0  0
  1  2  1  6  0  0  0
  1  8  1  0  0  0  0
  1 36  1  0  0  0  0
  3  4  1  1  0  0  0
  3 10  1  0  0  0  0
  3 47  1  0  0  0  0
  5 11  1  0  0  0  0
  5 30  1  0  0  0  0
  5 38  1  1  0  0  0
  6 21  1  6  0  0  0
  6 42  1  0  0  0  0
  7 15  1  0  0  0  0
  7 44  1  0  0  0  0
  7 32  1  6  0  0  0
  8  9  1  1  0  0  0
  8 17  1  0  0  0  0
 11 12  1  6  0  0  0
 11 20  1  0  0  0  0
 13  6  1  0  0  0  0
 13 14  1  6  0  0  0
 15 16  1  6  0  0  0
 15 24  1  0  0  0  0
 17 26  1  0  0  0  0
 18 10  1  0  0  0  0
 18 19  1  6  0  0  0
 20 21  1  6  0  0  0
 20 29  1  0  0  0  0
 22 13  1  0  0  0  0
 22 23  1  1  0  0  0
 24 25  1  6  0  0  0
 24 33  1  0  0  0  0
 26 27  1  6  0  0  0
 26 35  1  0  0  0  0
 28  2  1  6  0  0  0
 28 18  1  0  0  0  0
 29 30  1  0  0  0  0
 29 39  1  1  0  0  0
 31 22  1  0  0  0  0
 31 32  1  6  0  0  0
 31 41  1  0  0  0  0
 33 34  1  6  0  0  0
 33 43  1  0  0  0  0
 35 36  1  0  0  0  0
 35 45  1  6  0  0  0
 37 28  1  0  0  0  0
 37 38  1  1  0  0  0
 39 40  1  0  0  0  0
 41 42  1  0  0  0  0
 41 49  1  6  0  0  0
 43 44  1  0  0  0  0
 43 51  1  6  0  0  0
 45 46  1  0  0  0  0
 47 37  1  0  0  0  0
 47 48  1  1  0  0  0
 49 50  1  0  0  0  0
 51 52  1  0  0  0  0
M  END
>  <CHROM.1>
-159.73268212,-167.05001977,-164.12031676,-56.39346702,159.36190677,-157.56684337
-65.48580682,120.48549464,58.01729594,-48.29590001,-118.65399837,-61.04074945
21.85270870,-4.25488197,15.79730445,3.06686038,0.68714404,1.59434891

>  <Name>
2esj_lig

>  <RI>
0

>  <Rbt.Current_Directory>
/home/itssahil/PROJECTS/Mol_Feturizer/New_Systems/rnas/2esj

>  <Rbt.Executable>
rbdock ($Id: //depot/dev/client3/rdock/2013.1/src/exe/rbdock.cxx#4 $)

>  <Rbt.Library>
libRbt.so (2013.1, Build901 2013/11/27)

>  <Rbt.Parameter_File>
/export/apps/rDock/src/rDock_2013.1_src/data/scripts/dock_solv.prm

>  <Rbt.Receptor>
prm/pocket_docking_4.prm

>  <SCORE>
-13.1033

>  <SCORE.INTER>
-8.2616

>  <SCORE.INTER.CONST>
1

>  <SCORE.INTER.POLAR>
-1.80442

>  <SCORE.INTER.ROT>
12

>  <SCORE.INTER.SOLV>
13.4562

>  <SCORE.INTER.VDW>
-15.5784

>  <SCORE.INTER.norm>
-0.158877

>  <SCORE.INTRA>
-4.84168

>  <SCORE.INTRA.DIHEDRAL>
-12.3125

>  <SCORE.INTRA.DIHEDRAL.0>
32.9766

>  <SCORE.INTRA.POLAR>
0

>  <SCORE.INTRA.POLAR.0>
0

>  <SCORE.INTRA.REPUL>
0.00894203

>  <SCORE.INTRA.REPUL.0>
0

>  <SCORE.INTRA.SOLV>
-2.1536

>  <SCORE.INTRA.SOLV.lig_0>
-114.358

>  <SCORE.INTRA.VDW>
2.34667

>  <SCORE.INTRA.VDW.0>
-8.24257

>  <SCORE.INTRA.norm>
-0.0931092

>  <SCORE.RESTR>
0

>  <SCORE.RESTR.CAVITY>
0

>  <SCORE.RESTR.norm>
0

>  <SCORE.SYSTEM>
0

>  <SCORE.SYSTEM.CONST>
0

>  <SCORE.SYSTEM.DIHEDRAL>
0

>  <SCORE.SYSTEM.SOLV>
0

>  <SCORE.SYSTEM.norm>
0

>  <SCORE.heavy>
52

>  <SCORE.norm>
-0.251986

>  <RMSD>
5.753

$$$$
2esj_lig
 OpenBabel11021811423D
libRbt.so/2013.1/901 2013/11/27
 52 56  0  0  0  0  0  0  0  0999 V2000
   18.7044   -7.6601   18.1094 C   0  0  2  0  0  0  0  0  0  0  0  0
   17.2860   -7.4481   18.2444 O   0  0  0  0  0  0  0  0  0  0  0  0
   14.6587   -5.8810   21.2326 C   0  0  2  0  0  0  0  0  0  0  0  0
   13.8566   -5.6625   22.4476 N   0  0  0  0  0  0  0  0  0  0  0  0
   19.3463   -5.2472   19.8130 C   0  0  1  0  0  0  0  0  0  0  0  0
   22.2873   -2.5586   18.3632 C   0  0  1  0  0  0  0  0  0  0  0  0
   22.6884   -2.8082   13.7135 C   0  0  1  0  0  0  0  0  0  0  0  0
   19.0243   -7.7343   16.5872 C   0  0  2  0  0  0  0  0  0  0  0  0
   18.5801   -6.5398   15.8695 N   0  0  0  0  0  0  0  0  0  0  0  0
   14.2989   -7.2748   20.5805 C   0  0  0  0  0  0  0  0  0  0  0  0
   20.1502   -4.3376   20.7431 C   0  0  2  0  0  0  0  0  0  0  0  0
   19.4592   -3.1048   21.0399 O   0  0  0  0  0  0  0  0  0  0  0  0
   21.8007   -2.0510   16.9326 C   0  0  2  0  0  0  0  0  0  0  0  0
   21.1856   -3.1580   16.1534 N   0  0  0  0  0  0  0  0  0  0  0  0
   22.1962   -4.2213   13.4228 C   0  0  1  0  0  0  0  0  0  0  0  0
   20.8598   -4.1562   12.8859 O   0  0  0  0  0  0  0  0  0  0  0  0
   18.3858   -9.0067   15.9449 C   0  0  0  0  0  0  0  0  0  0  0  0
   15.1262   -7.4652   19.2460 C   0  0  2  0  0  0  0  0  0  0  0  0
   14.8203   -8.7591   18.6271 N   0  0  0  0  0  0  0  0  0  0  0  0
   21.4051   -4.1624   19.9376 C   0  0  2  0  0  0  0  0  0  0  0  0
   21.1936   -3.2516   18.8888 O   0  0  0  0  0  0  0  0  0  0  0  0
   23.0093   -1.3093   16.2085 C   0  0  1  0  0  0  0  0  0  0  0  0
   23.5413   -0.3186   17.0941 O   0  0  0  0  0  0  0  0  0  0  0  0
   23.0548   -5.0229   12.4520 C   0  0  1  0  0  0  0  0  0  0  0  0
   22.3245   -6.2092   12.1210 O   0  0  0  0  0  0  0  0  0  0  0  0
   18.8549  -10.2610   16.7401 C   0  0  2  0  0  0  0  0  0  0  0  0
   18.3731  -11.4612   16.1626 O   0  0  0  0  0  0  0  0  0  0  0  0
   16.6463   -7.3484   19.5305 C   0  0  2  0  0  0  0  0  0  0  0  0
   21.6390   -5.5086   19.2215 C   0  0  2  0  0  0  0  0  0  0  0  0
   20.3143   -5.9900   19.0590 O   0  0  0  0  0  0  0  0  0  0  0  0
   24.2033   -2.3061   15.9087 C   0  0  2  0  0  0  0  0  0  0  0  0
   23.6478   -3.2573   14.9993 O   0  0  0  0  0  0  0  0  0  0  0  0
   23.4031   -4.2673   11.1683 C   0  0  2  0  0  0  0  0  0  0  0  0
   24.4475   -5.0097   10.5181 O   0  0  0  0  0  0  0  0  0  0  0  0
   18.3904  -10.1086   18.2098 C   0  0  2  0  0  0  0  0  0  0  0  0
   19.0342   -8.9172   18.7457 O   0  0  0  0  0  0  0  0  0  0  0  0
   17.0573   -6.0430   20.2841 C   0  0  2  0  0  0  0  0  0  0  0  0
   18.4845   -6.0725   20.5648 O   0  0  0  0  0  0  0  0  0  0  0  0
   22.4656   -6.5478   19.9782 C   0  0  0  0  0  0  0  0  0  0  0  0
   23.8339   -6.1157   19.9501 O   0  0  0  0  0  0  0  0  0  0  0  0
   24.4376   -3.0656   17.2004 C   0  0  1  0  0  0  0  0  0  0  0  0
   23.5028   -3.4572   18.2286 O   0  0  0  0  0  0  0  0  0  0  0  0
   23.7531   -2.8112   11.4540 C   0  0  2  0  0  0  0  0  0  0  0  0
   23.1404   -2.0948   12.5371 O   0  0  0  0  0  0  0  0  0  0  0  0
   18.8277  -11.2366   19.0810 C   0  0  0  0  0  0  0  0  0  0  0  0
   17.9829  -11.2526   20.2062 O   0  0  0  0  0  0  0  0  0  0  0  0
   16.1915   -5.8481   21.5743 C   0  0  1  0  0  0  0  0  0  0  0  0
   16.4978   -4.5303   22.1023 O   0  0  0  0  0  0  0  0  0  0  0  0
   25.6437   -4.0545   17.2147 C   0  0  0  0  0  0  0  0  0  0  0  0
   26.9150   -3.4231   17.6269 N   0  0  0  0  0  0  0  0  0  0  0  0
   24.1318   -1.8154   10.3600 C   0  0  0  0  0  0  0  0  0  0  0  0
   24.4763   -0.5352   10.9526 O   0  0  0  0  0  0  0  0  0  0  0  0
  1  2  1  6  0  0  0
  1  8  1  0  0  0  0
  1 36  1  0  0  0  0
  3  4  1  1  0  0  0
  3 10  1  0  0  0  0
  3 47  1  0  0  0  0
  5 11  1  0  0  0  0
  5 30  1  0  0  0  0
  5 38  1  1  0  0  0
  6 21  1  6  0  0  0
  6 42  1  0  0  0  0
  7 15  1  0  0  0  0
  7 44  1  0  0  0  0
  7 32  1  1  0  0  0
  8  9  1  6  0  0  0
  8 17  1  0  0  0  0
 11 12  1  6  0  0  0
 11 20  1  0  0  0  0
 13  6  1  0  0  0  0
 13 14  1  6  0  0  0
 15 16  1  6  0  0  0
 15 24  1  0  0  0  0
 17 26  1  0  0  0  0
 18 10  1  0  0  0  0
 18 19  1  1  0  0  0
 20 21  1  6  0  0  0
 20 29  1  0  0  0  0
 22 13  1  0  0  0  0
 22 23  1  1  0  0  0
 24 25  1  6  0  0  0
 24 33  1  0  0  0  0
 26 27  1  6  0  0  0
 26 35  1  0  0  0  0
 28  2  1  6  0  0  0
 28 18  1  0  0  0  0
 29 30  1  0  0  0  0
 29 39  1  1  0  0  0
 31 22  1  0  0  0  0
 31 32  1  6  0  0  0
 31 41  1  0  0  0  0
 33 34  1  1  0  0  0
 33 43  1  0  0  0  0
 35 36  1  0  0  0  0
 35 45  1  1  0  0  0
 37 28  1  0  0  0  0
 37 38  1  1  0  0  0
 39 40  1  0  0  0  0
 41 42  1  0  0  0  0
 41 49  1  6  0  0  0
 43 44  1  0  0  0  0
 43 51  1  6  0  0  0
 45 46  1  0  0  0  0
 47 37  1  0  0  0  0
 47 48  1  6  0  0  0
 49 50  1  0  0  0  0
 51 52  1  0  0  0  0
M  END
>  <CHROM.1>
179.18354678,123.54900082,160.68176658,-166.95795206,155.24595365,-166.89595542
-73.43802490,43.89355751,-159.15027103,106.24422166,88.60497524,-177.02111982
20.52121355,-5.35772915,17.21719639,2.85684458,0.82037396,1.02118908

>  <Name>
2esj_lig

>  <RI>
0

>  <Rbt.Current_Directory>
/home/itssahil/PROJECTS/Mol_Feturizer/New_Systems/rnas/2esj

>  <Rbt.Executable>
rbdock ($Id: //depot/dev/client3/rdock/2013.1/src/exe/rbdock.cxx#4 $)

>  <Rbt.Library>
libRbt.so (2013.1, Build901 2013/11/27)

>  <Rbt.Parameter_File>
/export/apps/rDock/src/rDock_2013.1_src/data/scripts/dock_solv.prm

>  <Rbt.Receptor>
prm/pocket_docking_2.prm

>  <SCORE>
16.7142

>  <SCORE.INTER>
1.39285

>  <SCORE.INTER.CONST>
1

>  <SCORE.INTER.POLAR>
0

>  <SCORE.INTER.ROT>
12

>  <SCORE.INTER.SOLV>
22.5209

>  <SCORE.INTER.VDW>
-18.1784

>  <SCORE.INTER.norm>
0.0267855

>  <SCORE.INTRA>
0.159106

>  <SCORE.INTRA.DIHEDRAL>
-5.56579

>  <SCORE.INTRA.DIHEDRAL.0>
32.9766

>  <SCORE.INTRA.POLAR>
0

>  <SCORE.INTRA.POLAR.0>
0

>  <SCORE.INTRA.REPUL>
0

>  <SCORE.INTRA.REPUL.0>
0

>  <SCORE.INTRA.SOLV>
-1.21873

>  <SCORE.INTRA.SOLV.lig_0>
-114.358

>  <SCORE.INTRA.VDW>
3.55136

>  <SCORE.INTRA.VDW.0>
-8.24257

>  <SCORE.INTRA.norm>
0.00305973

>  <SCORE.RESTR>
15.1623

>  <SCORE.RESTR.CAVITY>
15.1623

>  <SCORE.RESTR.norm>
0.291582

>  <SCORE.SYSTEM>
0

>  <SCORE.SYSTEM.CONST>
0

>  <SCORE.SYSTEM.DIHEDRAL>
0

>  <SCORE.SYSTEM.SOLV>
0

>  <SCORE.SYSTEM.norm>
0

>  <SCORE.heavy>
52

>  <SCORE.norm>
0.321427

>  <RMSD>
5.776

$$$$
2esj_lig
 OpenBabel11021811423D
libRbt.so/2013.1/901 2013/11/27
 52 56  0  0  0  0  0  0  0  0999 V2000
   21.7359   -6.9972   19.5974 C   0  0  2  0  0  0  0  0  0  0  0  0
   20.9237   -7.9040   18.8274 O   0  0  0  0  0  0  0  0  0  0  0  0
   20.9118   -8.9024   14.6691 C   0  0  2  0  0  0  0  0  0  0  0  0
   20.6963   -8.9253   13.2130 N   0  0  0  0  0  0  0  0  0  0  0  0
   24.0871   -6.2604   16.5468 C   0  0  1  0  0  0  0  0  0  0  0  0
   28.0481   -5.3118   15.6427 C   0  0  1  0  0  0  0  0  0  0  0  0
   30.3786   -2.0078   12.5281 C   0  0  1  0  0  0  0  0  0  0  0  0
   21.9067   -7.6120   21.0179 C   0  0  2  0  0  0  0  0  0  0  0  0
   22.4814   -8.9562   20.9736 N   0  0  0  0  0  0  0  0  0  0  0  0
   19.5267   -8.8561   15.4285 C   0  0  0  0  0  0  0  0  0  0  0  0
   24.6646   -4.9518   17.0878 C   0  0  2  0  0  0  0  0  0  0  0  0
   24.3256   -3.8172   16.2612 O   0  0  0  0  0  0  0  0  0  0  0  0
   28.6162   -3.9492   16.2444 C   0  0  2  0  0  0  0  0  0  0  0  0
   27.8789   -2.7772   15.7024 N   0  0  0  0  0  0  0  0  0  0  0  0
   31.8573   -1.7938   12.8300 C   0  0  1  0  0  0  0  0  0  0  0  0
   32.6160   -1.9468   11.6137 O   0  0  0  0  0  0  0  0  0  0  0  0
   20.5435   -7.6431   21.7793 C   0  0  0  0  0  0  0  0  0  0  0  0
   19.7766   -8.8919   16.9899 C   0  0  2  0  0  0  0  0  0  0  0  0
   18.5055   -8.8363   17.7193 N   0  0  0  0  0  0  0  0  0  0  0  0
   26.1283   -5.2854   17.1066 C   0  0  2  0  0  0  0  0  0  0  0  0
   26.6632   -5.2270   15.8086 O   0  0  0  0  0  0  0  0  0  0  0  0
   30.1937   -3.9084   16.0325 C   0  0  1  0  0  0  0  0  0  0  0  0
   30.7603   -5.1202   16.5416 O   0  0  0  0  0  0  0  0  0  0  0  0
   32.2088   -0.4408   13.4368 C   0  0  1  0  0  0  0  0  0  0  0  0
   33.6364   -0.3310   13.4283 O   0  0  0  0  0  0  0  0  0  0  0  0
   19.9417   -6.2066   21.7924 C   0  0  2  0  0  0  0  0  0  0  0  0
   18.7378   -6.1468   22.5361 O   0  0  0  0  0  0  0  0  0  0  0  0
   20.6966   -7.7190   17.4176 C   0  0  2  0  0  0  0  0  0  0  0  0
   26.2165   -6.7795   17.4800 C   0  0  2  0  0  0  0  0  0  0  0  0
   25.0036   -7.2883   16.9480 O   0  0  0  0  0  0  0  0  0  0  0  0
   30.5698   -3.8689   14.4942 C   0  0  2  0  0  0  0  0  0  0  0  0
   30.0200   -2.6353   14.0291 O   0  0  0  0  0  0  0  0  0  0  0  0
   31.6045    0.7472   12.6861 C   0  0  2  0  0  0  0  0  0  0  0  0
   31.7545    1.8967   13.5352 O   0  0  0  0  0  0  0  0  0  0  0  0
   19.7298   -5.7532   20.3266 C   0  0  2  0  0  0  0  0  0  0  0  0
   21.0379   -5.7327   19.6867 O   0  0  0  0  0  0  0  0  0  0  0  0
   22.0371   -7.6339   16.6196 C   0  0  2  0  0  0  0  0  0  0  0  0
   22.7837   -6.4607   17.0469 O   0  0  0  0  0  0  0  0  0  0  0  0
   26.2909   -7.1055   18.9713 C   0  0  0  0  0  0  0  0  0  0  0  0
   27.4897   -6.5071   19.4854 O   0  0  0  0  0  0  0  0  0  0  0  0
   29.7397   -4.9573   13.8411 C   0  0  1  0  0  0  0  0  0  0  0  0
   28.4256   -5.4505   14.1794 O   0  0  0  0  0  0  0  0  0  0  0  0
   30.1683    0.4666   12.2583 C   0  0  2  0  0  0  0  0  0  0  0  0
   29.7355   -0.8606   11.9219 O   0  0  0  0  0  0  0  0  0  0  0  0
   19.1984   -4.3648   20.2153 C   0  0  0  0  0  0  0  0  0  0  0  0
   20.1493   -3.5017   20.7907 O   0  0  0  0  0  0  0  0  0  0  0  0
   21.7692   -7.6509   15.0768 C   0  0  1  0  0  0  0  0  0  0  0  0
   23.0585   -7.7658   14.4181 O   0  0  0  0  0  0  0  0  0  0  0  0
   29.9949   -5.2074   12.3228 C   0  0  0  0  0  0  0  0  0  0  0  0
   31.2365   -5.9627   12.0533 N   0  0  0  0  0  0  0  0  0  0  0  0
   29.3190    1.4705   11.4822 C   0  0  0  0  0  0  0  0  0  0  0  0
   28.9835    2.5984   12.3331 O   0  0  0  0  0  0  0  0  0  0  0  0
  1  2  1  6  0  0  0
  1  8  1  0  0  0  0
  1 36  1  0  0  0  0
  3  4  1  6  0  0  0
  3 10  1  0  0  0  0
  3 47  1  0  0  0  0
  5 11  1  0  0  0  0
  5 30  1  0  0  0  0
  5 38  1  1  0  0  0
  6 21  1  6  0  0  0
  6 42  1  0  0  0  0
  7 15  1  0  0  0  0
  7 44  1  0  0  0  0
  7 32  1  1  0  0  0
  8  9  1  6  0  0  0
  8 17  1  0  0  0  0
 11 12  1  6  0  0  0
 11 20  1  0  0  0  0
 13  6  1  0  0  0  0
 13 14  1  6  0  0  0
 15 16  1  6  0  0  0
 15 24  1  0  0  0  0
 17 26  1  0  0  0  0
 18 10  1  0  0  0  0
 18 19  1  1  0  0  0
 20 21  1  6  0  0  0
 20 29  1  0  0  0  0
 22 13  1  0  0  0  0
 22 23  1  6  0  0  0
 24 25  1  6  0  0  0
 24 33  1  0  0  0  0
 26 27  1  1  0  0  0
 26 35  1  0  0  0  0
 28  2  1  1  0  0  0
 28 18  1  0  0  0  0
 29 30  1  0  0  0  0
 29 39  1  1  0  0  0
 31 22  1  0  0  0  0
 31 32  1  6  0  0  0
 31 41  1  0  0  0  0
 33 34  1  1  0  0  0
 33 43  1  0  0  0  0
 35 36  1  0  0  0  0
 35 45  1  1  0  0  0
 37 28  1  0  0  0  0
 37 38  1  1  0  0  0
 39 40  1  0  0  0  0
 41 42  1  0  0  0  0
 41 49  1  6  0  0  0
 43 44  1  0  0  0  0
 43 51  1  6  0  0  0
 45 46  1  0  0  0  0
 47 37  1  0  0  0  0
 47 48  1  6  0  0  0
 49 50  1  0  0  0  0
 51 52  1  0  0  0  0
M  END
>  <CHROM.1>
-172.66177852,178.15396565,-69.09199142,-64.57128227,170.65034873,-179.62826093
-61.78095922,169.05969927,61.60336135,173.94060555,76.56909502,-69.49044737
25.70262346,-4.85751644,16.16839131,3.08164597,-0.67880340,-2.45020643

>  <Name>
2esj_lig

>  <RI>
2.18877e+07

>  <Rbt.Current_Directory>
/home/itssahil/PROJECTS/Mol_Feturizer/New_Systems/rnas/2esj

>  <Rbt.Executable>
rbdock ($Id: //depot/dev/client3/rdock/2013.1/src/exe/rbdock.cxx#4 $)

>  <Rbt.Library>
libRbt.so (2013.1, Build901 2013/11/27)

>  <Rbt.Parameter_File>
/export/apps/rDock/src/rDock_2013.1_src/data/scripts/dock_solv.prm

>  <Rbt.Receptor>
prm/pocket_docking_7.prm

>  <SCORE>
-9.42889

>  <SCORE.INTER>
1.45154

>  <SCORE.INTER.CONST>
1

>  <SCORE.INTER.POLAR>
0

>  <SCORE.INTER.ROT>
12

>  <SCORE.INTER.SOLV>
10.2529

>  <SCORE.INTER.VDW>
-14.05

>  <SCORE.INTER.norm>
0.0279143

>  <SCORE.INTRA>
-10.8804

>  <SCORE.INTRA.DIHEDRAL>
-25.9708

>  <SCORE.INTRA.DIHEDRAL.0>
32.9766

>  <SCORE.INTRA.POLAR>
0

>  <SCORE.INTRA.POLAR.0>
0

>  <SCORE.INTRA.REPUL>
0

>  <SCORE.INTRA.REPUL.0>
0

>  <SCORE.INTRA.SOLV>
-3.60897

>  <SCORE.INTRA.SOLV.lig_0>
-114.358

>  <SCORE.INTRA.VDW>
3.90947

>  <SCORE.INTRA.VDW.0>
-8.24257

>  <SCORE.INTRA.norm>
-0.209239

>  <SCORE.RESTR>
0

>  <SCORE.RESTR.CAVITY>
0

>  <SCORE.RESTR.norm>
0

>  <SCORE.SYSTEM>
0

>  <SCORE.SYSTEM.CONST>
0

>  <SCORE.SYSTEM.DIHEDRAL>
0

>  <SCORE.SYSTEM.SOLV>
0

>  <SCORE.SYSTEM.norm>
0

>  <SCORE.heavy>
52

>  <SCORE.norm>
-0.181325

>  <RMSD>
5.779

$$$$
2esj_lig
 OpenBabel11021811423D
libRbt.so/2013.1/901 2013/11/27
 52 56  0  0  0  0  0  0  0  0999 V2000
   17.9072   -2.8169   12.8829 C   0  0  2  0  0  0  0  0  0  0  0  0
   17.5669   -3.0695   14.2595 O   0  0  0  0  0  0  0  0  0  0  0  0
   18.4740   -5.6511   17.5459 C   0  0  2  0  0  0  0  0  0  0  0  0
   19.1159   -6.5868   18.4839 N   0  0  0  0  0  0  0  0  0  0  0  0
   20.6910   -2.0771   16.0972 C   0  0  1  0  0  0  0  0  0  0  0  0
   24.5603   -2.2861   14.5556 C   0  0  1  0  0  0  0  0  0  0  0  0
   28.3615   -4.6311   16.4712 C   0  0  1  0  0  0  0  0  0  0  0  0
   17.3677   -1.4022   12.5188 C   0  0  2  0  0  0  0  0  0  0  0  0
   17.8887   -0.3653   13.4091 N   0  0  0  0  0  0  0  0  0  0  0  0
   18.4120   -6.2814   16.0980 C   0  0  0  0  0  0  0  0  0  0  0  0
   20.9266   -2.9082   14.8353 C   0  0  2  0  0  0  0  0  0  0  0  0
   21.0883   -4.3138   15.1241 O   0  0  0  0  0  0  0  0  0  0  0  0
   25.4045   -3.6380   14.5818 C   0  0  2  0  0  0  0  0  0  0  0  0
   25.2704   -4.3265   15.8929 N   0  0  0  0  0  0  0  0  0  0  0  0
   28.1048   -4.8046   17.9637 C   0  0  1  0  0  0  0  0  0  0  0  0
   27.9125   -6.2040   18.2517 O   0  0  0  0  0  0  0  0  0  0  0  0
   15.8062   -1.3799   12.5357 C   0  0  0  0  0  0  0  0  0  0  0  0
   17.6671   -5.2877   15.1186 C   0  0  2  0  0  0  0  0  0  0  0  0
   17.6080   -5.8438   13.7629 N   0  0  0  0  0  0  0  0  0  0  0  0
   22.1602   -2.2437   14.2960 C   0  0  2  0  0  0  0  0  0  0  0  0
   23.2934   -2.6454   15.0233 O   0  0  0  0  0  0  0  0  0  0  0  0
   26.9005   -3.3221   14.1378 C   0  0  1  0  0  0  0  0  0  0  0  0
   26.8739   -2.6062   12.8986 O   0  0  0  0  0  0  0  0  0  0  0  0
   29.2062   -4.2829   18.8786 C   0  0  1  0  0  0  0  0  0  0  0  0
   28.9078   -4.7386   20.2028 O   0  0  0  0  0  0  0  0  0  0  0  0
   15.2768   -2.5065   11.5996 C   0  0  2  0  0  0  0  0  0  0  0  0
   13.8635   -2.4938   11.5074 O   0  0  0  0  0  0  0  0  0  0  0  0
   18.3752   -3.9080   15.1061 C   0  0  2  0  0  0  0  0  0  0  0  0
   22.0137   -0.7450   14.6306 C   0  0  2  0  0  0  0  0  0  0  0  0
   21.2457   -0.7830   15.8230 O   0  0  0  0  0  0  0  0  0  0  0  0
   27.6215   -2.3650   15.1738 C   0  0  2  0  0  0  0  0  0  0  0  0
   27.6605   -3.1224   16.3843 O   0  0  0  0  0  0  0  0  0  0  0  0
   30.6082   -4.7516   18.4851 C   0  0  2  0  0  0  0  0  0  0  0  0
   31.5399   -3.9452   19.2242 O   0  0  0  0  0  0  0  0  0  0  0  0
   15.8019   -3.8651   12.1262 C   0  0  2  0  0  0  0  0  0  0  0  0
   17.2563   -3.8192   12.0670 O   0  0  0  0  0  0  0  0  0  0  0  0
   18.5777   -3.2802   16.5224 C   0  0  2  0  0  0  0  0  0  0  0  0
   19.3143   -2.0317   16.4001 O   0  0  0  0  0  0  0  0  0  0  0  0
   21.2951    0.1172   13.5934 C   0  0  0  0  0  0  0  0  0  0  0  0
   21.2257    1.4526   14.1145 O   0  0  0  0  0  0  0  0  0  0  0  0
   26.6467   -1.2323   15.4328 C   0  0  1  0  0  0  0  0  0  0  0  0
   25.2030   -1.2351   15.4418 O   0  0  0  0  0  0  0  0  0  0  0  0
   30.8068   -4.7137   16.9740 C   0  0  2  0  0  0  0  0  0  0  0  0
   29.7158   -4.9524   16.0714 O   0  0  0  0  0  0  0  0  0  0  0  0
   15.3942   -5.0190   11.2749 C   0  0  0  0  0  0  0  0  0  0  0  0
   13.9920   -5.1172   11.3407 O   0  0  0  0  0  0  0  0  0  0  0  0
   19.2706   -4.2985   17.4895 C   0  0  1  0  0  0  0  0  0  0  0  0
   19.2437   -3.7148   18.8191 O   0  0  0  0  0  0  0  0  0  0  0  0
   27.1529   -0.0779   16.3514 C   0  0  0  0  0  0  0  0  0  0  0  0
   26.7966   -0.2614   17.7741 N   0  0  0  0  0  0  0  0  0  0  0  0
   32.1069   -5.1367   16.2938 C   0  0  0  0  0  0  0  0  0  0  0  0
   32.3418   -6.5532   16.5107 O   0  0  0  0  0  0  0  0  0  0  0  0
  1  2  1  1  0  0  0
  1  8  1  0  0  0  0
  1 36  1  0  0  0  0
  3  4  1  1  0  0  0
  3 10  1  0  0  0  0
  3 47  1  0  0  0  0
  5 11  1  0  0  0  0
  5 30  1  0  0  0  0
  5 38  1  6  0  0  0
  6 21  1  1  0  0  0
  6 42  1  0  0  0  0
  7 15  1  0  0  0  0
  7 44  1  0  0  0  0
  7 32  1  1  0  0  0
  8  9  1  1  0  0  0
  8 17  1  0  0  0  0
 11 12  1  1  0  0  0
 11 20  1  0  0  0  0
 13  6  1  0  0  0  0
 13 14  1  1  0  0  0
 15 16  1  6  0  0  0
 15 24  1  0  0  0  0
 17 26  1  0  0  0  0
 18 10  1  0  0  0  0
 18 19  1  6  0  0  0
 20 21  1  1  0  0  0
 20 29  1  0  0  0  0
 22 13  1  0  0  0  0
 22 23  1  6  0  0  0
 24 25  1  1  0  0  0
 24 33  1  0  0  0  0
 26 27  1  1  0  0  0
 26 35  1  0  0  0  0
 28  2  1  6  0  0  0
 28 18  1  0  0  0  0
 29 30  1  0  0  0  0
 29 39  1  6  0  0  0
 31 22  1  0  0  0  0
 31 32  1  1  0  0  0
 31 41  1  0  0  0  0
 33 34  1  1  0  0  0
 33 43  1  0  0  0  0
 35 36  1  0  0  0  0
 35 45  1  6  0  0  0
 37 28  1  0  0  0  0
 37 38  1  6  0  0  0
 39 40  1  0  0  0  0
 41 42  1  0  0  0  0
 41 49  1  1  0  0  0
 43 44  1  0  0  0  0
 43 51  1  1  0  0  0
 45 46  1  0  0  0  0
 47 37  1  0  0  0  0
 47 48  1  1  0  0  0
 49 50  1  0  0  0  0
 51 52  1  0  0  0  0
M  END
>  <CHROM.1>
-150.20944707,53.67008069,-130.91483020,178.01177780,170.95777366,-99.16137397
178.02946237,56.33445360,-64.46778844,-72.84213540,-93.49490998,64.63838616
22.67623247,-3.30869601,15.36083062,-2.92701333,0.20355123,2.53641027

>  <Name>
2esj_lig

>  <RI>
2.18877e+07

>  <Rbt.Current_Directory>
/home/itssahil/PROJECTS/Mol_Feturizer/New_Systems/rnas/2esj

>  <Rbt.Executable>
rbdock ($Id: //depot/dev/client3/rdock/2013.1/src/exe/rbdock.cxx#4 $)

>  <Rbt.Library>
libRbt.so (2013.1, Build901 2013/11/27)

>  <Rbt.Parameter_File>
/export/apps/rDock/src/rDock_2013.1_src/data/scripts/dock_solv.prm

>  <Rbt.Receptor>
prm/pocket_docking_7.prm

>  <SCORE>
-4.20908

>  <SCORE.INTER>
-4.26186

>  <SCORE.INTER.CONST>
1

>  <SCORE.INTER.POLAR>
-0.562007

>  <SCORE.INTER.ROT>
12

>  <SCORE.INTER.SOLV>
11.5116

>  <SCORE.INTER.VDW>
-16.4051

>  <SCORE.INTER.norm>
-0.0819588

>  <SCORE.INTRA>
0.00748027

>  <SCORE.INTRA.DIHEDRAL>
-10.7219

>  <SCORE.INTRA.DIHEDRAL.0>
32.9766

>  <SCORE.INTRA.POLAR>
0

>  <SCORE.INTRA.POLAR.0>
0

>  <SCORE.INTRA.REPUL>
0

>  <SCORE.INTRA.REPUL.0>
0

>  <SCORE.INTRA.SOLV>
3.28594

>  <SCORE.INTRA.SOLV.lig_0>
-114.358

>  <SCORE.INTRA.VDW>
3.72546

>  <SCORE.INTRA.VDW.0>
-8.24257

>  <SCORE.INTRA.norm>
0.000143851

>  <SCORE.RESTR>
0.0453011

>  <SCORE.RESTR.CAVITY>
0.0453011

>  <SCORE.RESTR.norm>
0.000871176

>  <SCORE.SYSTEM>
0

>  <SCORE.SYSTEM.CONST>
0

>  <SCORE.SYSTEM.DIHEDRAL>
0

>  <SCORE.SYSTEM.SOLV>
0

>  <SCORE.SYSTEM.norm>
0

>  <SCORE.heavy>
52

>  <SCORE.norm>
-0.0809438

>  <RMSD>
5.785

$$$$
2esj_lig
 OpenBabel11021811423D
libRbt.so/2013.1/901 2013/11/27
 52 56  0  0  0  0  0  0  0  0999 V2000
   19.9530   -7.4978   12.7655 C   0  0  2  0  0  0  0  0  0  0  0  0
   20.6841   -7.0682   13.9299 O   0  0  0  0  0  0  0  0  0  0  0  0
   18.3118   -8.9106   16.9738 C   0  0  2  0  0  0  0  0  0  0  0  0
   17.8046   -9.4692   18.2379 N   0  0  0  0  0  0  0  0  0  0  0  0
   20.4217   -4.8725   16.5512 C   0  0  1  0  0  0  0  0  0  0  0  0
   23.4272   -2.4189   18.3012 C   0  0  1  0  0  0  0  0  0  0  0  0
   26.9948   -0.0255   15.3423 C   0  0  1  0  0  0  0  0  0  0  0  0
   20.7220   -6.9831   11.5130 C   0  0  2  0  0  0  0  0  0  0  0  0
   22.1097   -7.4446   11.4873 N   0  0  0  0  0  0  0  0  0  0  0  0
   19.6841   -9.5908   16.5844 C   0  0  0  0  0  0  0  0  0  0  0  0
   20.4229   -3.3460   16.6423 C   0  0  2  0  0  0  0  0  0  0  0  0
   21.0582   -2.7269   15.5028 O   0  0  0  0  0  0  0  0  0  0  0  0
   23.5049   -1.2485   17.2217 C   0  0  2  0  0  0  0  0  0  0  0  0
   23.7439   -1.7932   15.8590 N   0  0  0  0  0  0  0  0  0  0  0  0
   25.6882    0.7102   15.0678 C   0  0  1  0  0  0  0  0  0  0  0  0
   25.9748    2.0940   14.7826 O   0  0  0  0  0  0  0  0  0  0  0  0
   20.6804   -5.4238   11.4354 C   0  0  0  0  0  0  0  0  0  0  0  0
   20.1830   -9.0213   15.1958 C   0  0  2  0  0  0  0  0  0  0  0  0
   21.4637   -9.6274   14.8173 N   0  0  0  0  0  0  0  0  0  0  0  0
   21.1547   -3.1494   17.9384 C   0  0  2  0  0  0  0  0  0  0  0  0
   22.5343   -3.3474   17.7596 O   0  0  0  0  0  0  0  0  0  0  0  0
   24.5654   -0.1655   17.7089 C   0  0  1  0  0  0  0  0  0  0  0  0
   24.2505    0.2194   19.0511 O   0  0  0  0  0  0  0  0  0  0  0  0
   24.8578    0.1548   13.9170 C   0  0  1  0  0  0  0  0  0  0  0  0
   23.8105    1.0962   13.6578 O   0  0  0  0  0  0  0  0  0  0  0  0
   19.1955   -4.9569   11.4879 C   0  0  2  0  0  0  0  0  0  0  0  0
   19.0796   -3.5527   11.3439 O   0  0  0  0  0  0  0  0  0  0  0  0
   20.3141   -7.4773   15.2598 C   0  0  2  0  0  0  0  0  0  0  0  0
   20.7246   -4.3186   18.8482 C   0  0  2  0  0  0  0  0  0  0  0  0
   20.4636   -5.3456   17.9046 O   0  0  0  0  0  0  0  0  0  0  0  0
   26.0275   -0.7724   17.7657 C   0  0  2  0  0  0  0  0  0  0  0  0
   26.3203   -1.1124   16.4096 O   0  0  0  0  0  0  0  0  0  0  0  0
   25.6589   -0.0780   12.6348 C   0  0  2  0  0  0  0  0  0  0  0  0
   24.8366   -0.8773   11.7690 O   0  0  0  0  0  0  0  0  0  0  0  0
   18.5771   -5.4466   12.8208 C   0  0  2  0  0  0  0  0  0  0  0  0
   18.6354   -6.9018   12.8160 O   0  0  0  0  0  0  0  0  0  0  0  0
   19.0252   -6.7461   15.7549 C   0  0  2  0  0  0  0  0  0  0  0  0
   19.2824   -5.3173   15.8488 O   0  0  0  0  0  0  0  0  0  0  0  0
   19.4803   -4.0918   19.7060 C   0  0  0  0  0  0  0  0  0  0  0  0
   19.8212   -3.1319   20.7170 O   0  0  0  0  0  0  0  0  0  0  0  0
   25.8948   -2.0939   18.4978 C   0  0  1  0  0  0  0  0  0  0  0  0
   24.7971   -3.0314   18.5279 O   0  0  0  0  0  0  0  0  0  0  0  0
   27.0275   -0.6805   12.9321 C   0  0  2  0  0  0  0  0  0  0  0  0
   27.7318   -0.3714   14.1447 O   0  0  0  0  0  0  0  0  0  0  0  0
   17.1349   -5.0957   12.9598 C   0  0  0  0  0  0  0  0  0  0  0  0
   17.0585   -3.7101   13.1934 O   0  0  0  0  0  0  0  0  0  0  0  0
   18.5203   -7.3592   17.1045 C   0  0  1  0  0  0  0  0  0  0  0  0
   17.2273   -6.7627   17.3903 O   0  0  0  0  0  0  0  0  0  0  0  0
   27.2205   -2.8630   18.7870 C   0  0  0  0  0  0  0  0  0  0  0  0
   27.5332   -2.9719   20.2276 N   0  0  0  0  0  0  0  0  0  0  0  0
   28.0467   -1.0103   11.8439 C   0  0  0  0  0  0  0  0  0  0  0  0
   27.5829   -2.1382   11.0557 O   0  0  0  0  0  0  0  0  0  0  0  0
  1  2  1  1  0  0  0
  1  8  1  0  0  0  0
  1 36  1  0  0  0  0
  3  4  1  1  0  0  0
  3 10  1  0  0  0  0
  3 47  1  0  0  0  0
  5 11  1  0  0  0  0
  5 30  1  0  0  0  0
  5 38  1  1  0  0  0
  6 21  1  6  0  0  0
  6 42  1  0  0  0  0
  7 15  1  0  0  0  0
  7 44  1  0  0  0  0
  7 32  1  6  0  0  0
  8  9  1  1  0  0  0
  8 17  1  0  0  0  0
 11 12  1  6  0  0  0
 11 20  1  0  0  0  0
 13  6  1  0  0  0  0
 13 14  1  6  0  0  0
 15 16  1  6  0  0  0
 15 24  1  0  0  0  0
 17 26  1  0  0  0  0
 18 10  1  0  0  0  0
 18 19  1  1  0  0  0
 20 21  1  6  0  0  0
 20 29  1  0  0  0  0
 22 13  1  0  0  0  0
 22 23  1  1  0  0  0
 24 25  1  6  0  0  0
 24 33  1  0  0  0  0
 26 27  1  1  0  0  0
 26 35  1  0  0  0  0
 28  2  1  6  0  0  0
 28 18  1  0  0  0  0
 29 30  1  0  0  0  0
 29 39  1  6  0  0  0
 31 22  1  0  0  0  0
 31 32  1  6  0  0  0
 31 41  1  0  0  0  0
 33 34  1  6  0  0  0
 33 43  1  0  0  0  0
 35 36  1  0  0  0  0
 35 45  1  6  0  0  0
 37 28  1  0  0  0  0
 37 38  1  1  0  0  0
 39 40  1  0  0  0  0
 41 42  1  0  0  0  0
 41 49  1  6  0  0  0
 43 44  1  0  0  0  0
 43 51  1  6  0  0  0
 45 46  1  0  0  0  0
 47 37  1  0  0  0  0
 47 48  1  6  0  0  0
 49 50  1  0  0  0  0
 51 52  1  0  0  0  0
M  END
>  <CHROM.1>
-174.30326399,-174.44462405,-83.64092434,-78.74748493,133.43801477,50.90832564
-70.00133504,87.80967556,-72.47076015,-50.63024798,114.40508947,-69.81321024
22.25670862,-3.76585171,15.48896219,-3.10859484,0.74045375,1.55330614

>  <Name>
2esj_lig

>  <RI>
0

>  <Rbt.Current_Directory>
/home/itssahil/PROJECTS/Mol_Feturizer/New_Systems/rnas/2esj

>  <Rbt.Executable>
rbdock ($Id: //depot/dev/client3/rdock/2013.1/src/exe/rbdock.cxx#4 $)

>  <Rbt.Library>
libRbt.so (2013.1, Build901 2013/11/27)

>  <Rbt.Parameter_File>
/export/apps/rDock/src/rDock_2013.1_src/data/scripts/dock_solv.prm

>  <Rbt.Receptor>
prm/pocket_docking_4.prm

>  <SCORE>
-12.427

>  <SCORE.INTER>
-8.17747

>  <SCORE.INTER.CONST>
1

>  <SCORE.INTER.POLAR>
-1.26369

>  <SCORE.INTER.ROT>
12

>  <SCORE.INTER.SOLV>
10.8678

>  <SCORE.INTER.VDW>
-16.462

>  <SCORE.INTER.norm>
-0.157259

>  <SCORE.INTRA>
-4.26599

>  <SCORE.INTRA.DIHEDRAL>
-12.5683

>  <SCORE.INTRA.DIHEDRAL.0>
32.9766

>  <SCORE.INTRA.POLAR>
0

>  <SCORE.INTRA.POLAR.0>
0

>  <SCORE.INTRA.REPUL>
0

>  <SCORE.INTRA.REPUL.0>
0

>  <SCORE.INTRA.SOLV>
-0.250373

>  <SCORE.INTRA.SOLV.lig_0>
-114.358

>  <SCORE.INTRA.VDW>
2.14335

>  <SCORE.INTRA.VDW.0>
-8.24257

>  <SCORE.INTRA.norm>
-0.0820384

>  <SCORE.RESTR>
0.0164283

>  <SCORE.RESTR.CAVITY>
0.0164283

>  <SCORE.RESTR.norm>
0.000315929

>  <SCORE.SYSTEM>
0

>  <SCORE.SYSTEM.CONST>
0

>  <SCORE.SYSTEM.DIHEDRAL>
0

>  <SCORE.SYSTEM.SOLV>
0

>  <SCORE.SYSTEM.norm>
0

>  <SCORE.heavy>
52

>  <SCORE.norm>
-0.238981

>  <RMSD>
5.800

$$$$
2esj_lig
 OpenBabel11021811423D
libRbt.so/2013.1/901 2013/11/27
 52 56  0  0  0  0  0  0  0  0999 V2000
   20.9168   -6.5009   16.6154 C   0  0  2  0  0  0  0  0  0  0  0  0
   20.5366   -6.7071   15.2415 O   0  0  0  0  0  0  0  0  0  0  0  0
   19.3933   -3.8704   12.2525 C   0  0  2  0  0  0  0  0  0  0  0  0
   18.6499   -2.9528   11.3734 N   0  0  0  0  0  0  0  0  0  0  0  0
   21.2194   -3.2836   16.6591 C   0  0  1  0  0  0  0  0  0  0  0  0
   24.1994   -1.4964   18.9409 C   0  0  1  0  0  0  0  0  0  0  0  0
   28.9669   -1.2047   16.6381 C   0  0  1  0  0  0  0  0  0  0  0  0
   22.0231   -7.5422   16.9569 C   0  0  2  0  0  0  0  0  0  0  0  0
   23.1694   -7.4483   16.0534 N   0  0  0  0  0  0  0  0  0  0  0  0
   18.7784   -5.3241   12.1745 C   0  0  0  0  0  0  0  0  0  0  0  0
   20.7901   -2.4532   17.8693 C   0  0  2  0  0  0  0  0  0  0  0  0
   20.4053   -1.1094   17.5064 O   0  0  0  0  0  0  0  0  0  0  0  0
   25.0147   -0.3832   18.1424 C   0  0  2  0  0  0  0  0  0  0  0  0
   25.0884   -0.7107   16.6939 N   0  0  0  0  0  0  0  0  0  0  0  0
   28.7396    0.2908   16.8264 C   0  0  1  0  0  0  0  0  0  0  0  0
   30.0142    0.9491   16.9695 O   0  0  0  0  0  0  0  0  0  0  0  0
   21.4479   -8.9940   16.9344 C   0  0  0  0  0  0  0  0  0  0  0  0
   19.6255   -6.3074   13.0785 C   0  0  2  0  0  0  0  0  0  0  0  0
   19.0667   -7.6626   13.0344 N   0  0  0  0  0  0  0  0  0  0  0  0
   22.0311   -2.5331   18.7105 C   0  0  2  0  0  0  0  0  0  0  0  0
   23.0219   -1.6720   18.2092 O   0  0  0  0  0  0  0  0  0  0  0  0
   26.4214   -0.1623   18.8547 C   0  0  1  0  0  0  0  0  0  0  0  0
   26.2015    0.0794   20.2482 O   0  0  0  0  0  0  0  0  0  0  0  0
   27.9776    0.9803   15.7012 C   0  0  1  0  0  0  0  0  0  0  0  0
   28.0679    2.3907   15.9309 O   0  0  0  0  0  0  0  0  0  0  0  0
   20.2161   -9.0620   17.8850 C   0  0  2  0  0  0  0  0  0  0  0  0
   19.6899  -10.3741   17.9722 O   0  0  0  0  0  0  0  0  0  0  0  0
   19.6753   -5.7910   14.5400 C   0  0  2  0  0  0  0  0  0  0  0  0
   22.6097   -3.9439   18.4772 C   0  0  2  0  0  0  0  0  0  0  0  0
   22.1895   -4.2190   17.1503 O   0  0  0  0  0  0  0  0  0  0  0  0
   27.3191   -1.4652   18.7789 C   0  0  2  0  0  0  0  0  0  0  0  0
   27.5458   -1.6556   17.3815 O   0  0  0  0  0  0  0  0  0  0  0  0
   28.5145    0.6586   14.3054 C   0  0  2  0  0  0  0  0  0  0  0  0
   27.5273    1.1113   13.3646 O   0  0  0  0  0  0  0  0  0  0  0  0
   19.1541   -8.0539   17.3801 C   0  0  2  0  0  0  0  0  0  0  0  0
   19.7520   -6.7275   17.4437 O   0  0  0  0  0  0  0  0  0  0  0  0
   20.1624   -4.3131   14.6798 C   0  0  2  0  0  0  0  0  0  0  0  0
   20.0983   -3.9100   16.0762 O   0  0  0  0  0  0  0  0  0  0  0  0
   22.1069   -5.0484   19.4062 C   0  0  0  0  0  0  0  0  0  0  0  0
   20.6733   -5.0495   19.3402 O   0  0  0  0  0  0  0  0  0  0  0  0
   26.4188   -2.6088   19.2054 C   0  0  1  0  0  0  0  0  0  0  0  0
   24.9966   -2.7847   19.0296 O   0  0  0  0  0  0  0  0  0  0  0  0
   28.8782   -0.8160   14.1722 C   0  0  2  0  0  0  0  0  0  0  0  0
   29.3640   -1.5692   15.2940 O   0  0  0  0  0  0  0  0  0  0  0  0
   17.9425   -7.9982   18.2468 C   0  0  0  0  0  0  0  0  0  0  0  0
   17.0302   -7.1149   17.6404 O   0  0  0  0  0  0  0  0  0  0  0  0
   19.3444   -3.3654   13.7391 C   0  0  1  0  0  0  0  0  0  0  0  0
   19.9821   -2.0613   13.7833 O   0  0  0  0  0  0  0  0  0  0  0  0
   27.0883   -4.0128   19.3210 C   0  0  0  0  0  0  0  0  0  0  0  0
   27.1076   -4.7601   18.0460 N   0  0  0  0  0  0  0  0  0  0  0  0
   29.4489   -1.4208   12.8916 C   0  0  0  0  0  0  0  0  0  0  0  0
   29.2922   -2.8644   12.9125 O   0  0  0  0  0  0  0  0  0  0  0  0
  1  2  1  6  0  0  0
  1  8  1  0  0  0  0
  1 36  1  0  0  0  0
  3  4  1  6  0  0  0
  3 10  1  0  0  0  0
  3 47  1  0  0  0  0
  5 11  1  0  0  0  0
  5 30  1  0  0  0  0
  5 38  1  1  0  0  0
  6 21  1  6  0  0  0
  6 42  1  0  0  0  0
  7 15  1  0  0  0  0
  7 44  1  0  0  0  0
  7 32  1  6  0  0  0
  8  9  1  6  0  0  0
  8 17  1  0  0  0  0
 11 12  1  6  0  0  0
 11 20  1  0  0  0  0
 13  6  1  0  0  0  0
 13 14  1  6  0  0  0
 15 16  1  6  0  0  0
 15 24  1  0  0  0  0
 17 26  1  0  0  0  0
 18 10  1  0  0  0  0
 18 19  1  1  0  0  0
 20 21  1  6  0  0  0
 20 29  1  0  0  0  0
 22 13  1  0  0  0  0
 22 23  1  1  0  0  0
 24 25  1  1  0  0  0
 24 33  1  0  0  0  0
 26 27  1  6  0  0  0
 26 35  1  0  0  0  0
 28  2  1  1  0  0  0
 28 18  1  0  0  0  0
 29 30  1  0  0  0  0
 29 39  1  1  0  0  0
 31 22  1  0  0  0  0
 31 32  1  6  0  0  0
 31 41  1  0  0  0  0
 33 34  1  6  0  0  0
 33 43  1  0  0  0  0
 35 36  1  0  0  0  0
 35 45  1  1  0  0  0
 37 28  1  0  0  0  0
 37 38  1  1  0  0  0
 39 40  1  0  0  0  0
 41 42  1  0  0  0  0
 41 49  1  6  0  0  0
 43 44  1  0  0  0  0
 43 51  1  6  0  0  0
 45 46  1  0  0  0  0
 47 37  1  0  0  0  0
 47 48  1  6  0  0  0
 49 50  1  0  0  0  0
 51 52  1  0  0  0  0
M  END
>  <CHROM.1>
-170.77425447,156.90708638,-175.49487056,-67.65311578,173.11415761,175.08024763
54.04269132,100.56987104,-176.49765430,131.19477888,-86.82598704,-161.77726667
23.39487362,-3.49992606,16.47458321,-2.94333863,-0.60326209,-1.18939556

>  <Name>
2esj_lig

>  <RI>
0

>  <Rbt.Current_Directory>
/home/itssahil/PROJECTS/Mol_Feturizer/New_Systems/rnas/2esj

>  <Rbt.Executable>
rbdock ($Id: //depot/dev/client3/rdock/2013.1/src/exe/rbdock.cxx#4 $)

>  <Rbt.Library>
libRbt.so (2013.1, Build901 2013/11/27)

>  <Rbt.Parameter_File>
/export/apps/rDock/src/rDock_2013.1_src/data/scripts/dock_solv.prm

>  <Rbt.Receptor>
prm/pocket_docking_4.prm

>  <SCORE>
-0.218189

>  <SCORE.INTER>
4.06013

>  <SCORE.INTER.CONST>
1

>  <SCORE.INTER.POLAR>
-1.33845

>  <SCORE.INTER.ROT>
12

>  <SCORE.INTER.SOLV>
7.14193

>  <SCORE.INTER.VDW>
-6.8124

>  <SCORE.INTER.norm>
0.0780795

>  <SCORE.INTRA>
-4.27832

>  <SCORE.INTRA.DIHEDRAL>
-12.0295

>  <SCORE.INTRA.DIHEDRAL.0>
32.9766

>  <SCORE.INTRA.POLAR>
0

>  <SCORE.INTRA.POLAR.0>
0

>  <SCORE.INTRA.REPUL>
0

>  <SCORE.INTRA.REPUL.0>
0

>  <SCORE.INTRA.SOLV>
-0.388677

>  <SCORE.INTRA.SOLV.lig_0>
-114.358

>  <SCORE.INTRA.VDW>
1.93077

>  <SCORE.INTRA.VDW.0>
-8.24257

>  <SCORE.INTRA.norm>
-0.0822754

>  <SCORE.RESTR>
0

>  <SCORE.RESTR.CAVITY>
0

>  <SCORE.RESTR.norm>
0

>  <SCORE.SYSTEM>
0

>  <SCORE.SYSTEM.CONST>
0

>  <SCORE.SYSTEM.DIHEDRAL>
0

>  <SCORE.SYSTEM.SOLV>
0

>  <SCORE.SYSTEM.norm>
0

>  <SCORE.heavy>
52

>  <SCORE.norm>
-0.00419595

>  <RMSD>
5.831

$$$$
2esj_lig
 OpenBabel11021811423D
libRbt.so/2013.1/901 2013/11/27
 52 56  0  0  0  0  0  0  0  0999 V2000
   19.5941   -6.8176   12.8814 C   0  0  2  0  0  0  0  0  0  0  0  0
   20.3124   -6.3635   14.0444 O   0  0  0  0  0  0  0  0  0  0  0  0
   17.8440   -8.0096   17.1242 C   0  0  2  0  0  0  0  0  0  0  0  0
   17.3154   -8.5369   18.3930 N   0  0  0  0  0  0  0  0  0  0  0  0
   20.4136   -4.2111   16.5764 C   0  0  1  0  0  0  0  0  0  0  0  0
   23.8570   -2.7407   18.4143 C   0  0  1  0  0  0  0  0  0  0  0  0
   27.3522   -6.2053   18.8074 C   0  0  1  0  0  0  0  0  0  0  0  0
   20.2762   -6.1848   11.6327 C   0  0  2  0  0  0  0  0  0  0  0  0
   21.7003   -6.5094   11.5560 N   0  0  0  0  0  0  0  0  0  0  0  0
   19.1282   -8.8195   16.6856 C   0  0  0  0  0  0  0  0  0  0  0  0
   20.6019   -2.6959   16.6620 C   0  0  2  0  0  0  0  0  0  0  0  0
   21.1510   -2.1399   15.4477 O   0  0  0  0  0  0  0  0  0  0  0  0
   25.1507   -3.3733   17.7307 C   0  0  2  0  0  0  0  0  0  0  0  0
   24.8752   -4.7478   17.2348 N   0  0  0  0  0  0  0  0  0  0  0  0
   28.2126   -6.2977   20.0622 C   0  0  1  0  0  0  0  0  0  0  0  0
   29.0464   -7.4710   19.9794 O   0  0  0  0  0  0  0  0  0  0  0  0
   20.0843   -4.6350   11.6182 C   0  0  0  0  0  0  0  0  0  0  0  0
   19.6464   -8.2782   15.2927 C   0  0  2  0  0  0  0  0  0  0  0  0
   20.8475   -9.0052   14.8689 N   0  0  0  0  0  0  0  0  0  0  0  0
   21.5134   -2.6000   17.8512 C   0  0  2  0  0  0  0  0  0  0  0  0
   22.8261   -2.9521   17.4948 O   0  0  0  0  0  0  0  0  0  0  0  0
   26.3779   -3.2550   18.7382 C   0  0  1  0  0  0  0  0  0  0  0  0
   26.4844   -1.8978   19.1802 O   0  0  0  0  0  0  0  0  0  0  0  0
   29.1144   -5.0972   20.3233 C   0  0  1  0  0  0  0  0  0  0  0  0
   30.0030   -5.4584   21.3863 O   0  0  0  0  0  0  0  0  0  0  0  0
   18.5636   -4.3154   11.7241 C   0  0  2  0  0  0  0  0  0  0  0  0
   18.3106   -2.9244   11.6389 O   0  0  0  0  0  0  0  0  0  0  0  0
   19.9373   -6.7573   15.3776 C   0  0  2  0  0  0  0  0  0  0  0  0
   21.0734   -3.7232   18.8127 C   0  0  2  0  0  0  0  0  0  0  0  0
   20.5761   -4.7022   17.9142 O   0  0  0  0  0  0  0  0  0  0  0  0
   26.1384   -4.1172   20.0453 C   0  0  2  0  0  0  0  0  0  0  0  0
   26.0715   -5.4631   19.5718 O   0  0  0  0  0  0  0  0  0  0  0  0
   29.9313   -4.6633   19.1050 C   0  0  2  0  0  0  0  0  0  0  0  0
   30.4726   -3.3669   19.4064 O   0  0  0  0  0  0  0  0  0  0  0  0
   18.0312   -4.9118   13.0507 C   0  0  2  0  0  0  0  0  0  0  0  0
   18.2276   -6.3534   12.9866 O   0  0  0  0  0  0  0  0  0  0  0  0
   18.7441   -5.9073   15.9203 C   0  0  2  0  0  0  0  0  0  0  0  0
   19.1494   -4.5144   16.0296 O   0  0  0  0  0  0  0  0  0  0  0  0
   19.9852   -3.3660   19.8246 C   0  0  0  0  0  0  0  0  0  0  0  0
   19.8109   -4.4979   20.6896 O   0  0  0  0  0  0  0  0  0  0  0  0
   24.7348   -3.7778   20.5088 C   0  0  1  0  0  0  0  0  0  0  0  0
   23.5663   -3.4174   19.7412 O   0  0  0  0  0  0  0  0  0  0  0  0
   29.1008   -4.7147   17.8275 C   0  0  2  0  0  0  0  0  0  0  0  0
   28.0574   -5.6858   17.6540 O   0  0  0  0  0  0  0  0  0  0  0  0
   16.5664   -4.7066   13.2375 C   0  0  0  0  0  0  0  0  0  0  0  0
   15.9160   -5.2724   12.1253 O   0  0  0  0  0  0  0  0  0  0  0  0
   18.2144   -6.4905   17.2737 C   0  0  1  0  0  0  0  0  0  0  0  0
   16.9976   -5.7701   17.6051 O   0  0  0  0  0  0  0  0  0  0  0  0
   24.2743   -4.4194   21.8539 C   0  0  0  0  0  0  0  0  0  0  0  0
   23.9396   -5.8542   21.7350 N   0  0  0  0  0  0  0  0  0  0  0  0
   29.6595   -4.3453   16.4552 C   0  0  0  0  0  0  0  0  0  0  0  0
   30.0177   -2.9383   16.4282 O   0  0  0  0  0  0  0  0  0  0  0  0
  1  2  1  1  0  0  0
  1  8  1  0  0  0  0
  1 36  1  0  0  0  0
  3  4  1  1  0  0  0
  3 10  1  0  0  0  0
  3 47  1  0  0  0  0
  5 11  1  0  0  0  0
  5 30  1  0  0  0  0
  5 38  1  1  0  0  0
  6 21  1  6  0  0  0
  6 42  1  0  0  0  0
  7 15  1  0  0  0  0
  7 44  1  0  0  0  0
  7 32  1  1  0  0  0
  8  9  1  1  0  0  0
  8 17  1  0  0  0  0
 11 12  1  6  0  0  0
 11 20  1  0  0  0  0
 13  6  1  0  0  0  0
 13 14  1  1  0  0  0
 15 16  1  6  0  0  0
 15 24  1  0  0  0  0
 17 26  1  0  0  0  0
 18 10  1  0  0  0  0
 18 19  1  1  0  0  0
 20 21  1  6  0  0  0
 20 29  1  0  0  0  0
 22 13  1  0  0  0  0
 22 23  1  1  0  0  0
 24 25  1  1  0  0  0
 24 33  1  0  0  0  0
 26 27  1  1  0  0  0
 26 35  1  0  0  0  0
 28  2  1  6  0  0  0
 28 18  1  0  0  0  0
 29 30  1  0  0  0  0
 29 39  1  1  0  0  0
 31 22  1  0  0  0  0
 31 32  1  6  0  0  0
 31 41  1  0  0  0  0
 33 34  1  1  0  0  0
 33 43  1  0  0  0  0
 35 36  1  0  0  0  0
 35 45  1  6  0  0  0
 37 28  1  0  0  0  0
 37 38  1  1  0  0  0
 39 40  1  0  0  0  0
 41 42  1  0  0  0  0
 41 49  1  6  0  0  0
 43 44  1  0  0  0  0
 43 51  1  6  0  0  0
 45 46  1  0  0  0  0
 47 37  1  0  0  0  0
 47 48  1  6  0  0  0
 49 50  1  0  0  0  0
 51 52  1  0  0  0  0
M  END
>  <CHROM.1>
179.64950263,-177.11454921,174.86743018,70.07095918,170.85306130,43.87561921
-174.93968863,61.97602526,56.78429200,-43.80351348,-75.29354574,-64.61589833
22.70789681,-5.00029628,17.01786349,-2.66122174,0.12948357,1.59792668

>  <Name>
2esj_lig

>  <RI>
0

>  <Rbt.Current_Directory>
/home/itssahil/PROJECTS/Mol_Feturizer/New_Systems/rnas/2esj

>  <Rbt.Executable>
rbdock ($Id: //depot/dev/client3/rdock/2013.1/src/exe/rbdock.cxx#4 $)

>  <Rbt.Library>
libRbt.so (2013.1, Build901 2013/11/27)

>  <Rbt.Parameter_File>
/export/apps/rDock/src/rDock_2013.1_src/data/scripts/dock_solv.prm

>  <Rbt.Receptor>
prm/pocket_docking_6.prm

>  <SCORE>
-16.3083

>  <SCORE.INTER>
-6.37106

>  <SCORE.INTER.CONST>
1

>  <SCORE.INTER.POLAR>
-1.34501

>  <SCORE.INTER.ROT>
12

>  <SCORE.INTER.SOLV>
7.38845

>  <SCORE.INTER.VDW>
-13.8268

>  <SCORE.INTER.norm>
-0.12252

>  <SCORE.INTRA>
-9.93729

>  <SCORE.INTRA.DIHEDRAL>
-24.2045

>  <SCORE.INTRA.DIHEDRAL.0>
32.9766

>  <SCORE.INTRA.POLAR>
0

>  <SCORE.INTRA.POLAR.0>
0

>  <SCORE.INTRA.REPUL>
0

>  <SCORE.INTRA.REPUL.0>
0

>  <SCORE.INTRA.SOLV>
-0.959659

>  <SCORE.INTRA.SOLV.lig_0>
-114.358

>  <SCORE.INTRA.VDW>
2.64482

>  <SCORE.INTRA.VDW.0>
-8.24257

>  <SCORE.INTRA.norm>
-0.191102

>  <SCORE.RESTR>
0

>  <SCORE.RESTR.CAVITY>
0

>  <SCORE.RESTR.norm>
0

>  <SCORE.SYSTEM>
0

>  <SCORE.SYSTEM.CONST>
0

>  <SCORE.SYSTEM.DIHEDRAL>
0

>  <SCORE.SYSTEM.SOLV>
0

>  <SCORE.SYSTEM.norm>
0

>  <SCORE.heavy>
52

>  <SCORE.norm>
-0.313622

>  <RMSD>
5.861

$$$$
2esj_lig
 OpenBabel11021811423D
libRbt.so/2013.1/901 2013/11/27
 52 56  0  0  0  0  0  0  0  0999 V2000
   18.9210  -11.6204   17.6309 C   0  0  2  0  0  0  0  0  0  0  0  0
   19.8335  -11.5973   18.7452 O   0  0  0  0  0  0  0  0  0  0  0  0
   22.4718   -8.8307   20.6619 C   0  0  2  0  0  0  0  0  0  0  0  0
   23.5521   -7.8817   20.9773 N   0  0  0  0  0  0  0  0  0  0  0  0
   19.9621   -8.6031   16.8888 C   0  0  1  0  0  0  0  0  0  0  0  0
   20.4522   -8.1835   12.6793 C   0  0  1  0  0  0  0  0  0  0  0  0
   24.1057   -5.1701   11.2717 C   0  0  1  0  0  0  0  0  0  0  0  0
   17.4751  -11.6241   18.2091 C   0  0  2  0  0  0  0  0  0  0  0  0
   17.2294  -10.4845   19.0923 N   0  0  0  0  0  0  0  0  0  0  0  0
   23.0745  -10.1940   20.1369 C   0  0  0  0  0  0  0  0  0  0  0  0
   18.8072   -8.4994   15.8918 C   0  0  2  0  0  0  0  0  0  0  0  0
   18.3441   -9.7936   15.4492 O   0  0  0  0  0  0  0  0  0  0  0  0
   22.0233   -8.0621   12.4385 C   0  0  2  0  0  0  0  0  0  0  0  0
   22.6492   -7.1576   13.4391 N   0  0  0  0  0  0  0  0  0  0  0  0
   24.2149   -4.0983   12.3501 C   0  0  1  0  0  0  0  0  0  0  0  0
   25.4973   -4.2088   12.9995 O   0  0  0  0  0  0  0  0  0  0  0  0
   17.1823  -12.9566   18.9691 C   0  0  0  0  0  0  0  0  0  0  0  0
   21.9031  -11.2200   19.8600 C   0  0  2  0  0  0  0  0  0  0  0  0
   22.4355  -12.4910   19.3581 N   0  0  0  0  0  0  0  0  0  0  0  0
   19.4484   -7.6727   14.8149 C   0  0  2  0  0  0  0  0  0  0  0  0
   20.3189   -8.4602   14.0425 O   0  0  0  0  0  0  0  0  0  0  0  0
   22.2843   -7.6669   10.9183 C   0  0  1  0  0  0  0  0  0  0  0  0
   21.5745   -8.5795   10.0746 O   0  0  0  0  0  0  0  0  0  0  0  0
   24.0575   -2.6637   11.8605 C   0  0  1  0  0  0  0  0  0  0  0  0
   24.4215   -1.8036   12.9458 O   0  0  0  0  0  0  0  0  0  0  0  0
   17.4734  -14.1537   18.0162 C   0  0  2  0  0  0  0  0  0  0  0  0
   17.1543  -15.3955   18.6181 O   0  0  0  0  0  0  0  0  0  0  0  0
   20.8885  -10.6231   18.8504 C   0  0  2  0  0  0  0  0  0  0  0  0
   20.3841   -6.6846   15.5413 C   0  0  2  0  0  0  0  0  0  0  0  0
   20.7539   -7.4229   16.6951 O   0  0  0  0  0  0  0  0  0  0  0  0
   21.7036   -6.2310   10.5861 C   0  0  2  0  0  0  0  0  0  0  0  0
   22.4556   -5.3461   11.4178 O   0  0  0  0  0  0  0  0  0  0  0  0
   24.9173   -2.3311   10.6397 C   0  0  2  0  0  0  0  0  0  0  0  0
   24.4352   -1.0819   10.1184 O   0  0  0  0  0  0  0  0  0  0  0  0
   18.9623  -14.0903   17.5941 C   0  0  2  0  0  0  0  0  0  0  0  0
   19.1567  -12.8354   16.8811 O   0  0  0  0  0  0  0  0  0  0  0  0
   20.3413   -9.2153   19.2502 C   0  0  2  0  0  0  0  0  0  0  0  0
   19.4621   -8.7198   18.2024 O   0  0  0  0  0  0  0  0  0  0  0  0
   19.7684   -5.3527   15.9689 C   0  0  0  0  0  0  0  0  0  0  0  0
   19.3437   -4.6712   14.7795 O   0  0  0  0  0  0  0  0  0  0  0  0
   20.2945   -6.2189   11.1469 C   0  0  1  0  0  0  0  0  0  0  0  0
   19.7504   -6.8918   12.3026 O   0  0  0  0  0  0  0  0  0  0  0  0
   24.9199   -3.4731    9.6296 C   0  0  2  0  0  0  0  0  0  0  0  0
   24.8104   -4.8417   10.0499 O   0  0  0  0  0  0  0  0  0  0  0  0
   19.3449  -15.1677   16.6374 C   0  0  0  0  0  0  0  0  0  0  0  0
   18.6702  -14.9173   15.4282 O   0  0  0  0  0  0  0  0  0  0  0  0
   21.5165   -8.2306   19.5689 C   0  0  1  0  0  0  0  0  0  0  0  0
   20.9271   -7.0204   20.1143 O   0  0  0  0  0  0  0  0  0  0  0  0
   19.4462   -4.9409   10.8638 C   0  0  0  0  0  0  0  0  0  0  0  0
   17.9989   -5.2135   10.7383 N   0  0  0  0  0  0  0  0  0  0  0  0
   25.7018   -3.4240    8.3189 C   0  0  0  0  0  0  0  0  0  0  0  0
   27.1276   -3.3987    8.5929 O   0  0  0  0  0  0  0  0  0  0  0  0
  1  2  1  1  0  0  0
  1  8  1  0  0  0  0
  1 36  1  0  0  0  0
  3  4  1  6  0  0  0
  3 10  1  0  0  0  0
  3 47  1  0  0  0  0
  5 11  1  0  0  0  0
  5 30  1  0  0  0  0
  5 38  1  1  0  0  0
  6 21  1  1  0  0  0
  6 42  1  0  0  0  0
  7 15  1  0  0  0  0
  7 44  1  0  0  0  0
  7 32  1  6  0  0  0
  8  9  1  1  0  0  0
  8 17  1  0  0  0  0
 11 12  1  6  0  0  0
 11 20  1  0  0  0  0
 13  6  1  0  0  0  0
 13 14  1  1  0  0  0
 15 16  1  6  0  0  0
 15 24  1  0  0  0  0
 17 26  1  0  0  0  0
 18 10  1  0  0  0  0
 18 19  1  6  0  0  0
 20 21  1  6  0  0  0
 20 29  1  0  0  0  0
 22 13  1  0  0  0  0
 22 23  1  6  0  0  0
 24 25  1  1  0  0  0
 24 33  1  0  0  0  0
 26 27  1  1  0  0  0
 26 35  1  0  0  0  0
 28  2  1  1  0  0  0
 28 18  1  0  0  0  0
 29 30  1  0  0  0  0
 29 39  1  1  0  0  0
 31 22  1  0  0  0  0
 31 32  1  1  0  0  0
 31 41  1  0  0  0  0
 33 34  1  6  0  0  0
 33 43  1  0  0  0  0
 35 36  1  0  0  0  0
 35 45  1  6  0  0  0
 37 28  1  0  0  0  0
 37 38  1  6  0  0  0
 39 40  1  0  0  0  0
 41 42  1  0  0  0  0
 41 49  1  1  0  0  0
 43 44  1  0  0  0  0
 43 51  1  1  0  0  0
 45 46  1  0  0  0  0
 47 37  1  0  0  0  0
 47 48  1  1  0  0  0
 49 50  1  0  0  0  0
 51 52  1  0  0  0  0
M  END
>  <CHROM.1>
-127.77955105,162.23886065,128.52499434,177.61649729,146.05879725,-160.63798566
-62.07310389,62.25210966,67.42050461,-56.91728053,148.42123508,65.82341089
21.16026427,-8.00645689,14.93165309,2.21657226,0.89093241,1.84762529

>  <Name>
2esj_lig

>  <RI>
0

>  <Rbt.Current_Directory>
/home/itssahil/PROJECTS/Mol_Feturizer/New_Systems/rnas/2esj

>  <Rbt.Executable>
rbdock ($Id: //depot/dev/client3/rdock/2013.1/src/exe/rbdock.cxx#4 $)

>  <Rbt.Library>
libRbt.so (2013.1, Build901 2013/11/27)

>  <Rbt.Parameter_File>
/export/apps/rDock/src/rDock_2013.1_src/data/scripts/dock_solv.prm

>  <Rbt.Receptor>
prm/pocket_docking_6.prm

>  <SCORE>
-13.2207

>  <SCORE.INTER>
-12.3255

>  <SCORE.INTER.CONST>
1

>  <SCORE.INTER.POLAR>
-0.870427

>  <SCORE.INTER.ROT>
12

>  <SCORE.INTER.SOLV>
17.1918

>  <SCORE.INTER.VDW>
-22.6461

>  <SCORE.INTER.norm>
-0.237028

>  <SCORE.INTRA>
-0.932175

>  <SCORE.INTRA.DIHEDRAL>
-6.263

>  <SCORE.INTRA.DIHEDRAL.0>
32.9766

>  <SCORE.INTRA.POLAR>
0

>  <SCORE.INTRA.POLAR.0>
0

>  <SCORE.INTRA.REPUL>
0

>  <SCORE.INTRA.REPUL.0>
0

>  <SCORE.INTRA.SOLV>
1.19614

>  <SCORE.INTRA.SOLV.lig_0>
-114.358

>  <SCORE.INTRA.VDW>
1.60126

>  <SCORE.INTRA.VDW.0>
-8.24257

>  <SCORE.INTRA.norm>
-0.0179264

>  <SCORE.RESTR>
0.0368948

>  <SCORE.RESTR.CAVITY>
0.0368948

>  <SCORE.RESTR.norm>
0.000709515

>  <SCORE.SYSTEM>
0

>  <SCORE.SYSTEM.CONST>
0

>  <SCORE.SYSTEM.DIHEDRAL>
0

>  <SCORE.SYSTEM.SOLV>
0

>  <SCORE.SYSTEM.norm>
0

>  <SCORE.heavy>
52

>  <SCORE.norm>
-0.254245

>  <RMSD>
5.883

$$$$
2esj_lig
 OpenBabel11021811423D
libRbt.so/2013.1/901 2013/11/27
 52 56  0  0  0  0  0  0  0  0999 V2000
   19.7757   -5.8795   13.2365 C   0  0  2  0  0  0  0  0  0  0  0  0
   19.2266   -7.0996   13.7701 O   0  0  0  0  0  0  0  0  0  0  0  0
   18.3768   -9.1922   17.4014 C   0  0  2  0  0  0  0  0  0  0  0  0
   18.4019   -9.7309   18.7713 N   0  0  0  0  0  0  0  0  0  0  0  0
   18.9931   -4.7967   16.3422 C   0  0  1  0  0  0  0  0  0  0  0  0
   21.7380   -2.0517   17.8505 C   0  0  1  0  0  0  0  0  0  0  0  0
   26.4556   -3.7556   17.2938 C   0  0  1  0  0  0  0  0  0  0  0  0
   19.1428   -5.6559   11.8314 C   0  0  2  0  0  0  0  0  0  0  0  0
   17.6815   -5.6206   11.8820 N   0  0  0  0  0  0  0  0  0  0  0  0
   19.7407   -9.5006   16.6651 C   0  0  0  0  0  0  0  0  0  0  0  0
   18.5027   -3.3812   16.6498 C   0  0  2  0  0  0  0  0  0  0  0  0
   18.4734   -2.5414   15.4754 O   0  0  0  0  0  0  0  0  0  0  0  0
   22.6849   -1.3096   16.8047 C   0  0  2  0  0  0  0  0  0  0  0  0
   23.0466   -2.2103   15.6783 N   0  0  0  0  0  0  0  0  0  0  0  0
   27.5610   -2.8333   17.7950 C   0  0  1  0  0  0  0  0  0  0  0  0
   28.4133   -3.5637   18.6997 O   0  0  0  0  0  0  0  0  0  0  0  0
   19.6120   -6.7562   10.8273 C   0  0  0  0  0  0  0  0  0  0  0  0
   19.6727   -8.9672   15.1777 C   0  0  2  0  0  0  0  0  0  0  0  0
   20.9331   -9.2292   14.4753 N   0  0  0  0  0  0  0  0  0  0  0  0
   19.5079   -2.9615   17.6829 C   0  0  2  0  0  0  0  0  0  0  0  0
   20.7301   -2.6296   17.0742 O   0  0  0  0  0  0  0  0  0  0  0  0
   23.9210   -0.6775   17.5842 C   0  0  1  0  0  0  0  0  0  0  0  0
   23.4277    0.1089   18.6737 O   0  0  0  0  0  0  0  0  0  0  0  0
   28.4401   -2.2218   16.7108 C   0  0  1  0  0  0  0  0  0  0  0  0
   29.5458   -1.5921   17.3674 O   0  0  0  0  0  0  0  0  0  0  0  0
   21.1690   -6.7897   10.8091 C   0  0  2  0  0  0  0  0  0  0  0  0
   21.6648   -7.7159    9.8590 O   0  0  0  0  0  0  0  0  0  0  0  0
   19.3502   -7.4504   15.1611 C   0  0  2  0  0  0  0  0  0  0  0  0
   19.8297   -4.2301   18.4995 C   0  0  2  0  0  0  0  0  0  0  0  0
   19.6390   -5.2557   17.5378 O   0  0  0  0  0  0  0  0  0  0  0  0
   24.8277   -1.7999   18.2379 C   0  0  2  0  0  0  0  0  0  0  0  0
   25.3280   -2.5411   17.1240 O   0  0  0  0  0  0  0  0  0  0  0  0
   28.9654   -3.2390   15.6963 C   0  0  2  0  0  0  0  0  0  0  0  0
   29.4962   -2.4896   14.5912 O   0  0  0  0  0  0  0  0  0  0  0  0
   21.6666   -7.1175   12.2387 C   0  0  2  0  0  0  0  0  0  0  0  0
   21.2078   -6.0467   13.1127 O   0  0  0  0  0  0  0  0  0  0  0  0
   18.0751   -7.0587   15.9744 C   0  0  2  0  0  0  0  0  0  0  0  0
   17.9106   -5.6133   15.9545 O   0  0  0  0  0  0  0  0  0  0  0  0
   18.9411   -4.5027   19.7126 C   0  0  0  0  0  0  0  0  0  0  0  0
   19.5168   -5.6033   20.4316 O   0  0  0  0  0  0  0  0  0  0  0  0
   23.8713   -2.7347   18.9532 C   0  0  1  0  0  0  0  0  0  0  0  0
   22.5136   -3.1007   18.6259 O   0  0  0  0  0  0  0  0  0  0  0  0
   27.8913   -4.2499   15.3104 C   0  0  2  0  0  0  0  0  0  0  0  0
   26.8812   -4.6592   16.2452 O   0  0  0  0  0  0  0  0  0  0  0  0
   23.1531   -7.1290   12.3520 C   0  0  0  0  0  0  0  0  0  0  0  0
   23.6189   -5.8736   11.9193 O   0  0  0  0  0  0  0  0  0  0  0  0
   18.1404   -7.6395   17.4272 C   0  0  1  0  0  0  0  0  0  0  0  0
   16.8477   -7.4001   18.0442 O   0  0  0  0  0  0  0  0  0  0  0  0
   24.5175   -3.8886   19.7801 C   0  0  0  0  0  0  0  0  0  0  0  0
   23.8400   -5.1898   19.6000 N   0  0  0  0  0  0  0  0  0  0  0  0
   28.1353   -5.3885   14.3226 C   0  0  0  0  0  0  0  0  0  0  0  0
   28.5880   -4.8532   13.0509 O   0  0  0  0  0  0  0  0  0  0  0  0
  1  2  1  6  0  0  0
  1  8  1  0  0  0  0
  1 36  1  0  0  0  0
  3  4  1  1  0  0  0
  3 10  1  0  0  0  0
  3 47  1  0  0  0  0
  5 11  1  0  0  0  0
  5 30  1  0  0  0  0
  5 38  1  1  0  0  0
  6 21  1  6  0  0  0
  6 42  1  0  0  0  0
  7 15  1  0  0  0  0
  7 44  1  0  0  0  0
  7 32  1  6  0  0  0
  8  9  1  1  0  0  0
  8 17  1  0  0  0  0
 11 12  1  6  0  0  0
 11 20  1  0  0  0  0
 13  6  1  0  0  0  0
 13 14  1  6  0  0  0
 15 16  1  1  0  0  0
 15 24  1  0  0  0  0
 17 26  1  0  0  0  0
 18 10  1  0  0  0  0
 18 19  1  1  0  0  0
 20 21  1  6  0  0  0
 20 29  1  0  0  0  0
 22 13  1  0  0  0  0
 22 23  1  1  0  0  0
 24 25  1  1  0  0  0
 24 33  1  0  0  0  0
 26 27  1  6  0  0  0
 26 35  1  0  0  0  0
 28  2  1  6  0  0  0
 28 18  1  0  0  0  0
 29 30  1  0  0  0  0
 29 39  1  1  0  0  0
 31 22  1  0  0  0  0
 31 32  1  6  0  0  0
 31 41  1  0  0  0  0
 33 34  1  6  0  0  0
 33 43  1  0  0  0  0
 35 36  1  0  0  0  0
 35 45  1  6  0  0  0
 37 28  1  0  0  0  0
 37 38  1  1  0  0  0
 39 40  1  0  0  0  0
 41 42  1  0  0  0  0
 41 49  1  6  0  0  0
 43 44  1  0  0  0  0
 43 51  1  1  0  0  0
 45 46  1  0  0  0  0
 47 37  1  0  0  0  0
 47 48  1  6  0  0  0
 49 50  1  0  0  0  0
 51 52  1  0  0  0  0
M  END
>  <CHROM.1>
-165.37555122,-163.17672491,-158.46717752,-64.59481424,171.88539443,-138.50744931
-171.97376670,174.16765862,56.54617279,-52.64675703,-136.63934481,-57.03790878
22.33688076,-4.86051015,16.00069556,-2.79133002,0.33031530,1.07778134

>  <Name>
2esj_lig

>  <RI>
1.62275e+07

>  <Rbt.Current_Directory>
/home/itssahil/PROJECTS/Mol_Feturizer/New_Systems/rnas/2esj

>  <Rbt.Executable>
rbdock ($Id: //depot/dev/client3/rdock/2013.1/src/exe/rbdock.cxx#4 $)

>  <Rbt.Library>
libRbt.so (2013.1, Build901 2013/11/27)

>  <Rbt.Parameter_File>
/export/apps/rDock/src/rDock_2013.1_src/data/scripts/dock_solv.prm

>  <Rbt.Receptor>
prm/pocket_docking_5.prm

>  <SCORE>
-20.2534

>  <SCORE.INTER>
-14.1854

>  <SCORE.INTER.CONST>
1

>  <SCORE.INTER.POLAR>
-0.99784

>  <SCORE.INTER.ROT>
12

>  <SCORE.INTER.SOLV>
13.8126

>  <SCORE.INTER.VDW>
-22.335

>  <SCORE.INTER.norm>
-0.272796

>  <SCORE.INTRA>
-6.06797

>  <SCORE.INTRA.DIHEDRAL>
-16.7739

>  <SCORE.INTRA.DIHEDRAL.0>
32.9766

>  <SCORE.INTRA.POLAR>
0

>  <SCORE.INTRA.POLAR.0>
0

>  <SCORE.INTRA.REPUL>
0

>  <SCORE.INTRA.REPUL.0>
0

>  <SCORE.INTRA.SOLV>
-0.840602

>  <SCORE.INTRA.SOLV.lig_0>
-114.358

>  <SCORE.INTRA.VDW>
2.73928

>  <SCORE.INTRA.VDW.0>
-8.24257

>  <SCORE.INTRA.norm>
-0.116692

>  <SCORE.RESTR>
0

>  <SCORE.RESTR.CAVITY>
0

>  <SCORE.RESTR.norm>
0

>  <SCORE.SYSTEM>
0

>  <SCORE.SYSTEM.CONST>
0

>  <SCORE.SYSTEM.DIHEDRAL>
0

>  <SCORE.SYSTEM.SOLV>
0

>  <SCORE.SYSTEM.norm>
0

>  <SCORE.heavy>
52

>  <SCORE.norm>
-0.389488

>  <RMSD>
5.901

$$$$
2esj_lig
 OpenBabel11021811423D
libRbt.so/2013.1/901 2013/11/27
 52 56  0  0  0  0  0  0  0  0999 V2000
   19.1473   -5.1126   17.2104 C   0  0  2  0  0  0  0  0  0  0  0  0
   18.3423   -4.9998   16.0212 O   0  0  0  0  0  0  0  0  0  0  0  0
   18.0305   -1.8735   13.1200 C   0  0  2  0  0  0  0  0  0  0  0  0
   17.6719   -0.6549   12.3759 N   0  0  0  0  0  0  0  0  0  0  0  0
   21.1439   -2.0150   16.5258 C   0  0  1  0  0  0  0  0  0  0  0  0
   25.0358   -0.6388   17.2983 C   0  0  1  0  0  0  0  0  0  0  0  0
   27.7308    0.2643   13.2876 C   0  0  1  0  0  0  0  0  0  0  0  0
   19.8178   -6.5180   17.1909 C   0  0  2  0  0  0  0  0  0  0  0  0
   20.6030   -6.7397   15.9771 N   0  0  0  0  0  0  0  0  0  0  0  0
   16.7352   -2.7170   13.4490 C   0  0  0  0  0  0  0  0  0  0  0  0
   21.4714   -1.3865   17.8809 C   0  0  2  0  0  0  0  0  0  0  0  0
   21.1188    0.0127   17.9385 O   0  0  0  0  0  0  0  0  0  0  0  0
   25.4773    0.4661   16.2375 C   0  0  2  0  0  0  0  0  0  0  0  0
   24.9139    0.1717   14.8932 N   0  0  0  0  0  0  0  0  0  0  0  0
   29.2383    0.0431   13.3314 C   0  0  1  0  0  0  0  0  0  0  0  0
   29.7914    0.2903   12.0232 O   0  0  0  0  0  0  0  0  0  0  0  0
   18.7498   -7.6470   17.3451 C   0  0  0  0  0  0  0  0  0  0  0  0
   17.1457   -4.0497   14.1954 C   0  0  2  0  0  0  0  0  0  0  0  0
   15.9587   -4.8456   14.5247 N   0  0  0  0  0  0  0  0  0  0  0  0
   22.9467   -1.6541   17.9576 C   0  0  2  0  0  0  0  0  0  0  0  0
   23.6528   -0.7579   17.1374 O   0  0  0  0  0  0  0  0  0  0  0  0
   27.0610    0.6233   16.2835 C   0  0  1  0  0  0  0  0  0  0  0  0
   27.4654    0.8380   17.6396 O   0  0  0  0  0  0  0  0  0  0  0  0
   29.9944    0.9078   14.3330 C   0  0  1  0  0  0  0  0  0  0  0  0
   31.3914    0.7385   14.0687 O   0  0  0  0  0  0  0  0  0  0  0  0
   17.9129   -7.3758   18.6303 C   0  0  2  0  0  0  0  0  0  0  0  0
   16.9727   -8.4068   18.8739 O   0  0  0  0  0  0  0  0  0  0  0  0
   17.9512   -3.7242   15.4800 C   0  0  2  0  0  0  0  0  0  0  0  0
   23.1630   -3.0254   17.2850 C   0  0  2  0  0  0  0  0  0  0  0  0
   22.1119   -3.0555   16.3325 O   0  0  0  0  0  0  0  0  0  0  0  0
   27.7879   -0.7062   15.8216 C   0  0  2  0  0  0  0  0  0  0  0  0
   27.3901   -0.8697   14.4595 O   0  0  0  0  0  0  0  0  0  0  0  0
   29.6402    2.3939   14.2554 C   0  0  2  0  0  0  0  0  0  0  0  0
   30.1770    3.0124   15.4361 O   0  0  0  0  0  0  0  0  0  0  0  0
   17.2220   -5.9976   18.4806 C   0  0  2  0  0  0  0  0  0  0  0  0
   18.2736   -4.9975   18.3581 O   0  0  0  0  0  0  0  0  0  0  0  0
   19.1821   -2.7913   15.2439 C   0  0  2  0  0  0  0  0  0  0  0  0
   19.8164   -2.4913   16.5183 O   0  0  0  0  0  0  0  0  0  0  0  0
   23.0601   -4.2520   18.1909 C   0  0  0  0  0  0  0  0  0  0  0  0
   24.0462   -4.1105   19.2239 O   0  0  0  0  0  0  0  0  0  0  0  0
   27.1099   -1.8296   16.5821 C   0  0  1  0  0  0  0  0  0  0  0  0
   25.7425   -1.9544   17.0283 O   0  0  0  0  0  0  0  0  0  0  0  0
   28.1422    2.6026   14.0638 C   0  0  2  0  0  0  0  0  0  0  0  0
   27.3447    1.6594   13.3315 O   0  0  0  0  0  0  0  0  0  0  0  0
   16.4262   -5.6094   19.6799 C   0  0  0  0  0  0  0  0  0  0  0  0
   17.3266   -5.4461   20.7489 O   0  0  0  0  0  0  0  0  0  0  0  0
   18.7623   -1.5026   14.4595 C   0  0  1  0  0  0  0  0  0  0  0  0
   19.9819   -0.7935   14.1143 O   0  0  0  0  0  0  0  0  0  0  0  0
   27.7081   -3.2572   16.3898 C   0  0  0  0  0  0  0  0  0  0  0  0
   27.4535   -3.8240   15.0487 N   0  0  0  0  0  0  0  0  0  0  0  0
   27.5023    3.9837   13.9426 C   0  0  0  0  0  0  0  0  0  0  0  0
   27.9498    4.6320   12.7227 O   0  0  0  0  0  0  0  0  0  0  0  0
  1  2  1  6  0  0  0
  1  8  1  0  0  0  0
  1 36  1  0  0  0  0
  3  4  1  1  0  0  0
  3 10  1  0  0  0  0
  3 47  1  0  0  0  0
  5 11  1  0  0  0  0
  5 30  1  0  0  0  0
  5 38  1  1  0  0  0
  6 21  1  6  0  0  0
  6 42  1  0  0  0  0
  7 15  1  0  0  0  0
  7 44  1  0  0  0  0
  7 32  1  1  0  0  0
  8  9  1  6  0  0  0
  8 17  1  0  0  0  0
 11 12  1  6  0  0  0
 11 20  1  0  0  0  0
 13  6  1  0  0  0  0
 13 14  1  6  0  0  0
 15 16  1  6  0  0  0
 15 24  1  0  0  0  0
 17 26  1  0  0  0  0
 18 10  1  0  0  0  0
 18 19  1  1  0  0  0
 20 21  1  6  0  0  0
 20 29  1  0  0  0  0
 22 13  1  0  0  0  0
 22 23  1  1  0  0  0
 24 25  1  6  0  0  0
 24 33  1  0  0  0  0
 26 27  1  6  0  0  0
 26 35  1  0  0  0  0
 28  2  1  6  0  0  0
 28 18  1  0  0  0  0
 29 30  1  0  0  0  0
 29 39  1  1  0  0  0
 31 22  1  0  0  0  0
 31 32  1  6  0  0  0
 31 41  1  0  0  0  0
 33 34  1  1  0  0  0
 33 43  1  0  0  0  0
 35 36  1  0  0  0  0
 35 45  1  1  0  0  0
 37 28  1  0  0  0  0
 37 38  1  1  0  0  0
 39 40  1  0  0  0  0
 41 42  1  0  0  0  0
 41 49  1  6  0  0  0
 43 44  1  0  0  0  0
 43 51  1  6  0  0  0
 45 46  1  0  0  0  0
 47 37  1  0  0  0  0
 47 48  1  6  0  0  0
 49 50  1  0  0  0  0
 51 52  1  0  0  0  0
M  END
>  <CHROM.1>
-158.55680734,163.49543245,-178.99794120,66.84852174,165.56552751,178.25016617
-59.02425896,60.38037882,64.83808318,161.19257621,-70.79832907,65.84561984
23.05197538,-1.99804791,15.95691490,-2.61347035,-0.22816883,-0.75970253

>  <Name>
2esj_lig

>  <RI>
2.18877e+07

>  <Rbt.Current_Directory>
/home/itssahil/PROJECTS/Mol_Feturizer/New_Systems/rnas/2esj

>  <Rbt.Executable>
rbdock ($Id: //depot/dev/client3/rdock/2013.1/src/exe/rbdock.cxx#4 $)

>  <Rbt.Library>
libRbt.so (2013.1, Build901 2013/11/27)

>  <Rbt.Parameter_File>
/export/apps/rDock/src/rDock_2013.1_src/data/scripts/dock_solv.prm

>  <Rbt.Receptor>
prm/pocket_docking_7.prm

>  <SCORE>
-13.9114

>  <SCORE.INTER>
-4.14386

>  <SCORE.INTER.CONST>
1

>  <SCORE.INTER.POLAR>
-0.979796

>  <SCORE.INTER.ROT>
12

>  <SCORE.INTER.SOLV>
13.8852

>  <SCORE.INTER.VDW>
-15.725

>  <SCORE.INTER.norm>
-0.0796897

>  <SCORE.INTRA>
-9.76752

>  <SCORE.INTRA.DIHEDRAL>
-21.5824

>  <SCORE.INTRA.DIHEDRAL.0>
32.9766

>  <SCORE.INTRA.POLAR>
0

>  <SCORE.INTRA.POLAR.0>
0

>  <SCORE.INTRA.REPUL>
0

>  <SCORE.INTRA.REPUL.0>
0

>  <SCORE.INTRA.SOLV>
-1.10699

>  <SCORE.INTRA.SOLV.lig_0>
-114.358

>  <SCORE.INTRA.VDW>
1.57718

>  <SCORE.INTRA.VDW.0>
-8.24257

>  <SCORE.INTRA.norm>
-0.187837

>  <SCORE.RESTR>
0

>  <SCORE.RESTR.CAVITY>
0

>  <SCORE.RESTR.norm>
0

>  <SCORE.SYSTEM>
0

>  <SCORE.SYSTEM.CONST>
0

>  <SCORE.SYSTEM.DIHEDRAL>
0

>  <SCORE.SYSTEM.SOLV>
0

>  <SCORE.SYSTEM.norm>
0

>  <SCORE.heavy>
52

>  <SCORE.norm>
-0.267527

>  <RMSD>
5.934

$$$$
2esj_lig
 OpenBabel11021811423D
libRbt.so/2013.1/901 2013/11/27
 52 56  0  0  0  0  0  0  0  0999 V2000
   23.5922   -8.9172   15.5396 C   0  0  2  0  0  0  0  0  0  0  0  0
   23.8814   -7.5460   15.8729 O   0  0  0  0  0  0  0  0  0  0  0  0
   21.9228   -7.3094   19.6671 C   0  0  2  0  0  0  0  0  0  0  0  0
   21.4650   -6.9115   21.0085 N   0  0  0  0  0  0  0  0  0  0  0  0
   22.4033   -4.5020   16.0650 C   0  0  1  0  0  0  0  0  0  0  0  0
   24.1506   -0.7481   15.6408 C   0  0  1  0  0  0  0  0  0  0  0  0
   29.0145   -0.4647   15.9926 C   0  0  1  0  0  0  0  0  0  0  0  0
   24.2285   -9.2054   14.1478 C   0  0  2  0  0  0  0  0  0  0  0  0
   25.6648   -8.9300   14.1283 N   0  0  0  0  0  0  0  0  0  0  0  0
   23.4949   -7.4694   19.6485 C   0  0  0  0  0  0  0  0  0  0  0  0
   21.8109   -3.5466   15.0284 C   0  0  2  0  0  0  0  0  0  0  0  0
   22.3018   -3.8071   13.6955 O   0  0  0  0  0  0  0  0  0  0  0  0
   25.5290   -0.6994   14.8414 C   0  0  2  0  0  0  0  0  0  0  0  0
   26.3265   -1.9323   15.0756 N   0  0  0  0  0  0  0  0  0  0  0  0
   29.4874   -1.7463   16.6690 C   0  0  1  0  0  0  0  0  0  0  0  0
   30.2539   -2.5237   15.7275 O   0  0  0  0  0  0  0  0  0  0  0  0
   23.5157   -8.3826   13.0281 C   0  0  0  0  0  0  0  0  0  0  0  0
   23.9616   -7.9540   18.2171 C   0  0  2  0  0  0  0  0  0  0  0  0
   25.4204   -8.0975   18.1690 N   0  0  0  0  0  0  0  0  0  0  0  0
   22.2411   -2.2251   15.5964 C   0  0  2  0  0  0  0  0  0  0  0  0
   23.6026   -1.9966   15.3346 O   0  0  0  0  0  0  0  0  0  0  0  0
   26.2786    0.6623   15.1859 C   0  0  1  0  0  0  0  0  0  0  0  0
   25.3761    1.7532   14.9758 O   0  0  0  0  0  0  0  0  0  0  0  0
   30.3378   -1.5477   17.9179 C   0  0  1  0  0  0  0  0  0  0  0  0
   30.8781   -2.8261   18.2699 O   0  0  0  0  0  0  0  0  0  0  0  0
   21.9869   -8.6749   13.0848 C   0  0  2  0  0  0  0  0  0  0  0  0
   21.2862   -8.0182   12.0437 O   0  0  0  0  0  0  0  0  0  0  0  0
   23.4802   -6.9622   17.1264 C   0  0  2  0  0  0  0  0  0  0  0  0
   22.1771   -2.3831   17.1296 C   0  0  2  0  0  0  0  0  0  0  0  0
   22.4498   -3.7656   17.2950 O   0  0  0  0  0  0  0  0  0  0  0  0
   26.6859    0.7274   16.7154 C   0  0  2  0  0  0  0  0  0  0  0  0
   27.6092   -0.3500   16.8798 O   0  0  0  0  0  0  0  0  0  0  0  0
   31.4808   -0.5479   17.7329 C   0  0  2  0  0  0  0  0  0  0  0  0
   31.9788   -0.2369   19.0443 O   0  0  0  0  0  0  0  0  0  0  0  0
   21.4613   -8.2543   14.4797 C   0  0  2  0  0  0  0  0  0  0  0  0
   22.1550   -9.0695   15.4673 O   0  0  0  0  0  0  0  0  0  0  0  0
   21.9469   -6.6649   17.1644 C   0  0  2  0  0  0  0  0  0  0  0  0
   21.6191   -5.6709   16.1539 O   0  0  0  0  0  0  0  0  0  0  0  0
   20.8421   -2.0478   17.7936 C   0  0  0  0  0  0  0  0  0  0  0  0
   19.8620   -2.9615   17.2796 O   0  0  0  0  0  0  0  0  0  0  0  0
   25.4450    0.3226   17.4877 C   0  0  1  0  0  0  0  0  0  0  0  0
   24.3896   -0.5960   17.1317 O   0  0  0  0  0  0  0  0  0  0  0  0
   31.0359    0.6671   16.9265 C   0  0  2  0  0  0  0  0  0  0  0  0
   30.0362    0.5576   15.9016 O   0  0  0  0  0  0  0  0  0  0  0  0
   20.0090   -8.5343   14.6659 C   0  0  0  0  0  0  0  0  0  0  0  0
   19.2979   -7.6318   13.8535 O   0  0  0  0  0  0  0  0  0  0  0  0
   21.4978   -6.2360   18.6019 C   0  0  1  0  0  0  0  0  0  0  0  0
   20.0469   -6.1697   18.5969 O   0  0  0  0  0  0  0  0  0  0  0  0
   25.5392    0.4017   19.0426 C   0  0  0  0  0  0  0  0  0  0  0  0
   26.4034    1.5004   19.5227 N   0  0  0  0  0  0  0  0  0  0  0  0
   31.9706    1.8232   16.5777 C   0  0  0  0  0  0  0  0  0  0  0  0
   32.3815    2.5111   17.7888 O   0  0  0  0  0  0  0  0  0  0  0  0
  1  2  1  6  0  0  0
  1  8  1  0  0  0  0
  1 36  1  0  0  0  0
  3  4  1  1  0  0  0
  3 10  1  0  0  0  0
  3 47  1  0  0  0  0
  5 11  1  0  0  0  0
  5 30  1  0  0  0  0
  5 38  1  1  0  0  0
  6 21  1  1  0  0  0
  6 42  1  0  0  0  0
  7 15  1  0  0  0  0
  7 44  1  0  0  0  0
  7 32  1  1  0  0  0
  8  9  1  1  0  0  0
  8 17  1  0  0  0  0
 11 12  1  6  0  0  0
 11 20  1  0  0  0  0
 13  6  1  0  0  0  0
 13 14  1  1  0  0  0
 15 16  1  6  0  0  0
 15 24  1  0  0  0  0
 17 26  1  0  0  0  0
 18 10  1  0  0  0  0
 18 19  1  1  0  0  0
 20 21  1  1  0  0  0
 20 29  1  0  0  0  0
 22 13  1  0  0  0  0
 22 23  1  1  0  0  0
 24 25  1  6  0  0  0
 24 33  1  0  0  0  0
 26 27  1  6  0  0  0
 26 35  1  0  0  0  0
 28  2  1  6  0  0  0
 28 18  1  0  0  0  0
 29 30  1  0  0  0  0
 29 39  1  6  0  0  0
 31 22  1  0  0  0  0
 31 32  1  6  0  0  0
 31 41  1  0  0  0  0
 33 34  1  1  0  0  0
 33 43  1  0  0  0  0
 35 36  1  0  0  0  0
 35 45  1  6  0  0  0
 37 28  1  0  0  0  0
 37 38  1  6  0  0  0
 39 40  1  0  0  0  0
 41 42  1  0  0  0  0
 41 49  1  1  0  0  0
 43 44  1  0  0  0  0
 43 51  1  6  0  0  0
 45 46  1  0  0  0  0
 47 37  1  0  0  0  0
 47 48  1  6  0  0  0
 49 50  1  0  0  0  0
 51 52  1  0  0  0  0
M  END
>  <CHROM.1>
-177.53284994,-174.93686636,-163.78710147,178.73376849,172.27554385,49.94420695
62.30949659,58.11989796,-70.57528782,-48.00830592,33.20520164,-65.04519227
24.85500956,-3.69032547,16.46795883,-2.35236929,-0.00782349,0.16459261

>  <Name>
2esj_lig

>  <RI>
0

>  <Rbt.Current_Directory>
/home/itssahil/PROJECTS/Mol_Feturizer/New_Systems/rnas/2esj

>  <Rbt.Executable>
rbdock ($Id: //depot/dev/client3/rdock/2013.1/src/exe/rbdock.cxx#4 $)

>  <Rbt.Library>
libRbt.so (2013.1, Build901 2013/11/27)

>  <Rbt.Parameter_File>
/export/apps/rDock/src/rDock_2013.1_src/data/scripts/dock_solv.prm

>  <Rbt.Receptor>
prm/pocket_docking_6.prm

>  <SCORE>
-9.53946

>  <SCORE.INTER>
0.600734

>  <SCORE.INTER.CONST>
1

>  <SCORE.INTER.POLAR>
-0.80645

>  <SCORE.INTER.ROT>
12

>  <SCORE.INTER.SOLV>
11.2982

>  <SCORE.INTER.VDW>
-12.2774

>  <SCORE.INTER.norm>
0.0115526

>  <SCORE.INTRA>
-10.1402

>  <SCORE.INTRA.DIHEDRAL>
-24.431

>  <SCORE.INTRA.DIHEDRAL.0>
32.9766

>  <SCORE.INTRA.POLAR>
0

>  <SCORE.INTRA.POLAR.0>
0

>  <SCORE.INTRA.REPUL>
0

>  <SCORE.INTRA.REPUL.0>
0

>  <SCORE.INTRA.SOLV>
-1.26397

>  <SCORE.INTRA.SOLV.lig_0>
-114.358

>  <SCORE.INTRA.VDW>
2.70729

>  <SCORE.INTRA.VDW.0>
-8.24257

>  <SCORE.INTRA.norm>
-0.195004

>  <SCORE.RESTR>
0

>  <SCORE.RESTR.CAVITY>
0

>  <SCORE.RESTR.norm>
0

>  <SCORE.SYSTEM>
0

>  <SCORE.SYSTEM.CONST>
0

>  <SCORE.SYSTEM.DIHEDRAL>
0

>  <SCORE.SYSTEM.SOLV>
0

>  <SCORE.SYSTEM.norm>
0

>  <SCORE.heavy>
52

>  <SCORE.norm>
-0.183451

>  <RMSD>
5.965

$$$$
2esj_lig
 OpenBabel11021811423D
libRbt.so/2013.1/901 2013/11/27
 52 56  0  0  0  0  0  0  0  0999 V2000
   21.5744   -9.4093   15.4344 C   0  0  2  0  0  0  0  0  0  0  0  0
   22.3430   -9.5329   16.6464 O   0  0  0  0  0  0  0  0  0  0  0  0
   22.0785   -8.0757   20.6582 C   0  0  2  0  0  0  0  0  0  0  0  0
   22.0612   -7.2372   21.8681 N   0  0  0  0  0  0  0  0  0  0  0  0
   19.8450   -6.9274   16.9240 C   0  0  1  0  0  0  0  0  0  0  0  0
   19.2742   -3.1568   15.3432 C   0  0  1  0  0  0  0  0  0  0  0  0
   23.1549   -0.4725   13.5214 C   0  0  1  0  0  0  0  0  0  0  0  0
   21.8618  -10.6699   14.5666 C   0  0  2  0  0  0  0  0  0  0  0  0
   21.5623  -11.9119   15.2787 N   0  0  0  0  0  0  0  0  0  0  0  0
   23.4508   -7.9068   19.8928 C   0  0  0  0  0  0  0  0  0  0  0  0
   18.6452   -6.7470   15.9933 C   0  0  2  0  0  0  0  0  0  0  0  0
   18.9246   -7.1807   14.6445 O   0  0  0  0  0  0  0  0  0  0  0  0
   20.0078   -2.7418   13.9901 C   0  0  2  0  0  0  0  0  0  0  0  0
   21.3359   -3.4010   13.8782 N   0  0  0  0  0  0  0  0  0  0  0  0
   24.2730   -1.4822   13.7533 C   0  0  1  0  0  0  0  0  0  0  0  0
   24.8780   -1.8178   12.4885 O   0  0  0  0  0  0  0  0  0  0  0  0
   23.3450  -10.6836   14.0777 C   0  0  0  0  0  0  0  0  0  0  0  0
   23.4742   -8.8587   18.6299 C   0  0  2  0  0  0  0  0  0  0  0  0
   24.7336   -8.7110   17.8931 N   0  0  0  0  0  0  0  0  0  0  0  0
   18.4119   -5.2702   16.1301 C   0  0  2  0  0  0  0  0  0  0  0  0
   19.3618   -4.5508   15.3855 O   0  0  0  0  0  0  0  0  0  0  0  0
   20.0338   -1.1535   13.8823 C   0  0  1  0  0  0  0  0  0  0  0  0
   18.7053   -0.6552   14.0709 O   0  0  0  0  0  0  0  0  0  0  0  0
   25.3786   -1.0240   14.6968 C   0  0  1  0  0  0  0  0  0  0  0  0
   26.4370   -1.9841   14.6067 O   0  0  0  0  0  0  0  0  0  0  0  0
   23.6453   -9.3429   13.3442 C   0  0  2  0  0  0  0  0  0  0  0  0
   24.9551   -9.3192   12.8055 O   0  0  0  0  0  0  0  0  0  0  0  0
   22.2677   -8.5578   17.7031 C   0  0  2  0  0  0  0  0  0  0  0  0
   18.7459   -4.9236   17.5957 C   0  0  2  0  0  0  0  0  0  0  0  0
   19.7361   -5.8902   17.9088 O   0  0  0  0  0  0  0  0  0  0  0  0
   20.9046   -0.5094   15.0382 C   0  0  2  0  0  0  0  0  0  0  0  0
   22.2248   -0.9996   14.7990 O   0  0  0  0  0  0  0  0  0  0  0  0
   25.9272    0.3670   14.3743 C   0  0  2  0  0  0  0  0  0  0  0  0
   26.7115    0.7784   15.5059 O   0  0  0  0  0  0  0  0  0  0  0  0
   23.4175   -8.1798   14.3413 C   0  0  2  0  0  0  0  0  0  0  0  0
   22.0173   -8.2196   14.7399 O   0  0  0  0  0  0  0  0  0  0  0  0
   20.8828   -8.5898   18.4254 C   0  0  2  0  0  0  0  0  0  0  0  0
   19.8354   -8.2212   17.4855 O   0  0  0  0  0  0  0  0  0  0  0  0
   17.5985   -5.0314   18.5994 C   0  0  0  0  0  0  0  0  0  0  0  0
   18.1283   -4.7215   19.8967 O   0  0  0  0  0  0  0  0  0  0  0  0
   20.4465   -1.1802   16.3189 C   0  0  1  0  0  0  0  0  0  0  0  0
   19.9562   -2.5201   16.5401 O   0  0  0  0  0  0  0  0  0  0  0  0
   24.8109    1.3354   13.9996 C   0  0  2  0  0  0  0  0  0  0  0  0
   23.6250    0.8836   13.3279 O   0  0  0  0  0  0  0  0  0  0  0  0
   23.6309   -6.8365   13.7310 C   0  0  0  0  0  0  0  0  0  0  0  0
   23.3543   -5.8748   14.7204 O   0  0  0  0  0  0  0  0  0  0  0  0
   20.8980   -7.6806   19.7003 C   0  0  1  0  0  0  0  0  0  0  0  0
   19.6542   -7.9175   20.4119 O   0  0  0  0  0  0  0  0  0  0  0  0
   21.0779   -0.6510   17.6434 C   0  0  0  0  0  0  0  0  0  0  0  0
   22.3645   -1.2969   17.9787 N   0  0  0  0  0  0  0  0  0  0  0  0
   25.0647    2.7923   13.6190 C   0  0  0  0  0  0  0  0  0  0  0  0
   25.9944    2.8589   12.5054 O   0  0  0  0  0  0  0  0  0  0  0  0
  1  2  1  1  0  0  0
  1  8  1  0  0  0  0
  1 36  1  0  0  0  0
  3  4  1  1  0  0  0
  3 10  1  0  0  0  0
  3 47  1  0  0  0  0
  5 11  1  0  0  0  0
  5 30  1  0  0  0  0
  5 38  1  1  0  0  0
  6 21  1  1  0  0  0
  6 42  1  0  0  0  0
  7 15  1  0  0  0  0
  7 44  1  0  0  0  0
  7 32  1  1  0  0  0
  8  9  1  1  0  0  0
  8 17  1  0  0  0  0
 11 12  1  6  0  0  0
 11 20  1  0  0  0  0
 13  6  1  0  0  0  0
 13 14  1  1  0  0  0
 15 16  1  6  0  0  0
 15 24  1  0  0  0  0
 17 26  1  0  0  0  0
 18 10  1  0  0  0  0
 18 19  1  6  0  0  0
 20 21  1  6  0  0  0
 20 29  1  0  0  0  0
 22 13  1  0  0  0  0
 22 23  1  1  0  0  0
 24 25  1  6  0  0  0
 24 33  1  0  0  0  0
 26 27  1  1  0  0  0
 26 35  1  0  0  0  0
 28  2  1  6  0  0  0
 28 18  1  0  0  0  0
 29 30  1  0  0  0  0
 29 39  1  1  0  0  0
 31 22  1  0  0  0  0
 31 32  1  6  0  0  0
 31 41  1  0  0  0  0
 33 34  1  1  0  0  0
 33 43  1  0  0  0  0
 35 36  1  0  0  0  0
 35 45  1  6  0  0  0
 37 28  1  0  0  0  0
 37 38  1  6  0  0  0
 39 40  1  0  0  0  0
 41 42  1  0  0  0  0
 41 49  1  1  0  0  0
 43 44  1  0  0  0  0
 43 51  1  6  0  0  0
 45 46  1  0  0  0  0
 47 37  1  0  0  0  0
 47 48  1  1  0  0  0
 49 50  1  0  0  0  0
 51 52  1  0  0  0  0
M  END
>  <CHROM.1>
-177.37793915,-178.79862079,-155.58062295,-173.03666386,177.38398699,-166.21860176
177.77146416,71.76593465,178.20291413,-63.25829824,-86.19282100,56.27597509
21.99199884,-4.75409851,15.89082529,-1.89208648,0.63781572,-0.13893182

>  <Name>
2esj_lig

>  <RI>
0

>  <Rbt.Current_Directory>
/home/itssahil/PROJECTS/Mol_Feturizer/New_Systems/rnas/2esj

>  <Rbt.Executable>
rbdock ($Id: //depot/dev/client3/rdock/2013.1/src/exe/rbdock.cxx#4 $)

>  <Rbt.Library>
libRbt.so (2013.1, Build901 2013/11/27)

>  <Rbt.Parameter_File>
/export/apps/rDock/src/rDock_2013.1_src/data/scripts/dock_solv.prm

>  <Rbt.Receptor>
prm/pocket_docking_6.prm

>  <SCORE>
-20.5078

>  <SCORE.INTER>
-9.58048

>  <SCORE.INTER.CONST>
1

>  <SCORE.INTER.POLAR>
-0.614716

>  <SCORE.INTER.ROT>
12

>  <SCORE.INTER.SOLV>
11.6593

>  <SCORE.INTER.VDW>
-19.8244

>  <SCORE.INTER.norm>
-0.18424

>  <SCORE.INTRA>
-10.9273

>  <SCORE.INTRA.DIHEDRAL>
-23.2378

>  <SCORE.INTRA.DIHEDRAL.0>
32.9766

>  <SCORE.INTRA.POLAR>
0

>  <SCORE.INTRA.POLAR.0>
0

>  <SCORE.INTRA.REPUL>
0.00241649

>  <SCORE.INTRA.REPUL.0>
0

>  <SCORE.INTRA.SOLV>
-1.4282

>  <SCORE.INTRA.SOLV.lig_0>
-114.358

>  <SCORE.INTRA.VDW>
1.3936

>  <SCORE.INTRA.VDW.0>
-8.24257

>  <SCORE.INTRA.norm>
-0.210141

>  <SCORE.RESTR>
0

>  <SCORE.RESTR.CAVITY>
0

>  <SCORE.RESTR.norm>
0

>  <SCORE.SYSTEM>
0

>  <SCORE.SYSTEM.CONST>
0

>  <SCORE.SYSTEM.DIHEDRAL>
0

>  <SCORE.SYSTEM.SOLV>
0

>  <SCORE.SYSTEM.norm>
0

>  <SCORE.heavy>
52

>  <SCORE.norm>
-0.394381

>  <RMSD>
5.998

$$$$
2esj_lig
 OpenBabel11021811423D
libRbt.so/2013.1/901 2013/11/27
 52 56  0  0  0  0  0  0  0  0999 V2000
   19.2767  -10.9614   16.3107 C   0  0  2  0  0  0  0  0  0  0  0  0
   19.8691  -10.1556   17.3474 O   0  0  0  0  0  0  0  0  0  0  0  0
   18.6680   -6.2727   16.0177 C   0  0  2  0  0  0  0  0  0  0  0  0
   18.3328   -4.8422   15.9250 N   0  0  0  0  0  0  0  0  0  0  0  0
   22.9544   -7.3707   16.1038 C   0  0  1  0  0  0  0  0  0  0  0  0
   26.2680   -5.3707   14.5809 C   0  0  1  0  0  0  0  0  0  0  0  0
   30.0162   -2.6268   16.3739 C   0  0  1  0  0  0  0  0  0  0  0  0
   19.2236  -12.4285   16.8303 C   0  0  2  0  0  0  0  0  0  0  0  0
   18.4952  -12.5422   18.0934 N   0  0  0  0  0  0  0  0  0  0  0  0
   17.8277   -6.9603   17.1659 C   0  0  0  0  0  0  0  0  0  0  0  0
   24.2519   -7.4170   16.9117 C   0  0  2  0  0  0  0  0  0  0  0  0
   24.2768   -6.4350   17.9702 O   0  0  0  0  0  0  0  0  0  0  0  0
   27.6262   -5.4216   15.4138 C   0  0  2  0  0  0  0  0  0  0  0  0
   27.4683   -4.7579   16.7349 N   0  0  0  0  0  0  0  0  0  0  0  0
   29.4437   -1.6627   17.4065 C   0  0  1  0  0  0  0  0  0  0  0  0
   30.0342   -1.9403   18.6921 O   0  0  0  0  0  0  0  0  0  0  0  0
   20.6621  -13.0143   16.9933 C   0  0  0  0  0  0  0  0  0  0  0  0
   18.1573   -8.5066   17.2109 C   0  0  2  0  0  0  0  0  0  0  0  0
   17.3993   -9.1669   18.2786 N   0  0  0  0  0  0  0  0  0  0  0  0
   25.2599   -7.1777   15.8250 C   0  0  2  0  0  0  0  0  0  0  0  0
   25.2862   -5.8188   15.4686 O   0  0  0  0  0  0  0  0  0  0  0  0
   28.8077   -4.8514   14.5114 C   0  0  1  0  0  0  0  0  0  0  0  0
   28.8002   -5.5346   13.2537 O   0  0  0  0  0  0  0  0  0  0  0  0
   29.6520   -0.1840   17.1024 C   0  0  1  0  0  0  0  0  0  0  0  0
   29.2701    0.5468   18.2730 O   0  0  0  0  0  0  0  0  0  0  0  0
   21.4239  -12.8605   15.6436 C   0  0  2  0  0  0  0  0  0  0  0  0
   22.7139  -13.4429   15.6976 O   0  0  0  0  0  0  0  0  0  0  0  0
   19.6789   -8.7298   17.4111 C   0  0  2  0  0  0  0  0  0  0  0  0
   24.7040   -7.8822   14.5703 C   0  0  2  0  0  0  0  0  0  0  0  0
   23.3034   -7.7919   14.7778 O   0  0  0  0  0  0  0  0  0  0  0  0
   28.5887   -3.3197   14.1720 C   0  0  2  0  0  0  0  0  0  0  0  0
   28.6359   -2.6676   15.4420 O   0  0  0  0  0  0  0  0  0  0  0  0
   31.0924    0.1719   16.7300 C   0  0  2  0  0  0  0  0  0  0  0  0
   31.0644    1.4981   16.1775 O   0  0  0  0  0  0  0  0  0  0  0  0
   21.4926  -11.3538   15.2913 C   0  0  2  0  0  0  0  0  0  0  0  0
   20.1232  -10.8820   15.1398 O   0  0  0  0  0  0  0  0  0  0  0  0
   20.5770   -7.9773   16.3777 C   0  0  2  0  0  0  0  0  0  0  0  0
   21.9784   -8.1940   16.7027 O   0  0  0  0  0  0  0  0  0  0  0  0
   25.0941   -9.3480   14.3832 C   0  0  0  0  0  0  0  0  0  0  0  0
   24.5971  -10.0757   15.5159 O   0  0  0  0  0  0  0  0  0  0  0  0
   27.1496   -3.2043   13.7076 C   0  0  1  0  0  0  0  0  0  0  0  0
   25.9838   -3.9583   14.1039 O   0  0  0  0  0  0  0  0  0  0  0  0
   31.7081   -0.8775   15.8112 C   0  0  2  0  0  0  0  0  0  0  0  0
   31.3364   -2.2613   15.9040 O   0  0  0  0  0  0  0  0  0  0  0  0
   22.1632  -11.0886   13.9865 C   0  0  0  0  0  0  0  0  0  0  0  0
   21.8667   -9.7623   13.6216 O   0  0  0  0  0  0  0  0  0  0  0  0
   20.1996   -6.4589   16.3128 C   0  0  1  0  0  0  0  0  0  0  0  0
   20.9364   -5.8800   15.2032 O   0  0  0  0  0  0  0  0  0  0  0  0
   26.6930   -1.7997   13.2060 C   0  0  0  0  0  0  0  0  0  0  0  0
   26.3369   -1.7764   11.7717 N   0  0  0  0  0  0  0  0  0  0  0  0
   33.1394   -0.7887   15.2866 C   0  0  0  0  0  0  0  0  0  0  0  0
   34.0793   -1.0240   16.3683 O   0  0  0  0  0  0  0  0  0  0  0  0
  1  2  1  1  0  0  0
  1  8  1  0  0  0  0
  1 36  1  0  0  0  0
  3  4  1  1  0  0  0
  3 10  1  0  0  0  0
  3 47  1  0  0  0  0
  5 11  1  0  0  0  0
  5 30  1  0  0  0  0
  5 38  1  1  0  0  0
  6 21  1  1  0  0  0
  6 42  1  0  0  0  0
  7 15  1  0  0  0  0
  7 44  1  0  0  0  0
  7 32  1  6  0  0  0
  8  9  1  1  0  0  0
  8 17  1  0  0  0  0
 11 12  1  1  0  0  0
 11 20  1  0  0  0  0
 13  6  1  0  0  0  0
 13 14  1  1  0  0  0
 15 16  1  1  0  0  0
 15 24  1  0  0  0  0
 17 26  1  0  0  0  0
 18 10  1  0  0  0  0
 18 19  1  1  0  0  0
 20 21  1  6  0  0  0
 20 29  1  0  0  0  0
 22 13  1  0  0  0  0
 22 23  1  6  0  0  0
 24 25  1  1  0  0  0
 24 33  1  0  0  0  0
 26 27  1  1  0  0  0
 26 35  1  0  0  0  0
 28  2  1  6  0  0  0
 28 18  1  0  0  0  0
 29 30  1  0  0  0  0
 29 39  1  1  0  0  0
 31 22  1  0  0  0  0
 31 32  1  1  0  0  0
 31 41  1  0  0  0  0
 33 34  1  6  0  0  0
 33 43  1  0  0  0  0
 35 36  1  0  0  0  0
 35 45  1  6  0  0  0
 37 28  1  0  0  0  0
 37 38  1  1  0  0  0
 39 40  1  0  0  0  0
 41 42  1  0  0  0  0
 41 49  1  1  0  0  0
 43 44  1  0  0  0  0
 43 51  1  1  0  0  0
 45 46  1  0  0  0  0
 47 37  1  0  0  0  0
 47 48  1  6  0  0  0
 49 50  1  0  0  0  0
 51 52  1  0  0  0  0
M  END
>  <CHROM.1>
-158.90787329,160.24235653,-71.25458670,172.43261330,172.77301586,46.93634617
60.53737232,65.23712002,165.31944062,-165.44041191,115.23388976,70.55940860
24.74720241,-6.18289354,15.84639892,-2.45885169,0.20576908,0.19777880

>  <Name>
2esj_lig

>  <RI>
1.62275e+07

>  <Rbt.Current_Directory>
/home/itssahil/PROJECTS/Mol_Feturizer/New_Systems/rnas/2esj

>  <Rbt.Executable>
rbdock ($Id: //depot/dev/client3/rdock/2013.1/src/exe/rbdock.cxx#4 $)

>  <Rbt.Library>
libRbt.so (2013.1, Build901 2013/11/27)

>  <Rbt.Parameter_File>
/export/apps/rDock/src/rDock_2013.1_src/data/scripts/dock_solv.prm

>  <Rbt.Receptor>
prm/pocket_docking_5.prm

>  <SCORE>
-13.1192

>  <SCORE.INTER>
-6.26138

>  <SCORE.INTER.CONST>
1

>  <SCORE.INTER.POLAR>
-0.889283

>  <SCORE.INTER.ROT>
12

>  <SCORE.INTER.SOLV>
10.5505

>  <SCORE.INTER.VDW>
-16.3268

>  <SCORE.INTER.norm>
-0.120411

>  <SCORE.INTRA>
-6.85787

>  <SCORE.INTRA.DIHEDRAL>
-19.9963

>  <SCORE.INTRA.DIHEDRAL.0>
32.9766

>  <SCORE.INTRA.POLAR>
0

>  <SCORE.INTRA.POLAR.0>
0

>  <SCORE.INTRA.REPUL>
0

>  <SCORE.INTRA.REPUL.0>
0

>  <SCORE.INTRA.SOLV>
0.314311

>  <SCORE.INTRA.SOLV.lig_0>
-114.358

>  <SCORE.INTRA.VDW>
2.98314

>  <SCORE.INTRA.VDW.0>
-8.24257

>  <SCORE.INTRA.norm>
-0.131882

>  <SCORE.RESTR>
0

>  <SCORE.RESTR.CAVITY>
0

>  <SCORE.RESTR.norm>
0

>  <SCORE.SYSTEM>
0

>  <SCORE.SYSTEM.CONST>
0

>  <SCORE.SYSTEM.DIHEDRAL>
0

>  <SCORE.SYSTEM.SOLV>
0

>  <SCORE.SYSTEM.norm>
0

>  <SCORE.heavy>
52

>  <SCORE.norm>
-0.252293

>  <RMSD>
6.013

$$$$
2esj_lig
 OpenBabel11021811423D
libRbt.so/2013.1/901 2013/11/27
 52 56  0  0  0  0  0  0  0  0999 V2000
   20.0836   -6.8006   16.7143 C   0  0  2  0  0  0  0  0  0  0  0  0
   19.4730   -6.3905   15.4758 O   0  0  0  0  0  0  0  0  0  0  0  0
   19.1923   -2.7376   13.2701 C   0  0  2  0  0  0  0  0  0  0  0  0
   18.8589   -1.3834   12.7985 N   0  0  0  0  0  0  0  0  0  0  0  0
   22.3818   -3.5890   16.4647 C   0  0  1  0  0  0  0  0  0  0  0  0
   26.3441   -2.4816   17.3102 C   0  0  1  0  0  0  0  0  0  0  0  0
   28.6139    0.3568   13.8969 C   0  0  1  0  0  0  0  0  0  0  0  0
   20.1060   -8.3575   16.7328 C   0  0  2  0  0  0  0  0  0  0  0  0
   20.7990   -8.9148   15.5717 N   0  0  0  0  0  0  0  0  0  0  0  0
   17.8757   -3.5869   13.4761 C   0  0  0  0  0  0  0  0  0  0  0  0
   22.8768   -3.5853   17.9116 C   0  0  2  0  0  0  0  0  0  0  0  0
   22.5390   -2.3650   18.6060 O   0  0  0  0  0  0  0  0  0  0  0  0
   26.6498   -0.9788   16.8752 C   0  0  2  0  0  0  0  0  0  0  0  0
   25.9182   -0.6233   15.6305 N   0  0  0  0  0  0  0  0  0  0  0  0
   27.7931    0.1804   12.6247 C   0  0  1  0  0  0  0  0  0  0  0  0
   27.2295    1.4517   12.2446 O   0  0  0  0  0  0  0  0  0  0  0  0
   18.6570   -8.9347   16.8128 C   0  0  0  0  0  0  0  0  0  0  0  0
   18.2565   -5.0549   13.9252 C   0  0  2  0  0  0  0  0  0  0  0  0
   17.0499   -5.8613   14.1366 N   0  0  0  0  0  0  0  0  0  0  0  0
   24.3494   -3.7855   17.6979 C   0  0  2  0  0  0  0  0  0  0  0  0
   24.9516   -2.5903   17.2698 O   0  0  0  0  0  0  0  0  0  0  0  0
   28.2269   -0.7696   16.8117 C   0  0  1  0  0  0  0  0  0  0  0  0
   28.8021   -1.2099   18.0462 O   0  0  0  0  0  0  0  0  0  0  0  0
   28.5578   -0.3720   11.4279 C   0  0  1  0  0  0  0  0  0  0  0  0
   27.7046   -0.2452   10.2850 O   0  0  0  0  0  0  0  0  0  0  0  0
   17.9334   -8.3092   18.0419 C   0  0  2  0  0  0  0  0  0  0  0  0
   16.6358   -8.8485   18.2198 O   0  0  0  0  0  0  0  0  0  0  0  0
   19.1159   -5.0201   15.2156 C   0  0  2  0  0  0  0  0  0  0  0  0
   24.4759   -4.7243   16.4804 C   0  0  2  0  0  0  0  0  0  0  0  0
   23.3149   -4.3967   15.7337 O   0  0  0  0  0  0  0  0  0  0  0  0
   28.8846   -1.6675   15.6845 C   0  0  2  0  0  0  0  0  0  0  0  0
   28.3153   -1.1791   14.4688 O   0  0  0  0  0  0  0  0  0  0  0  0
   29.8800    0.3474   11.1556 C   0  0  2  0  0  0  0  0  0  0  0  0
   30.6136   -0.4664   10.2260 O   0  0  0  0  0  0  0  0  0  0  0  0
   17.8914   -6.7725   17.8532 C   0  0  2  0  0  0  0  0  0  0  0  0
   19.2697   -6.3049   17.8033 O   0  0  0  0  0  0  0  0  0  0  0  0
   20.3749   -4.0998   15.1209 C   0  0  2  0  0  0  0  0  0  0  0  0
   21.0620   -4.0823   16.4031 O   0  0  0  0  0  0  0  0  0  0  0  0
   24.4817   -6.2240   16.7746 C   0  0  0  0  0  0  0  0  0  0  0  0
   24.7857   -6.9040   15.5479 O   0  0  0  0  0  0  0  0  0  0  0  0
   28.3059   -3.0561   15.8768 C   0  0  1  0  0  0  0  0  0  0  0  0
   27.0063   -3.4608   16.3584 O   0  0  0  0  0  0  0  0  0  0  0  0
   30.6278    0.6516   12.4490 C   0  0  2  0  0  0  0  0  0  0  0  0
   29.9251    0.9284   13.6702 O   0  0  0  0  0  0  0  0  0  0  0  0
   17.2591   -6.0598   18.9998 C   0  0  0  0  0  0  0  0  0  0  0  0
   15.8655   -6.1093   18.8106 O   0  0  0  0  0  0  0  0  0  0  0  0
   19.9818   -2.6669   14.6263 C   0  0  1  0  0  0  0  0  0  0  0  0
   21.2169   -1.9433   14.3807 O   0  0  0  0  0  0  0  0  0  0  0  0
   28.8700   -4.1771   14.9505 C   0  0  0  0  0  0  0  0  0  0  0  0
   28.2966   -4.1561   13.5884 N   0  0  0  0  0  0  0  0  0  0  0  0
   31.9732    1.3731   12.4834 C   0  0  0  0  0  0  0  0  0  0  0  0
   31.8487    2.6835   11.8700 O   0  0  0  0  0  0  0  0  0  0  0  0
  1  2  1  6  0  0  0
  1  8  1  0  0  0  0
  1 36  1  0  0  0  0
  3  4  1  1  0  0  0
  3 10  1  0  0  0  0
  3 47  1  0  0  0  0
  5 11  1  0  0  0  0
  5 30  1  0  0  0  0
  5 38  1  1  0  0  0
  6 21  1  6  0  0  0
  6 42  1  0  0  0  0
  7 15  1  0  0  0  0
  7 44  1  0  0  0  0
  7 32  1  6  0  0  0
  8  9  1  6  0  0  0
  8 17  1  0  0  0  0
 11 12  1  6  0  0  0
 11 20  1  0  0  0  0
 13  6  1  0  0  0  0
 13 14  1  6  0  0  0
 15 16  1  6  0  0  0
 15 24  1  0  0  0  0
 17 26  1  0  0  0  0
 18 10  1  0  0  0  0
 18 19  1  1  0  0  0
 20 21  1  6  0  0  0
 20 29  1  0  0  0  0
 22 13  1  0  0  0  0
 22 23  1  1  0  0  0
 24 25  1  6  0  0  0
 24 33  1  0  0  0  0
 26 27  1  6  0  0  0
 26 35  1  0  0  0  0
 28  2  1  6  0  0  0
 28 18  1  0  0  0  0
 29 30  1  0  0  0  0
 29 39  1  1  0  0  0
 31 22  1  0  0  0  0
 31 32  1  6  0  0  0
 31 41  1  0  0  0  0
 33 34  1  6  0  0  0
 33 43  1  0  0  0  0
 35 36  1  0  0  0  0
 35 45  1  1  0  0  0
 37 28  1  0  0  0  0
 37 38  1  1  0  0  0
 39 40  1  0  0  0  0
 41 42  1  0  0  0  0
 41 49  1  6  0  0  0
 43 44  1  0  0  0  0
 43 51  1  6  0  0  0
 45 46  1  0  0  0  0
 47 37  1  0  0  0  0
 47 48  1  6  0  0  0
 49 50  1  0  0  0  0
 51 52  1  0  0  0  0
M  END
>  <CHROM.1>
170.77215323,176.65117741,-175.49433165,177.82201772,165.48273301,-169.33659851
-172.38684987,65.76250036,-82.84945314,164.78175567,-78.90083519,58.92593014
23.90160610,-3.31387991,15.28216231,-2.60952945,-0.25679180,-0.90916021

>  <Name>
2esj_lig

>  <RI>
0

>  <Rbt.Current_Directory>
/home/itssahil/PROJECTS/Mol_Feturizer/New_Systems/rnas/2esj

>  <Rbt.Executable>
rbdock ($Id: //depot/dev/client3/rdock/2013.1/src/exe/rbdock.cxx#4 $)

>  <Rbt.Library>
libRbt.so (2013.1, Build901 2013/11/27)

>  <Rbt.Parameter_File>
/export/apps/rDock/src/rDock_2013.1_src/data/scripts/dock_solv.prm

>  <Rbt.Receptor>
prm/pocket_docking_8.prm

>  <SCORE>
-11.7701

>  <SCORE.INTER>
-0.827223

>  <SCORE.INTER.CONST>
1

>  <SCORE.INTER.POLAR>
-2.17328

>  <SCORE.INTER.ROT>
12

>  <SCORE.INTER.SOLV>
9.82346

>  <SCORE.INTER.VDW>
-8.18171

>  <SCORE.INTER.norm>
-0.0159081

>  <SCORE.INTRA>
-10.9429

>  <SCORE.INTRA.DIHEDRAL>
-22.5778

>  <SCORE.INTRA.DIHEDRAL.0>
32.9766

>  <SCORE.INTRA.POLAR>
0

>  <SCORE.INTRA.POLAR.0>
0

>  <SCORE.INTRA.REPUL>
0

>  <SCORE.INTRA.REPUL.0>
0

>  <SCORE.INTRA.SOLV>
-2.81465

>  <SCORE.INTRA.SOLV.lig_0>
-114.358

>  <SCORE.INTRA.VDW>
1.75335

>  <SCORE.INTRA.VDW.0>
-8.24257

>  <SCORE.INTRA.norm>
-0.21044

>  <SCORE.RESTR>
0

>  <SCORE.RESTR.CAVITY>
0

>  <SCORE.RESTR.norm>
0

>  <SCORE.SYSTEM>
0

>  <SCORE.SYSTEM.CONST>
0

>  <SCORE.SYSTEM.DIHEDRAL>
0

>  <SCORE.SYSTEM.SOLV>
0

>  <SCORE.SYSTEM.norm>
0

>  <SCORE.heavy>
52

>  <SCORE.norm>
-0.226348

>  <RMSD>
6.019

$$$$
2esj_lig
 OpenBabel11021811423D
libRbt.so/2013.1/901 2013/11/27
 52 56  0  0  0  0  0  0  0  0999 V2000
   19.7305   -5.7434   13.1364 C   0  0  2  0  0  0  0  0  0  0  0  0
   19.2618   -7.0060   13.6472 O   0  0  0  0  0  0  0  0  0  0  0  0
   18.4969   -9.1740   17.2532 C   0  0  2  0  0  0  0  0  0  0  0  0
   18.5451   -9.7293   18.6158 N   0  0  0  0  0  0  0  0  0  0  0  0
   18.9479   -4.7476   16.2759 C   0  0  1  0  0  0  0  0  0  0  0  0
   21.5647   -1.9439   17.9288 C   0  0  1  0  0  0  0  0  0  0  0  0
   26.1538   -1.6584   16.0850 C   0  0  1  0  0  0  0  0  0  0  0  0
   19.0742   -5.5299   11.7404 C   0  0  2  0  0  0  0  0  0  0  0  0
   17.6139   -5.5863   11.8010 N   0  0  0  0  0  0  0  0  0  0  0  0
   19.8683   -9.4252   16.5091 C   0  0  0  0  0  0  0  0  0  0  0  0
   18.3836   -3.4058   16.7446 C   0  0  2  0  0  0  0  0  0  0  0  0
   18.2429   -2.4596   15.6628 O   0  0  0  0  0  0  0  0  0  0  0  0
   22.5036   -1.1860   16.8870 C   0  0  2  0  0  0  0  0  0  0  0  0
   22.8948   -2.0840   15.7683 N   0  0  0  0  0  0  0  0  0  0  0  0
   27.3528   -1.5126   17.0149 C   0  0  1  0  0  0  0  0  0  0  0  0
   28.5661   -1.6231   16.2441 O   0  0  0  0  0  0  0  0  0  0  0  0
   19.6028   -6.5778   10.7101 C   0  0  0  0  0  0  0  0  0  0  0  0
   19.7770   -8.8751   15.0290 C   0  0  2  0  0  0  0  0  0  0  0  0
   21.0435   -9.0841   14.3197 N   0  0  0  0  0  0  0  0  0  0  0  0
   19.4095   -3.0207   17.7709 C   0  0  2  0  0  0  0  0  0  0  0  0
   20.5765   -2.5481   17.1471 O   0  0  0  0  0  0  0  0  0  0  0  0
   23.7186   -0.5225   17.6735 C   0  0  1  0  0  0  0  0  0  0  0  0
   23.1987    0.2581   18.7548 O   0  0  0  0  0  0  0  0  0  0  0  0
   27.4120   -0.2086   17.8013 C   0  0  1  0  0  0  0  0  0  0  0  0
   28.7001   -0.1475   18.4235 O   0  0  0  0  0  0  0  0  0  0  0  0
   21.1587   -6.5144   10.6813 C   0  0  2  0  0  0  0  0  0  0  0  0
   21.7035   -7.3879    9.7086 O   0  0  0  0  0  0  0  0  0  0  0  0
   19.4021   -7.3703   15.0331 C   0  0  2  0  0  0  0  0  0  0  0  0
   19.8516   -4.3377   18.4415 C   0  0  2  0  0  0  0  0  0  0  0  0
   19.6799   -5.2754   17.3907 O   0  0  0  0  0  0  0  0  0  0  0  0
   24.6446   -1.6211   18.3405 C   0  0  2  0  0  0  0  0  0  0  0  0
   25.1707   -2.3564   17.2347 O   0  0  0  0  0  0  0  0  0  0  0  0
   27.2046    1.0397   16.9418 C   0  0  2  0  0  0  0  0  0  0  0  0
   26.9753    2.1339   17.8445 O   0  0  0  0  0  0  0  0  0  0  0  0
   21.6865   -6.8406   12.1004 C   0  0  2  0  0  0  0  0  0  0  0  0
   21.1691   -5.8189   13.0000 O   0  0  0  0  0  0  0  0  0  0  0  0
   18.1167   -7.0338   15.8551 C   0  0  2  0  0  0  0  0  0  0  0  0
   17.9021   -5.5949   15.8546 O   0  0  0  0  0  0  0  0  0  0  0  0
   19.0430   -4.7874   19.6580 C   0  0  0  0  0  0  0  0  0  0  0  0
   19.3024   -3.8554   20.7181 O   0  0  0  0  0  0  0  0  0  0  0  0
   23.7033   -2.5735   19.0527 C   0  0  1  0  0  0  0  0  0  0  0  0
   22.3569   -2.9715   18.7159 O   0  0  0  0  0  0  0  0  0  0  0  0
   26.0984    0.8329   15.9131 C   0  0  2  0  0  0  0  0  0  0  0  0
   25.8479   -0.4576   15.3355 O   0  0  0  0  0  0  0  0  0  0  0  0
   23.1717   -6.7624   12.2040 C   0  0  0  0  0  0  0  0  0  0  0  0
   23.7055   -7.7756   11.3863 O   0  0  0  0  0  0  0  0  0  0  0  0
   18.2069   -7.6309   17.2999 C   0  0  1  0  0  0  0  0  0  0  0  0
   16.9086   -7.4446   17.9236 O   0  0  0  0  0  0  0  0  0  0  0  0
   24.3682   -3.7085   19.8908 C   0  0  0  0  0  0  0  0  0  0  0  0
   24.9150   -3.2407   21.1819 N   0  0  0  0  0  0  0  0  0  0  0  0
   25.6806    1.9074   14.9118 C   0  0  0  0  0  0  0  0  0  0  0  0
   26.6396    1.9705   13.8233 O   0  0  0  0  0  0  0  0  0  0  0  0
  1  2  1  6  0  0  0
  1  8  1  0  0  0  0
  1 36  1  0  0  0  0
  3  4  1  1  0  0  0
  3 10  1  0  0  0  0
  3 47  1  0  0  0  0
  5 11  1  0  0  0  0
  5 30  1  0  0  0  0
  5 38  1  1  0  0  0
  6 21  1  6  0  0  0
  6 42  1  0  0  0  0
  7 15  1  0  0  0  0
  7 44  1  0  0  0  0
  7 32  1  1  0  0  0
  8  9  1  1  0  0  0
  8 17  1  0  0  0  0
 11 12  1  6  0  0  0
 11 20  1  0  0  0  0
 13  6  1  0  0  0  0
 13 14  1  6  0  0  0
 15 16  1  6  0  0  0
 15 24  1  0  0  0  0
 17 26  1  0  0  0  0
 18 10  1  0  0  0  0
 18 19  1  1  0  0  0
 20 21  1  6  0  0  0
 20 29  1  0  0  0  0
 22 13  1  0  0  0  0
 22 23  1  1  0  0  0
 24 25  1  6  0  0  0
 24 33  1  0  0  0  0
 26 27  1  6  0  0  0
 26 35  1  0  0  0  0
 28  2  1  6  0  0  0
 28 18  1  0  0  0  0
 29 30  1  0  0  0  0
 29 39  1  1  0  0  0
 31 22  1  0  0  0  0
 31 32  1  6  0  0  0
 31 41  1  0  0  0  0
 33 34  1  1  0  0  0
 33 43  1  0  0  0  0
 35 36  1  0  0  0  0
 35 45  1  6  0  0  0
 37 28  1  0  0  0  0
 37 38  1  1  0  0  0
 39 40  1  0  0  0  0
 41 42  1  0  0  0  0
 41 49  1  6  0  0  0
 43 44  1  0  0  0  0
 43 51  1  6  0  0  0
 45 46  1  0  0  0  0
 47 37  1  0  0  0  0
 47 48  1  6  0  0  0
 49 50  1  0  0  0  0
 51 52  1  0  0  0  0
M  END
>  <CHROM.1>
-164.55740182,-156.86143661,-164.52607724,70.82135665,169.95560564,-140.43000821
-68.29057680,63.25715058,-65.13425188,-53.92154747,76.30250294,77.87088502
22.05481306,-3.94813836,16.06209058,-2.62953560,0.67567274,1.18042276

>  <Name>
2esj_lig

>  <RI>
0

>  <Rbt.Current_Directory>
/home/itssahil/PROJECTS/Mol_Feturizer/New_Systems/rnas/2esj

>  <Rbt.Executable>
rbdock ($Id: //depot/dev/client3/rdock/2013.1/src/exe/rbdock.cxx#4 $)

>  <Rbt.Library>
libRbt.so (2013.1, Build901 2013/11/27)

>  <Rbt.Parameter_File>
/export/apps/rDock/src/rDock_2013.1_src/data/scripts/dock_solv.prm

>  <Rbt.Receptor>
prm/pocket_docking_8.prm

>  <SCORE>
-21.5525

>  <SCORE.INTER>
-14.5895

>  <SCORE.INTER.CONST>
1

>  <SCORE.INTER.POLAR>
-1.0339

>  <SCORE.INTER.ROT>
12

>  <SCORE.INTER.SOLV>
15.6046

>  <SCORE.INTER.VDW>
-23.0815

>  <SCORE.INTER.norm>
-0.280566

>  <SCORE.INTRA>
-6.96305

>  <SCORE.INTRA.DIHEDRAL>
-16.1439

>  <SCORE.INTRA.DIHEDRAL.0>
32.9766

>  <SCORE.INTRA.POLAR>
0

>  <SCORE.INTRA.POLAR.0>
0

>  <SCORE.INTRA.REPUL>
0

>  <SCORE.INTRA.REPUL.0>
0

>  <SCORE.INTRA.SOLV>
-1.00118

>  <SCORE.INTRA.SOLV.lig_0>
-114.358

>  <SCORE.INTRA.VDW>
1.60947

>  <SCORE.INTRA.VDW.0>
-8.24257

>  <SCORE.INTRA.norm>
-0.133905

>  <SCORE.RESTR>
0

>  <SCORE.RESTR.CAVITY>
0

>  <SCORE.RESTR.norm>
0

>  <SCORE.SYSTEM>
0

>  <SCORE.SYSTEM.CONST>
0

>  <SCORE.SYSTEM.DIHEDRAL>
0

>  <SCORE.SYSTEM.SOLV>
0

>  <SCORE.SYSTEM.norm>
0

>  <SCORE.heavy>
52

>  <SCORE.norm>
-0.414471

>  <RMSD>
6.019

$$$$
2esj_lig
 OpenBabel11021811423D
libRbt.so/2013.1/901 2013/11/27
 52 56  0  0  0  0  0  0  0  0999 V2000
   20.0729   -8.7472   14.8625 C   0  0  2  0  0  0  0  0  0  0  0  0
   20.2586   -9.9569   15.6221 O   0  0  0  0  0  0  0  0  0  0  0  0
   19.0582  -11.4526   19.4444 C   0  0  2  0  0  0  0  0  0  0  0  0
   18.8808  -11.6906   20.8863 N   0  0  0  0  0  0  0  0  0  0  0  0
   18.8926   -7.3313   17.5722 C   0  0  1  0  0  0  0  0  0  0  0  0
   20.3538   -3.4134   18.3638 C   0  0  1  0  0  0  0  0  0  0  0  0
   23.4948   -0.9547   15.3622 C   0  0  1  0  0  0  0  0  0  0  0  0
   20.0905   -9.1337   13.3540 C   0  0  2  0  0  0  0  0  0  0  0  0
   19.0822  -10.1423   13.0294 N   0  0  0  0  0  0  0  0  0  0  0  0
   20.5883  -11.5362   19.0583 C   0  0  0  0  0  0  0  0  0  0  0  0
   18.3724   -6.0715   16.8787 C   0  0  2  0  0  0  0  0  0  0  0  0
   19.0520   -5.8089   15.6319 O   0  0  0  0  0  0  0  0  0  0  0  0
   19.7112   -2.4725   17.2488 C   0  0  2  0  0  0  0  0  0  0  0  0
   20.0317   -2.9662   15.8833 N   0  0  0  0  0  0  0  0  0  0  0  0
   23.0096   -0.5771   13.9674 C   0  0  1  0  0  0  0  0  0  0  0  0
   23.9922    0.2689   13.3371 O   0  0  0  0  0  0  0  0  0  0  0  0
   21.5042   -9.6401   12.9250 C   0  0  0  0  0  0  0  0  0  0  0  0
   20.7531  -11.3372   17.4979 C   0  0  2  0  0  0  0  0  0  0  0  0
   22.1674  -11.3969   17.1145 N   0  0  0  0  0  0  0  0  0  0  0  0
   18.6254   -5.0468   17.9464 C   0  0  2  0  0  0  0  0  0  0  0  0
   19.9889   -4.7101   17.9923 O   0  0  0  0  0  0  0  0  0  0  0  0
   20.1365   -0.9654   17.5363 C   0  0  1  0  0  0  0  0  0  0  0  0
   19.8284   -0.6494   18.8979 O   0  0  0  0  0  0  0  0  0  0  0  0
   22.7311   -1.7500   13.0352 C   0  0  1  0  0  0  0  0  0  0  0  0
   22.5217   -1.2097   11.7258 O   0  0  0  0  0  0  0  0  0  0  0  0
   22.5612   -8.5601   13.3019 C   0  0  2  0  0  0  0  0  0  0  0  0
   23.8608   -8.9219   12.8701 O   0  0  0  0  0  0  0  0  0  0  0  0
   20.1302   -9.9875   17.0559 C   0  0  2  0  0  0  0  0  0  0  0  0
   18.3724   -5.7636   19.2887 C   0  0  2  0  0  0  0  0  0  0  0  0
   18.7225   -7.1030   18.9780 O   0  0  0  0  0  0  0  0  0  0  0  0
   21.7015   -0.7682   17.3909 C   0  0  2  0  0  0  0  0  0  0  0  0
   21.9666   -1.0577   16.0174 O   0  0  0  0  0  0  0  0  0  0  0  0
   23.8620   -2.7789   12.9841 C   0  0  2  0  0  0  0  0  0  0  0  0
   23.3345   -3.9459   12.3324 O   0  0  0  0  0  0  0  0  0  0  0  0
   22.5097   -8.3411   14.8343 C   0  0  2  0  0  0  0  0  0  0  0  0
   21.1748   -7.8568   15.1575 O   0  0  0  0  0  0  0  0  0  0  0  0
   18.6491   -9.7872   17.5108 C   0  0  2  0  0  0  0  0  0  0  0  0
   18.1921   -8.4652   17.1110 O   0  0  0  0  0  0  0  0  0  0  0  0
   16.9406   -5.7257   19.8218 C   0  0  0  0  0  0  0  0  0  0  0  0
   16.0953   -6.3338   18.8342 O   0  0  0  0  0  0  0  0  0  0  0  0
   22.3323   -1.9024   18.1757 C   0  0  1  0  0  0  0  0  0  0  0  0
   21.8620   -3.2488   18.4003 O   0  0  0  0  0  0  0  0  0  0  0  0
   24.4416   -3.0421   14.3694 C   0  0  2  0  0  0  0  0  0  0  0  0
   24.4845   -2.0119   15.3687 O   0  0  0  0  0  0  0  0  0  0  0  0
   23.4524   -7.2870   15.3061 C   0  0  0  0  0  0  0  0  0  0  0  0
   23.1567   -6.1083   14.5966 O   0  0  0  0  0  0  0  0  0  0  0  0
   18.4998  -10.0386   19.0493 C   0  0  1  0  0  0  0  0  0  0  0  0
   17.0792  -10.0251   19.3510 O   0  0  0  0  0  0  0  0  0  0  0  0
   23.8881   -1.8886   18.2856 C   0  0  0  0  0  0  0  0  0  0  0  0
   24.4430   -3.1094   18.9074 N   0  0  0  0  0  0  0  0  0  0  0  0
   25.5901   -4.0165   14.6205 C   0  0  0  0  0  0  0  0  0  0  0  0
   25.4705   -4.5923   15.9482 O   0  0  0  0  0  0  0  0  0  0  0  0
  1  2  1  1  0  0  0
  1  8  1  0  0  0  0
  1 36  1  0  0  0  0
  3  4  1  1  0  0  0
  3 10  1  0  0  0  0
  3 47  1  0  0  0  0
  5 11  1  0  0  0  0
  5 30  1  0  0  0  0
  5 38  1  6  0  0  0
  6 21  1  6  0  0  0
  6 42  1  0  0  0  0
  7 15  1  0  0  0  0
  7 44  1  0  0  0  0
  7 32  1  1  0  0  0
  8  9  1  1  0  0  0
  8 17  1  0  0  0  0
 11 12  1  6  0  0  0
 11 20  1  0  0  0  0
 13  6  1  0  0  0  0
 13 14  1  6  0  0  0
 15 16  1  6  0  0  0
 15 24  1  0  0  0  0
 17 26  1  0  0  0  0
 18 10  1  0  0  0  0
 18 19  1  1  0  0  0
 20 21  1  1  0  0  0
 20 29  1  0  0  0  0
 22 13  1  0  0  0  0
 22 23  1  1  0  0  0
 24 25  1  6  0  0  0
 24 33  1  0  0  0  0
 26 27  1  1  0  0  0
 26 35  1  0  0  0  0
 28  2  1  6  0  0  0
 28 18  1  0  0  0  0
 29 30  1  0  0  0  0
 29 39  1  6  0  0  0
 31 22  1  0  0  0  0
 31 32  1  6  0  0  0
 31 41  1  0  0  0  0
 33 34  1  1  0  0  0
 33 43  1  0  0  0  0
 35 36  1  0  0  0  0
 35 45  1  6  0  0  0
 37 28  1  0  0  0  0
 37 38  1  1  0  0  0
 39 40  1  0  0  0  0
 41 42  1  0  0  0  0
 41 49  1  6  0  0  0
 43 44  1  0  0  0  0
 43 51  1  6  0  0  0
 45 46  1  0  0  0  0
 47 37  1  0  0  0  0
 47 48  1  6  0  0  0
 49 50  1  0  0  0  0
 51 52  1  0  0  0  0
M  END
>  <CHROM.1>
-172.21923672,171.93666622,-62.01241058,-149.63180883,148.24379012,-165.75373906
59.01365943,178.69102190,55.98649687,-58.18186335,-172.42998682,-149.92960405
21.08953084,-5.76580588,16.34816886,-2.26209389,0.85453703,0.25415267

>  <Name>
2esj_lig

>  <RI>
0

>  <Rbt.Current_Directory>
/home/itssahil/PROJECTS/Mol_Feturizer/New_Systems/rnas/2esj

>  <Rbt.Executable>
rbdock ($Id: //depot/dev/client3/rdock/2013.1/src/exe/rbdock.cxx#4 $)

>  <Rbt.Library>
libRbt.so (2013.1, Build901 2013/11/27)

>  <Rbt.Parameter_File>
/export/apps/rDock/src/rDock_2013.1_src/data/scripts/dock_solv.prm

>  <Rbt.Receptor>
prm/pocket_docking_4.prm

>  <SCORE>
-17.1294

>  <SCORE.INTER>
-10.1996

>  <SCORE.INTER.CONST>
1

>  <SCORE.INTER.POLAR>
-0.979796

>  <SCORE.INTER.ROT>
12

>  <SCORE.INTER.SOLV>
17.0107

>  <SCORE.INTER.VDW>
-20.804

>  <SCORE.INTER.norm>
-0.196147

>  <SCORE.INTRA>
-6.9298

>  <SCORE.INTRA.DIHEDRAL>
-18.0059

>  <SCORE.INTRA.DIHEDRAL.0>
32.9766

>  <SCORE.INTRA.POLAR>
0

>  <SCORE.INTRA.POLAR.0>
0

>  <SCORE.INTRA.REPUL>
0.00172035

>  <SCORE.INTRA.REPUL.0>
0

>  <SCORE.INTRA.SOLV>
1.72537

>  <SCORE.INTRA.SOLV.lig_0>
-114.358

>  <SCORE.INTRA.VDW>
1.20186

>  <SCORE.INTRA.VDW.0>
-8.24257

>  <SCORE.INTRA.norm>
-0.133265

>  <SCORE.RESTR>
0

>  <SCORE.RESTR.CAVITY>
0

>  <SCORE.RESTR.norm>
0

>  <SCORE.SYSTEM>
0

>  <SCORE.SYSTEM.CONST>
0

>  <SCORE.SYSTEM.DIHEDRAL>
0

>  <SCORE.SYSTEM.SOLV>
0

>  <SCORE.SYSTEM.norm>
0

>  <SCORE.heavy>
52

>  <SCORE.norm>
-0.329412

>  <RMSD>
6.026

$$$$
2esj_lig
 OpenBabel11021811423D
libRbt.so/2013.1/901 2013/11/27
 52 56  0  0  0  0  0  0  0  0999 V2000
   19.4368   -6.3574   12.7578 C   0  0  2  0  0  0  0  0  0  0  0  0
   20.6500   -5.6894   13.1538 O   0  0  0  0  0  0  0  0  0  0  0  0
   23.2416   -9.0707   13.5256 C   0  0  2  0  0  0  0  0  0  0  0  0
   24.3932   -9.9630   13.7378 N   0  0  0  0  0  0  0  0  0  0  0  0
   22.0235   -5.5665   16.2388 C   0  0  1  0  0  0  0  0  0  0  0  0
   24.1276   -2.4200   18.0746 C   0  0  1  0  0  0  0  0  0  0  0  0
   25.6733    1.3714   15.3327 C   0  0  1  0  0  0  0  0  0  0  0  0
   18.5157   -5.2967   12.0859 C   0  0  2  0  0  0  0  0  0  0  0  0
   19.1674   -4.6337   10.9568 N   0  0  0  0  0  0  0  0  0  0  0  0
   23.5806   -7.9894   12.4241 C   0  0  0  0  0  0  0  0  0  0  0  0
   21.6503   -5.1151   17.6514 C   0  0  2  0  0  0  0  0  0  0  0  0
   20.5488   -4.1812   17.6579 O   0  0  0  0  0  0  0  0  0  0  0  0
   23.7618   -0.9694   17.5240 C   0  0  2  0  0  0  0  0  0  0  0  0
   23.5466   -0.9946   16.0530 N   0  0  0  0  0  0  0  0  0  0  0  0
   25.7261    0.8689   13.8946 C   0  0  1  0  0  0  0  0  0  0  0  0
   24.7541    1.5851   13.1067 O   0  0  0  0  0  0  0  0  0  0  0  0
   18.0425   -4.2313   13.1251 C   0  0  0  0  0  0  0  0  0  0  0  0
   22.3132   -7.0785   12.1677 C   0  0  2  0  0  0  0  0  0  0  0  0
   22.6060   -6.0562   11.1577 N   0  0  0  0  0  0  0  0  0  0  0  0
   22.9564   -4.5311   18.1065 C   0  0  2  0  0  0  0  0  0  0  0  0
   23.1567   -3.2652   17.5306 O   0  0  0  0  0  0  0  0  0  0  0  0
   24.8621    0.0665   18.0253 C   0  0  1  0  0  0  0  0  0  0  0  0
   25.0081   -0.0638   19.4433 O   0  0  0  0  0  0  0  0  0  0  0  0
   27.0796    1.0028   13.2074 C   0  0  1  0  0  0  0  0  0  0  0  0
   26.8809    0.7100   11.8199 O   0  0  0  0  0  0  0  0  0  0  0  0
   17.3739   -4.9627   14.3266 C   0  0  2  0  0  0  0  0  0  0  0  0
   16.8508   -4.0492   15.2743 O   0  0  0  0  0  0  0  0  0  0  0  0
   21.8480   -6.4141   13.4895 C   0  0  2  0  0  0  0  0  0  0  0  0
   24.0554   -5.4082   17.4720 C   0  0  2  0  0  0  0  0  0  0  0  0
   23.4303   -5.8441   16.2753 O   0  0  0  0  0  0  0  0  0  0  0  0
   26.2859   -0.2606   17.4129 C   0  0  2  0  0  0  0  0  0  0  0  0
   26.1118   -0.0881   16.0057 O   0  0  0  0  0  0  0  0  0  0  0  0
   27.7077    2.3906   13.3476 C   0  0  2  0  0  0  0  0  0  0  0  0
   29.0792    2.2709   12.9363 O   0  0  0  0  0  0  0  0  0  0  0  0
   18.4203   -5.9098   14.9646 C   0  0  2  0  0  0  0  0  0  0  0  0
   18.8018   -6.8805   13.9482 O   0  0  0  0  0  0  0  0  0  0  0  0
   21.6094   -7.4197   14.6612 C   0  0  2  0  0  0  0  0  0  0  0  0
   21.2520   -6.6867   15.8659 O   0  0  0  0  0  0  0  0  0  0  0  0
   24.5063   -6.6249   18.2794 C   0  0  0  0  0  0  0  0  0  0  0  0
   23.3771   -7.5013   18.4077 O   0  0  0  0  0  0  0  0  0  0  0  0
   26.4889   -1.7493   17.6192 C   0  0  1  0  0  0  0  0  0  0  0  0
   25.5239   -2.8231   17.6378 O   0  0  0  0  0  0  0  0  0  0  0  0
   27.5211    2.9494   14.7539 C   0  0  2  0  0  0  0  0  0  0  0  0
   26.3599    2.6301   15.5359 O   0  0  0  0  0  0  0  0  0  0  0  0
   17.8740   -6.7026   16.1027 C   0  0  0  0  0  0  0  0  0  0  0  0
   18.9131   -7.5201   16.5846 O   0  0  0  0  0  0  0  0  0  0  0  0
   22.8565   -8.3449   14.8643 C   0  0  1  0  0  0  0  0  0  0  0  0
   22.4822   -9.3652   15.8277 O   0  0  0  0  0  0  0  0  0  0  0  0
   27.8744   -2.3260   17.1941 C   0  0  0  0  0  0  0  0  0  0  0  0
   27.8903   -2.8573   15.8149 N   0  0  0  0  0  0  0  0  0  0  0  0
   28.0367    4.3220   15.1800 C   0  0  0  0  0  0  0  0  0  0  0  0
   29.4783    4.3829   15.0157 O   0  0  0  0  0  0  0  0  0  0  0  0
  1  2  1  1  0  0  0
  1  8  1  0  0  0  0
  1 36  1  0  0  0  0
  3  4  1  1  0  0  0
  3 10  1  0  0  0  0
  3 47  1  0  0  0  0
  5 11  1  0  0  0  0
  5 30  1  0  0  0  0
  5 38  1  1  0  0  0
  6 21  1  6  0  0  0
  6 42  1  0  0  0  0
  7 15  1  0  0  0  0
  7 44  1  0  0  0  0
  7 32  1  1  0  0  0
  8  9  1  6  0  0  0
  8 17  1  0  0  0  0
 11 12  1  6  0  0  0
 11 20  1  0  0  0  0
 13  6  1  0  0  0  0
 13 14  1  6  0  0  0
 15 16  1  6  0  0  0
 15 24  1  0  0  0  0
 17 26  1  0  0  0  0
 18 10  1  0  0  0  0
 18 19  1  6  0  0  0
 20 21  1  6  0  0  0
 20 29  1  0  0  0  0
 22 13  1  0  0  0  0
 22 23  1  1  0  0  0
 24 25  1  6  0  0  0
 24 33  1  0  0  0  0
 26 27  1  1  0  0  0
 26 35  1  0  0  0  0
 28  2  1  6  0  0  0
 28 18  1  0  0  0  0
 29 30  1  0  0  0  0
 29 39  1  1  0  0  0
 31 22  1  0  0  0  0
 31 32  1  6  0  0  0
 31 41  1  0  0  0  0
 33 34  1  1  0  0  0
 33 43  1  0  0  0  0
 35 36  1  0  0  0  0
 35 45  1  1  0  0  0
 37 28  1  0  0  0  0
 37 38  1  1  0  0  0
 39 40  1  0  0  0  0
 41 42  1  0  0  0  0
 41 49  1  6  0  0  0
 43 44  1  0  0  0  0
 43 51  1  6  0  0  0
 45 46  1  0  0  0  0
 47 37  1  0  0  0  0
 47 48  1  1  0  0  0
 49 50  1  0  0  0  0
 51 52  1  0  0  0  0
M  END
>  <CHROM.1>
-163.78006085,-169.19137566,-162.04945585,177.97609373,164.07519494,66.77835366
63.23710994,61.27316999,179.69922051,-47.34987546,-93.54602834,-59.75924863
23.38690602,-3.41150062,15.27977033,2.57561309,0.74467387,2.38932315

>  <Name>
2esj_lig

>  <RI>
2.18877e+07

>  <Rbt.Current_Directory>
/home/itssahil/PROJECTS/Mol_Feturizer/New_Systems/rnas/2esj

>  <Rbt.Executable>
rbdock ($Id: //depot/dev/client3/rdock/2013.1/src/exe/rbdock.cxx#4 $)

>  <Rbt.Library>
libRbt.so (2013.1, Build901 2013/11/27)

>  <Rbt.Parameter_File>
/export/apps/rDock/src/rDock_2013.1_src/data/scripts/dock_solv.prm

>  <Rbt.Receptor>
prm/pocket_docking_7.prm

>  <SCORE>
-11.7631

>  <SCORE.INTER>
-2.12349

>  <SCORE.INTER.CONST>
1

>  <SCORE.INTER.POLAR>
-0.824621

>  <SCORE.INTER.ROT>
12

>  <SCORE.INTER.SOLV>
12.5329

>  <SCORE.INTER.VDW>
-14.4445

>  <SCORE.INTER.norm>
-0.0408364

>  <SCORE.INTRA>
-9.63963

>  <SCORE.INTRA.DIHEDRAL>
-22.215

>  <SCORE.INTRA.DIHEDRAL.0>
32.9766

>  <SCORE.INTRA.POLAR>
0

>  <SCORE.INTRA.POLAR.0>
0

>  <SCORE.INTRA.REPUL>
0

>  <SCORE.INTRA.REPUL.0>
0

>  <SCORE.INTRA.SOLV>
0.258173

>  <SCORE.INTRA.SOLV.lig_0>
-114.358

>  <SCORE.INTRA.VDW>
1.3388

>  <SCORE.INTRA.VDW.0>
-8.24257

>  <SCORE.INTRA.norm>
-0.185377

>  <SCORE.RESTR>
0

>  <SCORE.RESTR.CAVITY>
0

>  <SCORE.RESTR.norm>
0

>  <SCORE.SYSTEM>
0

>  <SCORE.SYSTEM.CONST>
0

>  <SCORE.SYSTEM.DIHEDRAL>
0

>  <SCORE.SYSTEM.SOLV>
0

>  <SCORE.SYSTEM.norm>
0

>  <SCORE.heavy>
52

>  <SCORE.norm>
-0.226214

>  <RMSD>
6.083

$$$$
2esj_lig
 OpenBabel11021811423D
libRbt.so/2013.1/901 2013/11/27
 52 56  0  0  0  0  0  0  0  0999 V2000
   18.8799   -8.2109   15.8335 C   0  0  2  0  0  0  0  0  0  0  0  0
   19.9471   -7.5658   16.5544 O   0  0  0  0  0  0  0  0  0  0  0  0
   18.5762   -3.5157   16.4823 C   0  0  2  0  0  0  0  0  0  0  0  0
   18.4449   -2.0564   16.6248 N   0  0  0  0  0  0  0  0  0  0  0  0
   22.2708   -5.3006   14.7307 C   0  0  1  0  0  0  0  0  0  0  0  0
   26.3068   -5.3278   15.8806 C   0  0  1  0  0  0  0  0  0  0  0  0
   30.0160   -2.2191   14.9267 C   0  0  1  0  0  0  0  0  0  0  0  0
   18.9994   -9.7421   16.0904 C   0  0  2  0  0  0  0  0  0  0  0  0
   18.9702  -10.0680   17.5159 N   0  0  0  0  0  0  0  0  0  0  0  0
   18.8622   -4.1810   17.8870 C   0  0  0  0  0  0  0  0  0  0  0  0
   23.2804   -6.4493   14.7303 C   0  0  2  0  0  0  0  0  0  0  0  0
   23.3836   -7.0920   16.0193 O   0  0  0  0  0  0  0  0  0  0  0  0
   26.6155   -4.2285   16.9930 C   0  0  2  0  0  0  0  0  0  0  0  0
   26.3860   -2.8567   16.4672 N   0  0  0  0  0  0  0  0  0  0  0  0
   31.3348   -2.4028   15.6685 C   0  0  1  0  0  0  0  0  0  0  0  0
   32.3940   -2.5985   14.7102 O   0  0  0  0  0  0  0  0  0  0  0  0
   20.2990  -10.3163   15.4418 C   0  0  0  0  0  0  0  0  0  0  0  0
   18.9411   -5.7521   17.7234 C   0  0  2  0  0  0  0  0  0  0  0  0
   19.2196   -6.3938   19.0124 N   0  0  0  0  0  0  0  0  0  0  0  0
   24.5224   -5.7222   14.3027 C   0  0  2  0  0  0  0  0  0  0  0  0
   25.0519   -4.9812   15.3728 O   0  0  0  0  0  0  0  0  0  0  0  0
   28.0705   -4.4871   17.5857 C   0  0  1  0  0  0  0  0  0  0  0  0
   28.1680   -5.8561   17.9919 O   0  0  0  0  0  0  0  0  0  0  0  0
   31.7339   -1.2501   16.5821 C   0  0  1  0  0  0  0  0  0  0  0  0
   33.0832   -1.4875   16.9984 O   0  0  0  0  0  0  0  0  0  0  0  0
   20.3176   -9.9365   13.9315 C   0  0  2  0  0  0  0  0  0  0  0  0
   21.4349  -10.4931   13.2622 O   0  0  0  0  0  0  0  0  0  0  0  0
   20.0269   -6.1341   16.6841 C   0  0  2  0  0  0  0  0  0  0  0  0
   24.0583   -4.6476   13.2979 C   0  0  2  0  0  0  0  0  0  0  0  0
   22.7476   -4.3599   13.7586 O   0  0  0  0  0  0  0  0  0  0  0  0
   29.1890   -4.2834   16.4825 C   0  0  2  0  0  0  0  0  0  0  0  0
   29.0853   -2.9039   16.1267 O   0  0  0  0  0  0  0  0  0  0  0  0
   31.6432    0.1241   15.9163 C   0  0  2  0  0  0  0  0  0  0  0  0
   31.7387    1.1022   16.9646 O   0  0  0  0  0  0  0  0  0  0  0  0
   20.2952   -8.3920   13.8167 C   0  0  2  0  0  0  0  0  0  0  0  0
   19.0548   -7.9309   14.4246 O   0  0  0  0  0  0  0  0  0  0  0  0
   19.8726   -5.4164   15.3049 C   0  0  2  0  0  0  0  0  0  0  0  0
   20.9799   -5.7871   14.4373 O   0  0  0  0  0  0  0  0  0  0  0  0
   23.9975   -5.0688   11.8301 C   0  0  0  0  0  0  0  0  0  0  0  0
   23.4965   -3.9523   11.0804 O   0  0  0  0  0  0  0  0  0  0  0  0
   28.7115   -5.0549   15.2672 C   0  0  1  0  0  0  0  0  0  0  0  0
   27.3699   -5.3083   14.7977 O   0  0  0  0  0  0  0  0  0  0  0  0
   30.3905    0.2471   15.0559 C   0  0  2  0  0  0  0  0  0  0  0  0
   29.8354   -0.8908   14.3786 O   0  0  0  0  0  0  0  0  0  0  0  0
   20.2626   -7.9112   12.4059 C   0  0  0  0  0  0  0  0  0  0  0  0
   18.9693   -7.4144   12.1593 O   0  0  0  0  0  0  0  0  0  0  0  0
   19.7454   -3.8671   15.4940 C   0  0  1  0  0  0  0  0  0  0  0  0
   19.4127   -3.3020   14.1981 O   0  0  0  0  0  0  0  0  0  0  0  0
   29.6877   -5.1084   14.0519 C   0  0  0  0  0  0  0  0  0  0  0  0
   29.2336   -6.0122   12.9741 N   0  0  0  0  0  0  0  0  0  0  0  0
   30.0443    1.5058   14.2638 C   0  0  0  0  0  0  0  0  0  0  0  0
   29.5556    2.5376   15.1613 O   0  0  0  0  0  0  0  0  0  0  0  0
  1  2  1  1  0  0  0
  1  8  1  0  0  0  0
  1 36  1  0  0  0  0
  3  4  1  1  0  0  0
  3 10  1  0  0  0  0
  3 47  1  0  0  0  0
  5 11  1  0  0  0  0
  5 30  1  0  0  0  0
  5 38  1  6  0  0  0
  6 21  1  6  0  0  0
  6 42  1  0  0  0  0
  7 15  1  0  0  0  0
  7 44  1  0  0  0  0
  7 32  1  1  0  0  0
  8  9  1  1  0  0  0
  8 17  1  0  0  0  0
 11 12  1  1  0  0  0
 11 20  1  0  0  0  0
 13  6  1  0  0  0  0
 13 14  1  6  0  0  0
 15 16  1  6  0  0  0
 15 24  1  0  0  0  0
 17 26  1  0  0  0  0
 18 10  1  0  0  0  0
 18 19  1  1  0  0  0
 20 21  1  1  0  0  0
 20 29  1  0  0  0  0
 22 13  1  0  0  0  0
 22 23  1  6  0  0  0
 24 25  1  6  0  0  0
 24 33  1  0  0  0  0
 26 27  1  1  0  0  0
 26 35  1  0  0  0  0
 28  2  1  6  0  0  0
 28 18  1  0  0  0  0
 29 30  1  0  0  0  0
 29 39  1  6  0  0  0
 31 22  1  0  0  0  0
 31 32  1  6  0  0  0
 31 41  1  0  0  0  0
 33 34  1  1  0  0  0
 33 43  1  0  0  0  0
 35 36  1  0  0  0  0
 35 45  1  6  0  0  0
 37 28  1  0  0  0  0
 37 38  1  6  0  0  0
 39 40  1  0  0  0  0
 41 42  1  0  0  0  0
 41 49  1  6  0  0  0
 43 44  1  0  0  0  0
 43 51  1  6  0  0  0
 45 46  1  0  0  0  0
 47 37  1  0  0  0  0
 47 48  1  6  0  0  0
 49 50  1  0  0  0  0
 51 52  1  0  0  0  0
M  END
>  <CHROM.1>
-171.40574001,129.91637074,176.26229829,-65.79452999,115.25747480,74.75689629
177.72743429,-176.70474881,107.28731815,-70.31910603,172.78087196,-75.20429140
24.55628489,-4.75954155,15.27284583,-2.66169323,0.09012437,0.22934180

>  <Name>
2esj_lig

>  <RI>
0

>  <Rbt.Current_Directory>
/home/itssahil/PROJECTS/Mol_Feturizer/New_Systems/rnas/2esj

>  <Rbt.Executable>
rbdock ($Id: //depot/dev/client3/rdock/2013.1/src/exe/rbdock.cxx#4 $)

>  <Rbt.Library>
libRbt.so (2013.1, Build901 2013/11/27)

>  <Rbt.Parameter_File>
/export/apps/rDock/src/rDock_2013.1_src/data/scripts/dock_solv.prm

>  <Rbt.Receptor>
prm/pocket_docking_4.prm

>  <SCORE>
-2.95981

>  <SCORE.INTER>
-2.28281

>  <SCORE.INTER.CONST>
1

>  <SCORE.INTER.POLAR>
-1.1525

>  <SCORE.INTER.ROT>
12

>  <SCORE.INTER.SOLV>
17.7696

>  <SCORE.INTER.VDW>
-15.2034

>  <SCORE.INTER.norm>
-0.0439002

>  <SCORE.INTRA>
-0.676996

>  <SCORE.INTRA.DIHEDRAL>
-7.35348

>  <SCORE.INTRA.DIHEDRAL.0>
32.9766

>  <SCORE.INTRA.POLAR>
0

>  <SCORE.INTRA.POLAR.0>
0

>  <SCORE.INTRA.REPUL>
0

>  <SCORE.INTRA.REPUL.0>
0

>  <SCORE.INTRA.SOLV>
-2.84478

>  <SCORE.INTRA.SOLV.lig_0>
-114.358

>  <SCORE.INTRA.VDW>
4.42214

>  <SCORE.INTRA.VDW.0>
-8.24257

>  <SCORE.INTRA.norm>
-0.0130192

>  <SCORE.RESTR>
0

>  <SCORE.RESTR.CAVITY>
0

>  <SCORE.RESTR.norm>
0

>  <SCORE.SYSTEM>
0

>  <SCORE.SYSTEM.CONST>
0

>  <SCORE.SYSTEM.DIHEDRAL>
0

>  <SCORE.SYSTEM.SOLV>
0

>  <SCORE.SYSTEM.norm>
0

>  <SCORE.heavy>
52

>  <SCORE.norm>
-0.0569194

>  <RMSD>
6.107

$$$$
2esj_lig
 OpenBabel11021811423D
libRbt.so/2013.1/901 2013/11/27
 52 56  0  0  0  0  0  0  0  0999 V2000
   21.1727   -8.2935   15.5429 C   0  0  2  0  0  0  0  0  0  0  0  0
   20.4136   -7.9305   14.3737 O   0  0  0  0  0  0  0  0  0  0  0  0
   17.4760   -4.9355   13.5440 C   0  0  2  0  0  0  0  0  0  0  0  0
   16.7440   -3.6689   13.3796 N   0  0  0  0  0  0  0  0  0  0  0  0
   21.7975   -5.6968   12.2105 C   0  0  1  0  0  0  0  0  0  0  0  0
   25.4218   -3.5899   12.5460 C   0  0  1  0  0  0  0  0  0  0  0  0
   26.3250   -1.8793   17.0270 C   0  0  1  0  0  0  0  0  0  0  0  0
   22.4857   -7.4563   15.5275 C   0  0  2  0  0  0  0  0  0  0  0  0
   22.2246   -6.0184   15.4709 N   0  0  0  0  0  0  0  0  0  0  0  0
   17.9903   -5.0834   15.0310 C   0  0  0  0  0  0  0  0  0  0  0  0
   22.8845   -5.8689   11.1488 C   0  0  2  0  0  0  0  0  0  0  0  0
   23.7099   -7.0293   11.3890 O   0  0  0  0  0  0  0  0  0  0  0  0
   26.1080   -3.8812   13.9551 C   0  0  2  0  0  0  0  0  0  0  0  0
   25.0871   -4.0337   15.0254 N   0  0  0  0  0  0  0  0  0  0  0  0
   25.0513   -1.5205   17.7837 C   0  0  1  0  0  0  0  0  0  0  0  0
   24.9146   -2.3945   18.9221 O   0  0  0  0  0  0  0  0  0  0  0  0
   23.4005   -7.8764   14.3335 C   0  0  0  0  0  0  0  0  0  0  0  0
   18.7218   -6.4752   15.2031 C   0  0  2  0  0  0  0  0  0  0  0  0
   19.2214   -6.6318   16.5730 N   0  0  0  0  0  0  0  0  0  0  0  0
   23.6075   -4.5599   11.2823 C   0  0  2  0  0  0  0  0  0  0  0  0
   24.4287   -4.5652   12.4225 O   0  0  0  0  0  0  0  0  0  0  0  0
   27.2122   -2.7681   14.2324 C   0  0  1  0  0  0  0  0  0  0  0  0
   28.0828   -2.6877   13.0991 O   0  0  0  0  0  0  0  0  0  0  0  0
   24.9733   -0.0826   18.2824 C   0  0  1  0  0  0  0  0  0  0  0  0
   23.8427    0.0015   19.1569 O   0  0  0  0  0  0  0  0  0  0  0  0
   23.6443   -9.4131   14.4029 C   0  0  2  0  0  0  0  0  0  0  0  0
   24.5321   -9.8518   13.3901 O   0  0  0  0  0  0  0  0  0  0  0  0
   19.8851   -6.6044   14.1858 C   0  0  2  0  0  0  0  0  0  0  0  0
   22.5247   -3.5102   11.6069 C   0  0  2  0  0  0  0  0  0  0  0  0
   21.5635   -4.2849   12.3061 O   0  0  0  0  0  0  0  0  0  0  0  0
   26.5611   -1.3315   14.3793 C   0  0  2  0  0  0  0  0  0  0  0  0
   25.7286   -1.4390   15.5351 O   0  0  0  0  0  0  0  0  0  0  0  0
   26.2264    0.3802   19.0278 C   0  0  2  0  0  0  0  0  0  0  0  0
   26.1338    1.8087   19.1517 O   0  0  0  0  0  0  0  0  0  0  0  0
   22.2740  -10.1291   14.3095 C   0  0  2  0  0  0  0  0  0  0  0  0
   21.4847   -9.7039   15.4571 O   0  0  0  0  0  0  0  0  0  0  0  0
   19.4680   -6.3504   12.7017 C   0  0  2  0  0  0  0  0  0  0  0  0
   20.6433   -6.4216   11.8473 O   0  0  0  0  0  0  0  0  0  0  0  0
   21.8552   -2.8309   10.4128 C   0  0  0  0  0  0  0  0  0  0  0  0
   20.8603   -1.9338   10.9276 O   0  0  0  0  0  0  0  0  0  0  0  0
   25.6120   -1.1893   13.2050 C   0  0  1  0  0  0  0  0  0  0  0  0
   24.8345   -2.1909   12.5143 O   0  0  0  0  0  0  0  0  0  0  0  0
   27.4974   -0.1089   18.3425 C   0  0  2  0  0  0  0  0  0  0  0  0
   27.5312   -1.3587   17.6364 O   0  0  0  0  0  0  0  0  0  0  0  0
   22.3813  -11.6124   14.4139 C   0  0  0  0  0  0  0  0  0  0  0  0
   21.0873  -12.1413   14.2523 O   0  0  0  0  0  0  0  0  0  0  0  0
   18.7014   -4.9919   12.5630 C   0  0  1  0  0  0  0  0  0  0  0  0
   18.1848   -4.9266   11.2073 O   0  0  0  0  0  0  0  0  0  0  0  0
   24.9055    0.1923   13.0473 C   0  0  0  0  0  0  0  0  0  0  0  0
   25.5323    1.0585   12.0268 N   0  0  0  0  0  0  0  0  0  0  0  0
   28.8978    0.1933   18.8709 C   0  0  0  0  0  0  0  0  0  0  0  0
   29.1332   -0.5424   20.1006 O   0  0  0  0  0  0  0  0  0  0  0  0
  1  2  1  6  0  0  0
  1  8  1  0  0  0  0
  1 36  1  0  0  0  0
  3  4  1  1  0  0  0
  3 10  1  0  0  0  0
  3 47  1  0  0  0  0
  5 11  1  0  0  0  0
  5 30  1  0  0  0  0
  5 38  1  6  0  0  0
  6 21  1  1  0  0  0
  6 42  1  0  0  0  0
  7 15  1  0  0  0  0
  7 44  1  0  0  0  0
  7 32  1  6  0  0  0
  8  9  1  6  0  0  0
  8 17  1  0  0  0  0
 11 12  1  1  0  0  0
 11 20  1  0  0  0  0
 13  6  1  0  0  0  0
 13 14  1  1  0  0  0
 15 16  1  1  0  0  0
 15 24  1  0  0  0  0
 17 26  1  0  0  0  0
 18 10  1  0  0  0  0
 18 19  1  1  0  0  0
 20 21  1  1  0  0  0
 20 29  1  0  0  0  0
 22 13  1  0  0  0  0
 22 23  1  6  0  0  0
 24 25  1  1  0  0  0
 24 33  1  0  0  0  0
 26 27  1  6  0  0  0
 26 35  1  0  0  0  0
 28  2  1  6  0  0  0
 28 18  1  0  0  0  0
 29 30  1  0  0  0  0
 29 39  1  6  0  0  0
 31 22  1  0  0  0  0
 31 32  1  1  0  0  0
 31 41  1  0  0  0  0
 33 34  1  6  0  0  0
 33 43  1  0  0  0  0
 35 36  1  0  0  0  0
 35 45  1  1  0  0  0
 37 28  1  0  0  0  0
 37 38  1  6  0  0  0
 39 40  1  0  0  0  0
 41 42  1  0  0  0  0
 41 49  1  1  0  0  0
 43 44  1  0  0  0  0
 43 51  1  1  0  0  0
 45 46  1  0  0  0  0
 47 37  1  0  0  0  0
 47 48  1  6  0  0  0
 49 50  1  0  0  0  0
 51 52  1  0  0  0  0
M  END
>  <CHROM.1>
-64.57383215,-177.70081834,178.43645569,169.14718020,164.32516048,-71.60118135
178.12470359,57.82467062,-177.27815247,-48.93853120,100.34963167,70.01707591
23.30938593,-4.30932513,14.53211426,-2.61218446,-0.79539016,-0.40811410

>  <Name>
2esj_lig

>  <RI>
1.62275e+07

>  <Rbt.Current_Directory>
/home/itssahil/PROJECTS/Mol_Feturizer/New_Systems/rnas/2esj

>  <Rbt.Executable>
rbdock ($Id: //depot/dev/client3/rdock/2013.1/src/exe/rbdock.cxx#4 $)

>  <Rbt.Library>
libRbt.so (2013.1, Build901 2013/11/27)

>  <Rbt.Parameter_File>
/export/apps/rDock/src/rDock_2013.1_src/data/scripts/dock_solv.prm

>  <Rbt.Receptor>
prm/pocket_docking_5.prm

>  <SCORE>
-11.2986

>  <SCORE.INTER>
-2.78388

>  <SCORE.INTER.CONST>
1

>  <SCORE.INTER.POLAR>
0

>  <SCORE.INTER.ROT>
12

>  <SCORE.INTER.SOLV>
9.72971

>  <SCORE.INTER.VDW>
-16.6992

>  <SCORE.INTER.norm>
-0.0535362

>  <SCORE.INTRA>
-8.51467

>  <SCORE.INTRA.DIHEDRAL>
-24.5701

>  <SCORE.INTRA.DIHEDRAL.0>
32.9766

>  <SCORE.INTRA.POLAR>
0

>  <SCORE.INTRA.POLAR.0>
0

>  <SCORE.INTRA.REPUL>
0

>  <SCORE.INTRA.REPUL.0>
0

>  <SCORE.INTRA.SOLV>
3.2979

>  <SCORE.INTRA.SOLV.lig_0>
-114.358

>  <SCORE.INTRA.VDW>
2.12144

>  <SCORE.INTRA.VDW.0>
-8.24257

>  <SCORE.INTRA.norm>
-0.163744

>  <SCORE.RESTR>
0

>  <SCORE.RESTR.CAVITY>
0

>  <SCORE.RESTR.norm>
0

>  <SCORE.SYSTEM>
0

>  <SCORE.SYSTEM.CONST>
0

>  <SCORE.SYSTEM.DIHEDRAL>
0

>  <SCORE.SYSTEM.SOLV>
0

>  <SCORE.SYSTEM.norm>
0

>  <SCORE.heavy>
52

>  <SCORE.norm>
-0.21728

>  <RMSD>
6.116

$$$$
2esj_lig
 OpenBabel11021811423D
libRbt.so/2013.1/901 2013/11/27
 52 56  0  0  0  0  0  0  0  0999 V2000
   22.7165   -9.6118   21.6126 C   0  0  2  0  0  0  0  0  0  0  0  0
   21.7936   -9.3787   20.5316 O   0  0  0  0  0  0  0  0  0  0  0  0
   18.4966  -11.5805   18.9283 C   0  0  2  0  0  0  0  0  0  0  0  0
   17.2317  -12.3090   18.7376 N   0  0  0  0  0  0  0  0  0  0  0  0
   19.1788   -6.9224   18.8321 C   0  0  1  0  0  0  0  0  0  0  0  0
   18.1476   -3.7307   16.2885 C   0  0  1  0  0  0  0  0  0  0  0  0
   20.6047   -3.4437   11.9700 C   0  0  1  0  0  0  0  0  0  0  0  0
   22.2478   -8.7510   22.8228 C   0  0  2  0  0  0  0  0  0  0  0  0
   20.8683   -9.0451   23.2097 N   0  0  0  0  0  0  0  0  0  0  0  0
   19.3426  -12.2432   20.0870 C   0  0  0  0  0  0  0  0  0  0  0  0
   17.8204   -6.2338   18.9713 C   0  0  2  0  0  0  0  0  0  0  0  0
   16.7737   -6.9332   18.2638 O   0  0  0  0  0  0  0  0  0  0  0  0
   18.1335   -4.1774   14.7583 C   0  0  2  0  0  0  0  0  0  0  0  0
   19.2177   -5.1553   14.4769 N   0  0  0  0  0  0  0  0  0  0  0  0
   21.8645   -4.2766   12.1764 C   0  0  1  0  0  0  0  0  0  0  0  0
   21.8479   -5.3941   11.2658 O   0  0  0  0  0  0  0  0  0  0  0  0
   22.3986   -7.2274   22.5146 C   0  0  0  0  0  0  0  0  0  0  0  0
   20.7221  -11.4843   20.2371 C   0  0  2  0  0  0  0  0  0  0  0  0
   21.5220  -12.0722   21.3167 N   0  0  0  0  0  0  0  0  0  0  0  0
   18.1422   -4.8778   18.4130 C   0  0  2  0  0  0  0  0  0  0  0  0
   18.2074   -4.9258   17.0102 O   0  0  0  0  0  0  0  0  0  0  0  0
   18.1456   -2.8768   13.8399 C   0  0  1  0  0  0  0  0  0  0  0  0
   17.0945   -2.0021   14.2628 O   0  0  0  0  0  0  0  0  0  0  0  0
   23.1782   -3.5296   11.9806 C   0  0  1  0  0  0  0  0  0  0  0  0
   24.2248   -4.5068   11.9785 O   0  0  0  0  0  0  0  0  0  0  0  0
   23.8682   -6.9445   22.0831 C   0  0  2  0  0  0  0  0  0  0  0  0
   24.0956   -5.5641   21.8620 O   0  0  0  0  0  0  0  0  0  0  0  0
   20.4834   -9.9750   20.5020 C   0  0  2  0  0  0  0  0  0  0  0  0
   19.5923   -4.5764   18.8442 C   0  0  2  0  0  0  0  0  0  0  0  0
   20.1574   -5.8764   18.9063 O   0  0  0  0  0  0  0  0  0  0  0  0
   19.4885   -2.0556   14.0178 C   0  0  2  0  0  0  0  0  0  0  0  0
   20.5077   -2.9435   13.5561 O   0  0  0  0  0  0  0  0  0  0  0  0
   23.2392   -2.7188   10.6848 C   0  0  2  0  0  0  0  0  0  0  0  0
   24.3743   -1.8445   10.7933 O   0  0  0  0  0  0  0  0  0  0  0  0
   24.1750   -7.7831   20.8176 C   0  0  2  0  0  0  0  0  0  0  0  0
   24.0307   -9.1856   21.1824 O   0  0  0  0  0  0  0  0  0  0  0  0
   19.5530   -9.2815   19.4559 C   0  0  2  0  0  0  0  0  0  0  0  0
   19.3369   -7.8953   19.8408 O   0  0  0  0  0  0  0  0  0  0  0  0
   19.7712   -3.8820   20.1938 C   0  0  0  0  0  0  0  0  0  0  0  0
   19.1594   -4.7124   21.1917 O   0  0  0  0  0  0  0  0  0  0  0  0
   19.7001   -1.9351   15.5148 C   0  0  1  0  0  0  0  0  0  0  0  0
   19.3459   -2.8456   16.5778 O   0  0  0  0  0  0  0  0  0  0  0  0
   21.9209   -2.0041   10.4098 C   0  0  2  0  0  0  0  0  0  0  0  0
   20.6657   -2.5706   10.8162 O   0  0  0  0  0  0  0  0  0  0  0  0
   25.5783   -7.6273   20.3392 C   0  0  0  0  0  0  0  0  0  0  0  0
   26.4281   -8.0291   21.3864 O   0  0  0  0  0  0  0  0  0  0  0  0
   18.2149  -10.0771   19.2860 C   0  0  1  0  0  0  0  0  0  0  0  0
   17.5012   -9.4839   18.1689 O   0  0  0  0  0  0  0  0  0  0  0  0
   20.9141   -1.0714   15.9764 C   0  0  0  0  0  0  0  0  0  0  0  0
   21.0690   -1.0150   17.4452 N   0  0  0  0  0  0  0  0  0  0  0  0
   21.6884   -1.1292    9.1800 C   0  0  0  0  0  0  0  0  0  0  0  0
   22.4212    0.1175    9.3128 O   0  0  0  0  0  0  0  0  0  0  0  0
  1  2  1  6  0  0  0
  1  8  1  0  0  0  0
  1 36  1  0  0  0  0
  3  4  1  1  0  0  0
  3 10  1  0  0  0  0
  3 47  1  0  0  0  0
  5 11  1  0  0  0  0
  5 30  1  0  0  0  0
  5 38  1  1  0  0  0
  6 21  1  1  0  0  0
  6 42  1  0  0  0  0
  7 15  1  0  0  0  0
  7 44  1  0  0  0  0
  7 32  1  1  0  0  0
  8  9  1  6  0  0  0
  8 17  1  0  0  0  0
 11 12  1  6  0  0  0
 11 20  1  0  0  0  0
 13  6  1  0  0  0  0
 13 14  1  6  0  0  0
 15 16  1  6  0  0  0
 15 24  1  0  0  0  0
 17 26  1  0  0  0  0
 18 10  1  0  0  0  0
 18 19  1  1  0  0  0
 20 21  1  6  0  0  0
 20 29  1  0  0  0  0
 22 13  1  0  0  0  0
 22 23  1  1  0  0  0
 24 25  1  6  0  0  0
 24 33  1  0  0  0  0
 26 27  1  6  0  0  0
 26 35  1  0  0  0  0
 28  2  1  6  0  0  0
 28 18  1  0  0  0  0
 29 30  1  0  0  0  0
 29 39  1  1  0  0  0
 31 22  1  0  0  0  0
 31 32  1  6  0  0  0
 31 41  1  0  0  0  0
 33 34  1  1  0  0  0
 33 43  1  0  0  0  0
 35 36  1  0  0  0  0
 35 45  1  1  0  0  0
 37 28  1  0  0  0  0
 37 38  1  1  0  0  0
 39 40  1  0  0  0  0
 41 42  1  0  0  0  0
 41 49  1  6  0  0  0
 43 44  1  0  0  0  0
 43 51  1  6  0  0  0
 45 46  1  0  0  0  0
 47 37  1  0  0  0  0
 47 48  1  6  0  0  0
 49 50  1  0  0  0  0
 51 52  1  0  0  0  0
M  END
>  <CHROM.1>
-76.47499064,120.58665095,-175.71880408,178.37617099,163.49611512,-70.72440073
57.89688248,65.04422474,59.04791282,146.81204564,-179.18310489,-72.52085942
20.73833201,-5.84020562,17.14060202,-1.58115966,-0.13811547,-0.91635043

>  <Name>
2esj_lig

>  <RI>
0

>  <Rbt.Current_Directory>
/home/itssahil/PROJECTS/Mol_Feturizer/New_Systems/rnas/2esj

>  <Rbt.Executable>
rbdock ($Id: //depot/dev/client3/rdock/2013.1/src/exe/rbdock.cxx#4 $)

>  <Rbt.Library>
libRbt.so (2013.1, Build901 2013/11/27)

>  <Rbt.Parameter_File>
/export/apps/rDock/src/rDock_2013.1_src/data/scripts/dock_solv.prm

>  <Rbt.Receptor>
prm/pocket_docking_8.prm

>  <SCORE>
-14.0558

>  <SCORE.INTER>
-11.327

>  <SCORE.INTER.CONST>
1

>  <SCORE.INTER.POLAR>
-1.62098

>  <SCORE.INTER.ROT>
12

>  <SCORE.INTER.SOLV>
16.2796

>  <SCORE.INTER.VDW>
-19.1746

>  <SCORE.INTER.norm>
-0.217827

>  <SCORE.INTRA>
-2.7288

>  <SCORE.INTRA.DIHEDRAL>
-13.238

>  <SCORE.INTRA.DIHEDRAL.0>
32.9766

>  <SCORE.INTRA.POLAR>
0

>  <SCORE.INTRA.POLAR.0>
0

>  <SCORE.INTRA.REPUL>
0.0122788

>  <SCORE.INTRA.REPUL.0>
0

>  <SCORE.INTRA.SOLV>
1.99447

>  <SCORE.INTRA.SOLV.lig_0>
-114.358

>  <SCORE.INTRA.VDW>
2.83158

>  <SCORE.INTRA.VDW.0>
-8.24257

>  <SCORE.INTRA.norm>
-0.0524769

>  <SCORE.RESTR>
0

>  <SCORE.RESTR.CAVITY>
0

>  <SCORE.RESTR.norm>
0

>  <SCORE.SYSTEM>
0

>  <SCORE.SYSTEM.CONST>
0

>  <SCORE.SYSTEM.DIHEDRAL>
0

>  <SCORE.SYSTEM.SOLV>
0

>  <SCORE.SYSTEM.norm>
0

>  <SCORE.heavy>
52

>  <SCORE.norm>
-0.270304

>  <RMSD>
6.119

$$$$
2esj_lig
 OpenBabel11021811423D
libRbt.so/2013.1/901 2013/11/27
 52 56  0  0  0  0  0  0  0  0999 V2000
   22.2808   -8.1730   14.6181 C   0  0  2  0  0  0  0  0  0  0  0  0
   21.8300   -7.9640   15.9701 O   0  0  0  0  0  0  0  0  0  0  0  0
   18.0852   -6.9840   17.7878 C   0  0  2  0  0  0  0  0  0  0  0  0
   16.8739   -6.2988   18.2680 N   0  0  0  0  0  0  0  0  0  0  0  0
   19.7155   -6.6281   13.5494 C   0  0  1  0  0  0  0  0  0  0  0  0
   20.0471   -3.2598   11.2135 C   0  0  1  0  0  0  0  0  0  0  0  0
   23.6543    0.1113   12.4294 C   0  0  1  0  0  0  0  0  0  0  0  0
   23.3333   -9.3204   14.6472 C   0  0  2  0  0  0  0  0  0  0  0  0
   22.7995  -10.5461   15.2403 N   0  0  0  0  0  0  0  0  0  0  0  0
   19.3791   -6.2310   18.2939 C   0  0  0  0  0  0  0  0  0  0  0  0
   19.5036   -6.8262   12.0480 C   0  0  2  0  0  0  0  0  0  0  0  0
   20.6892   -7.3157   11.3845 O   0  0  0  0  0  0  0  0  0  0  0  0
   21.2110   -2.9713   10.1631 C   0  0  2  0  0  0  0  0  0  0  0  0
   22.5270   -3.4254   10.6855 N   0  0  0  0  0  0  0  0  0  0  0  0
   24.9499    0.0987   11.6264 C   0  0  1  0  0  0  0  0  0  0  0  0
   25.6733    1.3206   11.8757 O   0  0  0  0  0  0  0  0  0  0  0  0
   24.6198   -8.8772   15.4137 C   0  0  0  0  0  0  0  0  0  0  0  0
   20.6684   -7.0141   17.8185 C   0  0  2  0  0  0  0  0  0  0  0  0
   21.8852   -6.3276   18.2644 N   0  0  0  0  0  0  0  0  0  0  0  0
   19.0990   -5.4383   11.6429 C   0  0  2  0  0  0  0  0  0  0  0  0
   20.2219   -4.5957   11.5843 O   0  0  0  0  0  0  0  0  0  0  0  0
   21.1505   -1.4398    9.7320 C   0  0  1  0  0  0  0  0  0  0  0  0
   19.8173   -1.1292    9.3139 O   0  0  0  0  0  0  0  0  0  0  0  0
   25.8847   -1.0692   11.9170 C   0  0  1  0  0  0  0  0  0  0  0  0
   27.1270   -0.7902   11.2622 O   0  0  0  0  0  0  0  0  0  0  0  0
   25.1548   -7.5594   14.7789 C   0  0  2  0  0  0  0  0  0  0  0  0
   26.3679   -7.1408   15.3782 O   0  0  0  0  0  0  0  0  0  0  0  0
   20.6697   -7.1679   16.2753 C   0  0  2  0  0  0  0  0  0  0  0  0
   18.2731   -4.8786   12.8194 C   0  0  2  0  0  0  0  0  0  0  0  0
   18.8468   -5.5516   13.9288 O   0  0  0  0  0  0  0  0  0  0  0  0
   21.4530   -0.4818   10.9568 C   0  0  2  0  0  0  0  0  0  0  0  0
   22.7975   -0.7943   11.3244 O   0  0  0  0  0  0  0  0  0  0  0  0
   26.1381   -1.2999   13.4078 C   0  0  2  0  0  0  0  0  0  0  0  0
   26.7603   -2.5893   13.5301 O   0  0  0  0  0  0  0  0  0  0  0  0
   24.0542   -6.4766   14.9024 C   0  0  2  0  0  0  0  0  0  0  0  0
   22.8971   -6.9485   14.1546 O   0  0  0  0  0  0  0  0  0  0  0  0
   19.3635   -7.7984   15.6945 C   0  0  2  0  0  0  0  0  0  0  0  0
   19.4410   -7.8257   14.2420 O   0  0  0  0  0  0  0  0  0  0  0  0
   16.7694   -5.1496   12.7857 C   0  0  0  0  0  0  0  0  0  0  0  0
   16.2614   -4.6162   11.5540 O   0  0  0  0  0  0  0  0  0  0  0  0
   20.5904   -0.9886   12.0966 C   0  0  1  0  0  0  0  0  0  0  0  0
   20.1608   -2.3313   12.4085 O   0  0  0  0  0  0  0  0  0  0  0  0
   24.8600   -1.1404   14.2236 C   0  0  2  0  0  0  0  0  0  0  0  0
   23.8322   -0.2189   13.8282 O   0  0  0  0  0  0  0  0  0  0  0  0
   24.4401   -5.1774   14.2816 C   0  0  0  0  0  0  0  0  0  0  0  0
   25.5191   -4.6600   15.0221 O   0  0  0  0  0  0  0  0  0  0  0  0
   18.0977   -7.0396   16.2180 C   0  0  1  0  0  0  0  0  0  0  0  0
   16.9351   -7.7997   15.7940 O   0  0  0  0  0  0  0  0  0  0  0  0
   20.6169   -0.1511   13.4121 C   0  0  0  0  0  0  0  0  0  0  0  0
   19.7504   -0.7017   14.4755 N   0  0  0  0  0  0  0  0  0  0  0  0
   24.8145   -1.3035   15.7412 C   0  0  0  0  0  0  0  0  0  0  0  0
   23.4391   -1.2525   16.2043 O   0  0  0  0  0  0  0  0  0  0  0  0
  1  2  1  1  0  0  0
  1  8  1  0  0  0  0
  1 36  1  0  0  0  0
  3  4  1  6  0  0  0
  3 10  1  0  0  0  0
  3 47  1  0  0  0  0
  5 11  1  0  0  0  0
  5 30  1  0  0  0  0
  5 38  1  1  0  0  0
  6 21  1  1  0  0  0
  6 42  1  0  0  0  0
  7 15  1  0  0  0  0
  7 44  1  0  0  0  0
  7 32  1  6  0  0  0
  8  9  1  1  0  0  0
  8 17  1  0  0  0  0
 11 12  1  6  0  0  0
 11 20  1  0  0  0  0
 13  6  1  0  0  0  0
 13 14  1  1  0  0  0
 15 16  1  1  0  0  0
 15 24  1  0  0  0  0
 17 26  1  0  0  0  0
 18 10  1  0  0  0  0
 18 19  1  6  0  0  0
 20 21  1  1  0  0  0
 20 29  1  0  0  0  0
 22 13  1  0  0  0  0
 22 23  1  1  0  0  0
 24 25  1  6  0  0  0
 24 33  1  0  0  0  0
 26 27  1  1  0  0  0
 26 35  1  0  0  0  0
 28  2  1  1  0  0  0
 28 18  1  0  0  0  0
 29 30  1  0  0  0  0
 29 39  1  6  0  0  0
 31 22  1  0  0  0  0
 31 32  1  1  0  0  0
 31 41  1  0  0  0  0
 33 34  1  6  0  0  0
 33 43  1  0  0  0  0
 35 36  1  0  0  0  0
 35 45  1  6  0  0  0
 37 28  1  0  0  0  0
 37 38  1  6  0  0  0
 39 40  1  0  0  0  0
 41 42  1  0  0  0  0
 41 49  1  1  0  0  0
 43 44  1  0  0  0  0
 43 51  1  1  0  0  0
 45 46  1  0  0  0  0
 47 37  1  0  0  0  0
 47 48  1  1  0  0  0
 49 50  1  0  0  0  0
 51 52  1  0  0  0  0
M  END
>  <CHROM.1>
-167.31116458,-169.83141382,-134.74576507,-137.63125003,179.53639680,-171.27616807
-57.04464978,170.81449667,-65.53986636,-53.97584560,179.81086776,-173.11327588
21.77805266,-4.40308677,13.75673152,-2.09941544,-0.20502771,-0.58463337

>  <Name>
2esj_lig

>  <RI>
1.62275e+07

>  <Rbt.Current_Directory>
/home/itssahil/PROJECTS/Mol_Feturizer/New_Systems/rnas/2esj

>  <Rbt.Executable>
rbdock ($Id: //depot/dev/client3/rdock/2013.1/src/exe/rbdock.cxx#4 $)

>  <Rbt.Library>
libRbt.so (2013.1, Build901 2013/11/27)

>  <Rbt.Parameter_File>
/export/apps/rDock/src/rDock_2013.1_src/data/scripts/dock_solv.prm

>  <Rbt.Receptor>
prm/pocket_docking_5.prm

>  <SCORE>
-9.94844

>  <SCORE.INTER>
-4.07806

>  <SCORE.INTER.CONST>
1

>  <SCORE.INTER.POLAR>
-1.33949

>  <SCORE.INTER.ROT>
12

>  <SCORE.INTER.SOLV>
14.1659

>  <SCORE.INTER.VDW>
-14.5757

>  <SCORE.INTER.norm>
-0.0784243

>  <SCORE.INTRA>
-5.87038

>  <SCORE.INTRA.DIHEDRAL>
-13.5918

>  <SCORE.INTRA.DIHEDRAL.0>
32.9766

>  <SCORE.INTRA.POLAR>
0

>  <SCORE.INTRA.POLAR.0>
0

>  <SCORE.INTRA.REPUL>
0.0081703

>  <SCORE.INTRA.REPUL.0>
0

>  <SCORE.INTRA.SOLV>
-2.45669

>  <SCORE.INTRA.SOLV.lig_0>
-114.358

>  <SCORE.INTRA.VDW>
2.11303

>  <SCORE.INTRA.VDW.0>
-8.24257

>  <SCORE.INTRA.norm>
-0.112892

>  <SCORE.RESTR>
0

>  <SCORE.RESTR.CAVITY>
0

>  <SCORE.RESTR.norm>
0

>  <SCORE.SYSTEM>
0

>  <SCORE.SYSTEM.CONST>
0

>  <SCORE.SYSTEM.DIHEDRAL>
0

>  <SCORE.SYSTEM.SOLV>
0

>  <SCORE.SYSTEM.norm>
0

>  <SCORE.heavy>
52

>  <SCORE.norm>
-0.191316

>  <RMSD>
6.136

$$$$
2esj_lig
 OpenBabel11021811423D
libRbt.so/2013.1/901 2013/11/27
 52 56  0  0  0  0  0  0  0  0999 V2000
   18.7315  -10.1357   16.3532 C   0  0  2  0  0  0  0  0  0  0  0  0
   20.1565  -10.2647   16.5199 O   0  0  0  0  0  0  0  0  0  0  0  0
   23.5392   -9.8402   13.9383 C   0  0  2  0  0  0  0  0  0  0  0  0
   24.5480   -9.3478   12.9857 N   0  0  0  0  0  0  0  0  0  0  0  0
   22.2532   -7.3258   17.3956 C   0  0  1  0  0  0  0  0  0  0  0  0
   22.0304   -3.1533   17.6611 C   0  0  1  0  0  0  0  0  0  0  0  0
   20.3451   -0.8245   13.2861 C   0  0  1  0  0  0  0  0  0  0  0  0
   18.2265   -9.1126   17.4130 C   0  0  2  0  0  0  0  0  0  0  0  0
   18.9076   -7.8228   17.3055 N   0  0  0  0  0  0  0  0  0  0  0  0
   22.0974   -9.7727   13.2948 C   0  0  0  0  0  0  0  0  0  0  0  0
   22.4413   -6.6557   18.7573 C   0  0  2  0  0  0  0  0  0  0  0  0
   21.2254   -6.6408   19.5362 O   0  0  0  0  0  0  0  0  0  0  0  0
   20.5598   -2.5511   17.5344 C   0  0  2  0  0  0  0  0  0  0  0  0
   19.7427   -3.3342   16.5701 N   0  0  0  0  0  0  0  0  0  0  0  0
   19.2007   -1.7640   12.9239 C   0  0  1  0  0  0  0  0  0  0  0  0
   18.3885   -1.1496   11.9035 O   0  0  0  0  0  0  0  0  0  0  0  0
   18.3913   -9.6804   18.8585 C   0  0  0  0  0  0  0  0  0  0  0  0
   21.0359  -10.3602   14.3095 C   0  0  2  0  0  0  0  0  0  0  0  0
   19.6855  -10.2966   13.7410 N   0  0  0  0  0  0  0  0  0  0  0  0
   22.9168   -5.2970   18.3306 C   0  0  2  0  0  0  0  0  0  0  0  0
   21.8405   -4.5226   17.8655 O   0  0  0  0  0  0  0  0  0  0  0  0
   20.6643   -0.9940   17.2186 C   0  0  1  0  0  0  0  0  0  0  0  0
   21.5269   -0.3831   18.1837 O   0  0  0  0  0  0  0  0  0  0  0  0
   19.6219   -3.1408   12.4246 C   0  0  1  0  0  0  0  0  0  0  0  0
   18.4480   -3.7843   11.9165 O   0  0  0  0  0  0  0  0  0  0  0  0
   17.6784  -11.0627   18.9404 C   0  0  2  0  0  0  0  0  0  0  0  0
   17.7227  -11.6013   20.2496 O   0  0  0  0  0  0  0  0  0  0  0  0
   21.0919   -9.5927   15.6559 C   0  0  2  0  0  0  0  0  0  0  0  0
   23.7817   -5.5272   17.0742 C   0  0  2  0  0  0  0  0  0  0  0  0
   23.1819   -6.6832   16.5113 O   0  0  0  0  0  0  0  0  0  0  0  0
   21.3398   -0.7336   15.8097 C   0  0  2  0  0  0  0  0  0  0  0  0
   20.4383   -1.3246   14.8725 O   0  0  0  0  0  0  0  0  0  0  0  0
   20.6908   -3.0996   11.3311 C   0  0  2  0  0  0  0  0  0  0  0  0
   21.1991   -4.4366   11.1945 O   0  0  0  0  0  0  0  0  0  0  0  0
   18.3371  -12.0131   17.9100 C   0  0  2  0  0  0  0  0  0  0  0  0
   18.1314  -11.4308   16.5911 O   0  0  0  0  0  0  0  0  0  0  0  0
   22.5177   -9.5173   16.2902 C   0  0  2  0  0  0  0  0  0  0  0  0
   22.4686   -8.7155   17.5031 O   0  0  0  0  0  0  0  0  0  0  0  0
   25.2682   -5.7924   17.3100 C   0  0  0  0  0  0  0  0  0  0  0  0
   25.3726   -6.9486   18.1537 O   0  0  0  0  0  0  0  0  0  0  0  0
   22.5824   -1.6028   15.7838 C   0  0  1  0  0  0  0  0  0  0  0  0
   22.8305   -2.8848   16.3999 O   0  0  0  0  0  0  0  0  0  0  0  0
   21.7565   -2.0510   11.6300 C   0  0  2  0  0  0  0  0  0  0  0  0
   21.4366   -0.8415   12.3346 O   0  0  0  0  0  0  0  0  0  0  0  0
   17.6998  -13.3600   17.8662 C   0  0  0  0  0  0  0  0  0  0  0  0
   17.9883  -14.0030   19.0842 O   0  0  0  0  0  0  0  0  0  0  0  0
   23.5614   -8.9812   15.2532 C   0  0  1  0  0  0  0  0  0  0  0  0
   24.8763   -9.1261   15.8528 O   0  0  0  0  0  0  0  0  0  0  0  0
   23.5032   -1.4596   14.5330 C   0  0  0  0  0  0  0  0  0  0  0  0
   24.7444   -0.7034   14.8019 N   0  0  0  0  0  0  0  0  0  0  0  0
   22.9418   -1.7810   10.7060 C   0  0  0  0  0  0  0  0  0  0  0  0
   22.4758   -1.2039    9.4576 O   0  0  0  0  0  0  0  0  0  0  0  0
  1  2  1  1  0  0  0
  1  8  1  0  0  0  0
  1 36  1  0  0  0  0
  3  4  1  6  0  0  0
  3 10  1  0  0  0  0
  3 47  1  0  0  0  0
  5 11  1  0  0  0  0
  5 30  1  0  0  0  0
  5 38  1  1  0  0  0
  6 21  1  6  0  0  0
  6 42  1  0  0  0  0
  7 15  1  0  0  0  0
  7 44  1  0  0  0  0
  7 32  1  1  0  0  0
  8  9  1  1  0  0  0
  8 17  1  0  0  0  0
 11 12  1  6  0  0  0
 11 20  1  0  0  0  0
 13  6  1  0  0  0  0
 13 14  1  6  0  0  0
 15 16  1  6  0  0  0
 15 24  1  0  0  0  0
 17 26  1  0  0  0  0
 18 10  1  0  0  0  0
 18 19  1  6  0  0  0
 20 21  1  6  0  0  0
 20 29  1  0  0  0  0
 22 13  1  0  0  0  0
 22 23  1  1  0  0  0
 24 25  1  6  0  0  0
 24 33  1  0  0  0  0
 26 27  1  1  0  0  0
 26 35  1  0  0  0  0
 28  2  1  1  0  0  0
 28 18  1  0  0  0  0
 29 30  1  0  0  0  0
 29 39  1  1  0  0  0
 31 22  1  0  0  0  0
 31 32  1  6  0  0  0
 31 41  1  0  0  0  0
 33 34  1  1  0  0  0
 33 43  1  0  0  0  0
 35 36  1  0  0  0  0
 35 45  1  6  0  0  0
 37 28  1  0  0  0  0
 37 38  1  1  0  0  0
 39 40  1  0  0  0  0
 41 42  1  0  0  0  0
 41 49  1  6  0  0  0
 43 44  1  0  0  0  0
 43 51  1  6  0  0  0
 45 46  1  0  0  0  0
 47 37  1  0  0  0  0
 47 48  1  1  0  0  0
 49 50  1  0  0  0  0
 51 52  1  0  0  0  0
M  END
>  <CHROM.1>
-100.88150408,-171.74827945,-165.02059732,-176.91448676,168.04853802,-73.38251185
58.02027724,154.80455424,-68.20746322,-69.78847746,105.17699136,67.16268467
21.19370858,-6.04788968,15.68098125,2.03203034,1.14955659,2.31345352

>  <Name>
2esj_lig

>  <RI>
1.62275e+07

>  <Rbt.Current_Directory>
/home/itssahil/PROJECTS/Mol_Feturizer/New_Systems/rnas/2esj

>  <Rbt.Executable>
rbdock ($Id: //depot/dev/client3/rdock/2013.1/src/exe/rbdock.cxx#4 $)

>  <Rbt.Library>
libRbt.so (2013.1, Build901 2013/11/27)

>  <Rbt.Parameter_File>
/export/apps/rDock/src/rDock_2013.1_src/data/scripts/dock_solv.prm

>  <Rbt.Receptor>
prm/pocket_docking_5.prm

>  <SCORE>
-9.09803

>  <SCORE.INTER>
-3.91312

>  <SCORE.INTER.CONST>
1

>  <SCORE.INTER.POLAR>
0

>  <SCORE.INTER.ROT>
12

>  <SCORE.INTER.SOLV>
14.7802

>  <SCORE.INTER.VDW>
-19.1355

>  <SCORE.INTER.norm>
-0.0752524

>  <SCORE.INTRA>
-5.19952

>  <SCORE.INTRA.DIHEDRAL>
-15.9849

>  <SCORE.INTRA.DIHEDRAL.0>
32.9766

>  <SCORE.INTRA.POLAR>
0

>  <SCORE.INTRA.POLAR.0>
0

>  <SCORE.INTRA.REPUL>
0

>  <SCORE.INTRA.REPUL.0>
0

>  <SCORE.INTRA.SOLV>
0.814979

>  <SCORE.INTRA.SOLV.lig_0>
-114.358

>  <SCORE.INTRA.VDW>
2.38542

>  <SCORE.INTRA.VDW.0>
-8.24257

>  <SCORE.INTRA.norm>
-0.0999908

>  <SCORE.RESTR>
0.0146143

>  <SCORE.RESTR.CAVITY>
0.0146143

>  <SCORE.RESTR.norm>
0.000281044

>  <SCORE.SYSTEM>
0

>  <SCORE.SYSTEM.CONST>
0

>  <SCORE.SYSTEM.DIHEDRAL>
0

>  <SCORE.SYSTEM.SOLV>
0

>  <SCORE.SYSTEM.norm>
0

>  <SCORE.heavy>
52

>  <SCORE.norm>
-0.174962

>  <RMSD>
6.227

$$$$
2esj_lig
 OpenBabel11021811423D
libRbt.so/2013.1/901 2013/11/27
 52 56  0  0  0  0  0  0  0  0999 V2000
   21.0599  -11.0784   21.1248 C   0  0  2  0  0  0  0  0  0  0  0  0
   22.1669  -11.2011   20.2113 O   0  0  0  0  0  0  0  0  0  0  0  0
   23.6857  -13.7108   17.0996 C   0  0  2  0  0  0  0  0  0  0  0  0
   23.8356  -14.6593   15.9837 N   0  0  0  0  0  0  0  0  0  0  0  0
   22.4725   -9.3756   16.4254 C   0  0  1  0  0  0  0  0  0  0  0  0
   21.9624   -7.3287   13.2787 C   0  0  1  0  0  0  0  0  0  0  0  0
   21.3344   -2.8658   11.0804 C   0  0  1  0  0  0  0  0  0  0  0  0
   19.8714  -10.4500   20.3390 C   0  0  2  0  0  0  0  0  0  0  0  0
   19.5172  -11.2304   19.1539 N   0  0  0  0  0  0  0  0  0  0  0  0
   22.9213  -14.3943   18.3021 C   0  0  0  0  0  0  0  0  0  0  0  0
   21.4291   -8.3136   16.0765 C   0  0  2  0  0  0  0  0  0  0  0  0
   20.5155   -8.7559   15.0492 O   0  0  0  0  0  0  0  0  0  0  0  0
   22.8975   -6.9809   12.0353 C   0  0  2  0  0  0  0  0  0  0  0  0
   23.7915   -5.8334   12.3434 N   0  0  0  0  0  0  0  0  0  0  0  0
   20.7060   -2.8719    9.6917 C   0  0  1  0  0  0  0  0  0  0  0  0
   19.5530   -2.0064    9.6897 O   0  0  0  0  0  0  0  0  0  0  0  0
   20.1915   -8.9776   19.9280 C   0  0  0  0  0  0  0  0  0  0  0  0
   22.8223  -13.3806   19.5121 C   0  0  2  0  0  0  0  0  0  0  0  0
   22.1041  -13.9866   20.6381 N   0  0  0  0  0  0  0  0  0  0  0  0
   22.3208   -7.1793   15.6616 C   0  0  2  0  0  0  0  0  0  0  0  0
   22.8307   -7.4007   14.3711 O   0  0  0  0  0  0  0  0  0  0  0  0
   21.9891   -6.7972   10.7407 C   0  0  1  0  0  0  0  0  0  0  0  0
   21.1403   -7.9417   10.6049 O   0  0  0  0  0  0  0  0  0  0  0  0
   21.6259   -2.4327    8.5589 C   0  0  1  0  0  0  0  0  0  0  0  0
   20.8132   -2.2741    7.3908 O   0  0  0  0  0  0  0  0  0  0  0  0
   20.5877   -8.1744   21.2022 C   0  0  2  0  0  0  0  0  0  0  0  0
   20.8173   -6.8071   20.9126 O   0  0  0  0  0  0  0  0  0  0  0  0
   22.1205  -12.0718   19.0654 C   0  0  2  0  0  0  0  0  0  0  0  0
   23.5625   -7.2627   16.5732 C   0  0  2  0  0  0  0  0  0  0  0  0
   23.6432   -8.6549   16.8345 O   0  0  0  0  0  0  0  0  0  0  0  0
   21.0178   -5.5544   10.8872 C   0  0  2  0  0  0  0  0  0  0  0  0
   21.8953   -4.4316   10.9857 O   0  0  0  0  0  0  0  0  0  0  0  0
   22.3697   -1.1259    8.8402 C   0  0  2  0  0  0  0  0  0  0  0  0
   23.4049   -1.0141    7.8499 O   0  0  0  0  0  0  0  0  0  0  0  0
   21.8361   -8.8418   21.8309 C   0  0  2  0  0  0  0  0  0  0  0  0
   21.4605  -10.1990   22.2019 O   0  0  0  0  0  0  0  0  0  0  0  0
   22.7548  -11.4047   17.8031 C   0  0  2  0  0  0  0  0  0  0  0  0
   21.9769  -10.2336   17.4291 O   0  0  0  0  0  0  0  0  0  0  0  0
   23.4877   -6.5030   17.8971 C   0  0  0  0  0  0  0  0  0  0  0  0
   23.2828   -5.1164   17.5890 O   0  0  0  0  0  0  0  0  0  0  0  0
   20.3780   -5.6931   12.2552 C   0  0  1  0  0  0  0  0  0  0  0  0
   20.9092   -6.2539   13.4750 O   0  0  0  0  0  0  0  0  0  0  0  0
   22.8693   -1.0654   10.2794 C   0  0  2  0  0  0  0  0  0  0  0  0
   22.1470   -1.6972   11.3474 O   0  0  0  0  0  0  0  0  0  0  0  0
   22.2796   -8.1811   23.0915 C   0  0  0  0  0  0  0  0  0  0  0  0
   21.2785   -8.3981   24.0563 O   0  0  0  0  0  0  0  0  0  0  0  0
   22.8900  -12.4387   16.6348 C   0  0  1  0  0  0  0  0  0  0  0  0
   23.6576  -11.7986   15.5811 O   0  0  0  0  0  0  0  0  0  0  0  0
   19.2851   -4.6416   12.6198 C   0  0  0  0  0  0  0  0  0  0  0  0
   17.9068   -5.1274   12.3984 N   0  0  0  0  0  0  0  0  0  0  0  0
   23.6369    0.1272   10.8452 C   0  0  0  0  0  0  0  0  0  0  0  0
   24.0961   -0.1717   12.1900 O   0  0  0  0  0  0  0  0  0  0  0  0
  1  2  1  6  0  0  0
  1  8  1  0  0  0  0
  1 36  1  0  0  0  0
  3  4  1  6  0  0  0
  3 10  1  0  0  0  0
  3 47  1  0  0  0  0
  5 11  1  0  0  0  0
  5 30  1  0  0  0  0
  5 38  1  1  0  0  0
  6 21  1  1  0  0  0
  6 42  1  0  0  0  0
  7 15  1  0  0  0  0
  7 44  1  0  0  0  0
  7 32  1  6  0  0  0
  8  9  1  6  0  0  0
  8 17  1  0  0  0  0
 11 12  1  6  0  0  0
 11 20  1  0  0  0  0
 13  6  1  0  0  0  0
 13 14  1  1  0  0  0
 15 16  1  1  0  0  0
 15 24  1  0  0  0  0
 17 26  1  0  0  0  0
 18 10  1  0  0  0  0
 18 19  1  1  0  0  0
 20 21  1  6  0  0  0
 20 29  1  0  0  0  0
 22 13  1  0  0  0  0
 22 23  1  1  0  0  0
 24 25  1  6  0  0  0
 24 33  1  0  0  0  0
 26 27  1  6  0  0  0
 26 35  1  0  0  0  0
 28  2  1  1  0  0  0
 28 18  1  0  0  0  0
 29 30  1  0  0  0  0
 29 39  1  1  0  0  0
 31 22  1  0  0  0  0
 31 32  1  1  0  0  0
 31 41  1  0  0  0  0
 33 34  1  6  0  0  0
 33 43  1  0  0  0  0
 35 36  1  0  0  0  0
 35 45  1  1  0  0  0
 37 28  1  0  0  0  0
 37 38  1  6  0  0  0
 39 40  1  0  0  0  0
 41 42  1  0  0  0  0
 41 49  1  1  0  0  0
 43 44  1  0  0  0  0
 43 51  1  1  0  0  0
 45 46  1  0  0  0  0
 47 37  1  0  0  0  0
 47 48  1  6  0  0  0
 49 50  1  0  0  0  0
 51 52  1  0  0  0  0
M  END
>  <CHROM.1>
-64.94852646,173.28934151,155.68034192,-64.37999313,69.73044197,-96.70898463
-59.88383743,176.87622868,66.76243833,171.54243759,97.82128102,-173.97676306
21.90844051,-7.32900939,15.33103015,1.47895219,-1.45066304,2.18452745

>  <Name>
2esj_lig

>  <RI>
2.18877e+07

>  <Rbt.Current_Directory>
/home/itssahil/PROJECTS/Mol_Feturizer/New_Systems/rnas/2esj

>  <Rbt.Executable>
rbdock ($Id: //depot/dev/client3/rdock/2013.1/src/exe/rbdock.cxx#4 $)

>  <Rbt.Library>
libRbt.so (2013.1, Build901 2013/11/27)

>  <Rbt.Parameter_File>
/export/apps/rDock/src/rDock_2013.1_src/data/scripts/dock_solv.prm

>  <Rbt.Receptor>
prm/pocket_docking_7.prm

>  <SCORE>
-14.0467

>  <SCORE.INTER>
-8.634

>  <SCORE.INTER.CONST>
1

>  <SCORE.INTER.POLAR>
-1.65031

>  <SCORE.INTER.ROT>
12

>  <SCORE.INTER.SOLV>
16.3466

>  <SCORE.INTER.VDW>
-17.3038

>  <SCORE.INTER.norm>
-0.166038

>  <SCORE.INTRA>
-5.41267

>  <SCORE.INTRA.DIHEDRAL>
-19.0417

>  <SCORE.INTRA.DIHEDRAL.0>
32.9766

>  <SCORE.INTRA.POLAR>
0

>  <SCORE.INTRA.POLAR.0>
0

>  <SCORE.INTRA.REPUL>
0

>  <SCORE.INTRA.REPUL.0>
0

>  <SCORE.INTRA.SOLV>
-0.667617

>  <SCORE.INTRA.SOLV.lig_0>
-114.358

>  <SCORE.INTRA.VDW>
4.44198

>  <SCORE.INTRA.VDW.0>
-8.24257

>  <SCORE.INTRA.norm>
-0.10409

>  <SCORE.RESTR>
0

>  <SCORE.RESTR.CAVITY>
0

>  <SCORE.RESTR.norm>
0

>  <SCORE.SYSTEM>
0

>  <SCORE.SYSTEM.CONST>
0

>  <SCORE.SYSTEM.DIHEDRAL>
0

>  <SCORE.SYSTEM.SOLV>
0

>  <SCORE.SYSTEM.norm>
0

>  <SCORE.heavy>
52

>  <SCORE.norm>
-0.270128

>  <RMSD>
6.273

$$$$
2esj_lig
 OpenBabel11021811423D
libRbt.so/2013.1/901 2013/11/27
 52 56  0  0  0  0  0  0  0  0999 V2000
   18.1295   -7.0448   16.0850 C   0  0  2  0  0  0  0  0  0  0  0  0
   18.5294   -5.9733   16.9607 O   0  0  0  0  0  0  0  0  0  0  0  0
   17.9642   -4.9113   21.0645 C   0  0  2  0  0  0  0  0  0  0  0  0
   17.8642   -4.9147   22.5332 N   0  0  0  0  0  0  0  0  0  0  0  0
   21.7882   -4.3453   18.2961 C   0  0  1  0  0  0  0  0  0  0  0  0
   24.3203   -1.4924   19.2961 C   0  0  1  0  0  0  0  0  0  0  0  0
   28.3074    1.7034   18.3600 C   0  0  1  0  0  0  0  0  0  0  0  0
   19.2369   -8.1379   16.1461 C   0  0  2  0  0  0  0  0  0  0  0  0
   19.4757   -8.6081   17.5103 N   0  0  0  0  0  0  0  0  0  0  0  0
   17.0305   -6.0274   20.4480 C   0  0  0  0  0  0  0  0  0  0  0  0
   22.9638   -4.3260   19.2739 C   0  0  2  0  0  0  0  0  0  0  0  0
   22.6718   -3.5731   20.4711 O   0  0  0  0  0  0  0  0  0  0  0  0
   24.0780   -0.0152   18.7478 C   0  0  2  0  0  0  0  0  0  0  0  0
   24.5878    0.1296   17.3585 N   0  0  0  0  0  0  0  0  0  0  0  0
   28.0962    2.0261   16.8853 C   0  0  1  0  0  0  0  0  0  0  0  0
   28.9767    3.1026   16.5053 O   0  0  0  0  0  0  0  0  0  0  0  0
   20.5709   -7.6152   15.5245 C   0  0  0  0  0  0  0  0  0  0  0  0
   17.1060   -5.9692   18.8692 C   0  0  2  0  0  0  0  0  0  0  0  0
   16.2575   -7.0055   18.2716 N   0  0  0  0  0  0  0  0  0  0  0  0
   24.0299   -3.7189   18.4085 C   0  0  2  0  0  0  0  0  0  0  0  0
   23.8367   -2.3322   18.2894 O   0  0  0  0  0  0  0  0  0  0  0  0
   24.6708    1.0283   19.7941 C   0  0  1  0  0  0  0  0  0  0  0  0
   24.1454    0.7314   21.0919 O   0  0  0  0  0  0  0  0  0  0  0  0
   28.3298    0.8661   15.9250 C   0  0  1  0  0  0  0  0  0  0  0  0
   28.3202    1.4057   14.5988 O   0  0  0  0  0  0  0  0  0  0  0  0
   20.2859   -7.0995   14.0827 C   0  0  2  0  0  0  0  0  0  0  0  0
   21.4708   -6.6803   13.4296 O   0  0  0  0  0  0  0  0  0  0  0  0
   18.5726   -6.1300   18.3914 C   0  0  2  0  0  0  0  0  0  0  0  0
   23.7749   -4.2551   16.9848 C   0  0  2  0  0  0  0  0  0  0  0  0
   22.3684   -4.4421   16.9879 O   0  0  0  0  0  0  0  0  0  0  0  0
   26.2434    0.8886   19.9227 C   0  0  2  0  0  0  0  0  0  0  0  0
   26.7340    1.2239   18.6237 O   0  0  0  0  0  0  0  0  0  0  0  0
   29.6473    0.1256   16.1615 C   0  0  2  0  0  0  0  0  0  0  0  0
   29.5775   -1.0987   15.4126 O   0  0  0  0  0  0  0  0  0  0  0  0
   19.2474   -5.9538   14.1709 C   0  0  2  0  0  0  0  0  0  0  0  0
   18.0310   -6.5155   14.7418 O   0  0  0  0  0  0  0  0  0  0  0  0
   19.5745   -5.1317   19.0550 C   0  0  2  0  0  0  0  0  0  0  0  0
   20.9243   -5.4194   18.5948 O   0  0  0  0  0  0  0  0  0  0  0  0
   24.4595   -5.5720   16.6203 C   0  0  0  0  0  0  0  0  0  0  0  0
   24.0919   -5.8911   15.2702 O   0  0  0  0  0  0  0  0  0  0  0  0
   26.5110   -0.5950   20.0891 C   0  0  1  0  0  0  0  0  0  0  0  0
   25.7957   -1.7316   19.5590 O   0  0  0  0  0  0  0  0  0  0  0  0
   29.9231   -0.0639   17.6489 C   0  0  2  0  0  0  0  0  0  0  0  0
   29.4847    0.9005   18.6182 O   0  0  0  0  0  0  0  0  0  0  0  0
   18.8605   -5.4116   12.8371 C   0  0  0  0  0  0  0  0  0  0  0  0
   17.9374   -4.3724   13.0558 O   0  0  0  0  0  0  0  0  0  0  0  0
   19.4472   -5.1690   20.6153 C   0  0  1  0  0  0  0  0  0  0  0  0
   20.2614   -4.0862   21.1389 O   0  0  0  0  0  0  0  0  0  0  0  0
   27.9933   -1.0082   20.3440 C   0  0  0  0  0  0  0  0  0  0  0  0
   28.1345   -2.3669   20.9085 N   0  0  0  0  0  0  0  0  0  0  0  0
   31.1723   -0.7616   18.1822 C   0  0  0  0  0  0  0  0  0  0  0  0
   32.3576   -0.0115   17.8066 O   0  0  0  0  0  0  0  0  0  0  0  0
  1  2  1  1  0  0  0
  1  8  1  0  0  0  0
  1 36  1  0  0  0  0
  3  4  1  1  0  0  0
  3 10  1  0  0  0  0
  3 47  1  0  0  0  0
  5 11  1  0  0  0  0
  5 30  1  0  0  0  0
  5 38  1  1  0  0  0
  6 21  1  6  0  0  0
  6 42  1  0  0  0  0
  7 15  1  0  0  0  0
  7 44  1  0  0  0  0
  7 32  1  6  0  0  0
  8  9  1  1  0  0  0
  8 17  1  0  0  0  0
 11 12  1  1  0  0  0
 11 20  1  0  0  0  0
 13  6  1  0  0  0  0
 13 14  1  6  0  0  0
 15 16  1  6  0  0  0
 15 24  1  0  0  0  0
 17 26  1  0  0  0  0
 18 10  1  0  0  0  0
 18 19  1  6  0  0  0
 20 21  1  6  0  0  0
 20 29  1  0  0  0  0
 22 13  1  0  0  0  0
 22 23  1  1  0  0  0
 24 25  1  6  0  0  0
 24 33  1  0  0  0  0
 26 27  1  1  0  0  0
 26 35  1  0  0  0  0
 28  2  1  6  0  0  0
 28 18  1  0  0  0  0
 29 30  1  0  0  0  0
 29 39  1  1  0  0  0
 31 22  1  0  0  0  0
 31 32  1  6  0  0  0
 31 41  1  0  0  0  0
 33 34  1  6  0  0  0
 33 43  1  0  0  0  0
 35 36  1  0  0  0  0
 35 45  1  6  0  0  0
 37 28  1  0  0  0  0
 37 38  1  1  0  0  0
 39 40  1  0  0  0  0
 41 42  1  0  0  0  0
 41 49  1  6  0  0  0
 43 44  1  0  0  0  0
 43 51  1  6  0  0  0
 45 46  1  0  0  0  0
 47 37  1  0  0  0  0
 47 48  1  1  0  0  0
 49 50  1  0  0  0  0
 51 52  1  0  0  0  0
M  END
>  <CHROM.1>
-68.45340067,114.55854526,173.56919061,-174.36778568,83.26443156,-80.15121538
179.82253966,159.69362912,-179.06713617,139.56582249,161.90412072,63.20219254
23.39671351,-3.08374348,17.77554268,-2.89304955,0.55676370,1.22505844

>  <Name>
2esj_lig

>  <RI>
2.18877e+07

>  <Rbt.Current_Directory>
/home/itssahil/PROJECTS/Mol_Feturizer/New_Systems/rnas/2esj

>  <Rbt.Executable>
rbdock ($Id: //depot/dev/client3/rdock/2013.1/src/exe/rbdock.cxx#4 $)

>  <Rbt.Library>
libRbt.so (2013.1, Build901 2013/11/27)

>  <Rbt.Parameter_File>
/export/apps/rDock/src/rDock_2013.1_src/data/scripts/dock_solv.prm

>  <Rbt.Receptor>
prm/pocket_docking_7.prm

>  <SCORE>
-9.41149

>  <SCORE.INTER>
-7.27808

>  <SCORE.INTER.CONST>
1

>  <SCORE.INTER.POLAR>
-1.54357

>  <SCORE.INTER.ROT>
12

>  <SCORE.INTER.SOLV>
19.8177

>  <SCORE.INTER.VDW>
-17.9127

>  <SCORE.INTER.norm>
-0.139963

>  <SCORE.INTRA>
-2.13341

>  <SCORE.INTRA.DIHEDRAL>
-8.81183

>  <SCORE.INTRA.DIHEDRAL.0>
32.9766

>  <SCORE.INTRA.POLAR>
0

>  <SCORE.INTRA.POLAR.0>
0

>  <SCORE.INTRA.REPUL>
0.00597197

>  <SCORE.INTRA.REPUL.0>
0

>  <SCORE.INTRA.SOLV>
0.830046

>  <SCORE.INTRA.SOLV.lig_0>
-114.358

>  <SCORE.INTRA.VDW>
1.82762

>  <SCORE.INTRA.VDW.0>
-8.24257

>  <SCORE.INTRA.norm>
-0.0410271

>  <SCORE.RESTR>
0

>  <SCORE.RESTR.CAVITY>
0

>  <SCORE.RESTR.norm>
0

>  <SCORE.SYSTEM>
0

>  <SCORE.SYSTEM.CONST>
0

>  <SCORE.SYSTEM.DIHEDRAL>
0

>  <SCORE.SYSTEM.SOLV>
0

>  <SCORE.SYSTEM.norm>
0

>  <SCORE.heavy>
52

>  <SCORE.norm>
-0.18099

>  <RMSD>
6.430

$$$$
2esj_lig
 OpenBabel11021811423D
libRbt.so/2013.1/901 2013/11/27
 52 56  0  0  0  0  0  0  0  0999 V2000
   21.5026  -10.0416   18.5954 C   0  0  2  0  0  0  0  0  0  0  0  0
   22.5165   -9.6249   19.5298 O   0  0  0  0  0  0  0  0  0  0  0  0
   22.7821   -6.8748   22.7939 C   0  0  2  0  0  0  0  0  0  0  0  0
   22.8405   -5.6682   23.6354 N   0  0  0  0  0  0  0  0  0  0  0  0
   19.6708   -7.4427   19.5742 C   0  0  1  0  0  0  0  0  0  0  0  0
   18.1827   -4.5867   17.0541 C   0  0  1  0  0  0  0  0  0  0  0  0
   21.5309   -2.2842   14.0117 C   0  0  1  0  0  0  0  0  0  0  0  0
   21.9006  -11.4526   18.0703 C   0  0  2  0  0  0  0  0  0  0  0  0
   22.0733  -12.4183   19.1552 N   0  0  0  0  0  0  0  0  0  0  0  0
   23.9057   -6.8247   21.6837 C   0  0  0  0  0  0  0  0  0  0  0  0
   18.2714   -7.7205   19.0238 C   0  0  2  0  0  0  0  0  0  0  0  0
   18.2924   -8.6219   17.8957 O   0  0  0  0  0  0  0  0  0  0  0  0
   18.7173   -4.5612   15.5525 C   0  0  2  0  0  0  0  0  0  0  0  0
   20.0929   -5.1190   15.4652 N   0  0  0  0  0  0  0  0  0  0  0  0
   22.6442   -3.2891   14.2843 C   0  0  1  0  0  0  0  0  0  0  0  0
   23.0397   -3.9061   13.0428 O   0  0  0  0  0  0  0  0  0  0  0  0
   23.2035  -11.3807   17.2122 C   0  0  0  0  0  0  0  0  0  0  0  0
   23.8656   -8.1545   20.8283 C   0  0  2  0  0  0  0  0  0  0  0  0
   24.8913   -8.1275   19.7805 N   0  0  0  0  0  0  0  0  0  0  0  0
   17.8263   -6.3260   18.6904 C   0  0  2  0  0  0  0  0  0  0  0  0
   18.4331   -5.8866   17.5016 O   0  0  0  0  0  0  0  0  0  0  0  0
   18.5500   -3.0892   14.9691 C   0  0  1  0  0  0  0  0  0  0  0  0
   17.2006   -2.6597   15.1773 O   0  0  0  0  0  0  0  0  0  0  0  0
   23.8927   -2.7148   14.9429 C   0  0  1  0  0  0  0  0  0  0  0  0
   24.8991   -3.7325   14.9022 O   0  0  0  0  0  0  0  0  0  0  0  0
   23.0027  -10.3304   16.0798 C   0  0  2  0  0  0  0  0  0  0  0  0
   24.1218  -10.2693   15.2137 O   0  0  0  0  0  0  0  0  0  0  0  0
   22.4602   -8.3536   20.2034 C   0  0  2  0  0  0  0  0  0  0  0  0
   18.4344   -5.4168   19.7782 C   0  0  2  0  0  0  0  0  0  0  0  0
   19.6221   -6.1155   20.1160 O   0  0  0  0  0  0  0  0  0  0  0  0
   19.4583   -2.0515   15.7484 C   0  0  2  0  0  0  0  0  0  0  0  0
   20.7933   -2.4897   15.4912 O   0  0  0  0  0  0  0  0  0  0  0  0
   24.4223   -1.4507   14.2635 C   0  0  2  0  0  0  0  0  0  0  0  0
   25.3809   -0.8660   15.1601 O   0  0  0  0  0  0  0  0  0  0  0  0
   22.7123   -8.9570   16.7343 C   0  0  2  0  0  0  0  0  0  0  0  0
   21.4820   -9.0947   17.5013 O   0  0  0  0  0  0  0  0  0  0  0  0
   21.2877   -8.2939   21.2343 C   0  0  2  0  0  0  0  0  0  0  0  0
   20.0182   -8.4157   20.5343 O   0  0  0  0  0  0  0  0  0  0  0  0
   17.5950   -5.2073   21.0380 C   0  0  0  0  0  0  0  0  0  0  0  0
   18.3579   -4.3858   21.9340 O   0  0  0  0  0  0  0  0  0  0  0  0
   19.2174   -2.3208   17.2214 C   0  0  1  0  0  0  0  0  0  0  0  0
   18.9097   -3.5575   17.8999 O   0  0  0  0  0  0  0  0  0  0  0  0
   23.2878   -0.5150   13.8611 C   0  0  2  0  0  0  0  0  0  0  0  0
   22.0016   -1.0239   13.4757 O   0  0  0  0  0  0  0  0  0  0  0  0
   22.4548   -7.8778   15.7386 C   0  0  0  0  0  0  0  0  0  0  0  0
   23.6332   -7.7054   14.9890 O   0  0  0  0  0  0  0  0  0  0  0  0
   21.3760   -6.9947   22.1041 C   0  0  1  0  0  0  0  0  0  0  0  0
   20.3784   -7.1114   23.1531 O   0  0  0  0  0  0  0  0  0  0  0  0
   19.9203   -1.3574   18.2267 C   0  0  0  0  0  0  0  0  0  0  0  0
   21.2605   -0.9212   17.7817 N   0  0  0  0  0  0  0  0  0  0  0  0
   23.5190    0.8187   13.1543 C   0  0  0  0  0  0  0  0  0  0  0  0
   24.5464    1.5755   13.8474 O   0  0  0  0  0  0  0  0  0  0  0  0
  1  2  1  1  0  0  0
  1  8  1  0  0  0  0
  1 36  1  0  0  0  0
  3  4  1  6  0  0  0
  3 10  1  0  0  0  0
  3 47  1  0  0  0  0
  5 11  1  0  0  0  0
  5 30  1  0  0  0  0
  5 38  1  1  0  0  0
  6 21  1  1  0  0  0
  6 42  1  0  0  0  0
  7 15  1  0  0  0  0
  7 44  1  0  0  0  0
  7 32  1  1  0  0  0
  8  9  1  1  0  0  0
  8 17  1  0  0  0  0
 11 12  1  6  0  0  0
 11 20  1  0  0  0  0
 13  6  1  0  0  0  0
 13 14  1  1  0  0  0
 15 16  1  6  0  0  0
 15 24  1  0  0  0  0
 17 26  1  0  0  0  0
 18 10  1  0  0  0  0
 18 19  1  6  0  0  0
 20 21  1  6  0  0  0
 20 29  1  0  0  0  0
 22 13  1  0  0  0  0
 22 23  1  1  0  0  0
 24 25  1  6  0  0  0
 24 33  1  0  0  0  0
 26 27  1  1  0  0  0
 26 35  1  0  0  0  0
 28  2  1  1  0  0  0
 28 18  1  0  0  0  0
 29 30  1  0  0  0  0
 29 39  1  1  0  0  0
 31 22  1  0  0  0  0
 31 32  1  1  0  0  0
 31 41  1  0  0  0  0
 33 34  1  1  0  0  0
 33 43  1  0  0  0  0
 35 36  1  0  0  0  0
 35 45  1  6  0  0  0
 37 28  1  0  0  0  0
 37 38  1  6  0  0  0
 39 40  1  0  0  0  0
 41 42  1  0  0  0  0
 41 49  1  1  0  0  0
 43 44  1  0  0  0  0
 43 51  1  6  0  0  0
 45 46  1  0  0  0  0
 47 37  1  0  0  0  0
 47 48  1  1  0  0  0
 49 50  1  0  0  0  0
 51 52  1  0  0  0  0
M  END
>  <CHROM.1>
179.73102429,-176.82964562,-166.58421278,-163.81732704,-177.48137270,-166.76464240
177.65024934,73.36790347,-63.54184937,-60.97771790,-35.97150375,-48.80562094
21.35972945,-5.57543436,17.58598263,-1.69340394,0.73461031,-0.54749473

>  <Name>
2esj_lig

>  <RI>
2.18877e+07

>  <Rbt.Current_Directory>
/home/itssahil/PROJECTS/Mol_Feturizer/New_Systems/rnas/2esj

>  <Rbt.Executable>
rbdock ($Id: //depot/dev/client3/rdock/2013.1/src/exe/rbdock.cxx#4 $)

>  <Rbt.Library>
libRbt.so (2013.1, Build901 2013/11/27)

>  <Rbt.Parameter_File>
/export/apps/rDock/src/rDock_2013.1_src/data/scripts/dock_solv.prm

>  <Rbt.Receptor>
prm/pocket_docking_7.prm

>  <SCORE>
-16.5202

>  <SCORE.INTER>
-6.95656

>  <SCORE.INTER.CONST>
1

>  <SCORE.INTER.POLAR>
0

>  <SCORE.INTER.ROT>
12

>  <SCORE.INTER.SOLV>
13.9889

>  <SCORE.INTER.VDW>
-20.9007

>  <SCORE.INTER.norm>
-0.13378

>  <SCORE.INTRA>
-9.58698

>  <SCORE.INTRA.DIHEDRAL>
-23.9046

>  <SCORE.INTRA.DIHEDRAL.0>
32.9766

>  <SCORE.INTRA.POLAR>
0

>  <SCORE.INTRA.POLAR.0>
0

>  <SCORE.INTRA.REPUL>
0

>  <SCORE.INTRA.REPUL.0>
0

>  <SCORE.INTRA.SOLV>
-0.0415586

>  <SCORE.INTRA.SOLV.lig_0>
-114.358

>  <SCORE.INTRA.VDW>
2.38608

>  <SCORE.INTRA.VDW.0>
-8.24257

>  <SCORE.INTRA.norm>
-0.184365

>  <SCORE.RESTR>
0.0233804

>  <SCORE.RESTR.CAVITY>
0.0233804

>  <SCORE.RESTR.norm>
0.000449624

>  <SCORE.SYSTEM>
0

>  <SCORE.SYSTEM.CONST>
0

>  <SCORE.SYSTEM.DIHEDRAL>
0

>  <SCORE.SYSTEM.SOLV>
0

>  <SCORE.SYSTEM.norm>
0

>  <SCORE.heavy>
52

>  <SCORE.norm>
-0.317696

>  <RMSD>
6.454

$$$$
2esj_lig
 OpenBabel11021811423D
libRbt.so/2013.1/901 2013/11/27
 52 56  0  0  0  0  0  0  0  0999 V2000
   22.5556  -12.3966   20.9544 C   0  0  2  0  0  0  0  0  0  0  0  0
   21.2892  -12.9544   20.5543 O   0  0  0  0  0  0  0  0  0  0  0  0
   22.5921  -15.9470   17.7911 C   0  0  2  0  0  0  0  0  0  0  0  0
   22.6625  -17.0110   16.7761 N   0  0  0  0  0  0  0  0  0  0  0  0
   21.9786  -11.6684   16.5374 C   0  0  1  0  0  0  0  0  0  0  0  0
   22.2271   -9.1586   13.2633 C   0  0  1  0  0  0  0  0  0  0  0  0
   22.5101   -4.0142   13.9222 C   0  0  1  0  0  0  0  0  0  0  0  0
   22.6330  -12.4764   22.5076 C   0  0  2  0  0  0  0  0  0  0  0  0
   22.4577  -13.8420   23.0010 N   0  0  0  0  0  0  0  0  0  0  0  0
   21.6653  -16.3931   18.9909 C   0  0  0  0  0  0  0  0  0  0  0  0
   21.3869  -10.2794   16.2936 C   0  0  2  0  0  0  0  0  0  0  0  0
   20.1801  -10.3263   15.5020 O   0  0  0  0  0  0  0  0  0  0  0  0
   23.5377   -8.3491   12.8534 C   0  0  2  0  0  0  0  0  0  0  0  0
   24.2256   -7.8028   14.0531 N   0  0  0  0  0  0  0  0  0  0  0  0
   23.7247   -3.8998   14.8360 C   0  0  1  0  0  0  0  0  0  0  0  0
   24.1109   -2.5147   14.9394 O   0  0  0  0  0  0  0  0  0  0  0  0
   21.5761  -11.5346   23.1674 C   0  0  0  0  0  0  0  0  0  0  0  0
   21.6495  -15.2630   20.0973 C   0  0  2  0  0  0  0  0  0  0  0  0
   20.7844  -15.6470   21.2176 N   0  0  0  0  0  0  0  0  0  0  0  0
   22.5435   -9.6043   15.6150 C   0  0  2  0  0  0  0  0  0  0  0  0
   22.6433  -10.0246   14.2779 O   0  0  0  0  0  0  0  0  0  0  0  0
   23.1540   -7.2695   11.7479 C   0  0  1  0  0  0  0  0  0  0  0  0
   22.4460   -7.9228   10.6893 O   0  0  0  0  0  0  0  0  0  0  0  0
   23.5309   -4.4408   16.2474 C   0  0  1  0  0  0  0  0  0  0  0  0
   24.6705   -4.0386   17.0153 O   0  0  0  0  0  0  0  0  0  0  0  0
   21.7684  -10.0935   22.6090 C   0  0  2  0  0  0  0  0  0  0  0  0
   20.8896   -9.1687   23.2243 O   0  0  0  0  0  0  0  0  0  0  0  0
   21.1792  -13.9164   19.4886 C   0  0  2  0  0  0  0  0  0  0  0  0
   23.8141  -10.1719   16.2806 C   0  0  2  0  0  0  0  0  0  0  0  0
   23.3955  -11.4761   16.6504 O   0  0  0  0  0  0  0  0  0  0  0  0
   22.1592   -6.1798   12.3244 C   0  0  2  0  0  0  0  0  0  0  0  0
   22.9082   -5.5277   13.3511 O   0  0  0  0  0  0  0  0  0  0  0  0
   22.2571   -3.9396   16.9302 C   0  0  2  0  0  0  0  0  0  0  0  0
   22.0564   -4.7607   18.0922 O   0  0  0  0  0  0  0  0  0  0  0  0
   21.5692  -10.1347   21.0736 C   0  0  2  0  0  0  0  0  0  0  0  0
   22.5935  -11.0144   20.5279 O   0  0  0  0  0  0  0  0  0  0  0  0
   21.9788  -13.4735   18.2215 C   0  0  2  0  0  0  0  0  0  0  0  0
   21.4085  -12.2445   17.6917 O   0  0  0  0  0  0  0  0  0  0  0  0
   24.3221   -9.4337   17.5186 C   0  0  0  0  0  0  0  0  0  0  0  0
   24.6893   -8.1076   17.1109 O   0  0  0  0  0  0  0  0  0  0  0  0
   21.0724   -6.9561   13.0429 C   0  0  1  0  0  0  0  0  0  0  0  0
   21.1429   -8.2139   13.7482 O   0  0  0  0  0  0  0  0  0  0  0  0
   21.0766   -3.9185   15.9656 C   0  0  2  0  0  0  0  0  0  0  0  0
   21.2615   -3.6607   14.5652 O   0  0  0  0  0  0  0  0  0  0  0  0
   21.7777   -8.8104   20.4214 C   0  0  0  0  0  0  0  0  0  0  0  0
   23.1025   -8.4150   20.6834 O   0  0  0  0  0  0  0  0  0  0  0  0
   22.0248  -14.6247   17.1609 C   0  0  1  0  0  0  0  0  0  0  0  0
   22.9397  -14.2073   16.1131 O   0  0  0  0  0  0  0  0  0  0  0  0
   19.8911   -6.1196   13.6241 C   0  0  0  0  0  0  0  0  0  0  0  0
   18.6005   -6.3826   12.9534 N   0  0  0  0  0  0  0  0  0  0  0  0
   19.6792   -3.4536   16.3691 C   0  0  0  0  0  0  0  0  0  0  0  0
   19.7258   -2.0724   16.8151 O   0  0  0  0  0  0  0  0  0  0  0  0
  1  2  1  1  0  0  0
  1  8  1  0  0  0  0
  1 36  1  0  0  0  0
  3  4  1  6  0  0  0
  3 10  1  0  0  0  0
  3 47  1  0  0  0  0
  5 11  1  0  0  0  0
  5 30  1  0  0  0  0
  5 38  1  1  0  0  0
  6 21  1  1  0  0  0
  6 42  1  0  0  0  0
  7 15  1  0  0  0  0
  7 44  1  0  0  0  0
  7 32  1  1  0  0  0
  8  9  1  6  0  0  0
  8 17  1  0  0  0  0
 11 12  1  6  0  0  0
 11 20  1  0  0  0  0
 13  6  1  0  0  0  0
 13 14  1  1  0  0  0
 15 16  1  1  0  0  0
 15 24  1  0  0  0  0
 17 26  1  0  0  0  0
 18 10  1  0  0  0  0
 18 19  1  1  0  0  0
 20 21  1  6  0  0  0
 20 29  1  0  0  0  0
 22 13  1  0  0  0  0
 22 23  1  6  0  0  0
 24 25  1  1  0  0  0
 24 33  1  0  0  0  0
 26 27  1  1  0  0  0
 26 35  1  0  0  0  0
 28  2  1  1  0  0  0
 28 18  1  0  0  0  0
 29 30  1  0  0  0  0
 29 39  1  1  0  0  0
 31 22  1  0  0  0  0
 31 32  1  1  0  0  0
 31 41  1  0  0  0  0
 33 34  1  1  0  0  0
 33 43  1  0  0  0  0
 35 36  1  0  0  0  0
 35 45  1  6  0  0  0
 37 28  1  0  0  0  0
 37 38  1  6  0  0  0
 39 40  1  0  0  0  0
 41 42  1  0  0  0  0
 41 49  1  1  0  0  0
 43 44  1  0  0  0  0
 43 51  1  1  0  0  0
 45 46  1  0  0  0  0
 47 37  1  0  0  0  0
 47 48  1  6  0  0  0
 49 50  1  0  0  0  0
 51 52  1  0  0  0  0
M  END
>  <CHROM.1>
-132.70418892,-170.52135412,91.82041181,-175.15211239,104.68819813,77.19462241
-63.10887950,159.75924480,60.61314230,-179.75135474,113.31297211,60.13726386
22.15680378,-9.19428294,17.02183527,1.84639474,-1.52234430,2.84373082

>  <Name>
2esj_lig

>  <RI>
0

>  <Rbt.Current_Directory>
/home/itssahil/PROJECTS/Mol_Feturizer/New_Systems/rnas/2esj

>  <Rbt.Executable>
rbdock ($Id: //depot/dev/client3/rdock/2013.1/src/exe/rbdock.cxx#4 $)

>  <Rbt.Library>
libRbt.so (2013.1, Build901 2013/11/27)

>  <Rbt.Parameter_File>
/export/apps/rDock/src/rDock_2013.1_src/data/scripts/dock_solv.prm

>  <Rbt.Receptor>
prm/pocket_docking_8.prm

>  <SCORE>
-13.407

>  <SCORE.INTER>
-11.7685

>  <SCORE.INTER.CONST>
1

>  <SCORE.INTER.POLAR>
-2.50955

>  <SCORE.INTER.ROT>
12

>  <SCORE.INTER.SOLV>
9.89687

>  <SCORE.INTER.VDW>
-14.3795

>  <SCORE.INTER.norm>
-0.226317

>  <SCORE.INTRA>
-1.63852

>  <SCORE.INTRA.DIHEDRAL>
-7.8418

>  <SCORE.INTRA.DIHEDRAL.0>
32.9766

>  <SCORE.INTRA.POLAR>
0

>  <SCORE.INTRA.POLAR.0>
0

>  <SCORE.INTRA.REPUL>
0

>  <SCORE.INTRA.REPUL.0>
0

>  <SCORE.INTRA.SOLV>
2.01079

>  <SCORE.INTRA.SOLV.lig_0>
-114.358

>  <SCORE.INTRA.VDW>
1.27698

>  <SCORE.INTRA.VDW.0>
-8.24257

>  <SCORE.INTRA.norm>
-0.03151

>  <SCORE.RESTR>
0

>  <SCORE.RESTR.CAVITY>
0

>  <SCORE.RESTR.norm>
0

>  <SCORE.SYSTEM>
0

>  <SCORE.SYSTEM.CONST>
0

>  <SCORE.SYSTEM.DIHEDRAL>
0

>  <SCORE.SYSTEM.SOLV>
0

>  <SCORE.SYSTEM.norm>
0

>  <SCORE.heavy>
52

>  <SCORE.norm>
-0.257827

>  <RMSD>
6.470

$$$$
2esj_lig
 OpenBabel11021811423D
libRbt.so/2013.1/901 2013/11/27
 52 56  0  0  0  0  0  0  0  0999 V2000
   20.0096   -7.6368   14.1269 C   0  0  2  0  0  0  0  0  0  0  0  0
   20.9971   -6.6944   14.5869 O   0  0  0  0  0  0  0  0  0  0  0  0
   18.4069   -3.5788   15.9550 C   0  0  2  0  0  0  0  0  0  0  0  0
   17.8451   -2.3598   16.5598 N   0  0  0  0  0  0  0  0  0  0  0  0
   22.2069   -3.8771   13.3368 C   0  0  1  0  0  0  0  0  0  0  0  0
   26.2104   -2.6381   13.6010 C   0  0  1  0  0  0  0  0  0  0  0  0
   27.4150   -1.6665   18.4594 C   0  0  1  0  0  0  0  0  0  0  0  0
   20.7665   -8.9040   13.6308 C   0  0  2  0  0  0  0  0  0  0  0  0
   21.6262   -9.4761   14.6666 N   0  0  0  0  0  0  0  0  0  0  0  0
   19.2122   -4.4061   17.0340 C   0  0  0  0  0  0  0  0  0  0  0  0
   23.0301   -3.6958   12.0609 C   0  0  2  0  0  0  0  0  0  0  0  0
   23.5945   -4.9383   11.5886 O   0  0  0  0  0  0  0  0  0  0  0  0
   27.1096   -3.6858   14.3978 C   0  0  2  0  0  0  0  0  0  0  0  0
   26.3425   -4.3152   15.5053 N   0  0  0  0  0  0  0  0  0  0  0  0
   27.1631   -2.9430   19.2534 C   0  0  1  0  0  0  0  0  0  0  0  0
   27.6343   -2.7616   20.6038 O   0  0  0  0  0  0  0  0  0  0  0  0
   21.6117   -8.5853   12.3568 C   0  0  0  0  0  0  0  0  0  0  0  0
   19.7574   -5.7397   16.3813 C   0  0  2  0  0  0  0  0  0  0  0  0
   20.5213   -6.5207   17.3597 N   0  0  0  0  0  0  0  0  0  0  0  0
   24.0469   -2.6961   12.5307 C   0  0  2  0  0  0  0  0  0  0  0  0
   25.0250   -3.3231   13.3210 O   0  0  0  0  0  0  0  0  0  0  0  0
   28.4649   -2.9750   14.8373 C   0  0  1  0  0  0  0  0  0  0  0  0
   29.0594   -2.3621   13.6886 O   0  0  0  0  0  0  0  0  0  0  0  0
   25.7084   -3.3925   19.3191 C   0  0  1  0  0  0  0  0  0  0  0  0
   25.6345   -4.4479   20.2839 O   0  0  0  0  0  0  0  0  0  0  0  0
   20.6795   -7.9567   11.2790 C   0  0  2  0  0  0  0  0  0  0  0  0
   21.3675   -7.7129   10.0651 O   0  0  0  0  0  0  0  0  0  0  0  0
   20.6349   -5.4170   15.1440 C   0  0  2  0  0  0  0  0  0  0  0  0
   23.3056   -1.7713   13.5180 C   0  0  2  0  0  0  0  0  0  0  0  0
   22.3239   -2.6422   14.0571 O   0  0  0  0  0  0  0  0  0  0  0  0
   28.1947   -1.7985   15.8631 C   0  0  2  0  0  0  0  0  0  0  0  0
   27.6354   -2.4489   17.0052 O   0  0  0  0  0  0  0  0  0  0  0  0
   24.7361   -2.2785   19.7109 C   0  0  2  0  0  0  0  0  0  0  0  0
   23.4128   -2.7613   19.4268 O   0  0  0  0  0  0  0  0  0  0  0  0
   20.0694   -6.6569   11.8598 C   0  0  2  0  0  0  0  0  0  0  0  0
   19.2865   -7.0315   13.0293 O   0  0  0  0  0  0  0  0  0  0  0  0
   19.9391   -4.4992   14.0883 C   0  0  2  0  0  0  0  0  0  0  0  0
   20.8726   -4.2002   13.0134 O   0  0  0  0  0  0  0  0  0  0  0  0
   22.6189   -0.5449   12.9177 C   0  0  0  0  0  0  0  0  0  0  0  0
   23.6261    0.2330   12.2542 O   0  0  0  0  0  0  0  0  0  0  0  0
   27.0647   -0.9835   15.2639 C   0  0  1  0  0  0  0  0  0  0  0  0
   25.9531   -1.4022   14.4432 O   0  0  0  0  0  0  0  0  0  0  0  0
   25.0852   -0.9637   19.0226 C   0  0  2  0  0  0  0  0  0  0  0  0
   26.4448   -0.6216   18.7123 O   0  0  0  0  0  0  0  0  0  0  0  0
   19.1170   -5.9904   10.9265 C   0  0  0  0  0  0  0  0  0  0  0  0
   18.6138   -4.8504   11.5802 O   0  0  0  0  0  0  0  0  0  0  0  0
   19.3628   -3.2097   14.7644 C   0  0  1  0  0  0  0  0  0  0  0  0
   18.5725   -2.5159   13.7628 O   0  0  0  0  0  0  0  0  0  0  0  0
   26.6625    0.3136   16.0311 C   0  0  0  0  0  0  0  0  0  0  0  0
   27.1051    1.5535   15.3591 N   0  0  0  0  0  0  0  0  0  0  0  0
   24.2921    0.3239   19.2345 C   0  0  0  0  0  0  0  0  0  0  0  0
   24.4797    0.8039   20.5921 O   0  0  0  0  0  0  0  0  0  0  0  0
  1  2  1  6  0  0  0
  1  8  1  0  0  0  0
  1 36  1  0  0  0  0
  3  4  1  1  0  0  0
  3 10  1  0  0  0  0
  3 47  1  0  0  0  0
  5 11  1  0  0  0  0
  5 30  1  0  0  0  0
  5 38  1  6  0  0  0
  6 21  1  1  0  0  0
  6 42  1  0  0  0  0
  7 15  1  0  0  0  0
  7 44  1  0  0  0  0
  7 32  1  6  0  0  0
  8  9  1  1  0  0  0
  8 17  1  0  0  0  0
 11 12  1  1  0  0  0
 11 20  1  0  0  0  0
 13  6  1  0  0  0  0
 13 14  1  1  0  0  0
 15 16  1  1  0  0  0
 15 24  1  0  0  0  0
 17 26  1  0  0  0  0
 18 10  1  0  0  0  0
 18 19  1  1  0  0  0
 20 21  1  1  0  0  0
 20 29  1  0  0  0  0
 22 13  1  0  0  0  0
 22 23  1  6  0  0  0
 24 25  1  1  0  0  0
 24 33  1  0  0  0  0
 26 27  1  6  0  0  0
 26 35  1  0  0  0  0
 28  2  1  6  0  0  0
 28 18  1  0  0  0  0
 29 30  1  0  0  0  0
 29 39  1  6  0  0  0
 31 22  1  0  0  0  0
 31 32  1  1  0  0  0
 31 41  1  0  0  0  0
 33 34  1  6  0  0  0
 33 43  1  0  0  0  0
 35 36  1  0  0  0  0
 35 45  1  6  0  0  0
 37 28  1  0  0  0  0
 37 38  1  6  0  0  0
 39 40  1  0  0  0  0
 41 42  1  0  0  0  0
 41 49  1  1  0  0  0
 43 44  1  0  0  0  0
 43 51  1  1  0  0  0
 45 46  1  0  0  0  0
 47 37  1  0  0  0  0
 47 48  1  6  0  0  0
 49 50  1  0  0  0  0
 51 52  1  0  0  0  0
M  END
>  <CHROM.1>
-178.55460903,176.10212661,-175.37999078,-166.45460813,165.66844588,59.78394323
-58.78684115,169.50743087,178.61618789,-42.91833411,106.30521298,68.11088280
23.29495297,-3.60531965,15.15891740,2.48393491,-0.48730665,-1.81744571

>  <Name>
2esj_lig

>  <RI>
1.62275e+07

>  <Rbt.Current_Directory>
/home/itssahil/PROJECTS/Mol_Feturizer/New_Systems/rnas/2esj

>  <Rbt.Executable>
rbdock ($Id: //depot/dev/client3/rdock/2013.1/src/exe/rbdock.cxx#4 $)

>  <Rbt.Library>
libRbt.so (2013.1, Build901 2013/11/27)

>  <Rbt.Parameter_File>
/export/apps/rDock/src/rDock_2013.1_src/data/scripts/dock_solv.prm

>  <Rbt.Receptor>
prm/pocket_docking_5.prm

>  <SCORE>
-14.7177

>  <SCORE.INTER>
-3.73981

>  <SCORE.INTER.CONST>
1

>  <SCORE.INTER.POLAR>
-0.824621

>  <SCORE.INTER.ROT>
12

>  <SCORE.INTER.SOLV>
11.8116

>  <SCORE.INTER.VDW>
-15.2817

>  <SCORE.INTER.norm>
-0.0719195

>  <SCORE.INTRA>
-10.981

>  <SCORE.INTRA.DIHEDRAL>
-23.8292

>  <SCORE.INTRA.DIHEDRAL.0>
32.9766

>  <SCORE.INTRA.POLAR>
0

>  <SCORE.INTRA.POLAR.0>
0

>  <SCORE.INTRA.REPUL>
0

>  <SCORE.INTRA.REPUL.0>
0

>  <SCORE.INTRA.SOLV>
-2.37531

>  <SCORE.INTRA.SOLV.lig_0>
-114.358

>  <SCORE.INTRA.VDW>
2.1212

>  <SCORE.INTRA.VDW.0>
-8.24257

>  <SCORE.INTRA.norm>
-0.211174

>  <SCORE.RESTR>
0.00314668

>  <SCORE.RESTR.CAVITY>
0.00314668

>  <SCORE.RESTR.norm>
6.05131e-05

>  <SCORE.SYSTEM>
0

>  <SCORE.SYSTEM.CONST>
0

>  <SCORE.SYSTEM.DIHEDRAL>
0

>  <SCORE.SYSTEM.SOLV>
0

>  <SCORE.SYSTEM.norm>
0

>  <SCORE.heavy>
52

>  <SCORE.norm>
-0.283033

>  <RMSD>
6.486

$$$$
2esj_lig
 OpenBabel11021811423D
libRbt.so/2013.1/901 2013/11/27
 52 56  0  0  0  0  0  0  0  0999 V2000
   22.2426   -6.3405   16.3108 C   0  0  2  0  0  0  0  0  0  0  0  0
   21.3839   -5.5880   15.4327 O   0  0  0  0  0  0  0  0  0  0  0  0
   22.5476   -7.1209   11.6137 C   0  0  2  0  0  0  0  0  0  0  0  0
   22.5794   -7.5776   10.2145 N   0  0  0  0  0  0  0  0  0  0  0  0
   22.8699   -2.7954   13.8969 C   0  0  1  0  0  0  0  0  0  0  0  0
   25.1546    0.1966   15.6470 C   0  0  1  0  0  0  0  0  0  0  0  0
   28.3307   -1.9256   19.0660 C   0  0  1  0  0  0  0  0  0  0  0  0
   22.2421   -5.6244   17.6936 C   0  0  2  0  0  0  0  0  0  0  0  0
   20.8936   -5.4793   18.2411 N   0  0  0  0  0  0  0  0  0  0  0  0
   21.4300   -7.8957   12.4189 C   0  0  0  0  0  0  0  0  0  0  0  0
   22.7521   -1.3845   13.3189 C   0  0  2  0  0  0  0  0  0  0  0  0
   23.5802   -1.1971   12.1508 O   0  0  0  0  0  0  0  0  0  0  0  0
   26.7168    0.1363   15.3353 C   0  0  2  0  0  0  0  0  0  0  0  0
   27.1731   -1.2680   15.1604 N   0  0  0  0  0  0  0  0  0  0  0  0
   29.2535   -2.8598   18.2918 C   0  0  1  0  0  0  0  0  0  0  0  0
   30.2885   -3.3402   19.1729 O   0  0  0  0  0  0  0  0  0  0  0  0
   22.9283   -4.2248   17.5967 C   0  0  0  0  0  0  0  0  0  0  0  0
   21.4508   -7.4350   13.9318 C   0  0  2  0  0  0  0  0  0  0  0  0
   20.4124   -8.1303   14.6993 N   0  0  0  0  0  0  0  0  0  0  0  0
   23.1677   -0.5662   14.5070 C   0  0  2  0  0  0  0  0  0  0  0  0
   24.5628   -0.6077   14.6695 O   0  0  0  0  0  0  0  0  0  0  0  0
   27.4985    0.9639   16.4485 C   0  0  1  0  0  0  0  0  0  0  0  0
   26.9145    2.2667   16.5517 O   0  0  0  0  0  0  0  0  0  0  0  0
   28.5747   -4.0690   17.6599 C   0  0  1  0  0  0  0  0  0  0  0  0
   29.6107   -4.9388   17.1904 O   0  0  0  0  0  0  0  0  0  0  0  0
   24.3517   -4.4034   16.9901 C   0  0  2  0  0  0  0  0  0  0  0  0
   25.0623   -3.1790   16.9449 O   0  0  0  0  0  0  0  0  0  0  0  0
   21.2596   -5.8993   14.0324 C   0  0  2  0  0  0  0  0  0  0  0  0
   22.6253   -1.3113   15.7441 C   0  0  2  0  0  0  0  0  0  0  0  0
   22.6448   -2.6610   15.3070 O   0  0  0  0  0  0  0  0  0  0  0  0
   27.3373    0.3041   17.8796 C   0  0  2  0  0  0  0  0  0  0  0  0
   27.9587   -0.9754   17.7491 O   0  0  0  0  0  0  0  0  0  0  0  0
   27.6645   -4.8369   18.6201 C   0  0  2  0  0  0  0  0  0  0  0  0
   26.8734   -5.7303   17.8197 O   0  0  0  0  0  0  0  0  0  0  0  0
   24.2064   -5.0309   15.5815 C   0  0  2  0  0  0  0  0  0  0  0  0
   23.5769   -6.3332   15.7508 O   0  0  0  0  0  0  0  0  0  0  0  0
   22.2597   -5.0720   13.1625 C   0  0  2  0  0  0  0  0  0  0  0  0
   21.9437   -3.6562   13.2722 O   0  0  0  0  0  0  0  0  0  0  0  0
   21.2112   -0.9455   16.1937 C   0  0  0  0  0  0  0  0  0  0  0  0
   20.9736   -1.6001   17.4485 O   0  0  0  0  0  0  0  0  0  0  0  0
   25.8552    0.0234   18.0371 C   0  0  1  0  0  0  0  0  0  0  0  0
   24.8660   -0.3219   17.0437 O   0  0  0  0  0  0  0  0  0  0  0  0
   26.8500   -3.8910   19.4954 C   0  0  2  0  0  0  0  0  0  0  0  0
   27.3703   -2.6158   19.9018 O   0  0  0  0  0  0  0  0  0  0  0  0
   25.5167   -5.2929   14.9204 C   0  0  0  0  0  0  0  0  0  0  0  0
   25.7099   -4.2885   13.9540 O   0  0  0  0  0  0  0  0  0  0  0  0
   22.2600   -5.5781   11.6806 C   0  0  1  0  0  0  0  0  0  0  0  0
   23.3437   -4.8971   10.9942 O   0  0  0  0  0  0  0  0  0  0  0  0
   25.3989   -0.5402   19.4180 C   0  0  0  0  0  0  0  0  0  0  0  0
   25.2751    0.4976   20.4631 N   0  0  0  0  0  0  0  0  0  0  0  0
   25.8636   -4.3778   20.5545 C   0  0  0  0  0  0  0  0  0  0  0  0
   24.8968   -5.2798   19.9542 O   0  0  0  0  0  0  0  0  0  0  0  0
  1  2  1  6  0  0  0
  1  8  1  0  0  0  0
  1 36  1  0  0  0  0
  3  4  1  6  0  0  0
  3 10  1  0  0  0  0
  3 47  1  0  0  0  0
  5 11  1  0  0  0  0
  5 30  1  0  0  0  0
  5 38  1  6  0  0  0
  6 21  1  6  0  0  0
  6 42  1  0  0  0  0
  7 15  1  0  0  0  0
  7 44  1  0  0  0  0
  7 32  1  6  0  0  0
  8  9  1  6  0  0  0
  8 17  1  0  0  0  0
 11 12  1  6  0  0  0
 11 20  1  0  0  0  0
 13  6  1  0  0  0  0
 13 14  1  1  0  0  0
 15 16  1  1  0  0  0
 15 24  1  0  0  0  0
 17 26  1  0  0  0  0
 18 10  1  0  0  0  0
 18 19  1  1  0  0  0
 20 21  1  1  0  0  0
 20 29  1  0  0  0  0
 22 13  1  0  0  0  0
 22 23  1  1  0  0  0
 24 25  1  1  0  0  0
 24 33  1  0  0  0  0
 26 27  1  6  0  0  0
 26 35  1  0  0  0  0
 28  2  1  1  0  0  0
 28 18  1  0  0  0  0
 29 30  1  0  0  0  0
 29 39  1  6  0  0  0
 31 22  1  0  0  0  0
 31 32  1  6  0  0  0
 31 41  1  0  0  0  0
 33 34  1  6  0  0  0
 33 43  1  0  0  0  0
 35 36  1  0  0  0  0
 35 45  1  1  0  0  0
 37 28  1  0  0  0  0
 37 38  1  6  0  0  0
 39 40  1  0  0  0  0
 41 42  1  0  0  0  0
 41 49  1  1  0  0  0
 43 44  1  0  0  0  0
 43 51  1  1  0  0  0
 45 46  1  0  0  0  0
 47 37  1  0  0  0  0
 47 48  1  6  0  0  0
 49 50  1  0  0  0  0
 51 52  1  0  0  0  0
M  END
>  <CHROM.1>
173.76496361,151.12245379,-168.03920854,-165.37154818,173.96652316,31.93620060
-172.06861046,166.89255701,-103.50883339,113.97237805,79.40419685,-54.87207702
24.59311333,-3.34846369,16.09116355,-2.77574116,-0.82896225,-0.24288983

>  <Name>
2esj_lig

>  <RI>
1.62275e+07

>  <Rbt.Current_Directory>
/home/itssahil/PROJECTS/Mol_Feturizer/New_Systems/rnas/2esj

>  <Rbt.Executable>
rbdock ($Id: //depot/dev/client3/rdock/2013.1/src/exe/rbdock.cxx#4 $)

>  <Rbt.Library>
libRbt.so (2013.1, Build901 2013/11/27)

>  <Rbt.Parameter_File>
/export/apps/rDock/src/rDock_2013.1_src/data/scripts/dock_solv.prm

>  <Rbt.Receptor>
prm/pocket_docking_5.prm

>  <SCORE>
0.134176

>  <SCORE.INTER>
4.95766

>  <SCORE.INTER.CONST>
1

>  <SCORE.INTER.POLAR>
0

>  <SCORE.INTER.ROT>
12

>  <SCORE.INTER.SOLV>
11.7968

>  <SCORE.INTER.VDW>
-12.2272

>  <SCORE.INTER.norm>
0.0953397

>  <SCORE.INTRA>
-4.82349

>  <SCORE.INTRA.DIHEDRAL>
-7.04721

>  <SCORE.INTRA.DIHEDRAL.0>
32.9766

>  <SCORE.INTRA.POLAR>
0

>  <SCORE.INTRA.POLAR.0>
0

>  <SCORE.INTRA.REPUL>
0.00482177

>  <SCORE.INTRA.REPUL.0>
0

>  <SCORE.INTRA.SOLV>
3.3475

>  <SCORE.INTRA.SOLV.lig_0>
-114.358

>  <SCORE.INTRA.VDW>
-2.99774

>  <SCORE.INTRA.VDW.0>
-8.24257

>  <SCORE.INTRA.norm>
-0.0927594

>  <SCORE.RESTR>
0

>  <SCORE.RESTR.CAVITY>
0

>  <SCORE.RESTR.norm>
0

>  <SCORE.SYSTEM>
0

>  <SCORE.SYSTEM.CONST>
0

>  <SCORE.SYSTEM.DIHEDRAL>
0

>  <SCORE.SYSTEM.SOLV>
0

>  <SCORE.SYSTEM.norm>
0

>  <SCORE.heavy>
52

>  <SCORE.norm>
0.00258031

>  <RMSD>
6.589

$$$$
2esj_lig
 OpenBabel11021811423D
libRbt.so/2013.1/901 2013/11/27
 52 56  0  0  0  0  0  0  0  0999 V2000
   21.6360   -6.7845   20.9209 C   0  0  2  0  0  0  0  0  0  0  0  0
   21.6224   -8.1673   20.5177 O   0  0  0  0  0  0  0  0  0  0  0  0
   18.8390  -11.0663   19.0561 C   0  0  2  0  0  0  0  0  0  0  0  0
   17.7054  -11.9904   18.8876 N   0  0  0  0  0  0  0  0  0  0  0  0
   18.7945   -6.4983   18.1368 C   0  0  1  0  0  0  0  0  0  0  0  0
   17.5656   -3.9137   15.0653 C   0  0  1  0  0  0  0  0  0  0  0  0
   20.4724   -4.2883   10.5779 C   0  0  1  0  0  0  0  0  0  0  0  0
   23.0335   -6.2033   20.5546 C   0  0  2  0  0  0  0  0  0  0  0  0
   23.3432   -6.3607   19.1338 N   0  0  0  0  0  0  0  0  0  0  0  0
   19.6133  -11.3859   20.3961 C   0  0  0  0  0  0  0  0  0  0  0  0
   17.6439   -5.5218   18.3843 C   0  0  2  0  0  0  0  0  0  0  0  0
   16.3506   -6.1352   18.1934 O   0  0  0  0  0  0  0  0  0  0  0  0
   17.2752   -4.7526   13.7413 C   0  0  2  0  0  0  0  0  0  0  0  0
   18.2040   -5.9079   13.6260 N   0  0  0  0  0  0  0  0  0  0  0  0
   21.3618   -3.1131   10.9670 C   0  0  1  0  0  0  0  0  0  0  0  0
   22.6766   -3.3092   10.4091 O   0  0  0  0  0  0  0  0  0  0  0  0
   24.1553   -6.8632   21.4179 C   0  0  0  0  0  0  0  0  0  0  0  0
   20.8609  -10.4230   20.5301 C   0  0  2  0  0  0  0  0  0  0  0  0
   21.5902  -10.6902   21.7741 N   0  0  0  0  0  0  0  0  0  0  0  0
   17.9725   -4.4520   17.3835 C   0  0  2  0  0  0  0  0  0  0  0  0
   17.6189   -4.8647   16.0877 O   0  0  0  0  0  0  0  0  0  0  0  0
   17.2727   -3.7642   12.4931 C   0  0  1  0  0  0  0  0  0  0  0  0
   16.3880   -2.6733   12.7685 O   0  0  0  0  0  0  0  0  0  0  0  0
   20.8620   -1.7435   10.5235 C   0  0  1  0  0  0  0  0  0  0  0  0
   21.9208   -0.8092   10.7607 O   0  0  0  0  0  0  0  0  0  0  0  0
   23.7911   -6.7028   22.9237 C   0  0  2  0  0  0  0  0  0  0  0  0
   24.8071   -7.2129   23.7685 O   0  0  0  0  0  0  0  0  0  0  0  0
   20.4086   -8.9406   20.4769 C   0  0  2  0  0  0  0  0  0  0  0  0
   19.5124   -4.3704   17.3422 C   0  0  2  0  0  0  0  0  0  0  0  0
   19.8866   -5.7027   17.6552 O   0  0  0  0  0  0  0  0  0  0  0  0
   18.7000   -3.1157   12.2661 C   0  0  2  0  0  0  0  0  0  0  0  0
   19.5463   -4.2253   11.9613 O   0  0  0  0  0  0  0  0  0  0  0  0
   20.4535   -1.6835    9.0506 C   0  0  2  0  0  0  0  0  0  0  0  0
   19.7268   -0.4572    8.8693 O   0  0  0  0  0  0  0  0  0  0  0  0
   22.4341   -7.4060   23.1749 C   0  0  2  0  0  0  0  0  0  0  0  0
   21.4386   -6.7314   22.3534 O   0  0  0  0  0  0  0  0  0  0  0  0
   19.5337   -8.5832   19.2328 C   0  0  2  0  0  0  0  0  0  0  0  0
   19.1042   -7.1962   19.3226 O   0  0  0  0  0  0  0  0  0  0  0  0
   20.1706   -3.4135   18.3357 C   0  0  0  0  0  0  0  0  0  0  0  0
   19.6620   -2.0980   18.0705 O   0  0  0  0  0  0  0  0  0  0  0  0
   19.1481   -2.6233   13.6288 C   0  0  1  0  0  0  0  0  0  0  0  0
   18.8739   -3.1544   14.9430 O   0  0  0  0  0  0  0  0  0  0  0  0
   19.6886   -2.9338    8.6309 C   0  0  2  0  0  0  0  0  0  0  0  0
   19.9653   -4.2121    9.2235 O   0  0  0  0  0  0  0  0  0  0  0  0
   21.9597   -7.2753   24.5821 C   0  0  0  0  0  0  0  0  0  0  0  0
   22.0820   -5.9211   24.9444 O   0  0  0  0  0  0  0  0  0  0  0  0
   18.3338   -9.5793   19.0906 C   0  0  1  0  0  0  0  0  0  0  0  0
   17.6932   -9.3013   17.8171 O   0  0  0  0  0  0  0  0  0  0  0  0
   20.4961   -1.8399   13.6745 C   0  0  0  0  0  0  0  0  0  0  0  0
   20.3918   -0.5325   14.3561 N   0  0  0  0  0  0  0  0  0  0  0  0
   19.1654   -3.1537    7.2134 C   0  0  0  0  0  0  0  0  0  0  0  0
   20.2249   -2.9105    6.2506 O   0  0  0  0  0  0  0  0  0  0  0  0
  1  2  1  1  0  0  0
  1  8  1  0  0  0  0
  1 36  1  0  0  0  0
  3  4  1  1  0  0  0
  3 10  1  0  0  0  0
  3 47  1  0  0  0  0
  5 11  1  0  0  0  0
  5 30  1  0  0  0  0
  5 38  1  1  0  0  0
  6 21  1  1  0  0  0
  6 42  1  0  0  0  0
  7 15  1  0  0  0  0
  7 44  1  0  0  0  0
  7 32  1  1  0  0  0
  8  9  1  6  0  0  0
  8 17  1  0  0  0  0
 11 12  1  6  0  0  0
 11 20  1  0  0  0  0
 13  6  1  0  0  0  0
 13 14  1  6  0  0  0
 15 16  1  6  0  0  0
 15 24  1  0  0  0  0
 17 26  1  0  0  0  0
 18 10  1  0  0  0  0
 18 19  1  1  0  0  0
 20 21  1  6  0  0  0
 20 29  1  0  0  0  0
 22 13  1  0  0  0  0
 22 23  1  1  0  0  0
 24 25  1  6  0  0  0
 24 33  1  0  0  0  0
 26 27  1  1  0  0  0
 26 35  1  0  0  0  0
 28  2  1  6  0  0  0
 28 18  1  0  0  0  0
 29 30  1  0  0  0  0
 29 39  1  1  0  0  0
 31 22  1  0  0  0  0
 31 32  1  1  0  0  0
 31 41  1  0  0  0  0
 33 34  1  1  0  0  0
 33 43  1  0  0  0  0
 35 36  1  0  0  0  0
 35 45  1  1  0  0  0
 37 28  1  0  0  0  0
 37 38  1  1  0  0  0
 39 40  1  0  0  0  0
 41 42  1  0  0  0  0
 41 49  1  6  0  0  0
 43 44  1  0  0  0  0
 43 51  1  6  0  0  0
 45 46  1  0  0  0  0
 47 37  1  0  0  0  0
 47 48  1  6  0  0  0
 49 50  1  0  0  0  0
 51 52  1  0  0  0  0
M  END
>  <CHROM.1>
-168.09572891,145.13808449,174.81417032,65.24994441,165.87996716,-159.28147387
-59.39905453,125.25861079,47.85777850,154.43800627,127.81964793,49.92481791
20.04225807,-5.40256044,16.34872959,-1.40523850,-0.76718980,-1.00484236

>  <Name>
2esj_lig

>  <RI>
0

>  <Rbt.Current_Directory>
/home/itssahil/PROJECTS/Mol_Feturizer/New_Systems/rnas/2esj

>  <Rbt.Executable>
rbdock ($Id: //depot/dev/client3/rdock/2013.1/src/exe/rbdock.cxx#4 $)

>  <Rbt.Library>
libRbt.so (2013.1, Build901 2013/11/27)

>  <Rbt.Parameter_File>
/export/apps/rDock/src/rDock_2013.1_src/data/scripts/dock_solv.prm

>  <Rbt.Receptor>
prm/pocket_docking_8.prm

>  <SCORE>
-16.8989

>  <SCORE.INTER>
-13.3195

>  <SCORE.INTER.CONST>
1

>  <SCORE.INTER.POLAR>
-1.44704

>  <SCORE.INTER.ROT>
12

>  <SCORE.INTER.SOLV>
14.6634

>  <SCORE.INTER.VDW>
-20.544

>  <SCORE.INTER.norm>
-0.256145

>  <SCORE.INTRA>
-3.57942

>  <SCORE.INTRA.DIHEDRAL>
-9.53759

>  <SCORE.INTRA.DIHEDRAL.0>
32.9766

>  <SCORE.INTRA.POLAR>
0

>  <SCORE.INTRA.POLAR.0>
0

>  <SCORE.INTRA.REPUL>
0

>  <SCORE.INTRA.REPUL.0>
0

>  <SCORE.INTRA.SOLV>
-1.74944

>  <SCORE.INTRA.SOLV.lig_0>
-114.358

>  <SCORE.INTRA.VDW>
2.0641

>  <SCORE.INTRA.VDW.0>
-8.24257

>  <SCORE.INTRA.norm>
-0.0688349

>  <SCORE.RESTR>
0

>  <SCORE.RESTR.CAVITY>
0

>  <SCORE.RESTR.norm>
0

>  <SCORE.SYSTEM>
0

>  <SCORE.SYSTEM.CONST>
0

>  <SCORE.SYSTEM.DIHEDRAL>
0

>  <SCORE.SYSTEM.SOLV>
0

>  <SCORE.SYSTEM.norm>
0

>  <SCORE.heavy>
52

>  <SCORE.norm>
-0.32498

>  <RMSD>
6.603

$$$$
2esj_lig
 OpenBabel11021811423D
libRbt.so/2013.1/901 2013/11/27
 52 56  0  0  0  0  0  0  0  0999 V2000
   18.1633   -5.8174   16.1867 C   0  0  2  0  0  0  0  0  0  0  0  0
   19.2361   -6.7673   16.0396 O   0  0  0  0  0  0  0  0  0  0  0  0
   19.8065  -10.9754   16.5436 C   0  0  2  0  0  0  0  0  0  0  0  0
   19.6691  -12.4411   16.5259 N   0  0  0  0  0  0  0  0  0  0  0  0
   20.9884   -7.1010   13.5749 C   0  0  1  0  0  0  0  0  0  0  0  0
   23.7647   -3.9466   13.1650 C   0  0  1  0  0  0  0  0  0  0  0  0
   22.2398   -1.4271    9.3495 C   0  0  1  0  0  0  0  0  0  0  0  0
   18.0922   -4.9835   14.8734 C   0  0  2  0  0  0  0  0  0  0  0  0
   17.9165   -5.8268   13.6914 N   0  0  0  0  0  0  0  0  0  0  0  0
   18.5306  -10.3123   17.1994 C   0  0  0  0  0  0  0  0  0  0  0  0
   22.4281   -7.2498   14.0687 C   0  0  2  0  0  0  0  0  0  0  0  0
   22.5605   -6.9554   15.4762 O   0  0  0  0  0  0  0  0  0  0  0  0
   23.0075   -2.5866   13.5088 C   0  0  2  0  0  0  0  0  0  0  0  0
   21.6057   -2.6154   13.0135 N   0  0  0  0  0  0  0  0  0  0  0  0
   21.5251   -0.0867    9.2219 C   0  0  1  0  0  0  0  0  0  0  0  0
   21.6490    0.3888    7.8665 O   0  0  0  0  0  0  0  0  0  0  0  0
   19.3668   -4.0964   14.7070 C   0  0  0  0  0  0  0  0  0  0  0  0
   18.7221   -8.7436   17.2635 C   0  0  2  0  0  0  0  0  0  0  0  0
   17.5443   -8.1019   17.8566 N   0  0  0  0  0  0  0  0  0  0  0  0
   23.1292   -6.2758   13.1666 C   0  0  2  0  0  0  0  0  0  0  0  0
   22.8992   -4.9568   13.5928 O   0  0  0  0  0  0  0  0  0  0  0  0
   23.8807   -1.3622   12.9860 C   0  0  1  0  0  0  0  0  0  0  0  0
   25.2147   -1.4981   13.4868 O   0  0  0  0  0  0  0  0  0  0  0  0
   20.0444   -0.1016    9.5817 C   0  0  1  0  0  0  0  0  0  0  0  0
   19.4983    1.1596    9.1801 O   0  0  0  0  0  0  0  0  0  0  0  0
   19.5446   -3.2263   15.9864 C   0  0  2  0  0  0  0  0  0  0  0  0
   20.6421   -2.3384   15.8710 O   0  0  0  0  0  0  0  0  0  0  0  0
   18.9922   -8.1732   15.8469 C   0  0  2  0  0  0  0  0  0  0  0  0
   22.4041   -6.3610   11.8077 C   0  0  2  0  0  0  0  0  0  0  0  0
   21.0851   -6.7082   12.1987 O   0  0  0  0  0  0  0  0  0  0  0  0
   24.0089   -1.3756   11.4072 C   0  0  2  0  0  0  0  0  0  0  0  0
   22.6686   -1.2043   10.9439 O   0  0  0  0  0  0  0  0  0  0  0  0
   19.2585   -1.2305    8.9124 C   0  0  2  0  0  0  0  0  0  0  0  0
   17.9872   -1.3048    9.5778 O   0  0  0  0  0  0  0  0  0  0  0  0
   19.7023   -4.1730   17.2021 C   0  0  2  0  0  0  0  0  0  0  0  0
   18.4770   -4.9535   17.3044 O   0  0  0  0  0  0  0  0  0  0  0  0
   20.1696   -8.8687   15.0913 C   0  0  2  0  0  0  0  0  0  0  0  0
   20.2854   -8.3107   13.7528 O   0  0  0  0  0  0  0  0  0  0  0  0
   22.9292   -7.4019   10.8196 C   0  0  0  0  0  0  0  0  0  0  0  0
   22.0163   -7.4470    9.7132 O   0  0  0  0  0  0  0  0  0  0  0  0
   24.3891   -2.7967   11.0387 C   0  0  1  0  0  0  0  0  0  0  0  0
   24.0416   -4.0447   11.6761 O   0  0  0  0  0  0  0  0  0  0  0  0
   20.0448   -2.5368    8.9143 C   0  0  2  0  0  0  0  0  0  0  0  0
   21.4783   -2.5453    8.8330 O   0  0  0  0  0  0  0  0  0  0  0  0
   19.8328   -3.4452   18.4966 C   0  0  0  0  0  0  0  0  0  0  0  0
   21.0537   -2.7462   18.4663 O   0  0  0  0  0  0  0  0  0  0  0  0
   19.9857  -10.4238   15.0838 C   0  0  1  0  0  0  0  0  0  0  0  0
   21.2045  -10.9980   14.5416 O   0  0  0  0  0  0  0  0  0  0  0  0
   24.6836   -3.0673    9.5311 C   0  0  0  0  0  0  0  0  0  0  0  0
   26.1154   -2.9507    9.1831 N   0  0  0  0  0  0  0  0  0  0  0  0
   19.5116   -3.8309    8.3037 C   0  0  0  0  0  0  0  0  0  0  0  0
   18.7667   -4.5793    9.3006 O   0  0  0  0  0  0  0  0  0  0  0  0
  1  2  1  6  0  0  0
  1  8  1  0  0  0  0
  1 36  1  0  0  0  0
  3  4  1  6  0  0  0
  3 10  1  0  0  0  0
  3 47  1  0  0  0  0
  5 11  1  0  0  0  0
  5 30  1  0  0  0  0
  5 38  1  6  0  0  0
  6 21  1  6  0  0  0
  6 42  1  0  0  0  0
  7 15  1  0  0  0  0
  7 44  1  0  0  0  0
  7 32  1  1  0  0  0
  8  9  1  6  0  0  0
  8 17  1  0  0  0  0
 11 12  1  1  0  0  0
 11 20  1  0  0  0  0
 13  6  1  0  0  0  0
 13 14  1  6  0  0  0
 15 16  1  6  0  0  0
 15 24  1  0  0  0  0
 17 26  1  0  0  0  0
 18 10  1  0  0  0  0
 18 19  1  6  0  0  0
 20 21  1  1  0  0  0
 20 29  1  0  0  0  0
 22 13  1  0  0  0  0
 22 23  1  1  0  0  0
 24 25  1  6  0  0  0
 24 33  1  0  0  0  0
 26 27  1  6  0  0  0
 26 35  1  0  0  0  0
 28  2  1  1  0  0  0
 28 18  1  0  0  0  0
 29 30  1  0  0  0  0
 29 39  1  6  0  0  0
 31 22  1  0  0  0  0
 31 32  1  6  0  0  0
 31 41  1  0  0  0  0
 33 34  1  1  0  0  0
 33 43  1  0  0  0  0
 35 36  1  0  0  0  0
 35 45  1  1  0  0  0
 37 28  1  0  0  0  0
 37 38  1  6  0  0  0
 39 40  1  0  0  0  0
 41 42  1  0  0  0  0
 41 49  1  6  0  0  0
 43 44  1  0  0  0  0
 43 51  1  6  0  0  0
 45 46  1  0  0  0  0
 47 37  1  0  0  0  0
 47 48  1  1  0  0  0
 49 50  1  0  0  0  0
 51 52  1  0  0  0  0
M  END
>  <CHROM.1>
-107.45766745,58.67399426,165.80951148,-128.86550239,160.51919726,-81.40264950
172.15126534,-168.59903876,-66.51371083,82.53198930,93.46486214,-89.39536832
21.02006317,-4.77471406,13.08772868,2.12306651,-1.09183242,2.89486297

>  <Name>
2esj_lig

>  <RI>
0

>  <Rbt.Current_Directory>
/home/itssahil/PROJECTS/Mol_Feturizer/New_Systems/rnas/2esj

>  <Rbt.Executable>
rbdock ($Id: //depot/dev/client3/rdock/2013.1/src/exe/rbdock.cxx#4 $)

>  <Rbt.Library>
libRbt.so (2013.1, Build901 2013/11/27)

>  <Rbt.Parameter_File>
/export/apps/rDock/src/rDock_2013.1_src/data/scripts/dock_solv.prm

>  <Rbt.Receptor>
prm/pocket_docking_6.prm

>  <SCORE>
-9.77035

>  <SCORE.INTER>
-9.0956

>  <SCORE.INTER.CONST>
1

>  <SCORE.INTER.POLAR>
-0.697064

>  <SCORE.INTER.ROT>
12

>  <SCORE.INTER.SOLV>
16.6449

>  <SCORE.INTER.VDW>
-20.8885

>  <SCORE.INTER.norm>
-0.174915

>  <SCORE.INTRA>
-0.735703

>  <SCORE.INTRA.DIHEDRAL>
-6.32798

>  <SCORE.INTRA.DIHEDRAL.0>
32.9766

>  <SCORE.INTRA.POLAR>
0

>  <SCORE.INTRA.POLAR.0>
0

>  <SCORE.INTRA.REPUL>
0

>  <SCORE.INTRA.REPUL.0>
0

>  <SCORE.INTRA.SOLV>
1.97441

>  <SCORE.INTRA.SOLV.lig_0>
-114.358

>  <SCORE.INTRA.VDW>
1.44108

>  <SCORE.INTRA.VDW.0>
-8.24257

>  <SCORE.INTRA.norm>
-0.0141481

>  <SCORE.RESTR>
0.0609537

>  <SCORE.RESTR.CAVITY>
0.0609537

>  <SCORE.RESTR.norm>
0.00117219

>  <SCORE.SYSTEM>
0

>  <SCORE.SYSTEM.CONST>
0

>  <SCORE.SYSTEM.DIHEDRAL>
0

>  <SCORE.SYSTEM.SOLV>
0

>  <SCORE.SYSTEM.norm>
0

>  <SCORE.heavy>
52

>  <SCORE.norm>
-0.187891

>  <RMSD>
6.623

$$$$
2esj_lig
 OpenBabel11021811423D
libRbt.so/2013.1/901 2013/11/27
 52 56  0  0  0  0  0  0  0  0999 V2000
   21.4266  -11.7511   19.0607 C   0  0  2  0  0  0  0  0  0  0  0  0
   21.5572  -10.4798   18.3963 O   0  0  0  0  0  0  0  0  0  0  0  0
   22.4176   -8.0010   21.7731 C   0  0  2  0  0  0  0  0  0  0  0  0
   22.7522   -6.8776   22.6638 N   0  0  0  0  0  0  0  0  0  0  0  0
   19.2934   -7.5909   18.5897 C   0  0  1  0  0  0  0  0  0  0  0  0
   18.2079   -4.4677   15.9790 C   0  0  1  0  0  0  0  0  0  0  0  0
   19.7925   -3.4132   11.2660 C   0  0  1  0  0  0  0  0  0  0  0  0
   21.7862  -12.8592   18.0273 C   0  0  2  0  0  0  0  0  0  0  0  0
   23.1215  -12.6743   17.4600 N   0  0  0  0  0  0  0  0  0  0  0  0
   23.5440   -8.1900   20.6809 C   0  0  0  0  0  0  0  0  0  0  0  0
   18.1237   -7.7627   17.6198 C   0  0  2  0  0  0  0  0  0  0  0  0
   18.5128   -8.4330   16.4013 O   0  0  0  0  0  0  0  0  0  0  0  0
   17.2880   -4.8949   14.7491 C   0  0  2  0  0  0  0  0  0  0  0  0
   17.9518   -5.9369   13.9218 N   0  0  0  0  0  0  0  0  0  0  0  0
   19.6809   -4.7209   10.4909 C   0  0  1  0  0  0  0  0  0  0  0  0
   20.0058   -4.4805    9.1071 O   0  0  0  0  0  0  0  0  0  0  0  0
   20.7267  -12.9174   16.8813 C   0  0  0  0  0  0  0  0  0  0  0  0
   23.1969   -9.4366   19.7715 C   0  0  2  0  0  0  0  0  0  0  0  0
   24.2214   -9.6262   18.7394 N   0  0  0  0  0  0  0  0  0  0  0  0
   17.7115   -6.3314   17.4314 C   0  0  2  0  0  0  0  0  0  0  0  0
   18.6021   -5.6724   16.5672 O   0  0  0  0  0  0  0  0  0  0  0  0
   16.8453   -3.5872   13.9560 C   0  0  1  0  0  0  0  0  0  0  0  0
   16.2839   -2.6519   14.8826 O   0  0  0  0  0  0  0  0  0  0  0  0
   20.5690   -5.8530   10.9929 C   0  0  1  0  0  0  0  0  0  0  0  0
   20.5101   -6.9011   10.0190 O   0  0  0  0  0  0  0  0  0  0  0  0
   19.3131  -13.0909   17.5115 C   0  0  2  0  0  0  0  0  0  0  0  0
   18.3088  -13.2288   16.5222 O   0  0  0  0  0  0  0  0  0  0  0  0
   21.8006   -9.2594   19.1204 C   0  0  2  0  0  0  0  0  0  0  0  0
   17.9360   -5.6441   18.7941 C   0  0  2  0  0  0  0  0  0  0  0  0
   19.0185   -6.3911   19.3261 O   0  0  0  0  0  0  0  0  0  0  0  0
   18.0907   -2.8558   13.3055 C   0  0  2  0  0  0  0  0  0  0  0  0
   18.6030   -3.8018   12.3657 O   0  0  0  0  0  0  0  0  0  0  0  0
   22.0270   -5.4434   11.2090 C   0  0  2  0  0  0  0  0  0  0  0  0
   22.6485   -6.4969   11.9630 O   0  0  0  0  0  0  0  0  0  0  0  0
   19.0395  -11.8794   18.4370 C   0  0  2  0  0  0  0  0  0  0  0  0
   20.0509  -11.8983   19.4847 O   0  0  0  0  0  0  0  0  0  0  0  0
   20.6556   -8.9490   20.1372 C   0  0  2  0  0  0  0  0  0  0  0  0
   19.4117   -8.7277   19.4160 O   0  0  0  0  0  0  0  0  0  0  0  0
   16.7655   -5.6802   19.7761 C   0  0  0  0  0  0  0  0  0  0  0  0
   17.1848   -5.0092   20.9734 O   0  0  0  0  0  0  0  0  0  0  0  0
   19.1332   -2.7664   14.4034 C   0  0  1  0  0  0  0  0  0  0  0  0
   19.4035   -3.6645   15.5011 O   0  0  0  0  0  0  0  0  0  0  0  0
   22.1311   -4.0655   11.8532 C   0  0  2  0  0  0  0  0  0  0  0  0
   21.1538   -3.0454   11.5960 O   0  0  0  0  0  0  0  0  0  0  0  0
   17.7253  -11.9627   19.1357 C   0  0  0  0  0  0  0  0  0  0  0  0
   17.5663  -10.7777   19.8779 O   0  0  0  0  0  0  0  0  0  0  0  0
   21.0415   -7.7444   21.0604 C   0  0  1  0  0  0  0  0  0  0  0  0
   20.0221   -7.6488   22.0904 O   0  0  0  0  0  0  0  0  0  0  0  0
   20.4397   -1.9876   14.0578 C   0  0  0  0  0  0  0  0  0  0  0  0
   20.2776   -0.5193   14.1069 N   0  0  0  0  0  0  0  0  0  0  0  0
   23.4647   -3.3960   12.1771 C   0  0  0  0  0  0  0  0  0  0  0  0
   24.2274   -4.2270   13.0917 O   0  0  0  0  0  0  0  0  0  0  0  0
  1  2  1  6  0  0  0
  1  8  1  0  0  0  0
  1 36  1  0  0  0  0
  3  4  1  1  0  0  0
  3 10  1  0  0  0  0
  3 47  1  0  0  0  0
  5 11  1  0  0  0  0
  5 30  1  0  0  0  0
  5 38  1  1  0  0  0
  6 21  1  6  0  0  0
  6 42  1  0  0  0  0
  7 15  1  0  0  0  0
  7 44  1  0  0  0  0
  7 32  1  1  0  0  0
  8  9  1  6  0  0  0
  8 17  1  0  0  0  0
 11 12  1  6  0  0  0
 11 20  1  0  0  0  0
 13  6  1  0  0  0  0
 13 14  1  6  0  0  0
 15 16  1  6  0  0  0
 15 24  1  0  0  0  0
 17 26  1  0  0  0  0
 18 10  1  0  0  0  0
 18 19  1  6  0  0  0
 20 21  1  6  0  0  0
 20 29  1  0  0  0  0
 22 13  1  0  0  0  0
 22 23  1  1  0  0  0
 24 25  1  6  0  0  0
 24 33  1  0  0  0  0
 26 27  1  6  0  0  0
 26 35  1  0  0  0  0
 28  2  1  1  0  0  0
 28 18  1  0  0  0  0
 29 30  1  0  0  0  0
 29 39  1  1  0  0  0
 31 22  1  0  0  0  0
 31 32  1  6  0  0  0
 31 41  1  0  0  0  0
 33 34  1  1  0  0  0
 33 43  1  0  0  0  0
 35 36  1  0  0  0  0
 35 45  1  1  0  0  0
 37 28  1  0  0  0  0
 37 38  1  6  0  0  0
 39 40  1  0  0  0  0
 41 42  1  0  0  0  0
 41 49  1  6  0  0  0
 43 44  1  0  0  0  0
 43 51  1  6  0  0  0
 45 46  1  0  0  0  0
 47 37  1  0  0  0  0
 47 48  1  1  0  0  0
 49 50  1  0  0  0  0
 51 52  1  0  0  0  0
M  END
>  <CHROM.1>
-155.98397450,162.76704019,-80.39006149,-171.36451760,162.73450506,64.26175563
179.22679956,170.97961224,-176.72230683,-67.02884960,78.12832800,-59.36524493
20.01440837,-7.02320002,16.38037352,-1.48173887,1.05351693,-0.92057039

>  <Name>
2esj_lig

>  <RI>
0

>  <Rbt.Current_Directory>
/home/itssahil/PROJECTS/Mol_Feturizer/New_Systems/rnas/2esj

>  <Rbt.Executable>
rbdock ($Id: //depot/dev/client3/rdock/2013.1/src/exe/rbdock.cxx#4 $)

>  <Rbt.Library>
libRbt.so (2013.1, Build901 2013/11/27)

>  <Rbt.Parameter_File>
/export/apps/rDock/src/rDock_2013.1_src/data/scripts/dock_solv.prm

>  <Rbt.Receptor>
prm/pocket_docking_6.prm

>  <SCORE>
-15.6442

>  <SCORE.INTER>
-7.38425

>  <SCORE.INTER.CONST>
1

>  <SCORE.INTER.POLAR>
-0.703967

>  <SCORE.INTER.ROT>
12

>  <SCORE.INTER.SOLV>
15.9321

>  <SCORE.INTER.VDW>
-19.487

>  <SCORE.INTER.norm>
-0.142005

>  <SCORE.INTRA>
-8.26245

>  <SCORE.INTRA.DIHEDRAL>
-19.7967

>  <SCORE.INTRA.DIHEDRAL.0>
32.9766

>  <SCORE.INTRA.POLAR>
0

>  <SCORE.INTRA.POLAR.0>
0

>  <SCORE.INTRA.REPUL>
0

>  <SCORE.INTRA.REPUL.0>
0

>  <SCORE.INTRA.SOLV>
-0.106467

>  <SCORE.INTRA.SOLV.lig_0>
-114.358

>  <SCORE.INTRA.VDW>
1.68912

>  <SCORE.INTRA.VDW.0>
-8.24257

>  <SCORE.INTRA.norm>
-0.158893

>  <SCORE.RESTR>
0.00251473

>  <SCORE.RESTR.CAVITY>
0.00251473

>  <SCORE.RESTR.norm>
4.83602e-05

>  <SCORE.SYSTEM>
0

>  <SCORE.SYSTEM.CONST>
0

>  <SCORE.SYSTEM.DIHEDRAL>
0

>  <SCORE.SYSTEM.SOLV>
0

>  <SCORE.SYSTEM.norm>
0

>  <SCORE.heavy>
52

>  <SCORE.norm>
-0.30085

>  <RMSD>
6.633

$$$$
2esj_lig
 OpenBabel11021811423D
libRbt.so/2013.1/901 2013/11/27
 52 56  0  0  0  0  0  0  0  0999 V2000
   19.3548   -3.0019   14.1509 C   0  0  2  0  0  0  0  0  0  0  0  0
   20.0447   -4.2119   14.5180 O   0  0  0  0  0  0  0  0  0  0  0  0
   21.6249   -3.4399   18.4161 C   0  0  2  0  0  0  0  0  0  0  0  0
   22.4349   -3.4287   19.6453 N   0  0  0  0  0  0  0  0  0  0  0  0
   23.6494   -2.8343   14.5424 C   0  0  1  0  0  0  0  0  0  0  0  0
   27.2488   -4.6589   13.5280 C   0  0  1  0  0  0  0  0  0  0  0  0
   31.2296   -2.5919   15.5116 C   0  0  1  0  0  0  0  0  0  0  0  0
   18.2781   -2.7270   15.2419 C   0  0  2  0  0  0  0  0  0  0  0  0
   18.8578   -2.6399   16.5819 N   0  0  0  0  0  0  0  0  0  0  0  0
   21.1602   -4.9122   18.0783 C   0  0  0  0  0  0  0  0  0  0  0  0
   23.6322   -4.3316   14.2318 C   0  0  2  0  0  0  0  0  0  0  0  0
   23.6802   -5.1422   15.4260 O   0  0  0  0  0  0  0  0  0  0  0  0
   28.2982   -4.7143   14.7267 C   0  0  2  0  0  0  0  0  0  0  0  0
   28.1471   -3.5386   15.6243 N   0  0  0  0  0  0  0  0  0  0  0  0
   30.8743   -1.1710   15.9340 C   0  0  1  0  0  0  0  0  0  0  0  0
   30.9507   -1.0708   17.3702 O   0  0  0  0  0  0  0  0  0  0  0  0
   17.1658   -3.8229   15.2158 C   0  0  0  0  0  0  0  0  0  0  0  0
   20.2432   -4.8962   16.7897 C   0  0  2  0  0  0  0  0  0  0  0  0
   19.8088   -6.2542   16.4463 N   0  0  0  0  0  0  0  0  0  0  0  0
   24.8497   -4.4447   13.3607 C   0  0  2  0  0  0  0  0  0  0  0  0
   26.0180   -4.4083   14.1405 O   0  0  0  0  0  0  0  0  0  0  0  0
   29.7586   -4.9189   14.1262 C   0  0  1  0  0  0  0  0  0  0  0  0
   29.7402   -6.0404   13.2370 O   0  0  0  0  0  0  0  0  0  0  0  0
   31.7513   -0.0762   15.3386 C   0  0  1  0  0  0  0  0  0  0  0  0
   31.4301    1.1413   16.0203 O   0  0  0  0  0  0  0  0  0  0  0  0
   16.5814   -3.9123   13.7749 C   0  0  2  0  0  0  0  0  0  0  0  0
   15.5107   -4.8364   13.6972 O   0  0  0  0  0  0  0  0  0  0  0  0
   20.9971   -4.2525   15.5971 C   0  0  2  0  0  0  0  0  0  0  0  0
   24.9064   -3.1385   12.5419 C   0  0  2  0  0  0  0  0  0  0  0  0
   24.2979   -2.2102   13.4256 O   0  0  0  0  0  0  0  0  0  0  0  0
   30.2015   -3.6781   13.2468 C   0  0  2  0  0  0  0  0  0  0  0  0
   30.2418   -2.5889   14.1702 O   0  0  0  0  0  0  0  0  0  0  0  0
   33.2509   -0.3491   15.4679 C   0  0  2  0  0  0  0  0  0  0  0  0
   33.9204    0.5845   14.6049 O   0  0  0  0  0  0  0  0  0  0  0  0
   17.7296   -4.2869   12.8052 C   0  0  2  0  0  0  0  0  0  0  0  0
   18.7168   -3.2183   12.8703 O   0  0  0  0  0  0  0  0  0  0  0  0
   21.5892   -2.8393   15.9026 C   0  0  2  0  0  0  0  0  0  0  0  0
   22.3354   -2.3646   14.7476 O   0  0  0  0  0  0  0  0  0  0  0  0
   24.1559   -3.1362   11.2106 C   0  0  0  0  0  0  0  0  0  0  0  0
   22.7798   -3.4336   11.4894 O   0  0  0  0  0  0  0  0  0  0  0  0
   29.0312   -3.3892   12.3264 C   0  0  1  0  0  0  0  0  0  0  0  0
   27.6146   -3.5620   12.5451 O   0  0  0  0  0  0  0  0  0  0  0  0
   33.5798   -1.8109   15.1860 C   0  0  2  0  0  0  0  0  0  0  0  0
   32.6528   -2.8597   15.5061 O   0  0  0  0  0  0  0  0  0  0  0  0
   17.2935   -4.3546   11.3812 C   0  0  0  0  0  0  0  0  0  0  0  0
   16.3312   -5.3766   11.2829 O   0  0  0  0  0  0  0  0  0  0  0  0
   22.4515   -2.8670   17.2095 C   0  0  1  0  0  0  0  0  0  0  0  0
   22.7977   -1.4922   17.5250 O   0  0  0  0  0  0  0  0  0  0  0  0
   29.2427   -2.2633   11.2679 C   0  0  0  0  0  0  0  0  0  0  0  0
   30.0177   -2.7045   10.0892 N   0  0  0  0  0  0  0  0  0  0  0  0
   34.9979   -2.3733   15.2515 C   0  0  0  0  0  0  0  0  0  0  0  0
   35.0187   -3.7277   14.7280 O   0  0  0  0  0  0  0  0  0  0  0  0
  1  2  1  1  0  0  0
  1  8  1  0  0  0  0
  1 36  1  0  0  0  0
  3  4  1  1  0  0  0
  3 10  1  0  0  0  0
  3 47  1  0  0  0  0
  5 11  1  0  0  0  0
  5 30  1  0  0  0  0
  5 38  1  6  0  0  0
  6 21  1  1  0  0  0
  6 42  1  0  0  0  0
  7 15  1  0  0  0  0
  7 44  1  0  0  0  0
  7 32  1  6  0  0  0
  8  9  1  1  0  0  0
  8 17  1  0  0  0  0
 11 12  1  1  0  0  0
 11 20  1  0  0  0  0
 13  6  1  0  0  0  0
 13 14  1  6  0  0  0
 15 16  1  1  0  0  0
 15 24  1  0  0  0  0
 17 26  1  0  0  0  0
 18 10  1  0  0  0  0
 18 19  1  6  0  0  0
 20 21  1  1  0  0  0
 20 29  1  0  0  0  0
 22 13  1  0  0  0  0
 22 23  1  6  0  0  0
 24 25  1  1  0  0  0
 24 33  1  0  0  0  0
 26 27  1  1  0  0  0
 26 35  1  0  0  0  0
 28  2  1  6  0  0  0
 28 18  1  0  0  0  0
 29 30  1  0  0  0  0
 29 39  1  6  0  0  0
 31 22  1  0  0  0  0
 31 32  1  1  0  0  0
 31 41  1  0  0  0  0
 33 34  1  6  0  0  0
 33 43  1  0  0  0  0
 35 36  1  0  0  0  0
 35 45  1  6  0  0  0
 37 28  1  0  0  0  0
 37 38  1  6  0  0  0
 39 40  1  0  0  0  0
 41 42  1  0  0  0  0
 41 49  1  1  0  0  0
 43 44  1  0  0  0  0
 43 51  1  1  0  0  0
 45 46  1  0  0  0  0
 47 37  1  0  0  0  0
 47 48  1  1  0  0  0
 49 50  1  0  0  0  0
 51 52  1  0  0  0  0
M  END
>  <CHROM.1>
-73.99761032,66.20096969,-173.14407314,175.40780918,172.49720720,102.03244480
58.34017301,59.55415519,-62.51289852,-80.31795975,79.20965183,-170.86573290
25.18960868,-3.23271034,14.55790220,-3.09354419,0.13764430,1.33489466

>  <Name>
2esj_lig

>  <RI>
0

>  <Rbt.Current_Directory>
/home/itssahil/PROJECTS/Mol_Feturizer/New_Systems/rnas/2esj

>  <Rbt.Executable>
rbdock ($Id: //depot/dev/client3/rdock/2013.1/src/exe/rbdock.cxx#4 $)

>  <Rbt.Library>
libRbt.so (2013.1, Build901 2013/11/27)

>  <Rbt.Parameter_File>
/export/apps/rDock/src/rDock_2013.1_src/data/scripts/dock_solv.prm

>  <Rbt.Receptor>
prm/pocket_docking_6.prm

>  <SCORE>
-3.01003

>  <SCORE.INTER>
-0.989364

>  <SCORE.INTER.CONST>
1

>  <SCORE.INTER.POLAR>
-0.979796

>  <SCORE.INTER.ROT>
12

>  <SCORE.INTER.SOLV>
8.70328

>  <SCORE.INTER.VDW>
-11.8947

>  <SCORE.INTER.norm>
-0.0190262

>  <SCORE.INTRA>
-2.02067

>  <SCORE.INTRA.DIHEDRAL>
-18.6012

>  <SCORE.INTRA.DIHEDRAL.0>
32.9766

>  <SCORE.INTRA.POLAR>
0

>  <SCORE.INTRA.POLAR.0>
0

>  <SCORE.INTRA.REPUL>
0

>  <SCORE.INTRA.REPUL.0>
0

>  <SCORE.INTRA.SOLV>
3.59552

>  <SCORE.INTRA.SOLV.lig_0>
-114.358

>  <SCORE.INTRA.VDW>
5.48215

>  <SCORE.INTRA.VDW.0>
-8.24257

>  <SCORE.INTRA.norm>
-0.038859

>  <SCORE.RESTR>
0

>  <SCORE.RESTR.CAVITY>
0

>  <SCORE.RESTR.norm>
0

>  <SCORE.SYSTEM>
0

>  <SCORE.SYSTEM.CONST>
0

>  <SCORE.SYSTEM.DIHEDRAL>
0

>  <SCORE.SYSTEM.SOLV>
0

>  <SCORE.SYSTEM.norm>
0

>  <SCORE.heavy>
52

>  <SCORE.norm>
-0.0578852

>  <RMSD>
6.646

$$$$
2esj_lig
 OpenBabel11021811423D
libRbt.so/2013.1/901 2013/11/27
 52 56  0  0  0  0  0  0  0  0999 V2000
   22.9166   -6.5320   13.2141 C   0  0  2  0  0  0  0  0  0  0  0  0
   21.6928   -7.0381   13.7808 O   0  0  0  0  0  0  0  0  0  0  0  0
   17.7788   -5.3763   14.2355 C   0  0  2  0  0  0  0  0  0  0  0  0
   16.5965   -4.6266   14.6911 N   0  0  0  0  0  0  0  0  0  0  0  0
   21.8921   -3.5200   13.7599 C   0  0  1  0  0  0  0  0  0  0  0  0
   24.3179   -0.8194   15.9520 C   0  0  1  0  0  0  0  0  0  0  0  0
   29.1378   -1.2938   17.2122 C   0  0  1  0  0  0  0  0  0  0  0  0
   23.4376   -7.5932   12.2005 C   0  0  2  0  0  0  0  0  0  0  0  0
   22.4479   -7.9072   11.1704 N   0  0  0  0  0  0  0  0  0  0  0  0
   18.3535   -6.2624   15.4111 C   0  0  0  0  0  0  0  0  0  0  0  0
   23.0408   -2.7445   13.1137 C   0  0  2  0  0  0  0  0  0  0  0  0
   24.2685   -3.5043   13.0814 O   0  0  0  0  0  0  0  0  0  0  0  0
   25.8082   -0.7487   15.3904 C   0  0  2  0  0  0  0  0  0  0  0  0
   26.4305   -2.0987   15.3546 N   0  0  0  0  0  0  0  0  0  0  0  0
   29.6415   -0.4818   18.3998 C   0  0  1  0  0  0  0  0  0  0  0  0
   30.9879   -0.8894   18.7152 O   0  0  0  0  0  0  0  0  0  0  0  0
   23.8704   -8.9011   12.9361 C   0  0  0  0  0  0  0  0  0  0  0  0
   19.5856   -7.1043   14.8869 C   0  0  2  0  0  0  0  0  0  0  0  0
   20.1469   -7.9264   15.9639 N   0  0  0  0  0  0  0  0  0  0  0  0
   23.0879   -1.5345   14.0013 C   0  0  2  0  0  0  0  0  0  0  0  0
   23.7086   -1.8443   15.2233 O   0  0  0  0  0  0  0  0  0  0  0  0
   26.6202    0.3447   16.2152 C   0  0  1  0  0  0  0  0  0  0  0  0
   25.8769    1.5679   16.2183 O   0  0  0  0  0  0  0  0  0  0  0  0
   29.6414    1.0293   18.2023 C   0  0  1  0  0  0  0  0  0  0  0  0
   30.3558    1.6004   19.3040 O   0  0  0  0  0  0  0  0  0  0  0  0
   24.9053   -8.5376   14.0417 C   0  0  2  0  0  0  0  0  0  0  0  0
   25.3999   -9.6902   14.6997 O   0  0  0  0  0  0  0  0  0  0  0  0
   20.6724   -6.1657   14.3014 C   0  0  2  0  0  0  0  0  0  0  0  0
   21.6248   -1.2384   14.3901 C   0  0  2  0  0  0  0  0  0  0  0  0
   21.0456   -2.5333   14.3659 O   0  0  0  0  0  0  0  0  0  0  0  0
   26.7713   -0.0724   17.7359 C   0  0  2  0  0  0  0  0  0  0  0  0
   27.5439   -1.2733   17.6963 O   0  0  0  0  0  0  0  0  0  0  0  0
   30.2877    1.4797   16.8910 C   0  0  2  0  0  0  0  0  0  0  0  0
   29.9360    2.8605   16.7057 O   0  0  0  0  0  0  0  0  0  0  0  0
   24.2334   -7.5577   15.0355 C   0  0  2  0  0  0  0  0  0  0  0  0
   23.8728   -6.3618   14.2868 O   0  0  0  0  0  0  0  0  0  0  0  0
   20.1443   -5.1759   13.2140 C   0  0  2  0  0  0  0  0  0  0  0  0
   21.2238   -4.2971   12.7911 O   0  0  0  0  0  0  0  0  0  0  0  0
   20.8441   -0.3175   13.4530 C   0  0  0  0  0  0  0  0  0  0  0  0
   21.4375    0.9867   13.5352 O   0  0  0  0  0  0  0  0  0  0  0  0
   25.3855   -0.4938   18.1852 C   0  0  1  0  0  0  0  0  0  0  0  0
   24.3189   -1.1192   17.4396 O   0  0  0  0  0  0  0  0  0  0  0  0
   29.8932    0.5710   15.7320 C   0  0  2  0  0  0  0  0  0  0  0  0
   29.6336   -0.8267   15.9343 O   0  0  0  0  0  0  0  0  0  0  0  0
   25.1518   -7.1014   16.1175 C   0  0  0  0  0  0  0  0  0  0  0  0
   24.4031   -6.2943   16.9939 O   0  0  0  0  0  0  0  0  0  0  0  0
   18.8944   -4.3899   13.7358 C   0  0  1  0  0  0  0  0  0  0  0  0
   18.3545   -3.6461   12.6114 O   0  0  0  0  0  0  0  0  0  0  0  0
   25.2266   -0.8602   19.6930 C   0  0  0  0  0  0  0  0  0  0  0  0
   25.0559   -2.3091   19.9296 N   0  0  0  0  0  0  0  0  0  0  0  0
   30.3975    0.7743   14.3051 C   0  0  0  0  0  0  0  0  0  0  0  0
   29.6366   -0.0551   13.3876 O   0  0  0  0  0  0  0  0  0  0  0  0
  1  2  1  1  0  0  0
  1  8  1  0  0  0  0
  1 36  1  0  0  0  0
  3  4  1  1  0  0  0
  3 10  1  0  0  0  0
  3 47  1  0  0  0  0
  5 11  1  0  0  0  0
  5 30  1  0  0  0  0
  5 38  1  6  0  0  0
  6 21  1  6  0  0  0
  6 42  1  0  0  0  0
  7 15  1  0  0  0  0
  7 44  1  0  0  0  0
  7 32  1  6  0  0  0
  8  9  1  6  0  0  0
  8 17  1  0  0  0  0
 11 12  1  1  0  0  0
 11 20  1  0  0  0  0
 13  6  1  0  0  0  0
 13 14  1  1  0  0  0
 15 16  1  6  0  0  0
 15 24  1  0  0  0  0
 17 26  1  0  0  0  0
 18 10  1  0  0  0  0
 18 19  1  1  0  0  0
 20 21  1  1  0  0  0
 20 29  1  0  0  0  0
 22 13  1  0  0  0  0
 22 23  1  1  0  0  0
 24 25  1  1  0  0  0
 24 33  1  0  0  0  0
 26 27  1  1  0  0  0
 26 35  1  0  0  0  0
 28  2  1  6  0  0  0
 28 18  1  0  0  0  0
 29 30  1  0  0  0  0
 29 39  1  6  0  0  0
 31 22  1  0  0  0  0
 31 32  1  6  0  0  0
 31 41  1  0  0  0  0
 33 34  1  6  0  0  0
 33 43  1  0  0  0  0
 35 36  1  0  0  0  0
 35 45  1  1  0  0  0
 37 28  1  0  0  0  0
 37 38  1  1  0  0  0
 39 40  1  0  0  0  0
 41 42  1  0  0  0  0
 41 49  1  1  0  0  0
 43 44  1  0  0  0  0
 43 51  1  6  0  0  0
 45 46  1  0  0  0  0
 47 37  1  0  0  0  0
 47 48  1  6  0  0  0
 49 50  1  0  0  0  0
 51 52  1  0  0  0  0
M  END
>  <CHROM.1>
-153.88954902,176.37389979,-88.14085646,66.51282352,155.11946596,-176.52543837
-66.71258092,67.25278906,-176.21472138,-56.81434419,-107.62054575,-167.83347633
24.42456241,-3.00516183,15.31072770,-2.45497288,-0.26580386,0.15515101

>  <Name>
2esj_lig

>  <RI>
0

>  <Rbt.Current_Directory>
/home/itssahil/PROJECTS/Mol_Feturizer/New_Systems/rnas/2esj

>  <Rbt.Executable>
rbdock ($Id: //depot/dev/client3/rdock/2013.1/src/exe/rbdock.cxx#4 $)

>  <Rbt.Library>
libRbt.so (2013.1, Build901 2013/11/27)

>  <Rbt.Parameter_File>
/export/apps/rDock/src/rDock_2013.1_src/data/scripts/dock_solv.prm

>  <Rbt.Receptor>
prm/pocket_docking_6.prm

>  <SCORE>
-8.67083

>  <SCORE.INTER>
-0.444981

>  <SCORE.INTER.CONST>
1

>  <SCORE.INTER.POLAR>
-0.499254

>  <SCORE.INTER.ROT>
12

>  <SCORE.INTER.SOLV>
14.3567

>  <SCORE.INTER.VDW>
-15.018

>  <SCORE.INTER.norm>
-0.00855733

>  <SCORE.INTRA>
-8.22585

>  <SCORE.INTRA.DIHEDRAL>
-17.9039

>  <SCORE.INTRA.DIHEDRAL.0>
32.9766

>  <SCORE.INTRA.POLAR>
0

>  <SCORE.INTRA.POLAR.0>
0

>  <SCORE.INTRA.REPUL>
0

>  <SCORE.INTRA.REPUL.0>
0

>  <SCORE.INTRA.SOLV>
-1.43105

>  <SCORE.INTRA.SOLV.lig_0>
-114.358

>  <SCORE.INTRA.VDW>
1.44162

>  <SCORE.INTRA.VDW.0>
-8.24257

>  <SCORE.INTRA.norm>
-0.158189

>  <SCORE.RESTR>
0

>  <SCORE.RESTR.CAVITY>
0

>  <SCORE.RESTR.norm>
0

>  <SCORE.SYSTEM>
0

>  <SCORE.SYSTEM.CONST>
0

>  <SCORE.SYSTEM.DIHEDRAL>
0

>  <SCORE.SYSTEM.SOLV>
0

>  <SCORE.SYSTEM.norm>
0

>  <SCORE.heavy>
52

>  <SCORE.norm>
-0.166747

>  <RMSD>
6.687

$$$$
2esj_lig
 OpenBabel11021811423D
libRbt.so/2013.1/901 2013/11/27
 52 56  0  0  0  0  0  0  0  0999 V2000
   18.0202   -5.3714   13.0777 C   0  0  2  0  0  0  0  0  0  0  0  0
   19.3166   -4.7532   12.9686 O   0  0  0  0  0  0  0  0  0  0  0  0
   21.5566   -2.5215   10.0894 C   0  0  2  0  0  0  0  0  0  0  0  0
   21.9891   -1.5775    9.0458 N   0  0  0  0  0  0  0  0  0  0  0  0
   21.2049   -1.7519   14.7278 C   0  0  1  0  0  0  0  0  0  0  0  0
   23.4367   -0.6885   18.1041 C   0  0  1  0  0  0  0  0  0  0  0  0
   27.6325   -3.7794   18.3942 C   0  0  1  0  0  0  0  0  0  0  0  0
   17.0398   -4.3060   13.6510 C   0  0  2  0  0  0  0  0  0  0  0  0
   16.9996   -3.0941   12.8332 N   0  0  0  0  0  0  0  0  0  0  0  0
   20.3347   -3.3834    9.5779 C   0  0  0  0  0  0  0  0  0  0  0  0
   20.6015   -0.7757   15.7384 C   0  0  2  0  0  0  0  0  0  0  0  0
   20.7774    0.6026   15.3452 O   0  0  0  0  0  0  0  0  0  0  0  0
   24.8796   -0.1856   17.6498 C   0  0  2  0  0  0  0  0  0  0  0  0
   25.3364   -0.9033   16.4304 N   0  0  0  0  0  0  0  0  0  0  0  0
   28.0450   -3.8194   16.9274 C   0  0  1  0  0  0  0  0  0  0  0  0
   29.3593   -4.4024   16.8208 O   0  0  0  0  0  0  0  0  0  0  0  0
   17.4127   -3.9403   15.1228 C   0  0  0  0  0  0  0  0  0  0  0  0
   19.9227   -4.4309   10.6889 C   0  0  2  0  0  0  0  0  0  0  0  0
   18.7803   -5.2357   10.2438 N   0  0  0  0  0  0  0  0  0  0  0  0
   21.3547   -1.1641   16.9778 C   0  0  2  0  0  0  0  0  0  0  0  0
   22.6603   -0.6457   16.9430 O   0  0  0  0  0  0  0  0  0  0  0  0
   25.8717   -0.2712   18.8922 C   0  0  1  0  0  0  0  0  0  0  0  0
   25.2780    0.4042   20.0058 O   0  0  0  0  0  0  0  0  0  0  0  0
   27.1097   -4.5965   16.0089 C   0  0  1  0  0  0  0  0  0  0  0  0
   27.7689   -4.7259   14.7445 O   0  0  0  0  0  0  0  0  0  0  0  0
   17.4717   -5.2480   15.9667 C   0  0  2  0  0  0  0  0  0  0  0  0
   17.7304   -4.9816   17.3335 O   0  0  0  0  0  0  0  0  0  0  0  0
   19.5875   -3.7060   12.0183 C   0  0  2  0  0  0  0  0  0  0  0  0
   21.5567   -2.6908   16.8886 C   0  0  2  0  0  0  0  0  0  0  0  0
   21.6114   -2.8994   15.4863 O   0  0  0  0  0  0  0  0  0  0  0  0
   26.0852   -1.7695   19.3598 C   0  0  2  0  0  0  0  0  0  0  0  0
   26.7078   -2.4021   18.2407 O   0  0  0  0  0  0  0  0  0  0  0  0
   26.7437   -5.9858   16.5343 C   0  0  2  0  0  0  0  0  0  0  0  0
   25.6392   -6.4530   15.7427 O   0  0  0  0  0  0  0  0  0  0  0  0
   18.5489   -6.1764   15.3528 C   0  0  2  0  0  0  0  0  0  0  0  0
   18.1288   -6.4867   13.9933 O   0  0  0  0  0  0  0  0  0  0  0  0
   20.7089   -2.7413   12.5210 C   0  0  2  0  0  0  0  0  0  0  0  0
   20.2610   -2.0613   13.7266 O   0  0  0  0  0  0  0  0  0  0  0  0
   20.4510   -3.5601   17.4865 C   0  0  0  0  0  0  0  0  0  0  0  0
   20.9023   -4.9218   17.4466 O   0  0  0  0  0  0  0  0  0  0  0  0
   24.6966   -2.3730   19.4488 C   0  0  1  0  0  0  0  0  0  0  0  0
   23.5126   -2.0942   18.6711 O   0  0  0  0  0  0  0  0  0  0  0  0
   26.4748   -5.9634   18.0348 C   0  0  2  0  0  0  0  0  0  0  0  0
   27.1654   -5.0521   18.9034 O   0  0  0  0  0  0  0  0  0  0  0  0
   18.6606   -7.4865   16.0553 C   0  0  0  0  0  0  0  0  0  0  0  0
   19.2120   -7.2382   17.3259 O   0  0  0  0  0  0  0  0  0  0  0  0
   21.1368   -1.7466   11.3897 C   0  0  1  0  0  0  0  0  0  0  0  0
   22.3028   -1.0259   11.8697 O   0  0  0  0  0  0  0  0  0  0  0  0
   24.6079   -3.8317   19.9939 C   0  0  0  0  0  0  0  0  0  0  0  0
   24.0386   -3.9154   21.3554 N   0  0  0  0  0  0  0  0  0  0  0  0
   26.0976   -7.2098   18.8323 C   0  0  0  0  0  0  0  0  0  0  0  0
   27.2457   -8.0918   18.9459 O   0  0  0  0  0  0  0  0  0  0  0  0
  1  2  1  1  0  0  0
  1  8  1  0  0  0  0
  1 36  1  0  0  0  0
  3  4  1  6  0  0  0
  3 10  1  0  0  0  0
  3 47  1  0  0  0  0
  5 11  1  0  0  0  0
  5 30  1  0  0  0  0
  5 38  1  6  0  0  0
  6 21  1  6  0  0  0
  6 42  1  0  0  0  0
  7 15  1  0  0  0  0
  7 44  1  0  0  0  0
  7 32  1  6  0  0  0
  8  9  1  6  0  0  0
  8 17  1  0  0  0  0
 11 12  1  6  0  0  0
 11 20  1  0  0  0  0
 13  6  1  0  0  0  0
 13 14  1  6  0  0  0
 15 16  1  1  0  0  0
 15 24  1  0  0  0  0
 17 26  1  0  0  0  0
 18 10  1  0  0  0  0
 18 19  1  6  0  0  0
 20 21  1  6  0  0  0
 20 29  1  0  0  0  0
 22 13  1  0  0  0  0
 22 23  1  1  0  0  0
 24 25  1  6  0  0  0
 24 33  1  0  0  0  0
 26 27  1  1  0  0  0
 26 35  1  0  0  0  0
 28  2  1  1  0  0  0
 28 18  1  0  0  0  0
 29 30  1  0  0  0  0
 29 39  1  6  0  0  0
 31 22  1  0  0  0  0
 31 32  1  6  0  0  0
 31 41  1  0  0  0  0
 33 34  1  6  0  0  0
 33 43  1  0  0  0  0
 35 36  1  0  0  0  0
 35 45  1  1  0  0  0
 37 28  1  0  0  0  0
 37 38  1  1  0  0  0
 39 40  1  0  0  0  0
 41 42  1  0  0  0  0
 41 49  1  6  0  0  0
 43 44  1  0  0  0  0
 43 51  1  1  0  0  0
 45 46  1  0  0  0  0
 47 37  1  0  0  0  0
 47 48  1  1  0  0  0
 49 50  1  0  0  0  0
 51 52  1  0  0  0  0
M  END
>  <CHROM.1>
-68.49876433,167.11922074,173.52396266,-175.66352143,168.45607503,-84.18172199
-173.18805561,156.77246234,-69.41057619,145.85506906,107.90052905,70.91216771
22.52484442,-3.54983251,15.80235880,2.69674370,-0.46871194,-0.85947030

>  <Name>
2esj_lig

>  <RI>
0

>  <Rbt.Current_Directory>
/home/itssahil/PROJECTS/Mol_Feturizer/New_Systems/rnas/2esj

>  <Rbt.Executable>
rbdock ($Id: //depot/dev/client3/rdock/2013.1/src/exe/rbdock.cxx#4 $)

>  <Rbt.Library>
libRbt.so (2013.1, Build901 2013/11/27)

>  <Rbt.Parameter_File>
/export/apps/rDock/src/rDock_2013.1_src/data/scripts/dock_solv.prm

>  <Rbt.Receptor>
prm/pocket_docking_6.prm

>  <SCORE>
-15.4713

>  <SCORE.INTER>
-8.72323

>  <SCORE.INTER.CONST>
1

>  <SCORE.INTER.POLAR>
-0.824621

>  <SCORE.INTER.ROT>
12

>  <SCORE.INTER.SOLV>
10.2927

>  <SCORE.INTER.VDW>
-18.0976

>  <SCORE.INTER.norm>
-0.167754

>  <SCORE.INTRA>
-6.74807

>  <SCORE.INTRA.DIHEDRAL>
-16.0699

>  <SCORE.INTRA.DIHEDRAL.0>
32.9766

>  <SCORE.INTRA.POLAR>
0

>  <SCORE.INTRA.POLAR.0>
0

>  <SCORE.INTRA.REPUL>
0.00297616

>  <SCORE.INTRA.REPUL.0>
0

>  <SCORE.INTRA.SOLV>
0.754069

>  <SCORE.INTRA.SOLV.lig_0>
-114.358

>  <SCORE.INTRA.VDW>
0.894961

>  <SCORE.INTRA.VDW.0>
-8.24257

>  <SCORE.INTRA.norm>
-0.129771

>  <SCORE.RESTR>
0

>  <SCORE.RESTR.CAVITY>
0

>  <SCORE.RESTR.norm>
0

>  <SCORE.SYSTEM>
0

>  <SCORE.SYSTEM.CONST>
0

>  <SCORE.SYSTEM.DIHEDRAL>
0

>  <SCORE.SYSTEM.SOLV>
0

>  <SCORE.SYSTEM.norm>
0

>  <SCORE.heavy>
52

>  <SCORE.norm>
-0.297525

>  <RMSD>
6.713

$$$$
2esj_lig
 OpenBabel11021811423D
libRbt.so/2013.1/901 2013/11/27
 52 56  0  0  0  0  0  0  0  0999 V2000
   18.1382   -5.1370   13.3258 C   0  0  2  0  0  0  0  0  0  0  0  0
   19.4484   -4.5400   13.2829 O   0  0  0  0  0  0  0  0  0  0  0  0
   21.6855   -2.0332   10.6374 C   0  0  2  0  0  0  0  0  0  0  0  0
   22.1251   -0.9729    9.7155 N   0  0  0  0  0  0  0  0  0  0  0  0
   21.5535   -1.9643   15.3670 C   0  0  1  0  0  0  0  0  0  0  0  0
   23.9531   -1.8201   18.7717 C   0  0  1  0  0  0  0  0  0  0  0  0
   27.9021   -4.6357   17.5749 C   0  0  1  0  0  0  0  0  0  0  0  0
   17.1932   -4.1410   14.0607 C   0  0  2  0  0  0  0  0  0  0  0  0
   17.1728   -2.8248   13.4233 N   0  0  0  0  0  0  0  0  0  0  0  0
   20.3990   -2.7549   10.0704 C   0  0  0  0  0  0  0  0  0  0  0  0
   20.9711   -1.3442   16.6378 C   0  0  2  0  0  0  0  0  0  0  0  0
   21.0709    0.0965   16.6430 O   0  0  0  0  0  0  0  0  0  0  0  0
   25.3199   -1.0641   18.4530 C   0  0  2  0  0  0  0  0  0  0  0  0
   25.7283   -1.2716   17.0383 N   0  0  0  0  0  0  0  0  0  0  0  0
   28.8010   -4.0190   16.5094 C   0  0  1  0  0  0  0  0  0  0  0  0
   29.9519   -4.8649   16.3134 O   0  0  0  0  0  0  0  0  0  0  0  0
   17.5955   -3.9965   15.5628 C   0  0  0  0  0  0  0  0  0  0  0  0
   19.9769   -3.9281   11.0437 C   0  0  2  0  0  0  0  0  0  0  0  0
   18.7755   -4.6066   10.5466 N   0  0  0  0  0  0  0  0  0  0  0  0
   21.8079   -2.0239   17.6826 C   0  0  2  0  0  0  0  0  0  0  0  0
   23.0884   -1.4480   17.7390 O   0  0  0  0  0  0  0  0  0  0  0  0
   26.4084   -1.4850   19.5361 C   0  0  1  0  0  0  0  0  0  0  0  0
   25.8585   -1.2928   20.8435 O   0  0  0  0  0  0  0  0  0  0  0  0
   28.1441   -3.7965   15.1525 C   0  0  1  0  0  0  0  0  0  0  0  0
   29.1825   -3.4430   14.2322 O   0  0  0  0  0  0  0  0  0  0  0  0
   17.6326   -5.4116   16.2121 C   0  0  2  0  0  0  0  0  0  0  0  0
   17.9166   -5.3478   17.5983 O   0  0  0  0  0  0  0  0  0  0  0  0
   19.7362   -3.3832   12.4755 C   0  0  2  0  0  0  0  0  0  0  0  0
   22.0634   -3.4514   17.1567 C   0  0  2  0  0  0  0  0  0  0  0  0
   22.0464   -3.2552   15.7517 O   0  0  0  0  0  0  0  0  0  0  0  0
   26.7568   -3.0271   19.4368 C   0  0  2  0  0  0  0  0  0  0  0  0
   27.3322   -3.1750   18.1378 O   0  0  0  0  0  0  0  0  0  0  0  0
   27.3925   -5.0193   14.6234 C   0  0  2  0  0  0  0  0  0  0  0  0
   26.5851   -4.5686   13.5236 O   0  0  0  0  0  0  0  0  0  0  0  0
   18.6772   -6.2685   15.4547 C   0  0  2  0  0  0  0  0  0  0  0  0
   18.2308   -6.3730   14.0725 O   0  0  0  0  0  0  0  0  0  0  0  0
   20.9276   -2.5537   13.0528 C   0  0  2  0  0  0  0  0  0  0  0  0
   20.5668   -2.0303   14.3613 O   0  0  0  0  0  0  0  0  0  0  0  0
   21.0279   -4.5109   17.5321 C   0  0  0  0  0  0  0  0  0  0  0  0
   21.0009   -4.6008   18.9641 O   0  0  0  0  0  0  0  0  0  0  0  0
   25.4227   -3.7459   19.3760 C   0  0  1  0  0  0  0  0  0  0  0  0
   24.1662   -3.3223   18.8046 O   0  0  0  0  0  0  0  0  0  0  0  0
   26.6106   -5.7175   15.7306 C   0  0  2  0  0  0  0  0  0  0  0  0
   27.0825   -5.7253   17.0868 O   0  0  0  0  0  0  0  0  0  0  0  0
   18.7650   -7.6672   15.9630 C   0  0  0  0  0  0  0  0  0  0  0  0
   19.8078   -8.3048   15.2657 O   0  0  0  0  0  0  0  0  0  0  0  0
   21.3618   -1.4307   12.0515 C   0  0  1  0  0  0  0  0  0  0  0  0
   22.5836   -0.8414   12.5702 O   0  0  0  0  0  0  0  0  0  0  0  0
   25.4738   -5.3048   19.3779 C   0  0  0  0  0  0  0  0  0  0  0  0
   25.0244   -5.9048   20.6518 N   0  0  0  0  0  0  0  0  0  0  0  0
   25.7745   -6.9733   15.4954 C   0  0  0  0  0  0  0  0  0  0  0  0
   24.9109   -7.2150   16.6376 O   0  0  0  0  0  0  0  0  0  0  0  0
  1  2  1  1  0  0  0
  1  8  1  0  0  0  0
  1 36  1  0  0  0  0
  3  4  1  6  0  0  0
  3 10  1  0  0  0  0
  3 47  1  0  0  0  0
  5 11  1  0  0  0  0
  5 30  1  0  0  0  0
  5 38  1  6  0  0  0
  6 21  1  6  0  0  0
  6 42  1  0  0  0  0
  7 15  1  0  0  0  0
  7 44  1  0  0  0  0
  7 32  1  6  0  0  0
  8  9  1  6  0  0  0
  8 17  1  0  0  0  0
 11 12  1  6  0  0  0
 11 20  1  0  0  0  0
 13  6  1  0  0  0  0
 13 14  1  6  0  0  0
 15 16  1  6  0  0  0
 15 24  1  0  0  0  0
 17 26  1  0  0  0  0
 18 10  1  0  0  0  0
 18 19  1  6  0  0  0
 20 21  1  6  0  0  0
 20 29  1  0  0  0  0
 22 13  1  0  0  0  0
 22 23  1  1  0  0  0
 24 25  1  6  0  0  0
 24 33  1  0  0  0  0
 26 27  1  1  0  0  0
 26 35  1  0  0  0  0
 28  2  1  1  0  0  0
 28 18  1  0  0  0  0
 29 30  1  0  0  0  0
 29 39  1  6  0  0  0
 31 22  1  0  0  0  0
 31 32  1  6  0  0  0
 31 41  1  0  0  0  0
 33 34  1  6  0  0  0
 33 43  1  0  0  0  0
 35 36  1  0  0  0  0
 35 45  1  1  0  0  0
 37 28  1  0  0  0  0
 37 38  1  1  0  0  0
 39 40  1  0  0  0  0
 41 42  1  0  0  0  0
 41 49  1  6  0  0  0
 43 44  1  0  0  0  0
 43 51  1  6  0  0  0
 45 46  1  0  0  0  0
 47 37  1  0  0  0  0
 47 48  1  1  0  0  0
 49 50  1  0  0  0  0
 51 52  1  0  0  0  0
M  END
>  <CHROM.1>
-69.12560874,178.15387839,175.90007650,-159.23782321,171.36712171,-81.64946040
-60.56331799,178.42099360,-175.74596830,143.16486136,107.62084327,-166.54437406
22.85131667,-3.75886004,15.74712550,2.67612787,-0.14133710,-1.36099156

>  <Name>
2esj_lig

>  <RI>
2.18877e+07

>  <Rbt.Current_Directory>
/home/itssahil/PROJECTS/Mol_Feturizer/New_Systems/rnas/2esj

>  <Rbt.Executable>
rbdock ($Id: //depot/dev/client3/rdock/2013.1/src/exe/rbdock.cxx#4 $)

>  <Rbt.Library>
libRbt.so (2013.1, Build901 2013/11/27)

>  <Rbt.Parameter_File>
/export/apps/rDock/src/rDock_2013.1_src/data/scripts/dock_solv.prm

>  <Rbt.Receptor>
prm/pocket_docking_7.prm

>  <SCORE>
-13.0065

>  <SCORE.INTER>
-6.12953

>  <SCORE.INTER.CONST>
1

>  <SCORE.INTER.POLAR>
-0.824621

>  <SCORE.INTER.ROT>
12

>  <SCORE.INTER.SOLV>
7.31244

>  <SCORE.INTER.VDW>
-15.3751

>  <SCORE.INTER.norm>
-0.117876

>  <SCORE.INTRA>
-6.87697

>  <SCORE.INTRA.DIHEDRAL>
-17.8321

>  <SCORE.INTRA.DIHEDRAL.0>
32.9766

>  <SCORE.INTRA.POLAR>
0

>  <SCORE.INTRA.POLAR.0>
0

>  <SCORE.INTRA.REPUL>
0

>  <SCORE.INTRA.REPUL.0>
0

>  <SCORE.INTRA.SOLV>
0.191477

>  <SCORE.INTRA.SOLV.lig_0>
-114.358

>  <SCORE.INTRA.VDW>
1.94334

>  <SCORE.INTRA.VDW.0>
-8.24257

>  <SCORE.INTRA.norm>
-0.132249

>  <SCORE.RESTR>
0

>  <SCORE.RESTR.CAVITY>
0

>  <SCORE.RESTR.norm>
0

>  <SCORE.SYSTEM>
0

>  <SCORE.SYSTEM.CONST>
0

>  <SCORE.SYSTEM.DIHEDRAL>
0

>  <SCORE.SYSTEM.SOLV>
0

>  <SCORE.SYSTEM.norm>
0

>  <SCORE.heavy>
52

>  <SCORE.norm>
-0.250125

>  <RMSD>
6.727

$$$$
2esj_lig
 OpenBabel11021811423D
libRbt.so/2013.1/901 2013/11/27
 52 56  0  0  0  0  0  0  0  0999 V2000
   19.4447   -6.7347   14.7939 C   0  0  2  0  0  0  0  0  0  0  0  0
   20.6223   -5.9377   15.0237 O   0  0  0  0  0  0  0  0  0  0  0  0
   18.9958   -2.0523   14.2843 C   0  0  2  0  0  0  0  0  0  0  0  0
   18.7834   -0.6017   14.1510 N   0  0  0  0  0  0  0  0  0  0  0  0
   22.7111   -4.5227   12.9747 C   0  0  1  0  0  0  0  0  0  0  0  0
   26.7561   -4.0725   13.7737 C   0  0  1  0  0  0  0  0  0  0  0  0
   28.0397   -5.1535   18.6222 C   0  0  1  0  0  0  0  0  0  0  0  0
   19.7818   -8.1983   15.2051 C   0  0  2  0  0  0  0  0  0  0  0  0
   20.2425   -8.2918   16.5901 N   0  0  0  0  0  0  0  0  0  0  0  0
   19.4290   -2.4103   15.7614 C   0  0  0  0  0  0  0  0  0  0  0  0
   23.6756   -4.5939   11.7901 C   0  0  2  0  0  0  0  0  0  0  0  0
   23.9973   -5.9529   11.4230 O   0  0  0  0  0  0  0  0  0  0  0  0
   27.6562   -5.3513   14.0831 C   0  0  2  0  0  0  0  0  0  0  0  0
   26.8908   -6.3711   14.8481 N   0  0  0  0  0  0  0  0  0  0  0  0
   27.8483   -6.6515   18.8293 C   0  0  1  0  0  0  0  0  0  0  0  0
   28.3918   -7.0256   20.1111 O   0  0  0  0  0  0  0  0  0  0  0  0
   20.8514   -8.8138   14.2479 C   0  0  0  0  0  0  0  0  0  0  0  0
   19.5947   -3.9771   15.9003 C   0  0  2  0  0  0  0  0  0  0  0  0
   20.0102   -4.3354   17.2604 N   0  0  0  0  0  0  0  0  0  0  0  0
   24.8356   -3.8111   12.3340 C   0  0  2  0  0  0  0  0  0  0  0  0
   25.5696   -4.5884   13.2458 O   0  0  0  0  0  0  0  0  0  0  0  0
   29.0129   -4.8754   14.7672 C   0  0  1  0  0  0  0  0  0  0  0  0
   29.6055   -3.8542   13.9581 O   0  0  0  0  0  0  0  0  0  0  0  0
   26.4053   -7.1378   18.7701 C   0  0  1  0  0  0  0  0  0  0  0  0
   26.3985   -8.4985   19.2157 O   0  0  0  0  0  0  0  0  0  0  0  0
   20.3485   -8.6811   12.7798 C   0  0  2  0  0  0  0  0  0  0  0  0
   21.2381   -9.2904   11.8613 O   0  0  0  0  0  0  0  0  0  0  0  0
   20.6208   -4.5066   14.8650 C   0  0  2  0  0  0  0  0  0  0  0  0
   24.2216   -2.6951   13.2041 C   0  0  2  0  0  0  0  0  0  0  0  0
   23.0246   -3.3036   13.6623 O   0  0  0  0  0  0  0  0  0  0  0  0
   28.7458   -4.2073   16.1784 C   0  0  2  0  0  0  0  0  0  0  0  0
   28.1883   -5.2603   16.9664 O   0  0  0  0  0  0  0  0  0  0  0  0
   25.4425   -6.3178   19.6306 C   0  0  2  0  0  0  0  0  0  0  0  0
   24.1116   -6.6860   19.2333 O   0  0  0  0  0  0  0  0  0  0  0  0
   20.1473   -7.1775   12.4671 C   0  0  2  0  0  0  0  0  0  0  0  0
   19.1309   -6.6775   13.3824 O   0  0  0  0  0  0  0  0  0  0  0  0
   20.3172   -4.0860   13.3912 C   0  0  2  0  0  0  0  0  0  0  0  0
   21.3770   -4.5693   12.5196 O   0  0  0  0  0  0  0  0  0  0  0  0
   23.8833   -1.3854   12.4929 C   0  0  0  0  0  0  0  0  0  0  0  0
   25.0954   -0.8838   11.9109 O   0  0  0  0  0  0  0  0  0  0  0  0
   27.6152   -3.2208   15.9577 C   0  0  1  0  0  0  0  0  0  0  0  0
   26.5016   -3.2765   15.0404 O   0  0  0  0  0  0  0  0  0  0  0  0
   25.7363   -4.8250   19.5310 C   0  0  2  0  0  0  0  0  0  0  0  0
   27.0721   -4.3391   19.3279 O   0  0  0  0  0  0  0  0  0  0  0  0
   19.6187   -6.9315   11.0951 C   0  0  0  0  0  0  0  0  0  0  0  0
   20.6576   -7.2078   10.1870 O   0  0  0  0  0  0  0  0  0  0  0  0
   20.1068   -2.5378   13.2856 C   0  0  1  0  0  0  0  0  0  0  0  0
   19.6418   -2.2584   11.9384 O   0  0  0  0  0  0  0  0  0  0  0  0
   27.2156   -2.3387   17.1804 C   0  0  0  0  0  0  0  0  0  0  0  0
   27.4768   -0.8985   16.9749 N   0  0  0  0  0  0  0  0  0  0  0  0
   24.9403   -3.7668   20.2914 C   0  0  0  0  0  0  0  0  0  0  0  0
   25.1925   -2.4541   19.7240 O   0  0  0  0  0  0  0  0  0  0  0  0
  1  2  1  6  0  0  0
  1  8  1  0  0  0  0
  1 36  1  0  0  0  0
  3  4  1  1  0  0  0
  3 10  1  0  0  0  0
  3 47  1  0  0  0  0
  5 11  1  0  0  0  0
  5 30  1  0  0  0  0
  5 38  1  6  0  0  0
  6 21  1  1  0  0  0
  6 42  1  0  0  0  0
  7 15  1  0  0  0  0
  7 44  1  0  0  0  0
  7 32  1  6  0  0  0
  8  9  1  1  0  0  0
  8 17  1  0  0  0  0
 11 12  1  1  0  0  0
 11 20  1  0  0  0  0
 13  6  1  0  0  0  0
 13 14  1  1  0  0  0
 15 16  1  1  0  0  0
 15 24  1  0  0  0  0
 17 26  1  0  0  0  0
 18 10  1  0  0  0  0
 18 19  1  1  0  0  0
 20 21  1  1  0  0  0
 20 29  1  0  0  0  0
 22 13  1  0  0  0  0
 22 23  1  6  0  0  0
 24 25  1  1  0  0  0
 24 33  1  0  0  0  0
 26 27  1  6  0  0  0
 26 35  1  0  0  0  0
 28  2  1  6  0  0  0
 28 18  1  0  0  0  0
 29 30  1  0  0  0  0
 29 39  1  6  0  0  0
 31 22  1  0  0  0  0
 31 32  1  1  0  0  0
 31 41  1  0  0  0  0
 33 34  1  6  0  0  0
 33 43  1  0  0  0  0
 35 36  1  0  0  0  0
 35 45  1  6  0  0  0
 37 28  1  0  0  0  0
 37 38  1  6  0  0  0
 39 40  1  0  0  0  0
 41 42  1  0  0  0  0
 41 49  1  1  0  0  0
 43 44  1  0  0  0  0
 43 51  1  1  0  0  0
 45 46  1  0  0  0  0
 47 37  1  0  0  0  0
 47 48  1  6  0  0  0
 49 50  1  0  0  0  0
 51 52  1  0  0  0  0
M  END
>  <CHROM.1>
-174.12782277,-160.06497292,-151.12065237,-162.80227133,174.54926074,61.70123897
-58.47812460,166.46958410,-71.82560361,-38.93149465,114.87992578,-164.15957294
23.73612066,-4.88396742,15.12642285,2.74450975,-0.43362770,-0.88627510

>  <Name>
2esj_lig

>  <RI>
0

>  <Rbt.Current_Directory>
/home/itssahil/PROJECTS/Mol_Feturizer/New_Systems/rnas/2esj

>  <Rbt.Executable>
rbdock ($Id: //depot/dev/client3/rdock/2013.1/src/exe/rbdock.cxx#4 $)

>  <Rbt.Library>
libRbt.so (2013.1, Build901 2013/11/27)

>  <Rbt.Parameter_File>
/export/apps/rDock/src/rDock_2013.1_src/data/scripts/dock_solv.prm

>  <Rbt.Receptor>
prm/pocket_docking_6.prm

>  <SCORE>
-12.5076

>  <SCORE.INTER>
-5.11347

>  <SCORE.INTER.CONST>
1

>  <SCORE.INTER.POLAR>
-0.787921

>  <SCORE.INTER.ROT>
12

>  <SCORE.INTER.SOLV>
13.6968

>  <SCORE.INTER.VDW>
-16.9482

>  <SCORE.INTER.norm>
-0.0983359

>  <SCORE.INTRA>
-7.39415

>  <SCORE.INTRA.DIHEDRAL>
-17.2565

>  <SCORE.INTRA.DIHEDRAL.0>
32.9766

>  <SCORE.INTRA.POLAR>
0

>  <SCORE.INTRA.POLAR.0>
0

>  <SCORE.INTRA.REPUL>
0

>  <SCORE.INTRA.REPUL.0>
0

>  <SCORE.INTRA.SOLV>
-2.58805

>  <SCORE.INTRA.SOLV.lig_0>
-114.358

>  <SCORE.INTRA.VDW>
2.52813

>  <SCORE.INTRA.VDW.0>
-8.24257

>  <SCORE.INTRA.norm>
-0.142195

>  <SCORE.RESTR>
0

>  <SCORE.RESTR.CAVITY>
0

>  <SCORE.RESTR.norm>
0

>  <SCORE.SYSTEM>
0

>  <SCORE.SYSTEM.CONST>
0

>  <SCORE.SYSTEM.DIHEDRAL>
0

>  <SCORE.SYSTEM.SOLV>
0

>  <SCORE.SYSTEM.norm>
0

>  <SCORE.heavy>
52

>  <SCORE.norm>
-0.240531

>  <RMSD>
6.740

$$$$
2esj_lig
 OpenBabel11021811423D
libRbt.so/2013.1/901 2013/11/27
 52 56  0  0  0  0  0  0  0  0999 V2000
   18.8432   -5.7148   15.0102 C   0  0  2  0  0  0  0  0  0  0  0  0
   18.8636   -4.4694   14.2868 O   0  0  0  0  0  0  0  0  0  0  0  0
   15.8295   -2.6468   11.8866 C   0  0  2  0  0  0  0  0  0  0  0  0
   14.6101   -1.9801   11.4011 N   0  0  0  0  0  0  0  0  0  0  0  0
   20.1118   -1.7726   14.3827 C   0  0  1  0  0  0  0  0  0  0  0  0
   24.2485   -1.8065   15.0739 C   0  0  1  0  0  0  0  0  0  0  0  0
   28.1082   -1.0367   12.0784 C   0  0  1  0  0  0  0  0  0  0  0  0
   19.9818   -5.6591   16.0711 C   0  0  2  0  0  0  0  0  0  0  0  0
   19.8512   -4.5074   16.9631 N   0  0  0  0  0  0  0  0  0  0  0  0
   15.4567   -3.9531   12.6941 C   0  0  0  0  0  0  0  0  0  0  0  0
   20.9028   -0.4681   14.2780 C   0  0  2  0  0  0  0  0  0  0  0  0
   21.2711   -0.1552   12.9172 O   0  0  0  0  0  0  0  0  0  0  0  0
   24.8919   -0.3482   15.0988 C   0  0  2  0  0  0  0  0  0  0  0  0
   24.7472    0.3224   13.7796 N   0  0  0  0  0  0  0  0  0  0  0  0
   28.1825    0.3508   11.4516 C   0  0  1  0  0  0  0  0  0  0  0  0
   29.3779    0.4456   10.6514 O   0  0  0  0  0  0  0  0  0  0  0  0
   21.3839   -5.6407   15.3834 C   0  0  0  0  0  0  0  0  0  0  0  0
   16.7796   -4.6865   13.1563 C   0  0  2  0  0  0  0  0  0  0  0  0
   16.4609   -5.8968   13.9207 N   0  0  0  0  0  0  0  0  0  0  0  0
   22.0655   -0.7800   15.1752 C   0  0  2  0  0  0  0  0  0  0  0  0
   22.9768   -1.6278   14.5231 O   0  0  0  0  0  0  0  0  0  0  0  0
   26.3854   -0.4512   15.6409 C   0  0  1  0  0  0  0  0  0  0  0  0
   26.3799   -1.1713   16.8779 O   0  0  0  0  0  0  0  0  0  0  0  0
   26.9970    0.7329   10.5736 C   0  0  1  0  0  0  0  0  0  0  0  0
   27.3464    1.9436    9.8938 O   0  0  0  0  0  0  0  0  0  0  0  0
   21.4891   -6.8621   14.4228 C   0  0  2  0  0  0  0  0  0  0  0  0
   22.7685   -6.9506   13.8215 O   0  0  0  0  0  0  0  0  0  0  0  0
   17.6612   -3.7305   14.0012 C   0  0  2  0  0  0  0  0  0  0  0  0
   21.4977   -1.6491   16.3162 C   0  0  2  0  0  0  0  0  0  0  0  0
   20.4261   -2.3189   15.6711 O   0  0  0  0  0  0  0  0  0  0  0  0
   27.3012   -1.2897   14.6573 C   0  0  2  0  0  0  0  0  0  0  0  0
   27.3112   -0.5270   13.4496 O   0  0  0  0  0  0  0  0  0  0  0  0
   26.6217   -0.3357    9.5453 C   0  0  2  0  0  0  0  0  0  0  0  0
   25.3301    0.0208    9.0262 O   0  0  0  0  0  0  0  0  0  0  0  0
   20.3669   -6.7460   13.3615 C   0  0  2  0  0  0  0  0  0  0  0  0
   19.0953   -6.7857   14.0702 O   0  0  0  0  0  0  0  0  0  0  0  0
   17.9696   -2.3648   13.3080 C   0  0  2  0  0  0  0  0  0  0  0  0
   18.7342   -1.5214   14.2137 O   0  0  0  0  0  0  0  0  0  0  0  0
   20.9652   -0.9037   17.5395 C   0  0  0  0  0  0  0  0  0  0  0  0
   22.0526   -0.1477   18.0924 O   0  0  0  0  0  0  0  0  0  0  0  0
   26.5164   -2.5477   14.3386 C   0  0  1  0  0  0  0  0  0  0  0  0
   25.0906   -2.7500   14.2349 O   0  0  0  0  0  0  0  0  0  0  0  0
   26.6926   -1.7364   10.1430 C   0  0  2  0  0  0  0  0  0  0  0  0
   27.6427   -2.0630   11.1689 O   0  0  0  0  0  0  0  0  0  0  0  0
   20.3409   -7.8937   12.4104 C   0  0  0  0  0  0  0  0  0  0  0  0
   19.3792   -7.6033   11.4250 O   0  0  0  0  0  0  0  0  0  0  0  0
   16.6507   -1.6804   12.8136 C   0  0  1  0  0  0  0  0  0  0  0  0
   17.0366   -0.5281   12.0182 O   0  0  0  0  0  0  0  0  0  0  0  0
   27.2404   -3.6128   13.4587 C   0  0  0  0  0  0  0  0  0  0  0  0
   27.2795   -4.9552   14.0761 N   0  0  0  0  0  0  0  0  0  0  0  0
   26.3803   -2.9998    9.3442 C   0  0  0  0  0  0  0  0  0  0  0  0
   25.0664   -2.8894    8.7357 O   0  0  0  0  0  0  0  0  0  0  0  0
  1  2  1  6  0  0  0
  1  8  1  0  0  0  0
  1 36  1  0  0  0  0
  3  4  1  1  0  0  0
  3 10  1  0  0  0  0
  3 47  1  0  0  0  0
  5 11  1  0  0  0  0
  5 30  1  0  0  0  0
  5 38  1  1  0  0  0
  6 21  1  6  0  0  0
  6 42  1  0  0  0  0
  7 15  1  0  0  0  0
  7 44  1  0  0  0  0
  7 32  1  1  0  0  0
  8  9  1  6  0  0  0
  8 17  1  0  0  0  0
 11 12  1  6  0  0  0
 11 20  1  0  0  0  0
 13  6  1  0  0  0  0
 13 14  1  6  0  0  0
 15 16  1  6  0  0  0
 15 24  1  0  0  0  0
 17 26  1  0  0  0  0
 18 10  1  0  0  0  0
 18 19  1  1  0  0  0
 20 21  1  6  0  0  0
 20 29  1  0  0  0  0
 22 13  1  0  0  0  0
 22 23  1  1  0  0  0
 24 25  1  6  0  0  0
 24 33  1  0  0  0  0
 26 27  1  6  0  0  0
 26 35  1  0  0  0  0
 28  2  1  6  0  0  0
 28 18  1  0  0  0  0
 29 30  1  0  0  0  0
 29 39  1  1  0  0  0
 31 22  1  0  0  0  0
 31 32  1  6  0  0  0
 31 41  1  0  0  0  0
 33 34  1  1  0  0  0
 33 43  1  0  0  0  0
 35 36  1  0  0  0  0
 35 45  1  6  0  0  0
 37 28  1  0  0  0  0
 37 38  1  1  0  0  0
 39 40  1  0  0  0  0
 41 42  1  0  0  0  0
 41 49  1  6  0  0  0
 43 44  1  0  0  0  0
 43 51  1  6  0  0  0
 45 46  1  0  0  0  0
 47 37  1  0  0  0  0
 47 48  1  6  0  0  0
 49 50  1  0  0  0  0
 51 52  1  0  0  0  0
M  END
>  <CHROM.1>
-134.62032901,132.68225082,-60.08181316,-159.76142298,166.64185677,-59.93915229
-60.14293607,-177.71325978,-174.03668553,77.52240166,125.32562733,-54.05108605
22.47434439,-2.57223029,13.41585377,-2.84844809,-0.27089363,-1.19386830

>  <Name>
2esj_lig

>  <RI>
2.18877e+07

>  <Rbt.Current_Directory>
/home/itssahil/PROJECTS/Mol_Feturizer/New_Systems/rnas/2esj

>  <Rbt.Executable>
rbdock ($Id: //depot/dev/client3/rdock/2013.1/src/exe/rbdock.cxx#4 $)

>  <Rbt.Library>
libRbt.so (2013.1, Build901 2013/11/27)

>  <Rbt.Parameter_File>
/export/apps/rDock/src/rDock_2013.1_src/data/scripts/dock_solv.prm

>  <Rbt.Receptor>
prm/pocket_docking_7.prm

>  <SCORE>
-8.44149

>  <SCORE.INTER>
-8.07204

>  <SCORE.INTER.CONST>
1

>  <SCORE.INTER.POLAR>
-1.85265

>  <SCORE.INTER.ROT>
12

>  <SCORE.INTER.SOLV>
14.5266

>  <SCORE.INTER.VDW>
-15.6481

>  <SCORE.INTER.norm>
-0.155232

>  <SCORE.INTRA>
-0.369454

>  <SCORE.INTRA.DIHEDRAL>
-10.7863

>  <SCORE.INTRA.DIHEDRAL.0>
32.9766

>  <SCORE.INTRA.POLAR>
0

>  <SCORE.INTRA.POLAR.0>
0

>  <SCORE.INTRA.REPUL>
0.0448617

>  <SCORE.INTRA.REPUL.0>
0

>  <SCORE.INTRA.SOLV>
1.98043

>  <SCORE.INTRA.SOLV.lig_0>
-114.358

>  <SCORE.INTRA.VDW>
3.80918

>  <SCORE.INTRA.VDW.0>
-8.24257

>  <SCORE.INTRA.norm>
-0.00710488

>  <SCORE.RESTR>
0

>  <SCORE.RESTR.CAVITY>
0

>  <SCORE.RESTR.norm>
0

>  <SCORE.SYSTEM>
0

>  <SCORE.SYSTEM.CONST>
0

>  <SCORE.SYSTEM.DIHEDRAL>
0

>  <SCORE.SYSTEM.SOLV>
0

>  <SCORE.SYSTEM.norm>
0

>  <SCORE.heavy>
52

>  <SCORE.norm>
-0.162336

>  <RMSD>
6.821

$$$$
2esj_lig
 OpenBabel11021811423D
libRbt.so/2013.1/901 2013/11/27
 52 56  0  0  0  0  0  0  0  0999 V2000
   21.5067   -7.5792   19.0124 C   0  0  2  0  0  0  0  0  0  0  0  0
   21.6026   -7.7141   20.4433 O   0  0  0  0  0  0  0  0  0  0  0  0
   22.9004   -5.1481   23.6086 C   0  0  2  0  0  0  0  0  0  0  0  0
   23.6954   -4.3575   24.5627 N   0  0  0  0  0  0  0  0  0  0  0  0
   23.7066   -4.8158   19.2525 C   0  0  1  0  0  0  0  0  0  0  0  0
   27.3028   -3.9865   17.3495 C   0  0  1  0  0  0  0  0  0  0  0  0
   29.7192   -5.4161   13.2391 C   0  0  1  0  0  0  0  0  0  0  0  0
   20.3976   -8.5566   18.5228 C   0  0  2  0  0  0  0  0  0  0  0  0
   19.1147   -8.3124   19.1814 N   0  0  0  0  0  0  0  0  0  0  0  0
   23.3423   -6.6648   23.6500 C   0  0  0  0  0  0  0  0  0  0  0  0
   23.6653   -4.5343   17.7500 C   0  0  2  0  0  0  0  0  0  0  0  0
   23.6427   -5.7452   16.9635 O   0  0  0  0  0  0  0  0  0  0  0  0
   27.3581   -3.8401   15.7630 C   0  0  2  0  0  0  0  0  0  0  0  0
   26.9610   -5.1079   15.0951 N   0  0  0  0  0  0  0  0  0  0  0  0
   31.2420   -5.4081   13.1724 C   0  0  1  0  0  0  0  0  0  0  0  0
   31.6671   -6.0839   11.9720 O   0  0  0  0  0  0  0  0  0  0  0  0
   20.8295  -10.0420   18.7375 C   0  0  0  0  0  0  0  0  0  0  0  0
   22.4382   -7.5076   22.6631 C   0  0  2  0  0  0  0  0  0  0  0  0
   22.8373   -8.9188   22.6725 N   0  0  0  0  0  0  0  0  0  0  0  0
   24.9154   -3.7184   17.5897 C   0  0  2  0  0  0  0  0  0  0  0  0
   26.0503   -4.5465   17.6143 O   0  0  0  0  0  0  0  0  0  0  0  0
   28.7882   -3.2789   15.3451 C   0  0  1  0  0  0  0  0  0  0  0  0
   29.0635   -2.0997   16.1083 O   0  0  0  0  0  0  0  0  0  0  0  0
   31.8871   -4.0275   13.1886 C   0  0  1  0  0  0  0  0  0  0  0  0
   33.2747   -4.2049   12.8830 O   0  0  0  0  0  0  0  0  0  0  0  0
   22.2072  -10.2700   18.0478 C   0  0  2  0  0  0  0  0  0  0  0  0
   22.6240  -11.6207   18.1376 O   0  0  0  0  0  0  0  0  0  0  0  0
   22.5238   -6.9316   21.2257 C   0  0  2  0  0  0  0  0  0  0  0  0
   25.0390   -2.8772   18.8769 C   0  0  2  0  0  0  0  0  0  0  0  0
   24.4170   -3.7157   19.8377 O   0  0  0  0  0  0  0  0  0  0  0  0
   29.9401   -4.3049   15.7054 C   0  0  2  0  0  0  0  0  0  0  0  0
   29.6534   -5.4516   14.9034 O   0  0  0  0  0  0  0  0  0  0  0  0
   31.2695   -3.0466   12.1904 C   0  0  2  0  0  0  0  0  0  0  0  0
   31.7533   -1.7389   12.5374 O   0  0  0  0  0  0  0  0  0  0  0  0
   23.2393   -9.3107   18.6908 C   0  0  2  0  0  0  0  0  0  0  0  0
   22.7820   -7.9512   18.4387 O   0  0  0  0  0  0  0  0  0  0  0  0
   22.2148   -5.4031   21.1298 C   0  0  2  0  0  0  0  0  0  0  0  0
   22.3972   -4.9553   19.7577 O   0  0  0  0  0  0  0  0  0  0  0  0
   24.3457   -1.5152   18.8696 C   0  0  0  0  0  0  0  0  0  0  0  0
   24.8913   -0.7582   17.7792 O   0  0  0  0  0  0  0  0  0  0  0  0
   29.6760   -4.7319   17.1365 C   0  0  1  0  0  0  0  0  0  0  0  0
   28.4267   -4.8776   17.8454 O   0  0  0  0  0  0  0  0  0  0  0  0
   29.7499   -3.1649   12.1573 C   0  0  2  0  0  0  0  0  0  0  0  0
   29.0934   -4.4197   12.3949 O   0  0  0  0  0  0  0  0  0  0  0  0
   24.5923   -9.4082   18.0725 C   0  0  0  0  0  0  0  0  0  0  0  0
   24.4728   -9.0040   16.7300 O   0  0  0  0  0  0  0  0  0  0  0  0
   23.0839   -4.5937   22.1504 C   0  0  1  0  0  0  0  0  0  0  0  0
   22.6008   -3.2242   22.1349 O   0  0  0  0  0  0  0  0  0  0  0  0
   30.7351   -5.6752   17.7856 C   0  0  0  0  0  0  0  0  0  0  0  0
   31.8893   -4.9530   18.3611 N   0  0  0  0  0  0  0  0  0  0  0  0
   28.8679   -2.3154   11.2451 C   0  0  0  0  0  0  0  0  0  0  0  0
   29.0633   -2.7080    9.8607 O   0  0  0  0  0  0  0  0  0  0  0  0
  1  2  1  1  0  0  0
  1  8  1  0  0  0  0
  1 36  1  0  0  0  0
  3  4  1  1  0  0  0
  3 10  1  0  0  0  0
  3 47  1  0  0  0  0
  5 11  1  0  0  0  0
  5 30  1  0  0  0  0
  5 38  1  1  0  0  0
  6 21  1  6  0  0  0
  6 42  1  0  0  0  0
  7 15  1  0  0  0  0
  7 44  1  0  0  0  0
  7 32  1  1  0  0  0
  8  9  1  1  0  0  0
  8 17  1  0  0  0  0
 11 12  1  6  0  0  0
 11 20  1  0  0  0  0
 13  6  1  0  0  0  0
 13 14  1  6  0  0  0
 15 16  1  6  0  0  0
 15 24  1  0  0  0  0
 17 26  1  0  0  0  0
 18 10  1  0  0  0  0
 18 19  1  6  0  0  0
 20 21  1  1  0  0  0
 20 29  1  0  0  0  0
 22 13  1  0  0  0  0
 22 23  1  1  0  0  0
 24 25  1  6  0  0  0
 24 33  1  0  0  0  0
 26 27  1  1  0  0  0
 26 35  1  0  0  0  0
 28  2  1  6  0  0  0
 28 18  1  0  0  0  0
 29 30  1  0  0  0  0
 29 39  1  6  0  0  0
 31 22  1  0  0  0  0
 31 32  1  6  0  0  0
 31 41  1  0  0  0  0
 33 34  1  1  0  0  0
 33 43  1  0  0  0  0
 35 36  1  0  0  0  0
 35 45  1  6  0  0  0
 37 28  1  0  0  0  0
 37 38  1  6  0  0  0
 39 40  1  0  0  0  0
 41 42  1  0  0  0  0
 41 49  1  6  0  0  0
 43 44  1  0  0  0  0
 43 51  1  6  0  0  0
 45 46  1  0  0  0  0
 47 37  1  0  0  0  0
 47 48  1  1  0  0  0
 49 50  1  0  0  0  0
 51 52  1  0  0  0  0
M  END
>  <CHROM.1>
-178.98451781,171.86505550,-78.55464902,74.50501530,173.83779982,-172.90124900
-58.17689277,65.11561404,63.44799494,-74.02301827,84.23831651,69.27572549
25.98166231,-5.38038692,17.41696300,2.95000945,0.75411472,0.69908002

>  <Name>
2esj_lig

>  <RI>
2.18877e+07

>  <Rbt.Current_Directory>
/home/itssahil/PROJECTS/Mol_Feturizer/New_Systems/rnas/2esj

>  <Rbt.Executable>
rbdock ($Id: //depot/dev/client3/rdock/2013.1/src/exe/rbdock.cxx#4 $)

>  <Rbt.Library>
libRbt.so (2013.1, Build901 2013/11/27)

>  <Rbt.Parameter_File>
/export/apps/rDock/src/rDock_2013.1_src/data/scripts/dock_solv.prm

>  <Rbt.Receptor>
prm/pocket_docking_7.prm

>  <SCORE>
-7.88508

>  <SCORE.INTER>
3.26066

>  <SCORE.INTER.CONST>
1

>  <SCORE.INTER.POLAR>
0

>  <SCORE.INTER.ROT>
12

>  <SCORE.INTER.SOLV>
6.42458

>  <SCORE.INTER.VDW>
-11.5678

>  <SCORE.INTER.norm>
0.062705

>  <SCORE.INTRA>
-11.16

>  <SCORE.INTRA.DIHEDRAL>
-23.389

>  <SCORE.INTRA.DIHEDRAL.0>
32.9766

>  <SCORE.INTRA.POLAR>
0

>  <SCORE.INTRA.POLAR.0>
0

>  <SCORE.INTRA.REPUL>
0

>  <SCORE.INTRA.REPUL.0>
0

>  <SCORE.INTRA.SOLV>
-2.15349

>  <SCORE.INTRA.SOLV.lig_0>
-114.358

>  <SCORE.INTRA.VDW>
1.61121

>  <SCORE.INTRA.VDW.0>
-8.24257

>  <SCORE.INTRA.norm>
-0.214616

>  <SCORE.RESTR>
0.0142933

>  <SCORE.RESTR.CAVITY>
0.0142933

>  <SCORE.RESTR.norm>
0.000274872

>  <SCORE.SYSTEM>
0

>  <SCORE.SYSTEM.CONST>
0

>  <SCORE.SYSTEM.DIHEDRAL>
0

>  <SCORE.SYSTEM.SOLV>
0

>  <SCORE.SYSTEM.norm>
0

>  <SCORE.heavy>
52

>  <SCORE.norm>
-0.151636

>  <RMSD>
6.833

$$$$
2esj_lig
 OpenBabel11021811423D
libRbt.so/2013.1/901 2013/11/27
 52 56  0  0  0  0  0  0  0  0999 V2000
   21.6821   -9.1788   15.1369 C   0  0  2  0  0  0  0  0  0  0  0  0
   20.4624   -8.4540   15.3855 O   0  0  0  0  0  0  0  0  0  0  0  0
   17.2032   -8.8439   18.1267 C   0  0  2  0  0  0  0  0  0  0  0  0
   16.3658   -8.9808   19.3297 N   0  0  0  0  0  0  0  0  0  0  0  0
   19.1721   -5.0119   15.9510 C   0  0  1  0  0  0  0  0  0  0  0  0
   17.6077   -1.7472   13.8704 C   0  0  1  0  0  0  0  0  0  0  0  0
   20.2032   -0.5538    9.5940 C   0  0  1  0  0  0  0  0  0  0  0  0
   22.7877   -8.5599   16.0423 C   0  0  2  0  0  0  0  0  0  0  0  0
   22.4194   -8.5801   17.4577 N   0  0  0  0  0  0  0  0  0  0  0  0
   18.2668  -10.0110   18.0623 C   0  0  0  0  0  0  0  0  0  0  0  0
   17.7713   -4.5165   16.3127 C   0  0  2  0  0  0  0  0  0  0  0  0
   16.7323   -5.2787   15.6607 O   0  0  0  0  0  0  0  0  0  0  0  0
   17.6093   -2.0335   12.3022 C   0  0  2  0  0  0  0  0  0  0  0  0
   18.7552   -2.8999   11.9182 N   0  0  0  0  0  0  0  0  0  0  0  0
   21.2434   -1.6637    9.6916 C   0  0  1  0  0  0  0  0  0  0  0  0
   21.2212   -2.4416    8.4780 O   0  0  0  0  0  0  0  0  0  0  0  0
   23.1160   -7.0983   15.6008 C   0  0  0  0  0  0  0  0  0  0  0  0
   19.1168   -9.8812   16.7348 C   0  0  2  0  0  0  0  0  0  0  0  0
   20.1219  -10.9464   16.6571 N   0  0  0  0  0  0  0  0  0  0  0  0
   17.8616   -3.0869   15.8629 C   0  0  2  0  0  0  0  0  0  0  0  0
   17.7563   -3.0034   14.4642 O   0  0  0  0  0  0  0  0  0  0  0  0
   17.5234   -0.6474   11.5235 C   0  0  1  0  0  0  0  0  0  0  0  0
   16.4191    0.1043   12.0374 O   0  0  0  0  0  0  0  0  0  0  0  0
   22.6749   -1.1958    9.9243 C   0  0  1  0  0  0  0  0  0  0  0  0
   23.5259   -2.3342    9.7514 O   0  0  0  0  0  0  0  0  0  0  0  0
   23.4819   -7.1002   14.0869 C   0  0  2  0  0  0  0  0  0  0  0  0
   23.8669   -5.8137   13.6365 O   0  0  0  0  0  0  0  0  0  0  0  0
   19.7976   -8.4897   16.6622 C   0  0  2  0  0  0  0  0  0  0  0  0
   19.3096   -2.6425   16.1555 C   0  0  2  0  0  0  0  0  0  0  0  0
   20.0246   -3.8605   16.0202 O   0  0  0  0  0  0  0  0  0  0  0  0
   18.8085    0.2419   11.7821 C   0  0  2  0  0  0  0  0  0  0  0  0
   19.8817   -0.5210   11.2283 O   0  0  0  0  0  0  0  0  0  0  0  0
   23.1209   -0.0809    8.9766 C   0  0  2  0  0  0  0  0  0  0  0  0
   24.3412    0.4573    9.5114 O   0  0  0  0  0  0  0  0  0  0  0  0
   22.2682   -7.6432   13.2925 C   0  0  2  0  0  0  0  0  0  0  0  0
   22.0315   -9.0076   13.7432 O   0  0  0  0  0  0  0  0  0  0  0  0
   18.8159   -7.2874   16.8397 C   0  0  2  0  0  0  0  0  0  0  0  0
   19.5665   -6.0413   16.8307 O   0  0  0  0  0  0  0  0  0  0  0  0
   19.5741   -2.0517   17.5399 C   0  0  0  0  0  0  0  0  0  0  0  0
   19.4415   -3.1140   18.4958 O   0  0  0  0  0  0  0  0  0  0  0  0
   19.0260    0.2217   13.2829 C   0  0  1  0  0  0  0  0  0  0  0  0
   18.7454   -0.8160   14.2468 O   0  0  0  0  0  0  0  0  0  0  0  0
   22.0181    0.9511    8.7690 C   0  0  2  0  0  0  0  0  0  0  0  0
   20.6317    0.5785    8.7993 O   0  0  0  0  0  0  0  0  0  0  0  0
   22.5230   -7.7352   11.8265 C   0  0  0  0  0  0  0  0  0  0  0  0
   21.3119   -8.1002   11.2099 O   0  0  0  0  0  0  0  0  0  0  0  0
   17.9493   -7.4616   18.1324 C   0  0  1  0  0  0  0  0  0  0  0  0
   16.9414   -6.4160   18.1182 O   0  0  0  0  0  0  0  0  0  0  0  0
   20.1824    1.1149   13.8284 C   0  0  0  0  0  0  0  0  0  0  0  0
   21.4895    0.4256   13.8632 N   0  0  0  0  0  0  0  0  0  0  0  0
   22.1781    2.1706    7.8640 C   0  0  0  0  0  0  0  0  0  0  0  0
   23.2485    3.0181    8.3588 O   0  0  0  0  0  0  0  0  0  0  0  0
  1  2  1  6  0  0  0
  1  8  1  0  0  0  0
  1 36  1  0  0  0  0
  3  4  1  1  0  0  0
  3 10  1  0  0  0  0
  3 47  1  0  0  0  0
  5 11  1  0  0  0  0
  5 30  1  0  0  0  0
  5 38  1  1  0  0  0
  6 21  1  1  0  0  0
  6 42  1  0  0  0  0
  7 15  1  0  0  0  0
  7 44  1  0  0  0  0
  7 32  1  1  0  0  0
  8  9  1  1  0  0  0
  8 17  1  0  0  0  0
 11 12  1  6  0  0  0
 11 20  1  0  0  0  0
 13  6  1  0  0  0  0
 13 14  1  6  0  0  0
 15 16  1  6  0  0  0
 15 24  1  0  0  0  0
 17 26  1  0  0  0  0
 18 10  1  0  0  0  0
 18 19  1  1  0  0  0
 20 21  1  6  0  0  0
 20 29  1  0  0  0  0
 22 13  1  0  0  0  0
 22 23  1  1  0  0  0
 24 25  1  6  0  0  0
 24 33  1  0  0  0  0
 26 27  1  6  0  0  0
 26 35  1  0  0  0  0
 28  2  1  6  0  0  0
 28 18  1  0  0  0  0
 29 30  1  0  0  0  0
 29 39  1  1  0  0  0
 31 22  1  0  0  0  0
 31 32  1  6  0  0  0
 31 41  1  0  0  0  0
 33 34  1  1  0  0  0
 33 43  1  0  0  0  0
 35 36  1  0  0  0  0
 35 45  1  6  0  0  0
 37 28  1  0  0  0  0
 37 38  1  1  0  0  0
 39 40  1  0  0  0  0
 41 42  1  0  0  0  0
 41 49  1  6  0  0  0
 43 44  1  0  0  0  0
 43 51  1  6  0  0  0
 45 46  1  0  0  0  0
 47 37  1  0  0  0  0
 47 48  1  6  0  0  0
 49 50  1  0  0  0  0
 51 52  1  0  0  0  0
M  END
>  <CHROM.1>
-65.27789344,63.68469286,176.76543103,-171.51123051,170.08921018,-74.86165675
68.86100548,79.67516564,-173.83781838,127.73732094,-88.59347019,-61.91940583
20.17538353,-4.03760365,13.79047516,-1.78548964,0.72073456,-0.53956022

>  <Name>
2esj_lig

>  <RI>
0

>  <Rbt.Current_Directory>
/home/itssahil/PROJECTS/Mol_Feturizer/New_Systems/rnas/2esj

>  <Rbt.Executable>
rbdock ($Id: //depot/dev/client3/rdock/2013.1/src/exe/rbdock.cxx#4 $)

>  <Rbt.Library>
libRbt.so (2013.1, Build901 2013/11/27)

>  <Rbt.Parameter_File>
/export/apps/rDock/src/rDock_2013.1_src/data/scripts/dock_solv.prm

>  <Rbt.Receptor>
prm/pocket_docking_8.prm

>  <SCORE>
-17.7533

>  <SCORE.INTER>
-14.0752

>  <SCORE.INTER.CONST>
1

>  <SCORE.INTER.POLAR>
-0.97543

>  <SCORE.INTER.ROT>
12

>  <SCORE.INTER.SOLV>
17.634

>  <SCORE.INTER.VDW>
-23.61

>  <SCORE.INTER.norm>
-0.270676

>  <SCORE.INTRA>
-3.67814

>  <SCORE.INTRA.DIHEDRAL>
-16.7764

>  <SCORE.INTRA.DIHEDRAL.0>
32.9766

>  <SCORE.INTRA.POLAR>
0

>  <SCORE.INTRA.POLAR.0>
0

>  <SCORE.INTRA.REPUL>
0

>  <SCORE.INTRA.REPUL.0>
0

>  <SCORE.INTRA.SOLV>
2.63605

>  <SCORE.INTRA.SOLV.lig_0>
-114.358

>  <SCORE.INTRA.VDW>
3.39206

>  <SCORE.INTRA.VDW.0>
-8.24257

>  <SCORE.INTRA.norm>
-0.0707334

>  <SCORE.RESTR>
0

>  <SCORE.RESTR.CAVITY>
0

>  <SCORE.RESTR.norm>
0

>  <SCORE.SYSTEM>
0

>  <SCORE.SYSTEM.CONST>
0

>  <SCORE.SYSTEM.DIHEDRAL>
0

>  <SCORE.SYSTEM.SOLV>
0

>  <SCORE.SYSTEM.norm>
0

>  <SCORE.heavy>
52

>  <SCORE.norm>
-0.34141

>  <RMSD>
6.838

$$$$
2esj_lig
 OpenBabel11021811423D
libRbt.so/2013.1/901 2013/11/27
 52 56  0  0  0  0  0  0  0  0999 V2000
   17.4317   -2.3957   12.4848 C   0  0  2  0  0  0  0  0  0  0  0  0
   17.9710   -3.7310   12.4539 O   0  0  0  0  0  0  0  0  0  0  0  0
   19.3173   -4.1009   16.4960 C   0  0  2  0  0  0  0  0  0  0  0  0
   19.7350   -4.6036   17.8151 N   0  0  0  0  0  0  0  0  0  0  0  0
   22.1840   -4.2851   13.0545 C   0  0  1  0  0  0  0  0  0  0  0  0
   26.3806   -4.0369   12.7095 C   0  0  1  0  0  0  0  0  0  0  0  0
   28.4871   -0.8321   16.1095 C   0  0  1  0  0  0  0  0  0  0  0  0
   17.0216   -2.0220   11.0298 C   0  0  2  0  0  0  0  0  0  0  0  0
   16.0754   -2.9798   10.4583 N   0  0  0  0  0  0  0  0  0  0  0  0
   17.8696   -4.6264   16.1415 C   0  0  0  0  0  0  0  0  0  0  0  0
   22.9278   -5.0730   11.9754 C   0  0  2  0  0  0  0  0  0  0  0  0
   23.2070   -6.4311   12.3793 O   0  0  0  0  0  0  0  0  0  0  0  0
   27.1302   -4.6291   13.9857 C   0  0  2  0  0  0  0  0  0  0  0  0
   26.4058   -4.2859   15.2381 N   0  0  0  0  0  0  0  0  0  0  0  0
   27.9978   -1.2983   17.4758 C   0  0  1  0  0  0  0  0  0  0  0  0
   28.6842   -0.5556   18.5033 O   0  0  0  0  0  0  0  0  0  0  0  0
   18.2779   -1.9045   10.1095 C   0  0  0  0  0  0  0  0  0  0  0  0
   17.4147   -4.0287   14.7496 C   0  0  2  0  0  0  0  0  0  0  0  0
   16.0777   -4.5125   14.3902 N   0  0  0  0  0  0  0  0  0  0  0  0
   24.1495   -4.2172   11.8045 C   0  0  2  0  0  0  0  0  0  0  0  0
   25.0467   -4.4223   12.8663 O   0  0  0  0  0  0  0  0  0  0  0  0
   28.6561   -4.1763   13.9455 C   0  0  1  0  0  0  0  0  0  0  0  0
   29.2044   -4.5112   12.6664 O   0  0  0  0  0  0  0  0  0  0  0  0
   26.4993   -1.1564   17.7140 C   0  0  1  0  0  0  0  0  0  0  0  0
   26.2653   -1.4125   19.1032 O   0  0  0  0  0  0  0  0  0  0  0  0
   19.2788   -0.8980   10.7506 C   0  0  2  0  0  0  0  0  0  0  0  0
   20.4111   -0.6844    9.9270 O   0  0  0  0  0  0  0  0  0  0  0  0
   18.4374   -4.3956   13.6429 C   0  0  2  0  0  0  0  0  0  0  0  0
   23.6754   -2.7614   11.9922 C   0  0  2  0  0  0  0  0  0  0  0  0
   22.5889   -2.9189   12.8910 O   0  0  0  0  0  0  0  0  0  0  0  0
   28.7965   -2.6040   14.0770 C   0  0  2  0  0  0  0  0  0  0  0  0
   28.2730   -2.3112   15.3734 O   0  0  0  0  0  0  0  0  0  0  0  0
   25.9455    0.2230   17.3525 C   0  0  2  0  0  0  0  0  0  0  0  0
   24.5137    0.1043   17.3293 O   0  0  0  0  0  0  0  0  0  0  0  0
   19.6820   -1.4337   12.1469 C   0  0  2  0  0  0  0  0  0  0  0  0
   18.4696   -1.5016   12.9509 O   0  0  0  0  0  0  0  0  0  0  0  0
   19.9129   -4.0106   13.9827 C   0  0  2  0  0  0  0  0  0  0  0  0
   20.7920   -4.4658   12.9167 O   0  0  0  0  0  0  0  0  0  0  0  0
   23.1923   -2.0353   10.7371 C   0  0  0  0  0  0  0  0  0  0  0  0
   24.2974   -1.9687    9.8239 O   0  0  0  0  0  0  0  0  0  0  0  0
   27.8006   -2.0197   13.0937 C   0  0  1  0  0  0  0  0  0  0  0  0
   26.5209   -2.5267   12.6580 O   0  0  0  0  0  0  0  0  0  0  0  0
   26.5526    0.7472   16.0559 C   0  0  2  0  0  0  0  0  0  0  0  0
   27.8965    0.4163   15.6736 O   0  0  0  0  0  0  0  0  0  0  0  0
   20.6070   -0.5215   12.8781 C   0  0  0  0  0  0  0  0  0  0  0  0
   20.9509   -1.1512   14.0887 O   0  0  0  0  0  0  0  0  0  0  0  0
   20.3256   -4.5691   15.3863 C   0  0  1  0  0  0  0  0  0  0  0  0
   21.6262   -4.0079   15.7066 O   0  0  0  0  0  0  0  0  0  0  0  0
   27.8039   -0.4672   12.9430 C   0  0  0  0  0  0  0  0  0  0  0  0
   28.3488   -0.0047   11.6492 N   0  0  0  0  0  0  0  0  0  0  0  0
   26.1929    2.1050   15.4569 C   0  0  0  0  0  0  0  0  0  0  0  0
   25.2412    1.9325   14.3738 O   0  0  0  0  0  0  0  0  0  0  0  0
  1  2  1  6  0  0  0
  1  8  1  0  0  0  0
  1 36  1  0  0  0  0
  3  4  1  1  0  0  0
  3 10  1  0  0  0  0
  3 47  1  0  0  0  0
  5 11  1  0  0  0  0
  5 30  1  0  0  0  0
  5 38  1  6  0  0  0
  6 21  1  1  0  0  0
  6 42  1  0  0  0  0
  7 15  1  0  0  0  0
  7 44  1  0  0  0  0
  7 32  1  6  0  0  0
  8  9  1  6  0  0  0
  8 17  1  0  0  0  0
 11 12  1  1  0  0  0
 11 20  1  0  0  0  0
 13  6  1  0  0  0  0
 13 14  1  1  0  0  0
 15 16  1  1  0  0  0
 15 24  1  0  0  0  0
 17 26  1  0  0  0  0
 18 10  1  0  0  0  0
 18 19  1  6  0  0  0
 20 21  1  1  0  0  0
 20 29  1  0  0  0  0
 22 13  1  0  0  0  0
 22 23  1  6  0  0  0
 24 25  1  1  0  0  0
 24 33  1  0  0  0  0
 26 27  1  6  0  0  0
 26 35  1  0  0  0  0
 28  2  1  6  0  0  0
 28 18  1  0  0  0  0
 29 30  1  0  0  0  0
 29 39  1  6  0  0  0
 31 22  1  0  0  0  0
 31 32  1  1  0  0  0
 31 41  1  0  0  0  0
 33 34  1  6  0  0  0
 33 43  1  0  0  0  0
 35 36  1  0  0  0  0
 35 45  1  1  0  0  0
 37 28  1  0  0  0  0
 37 38  1  6  0  0  0
 39 40  1  0  0  0  0
 41 42  1  0  0  0  0
 41 49  1  1  0  0  0
 43 44  1  0  0  0  0
 43 51  1  1  0  0  0
 45 46  1  0  0  0  0
 47 37  1  0  0  0  0
 47 48  1  1  0  0  0
 49 50  1  0  0  0  0
 51 52  1  0  0  0  0
M  END
>  <CHROM.1>
-179.34100104,168.67124016,-170.99186457,-168.27917653,161.51207091,40.24789467
-61.71066524,167.01338745,-176.88404026,-176.59452294,109.13927068,-100.70460728
23.27587505,-2.43954966,13.87655047,2.86133045,-0.15354857,-1.70660057

>  <Name>
2esj_lig

>  <RI>
2.18877e+07

>  <Rbt.Current_Directory>
/home/itssahil/PROJECTS/Mol_Feturizer/New_Systems/rnas/2esj

>  <Rbt.Executable>
rbdock ($Id: //depot/dev/client3/rdock/2013.1/src/exe/rbdock.cxx#4 $)

>  <Rbt.Library>
libRbt.so (2013.1, Build901 2013/11/27)

>  <Rbt.Parameter_File>
/export/apps/rDock/src/rDock_2013.1_src/data/scripts/dock_solv.prm

>  <Rbt.Receptor>
prm/pocket_docking_7.prm

>  <SCORE>
-12.3048

>  <SCORE.INTER>
-2.09978

>  <SCORE.INTER.CONST>
1

>  <SCORE.INTER.POLAR>
-0.979796

>  <SCORE.INTER.ROT>
12

>  <SCORE.INTER.SOLV>
10.4751

>  <SCORE.INTER.VDW>
-13.2256

>  <SCORE.INTER.norm>
-0.0403804

>  <SCORE.INTRA>
-10.205

>  <SCORE.INTRA.DIHEDRAL>
-20.9774

>  <SCORE.INTRA.DIHEDRAL.0>
32.9766

>  <SCORE.INTRA.POLAR>
0

>  <SCORE.INTRA.POLAR.0>
0

>  <SCORE.INTRA.REPUL>
0

>  <SCORE.INTRA.REPUL.0>
0

>  <SCORE.INTRA.SOLV>
-1.70445

>  <SCORE.INTRA.SOLV.lig_0>
-114.358

>  <SCORE.INTRA.VDW>
1.13591

>  <SCORE.INTRA.VDW.0>
-8.24257

>  <SCORE.INTRA.norm>
-0.19625

>  <SCORE.RESTR>
0

>  <SCORE.RESTR.CAVITY>
0

>  <SCORE.RESTR.norm>
0

>  <SCORE.SYSTEM>
0

>  <SCORE.SYSTEM.CONST>
0

>  <SCORE.SYSTEM.DIHEDRAL>
0

>  <SCORE.SYSTEM.SOLV>
0

>  <SCORE.SYSTEM.norm>
0

>  <SCORE.heavy>
52

>  <SCORE.norm>
-0.236631

>  <RMSD>
6.865

$$$$
2esj_lig
 OpenBabel11021811423D
libRbt.so/2013.1/901 2013/11/27
 52 56  0  0  0  0  0  0  0  0999 V2000
   21.5922  -12.1195   19.2613 C   0  0  2  0  0  0  0  0  0  0  0  0
   22.6420  -11.2780   19.7758 O   0  0  0  0  0  0  0  0  0  0  0  0
   20.3688   -7.7616   20.6453 C   0  0  2  0  0  0  0  0  0  0  0  0
   19.9236   -6.4288   21.0842 N   0  0  0  0  0  0  0  0  0  0  0  0
   22.7315   -8.0538   16.8934 C   0  0  1  0  0  0  0  0  0  0  0  0
   22.6951   -4.4806   15.5361 C   0  0  1  0  0  0  0  0  0  0  0  0
   21.7702   -0.5939   12.1164 C   0  0  1  0  0  0  0  0  0  0  0  0
   22.0806  -13.5945   19.3652 C   0  0  2  0  0  0  0  0  0  0  0  0
   22.4524  -13.9594   20.7319 N   0  0  0  0  0  0  0  0  0  0  0  0
   21.0120   -8.5511   21.8538 C   0  0  0  0  0  0  0  0  0  0  0  0
   23.7480   -6.9180   17.0166 C   0  0  2  0  0  0  0  0  0  0  0  0
   23.2673   -5.8362   17.8436 O   0  0  0  0  0  0  0  0  0  0  0  0
   21.2261   -4.0586   15.0830 C   0  0  2  0  0  0  0  0  0  0  0  0
   20.9867   -4.4039   13.6567 N   0  0  0  0  0  0  0  0  0  0  0  0
   21.0958   -1.3943   11.0082 C   0  0  1  0  0  0  0  0  0  0  0  0
   20.4376   -0.4868   10.1018 O   0  0  0  0  0  0  0  0  0  0  0  0
   23.2826  -13.8526   18.4020 C   0  0  0  0  0  0  0  0  0  0  0  0
   21.4298  -10.0005   21.3780 C   0  0  2  0  0  0  0  0  0  0  0  0
   22.0427  -10.7506   22.4791 N   0  0  0  0  0  0  0  0  0  0  0  0
   23.9298   -6.5551   15.5711 C   0  0  2  0  0  0  0  0  0  0  0  0
   22.8350   -5.8043   15.1107 O   0  0  0  0  0  0  0  0  0  0  0  0
   20.9905   -2.5280   15.4532 C   0  0  1  0  0  0  0  0  0  0  0  0
   21.3185   -2.3299   16.8323 O   0  0  0  0  0  0  0  0  0  0  0  0
   22.0240   -2.2848   10.1910 C   0  0  1  0  0  0  0  0  0  0  0  0
   21.2730   -2.7632    9.0697 O   0  0  0  0  0  0  0  0  0  0  0  0
   22.8700  -13.4350   16.9594 C   0  0  2  0  0  0  0  0  0  0  0  0
   23.8903  -13.7152   16.0179 O   0  0  0  0  0  0  0  0  0  0  0  0
   22.4040   -9.9150   20.1744 C   0  0  2  0  0  0  0  0  0  0  0  0
   23.8303   -7.8798   14.7870 C   0  0  2  0  0  0  0  0  0  0  0  0
   22.9542   -8.6405   15.6036 O   0  0  0  0  0  0  0  0  0  0  0  0
   21.9625   -1.5795   14.6378 C   0  0  2  0  0  0  0  0  0  0  0  0
   21.5851   -1.7771   13.2744 O   0  0  0  0  0  0  0  0  0  0  0  0
   23.2814   -1.5710    9.6916 C   0  0  2  0  0  0  0  0  0  0  0  0
   24.1817   -2.5895    9.2260 O   0  0  0  0  0  0  0  0  0  0  0  0
   22.5042  -11.9300   16.9732 C   0  0  2  0  0  0  0  0  0  0  0  0
   21.3722  -11.7681   17.8750 O   0  0  0  0  0  0  0  0  0  0  0  0
   21.8789   -9.0459   18.9871 C   0  0  2  0  0  0  0  0  0  0  0  0
   22.8973   -8.9722   17.9508 O   0  0  0  0  0  0  0  0  0  0  0  0
   25.1338   -8.6523   14.5870 C   0  0  0  0  0  0  0  0  0  0  0  0
   24.8695   -9.7127   13.6567 O   0  0  0  0  0  0  0  0  0  0  0  0
   23.3427   -2.1937   14.7720 C   0  0  1  0  0  0  0  0  0  0  0  0
   23.7338   -3.5779   14.8963 O   0  0  0  0  0  0  0  0  0  0  0  0
   23.8678   -0.6570   10.7617 C   0  0  2  0  0  0  0  0  0  0  0  0
   23.0281    0.0044   11.7205 O   0  0  0  0  0  0  0  0  0  0  0  0
   22.0453  -11.4279   15.6466 C   0  0  0  0  0  0  0  0  0  0  0  0
   23.1356  -11.5174   14.7615 O   0  0  0  0  0  0  0  0  0  0  0  0
   21.4238   -7.6339   19.4886 C   0  0  1  0  0  0  0  0  0  0  0  0
   20.7757   -6.9696   18.3715 O   0  0  0  0  0  0  0  0  0  0  0  0
   24.5228   -1.3928   14.1405 C   0  0  0  0  0  0  0  0  0  0  0  0
   25.8402   -1.7394   14.7141 N   0  0  0  0  0  0  0  0  0  0  0  0
   25.1191    0.1896   10.5397 C   0  0  0  0  0  0  0  0  0  0  0  0
   25.4205    0.9526   11.7379 O   0  0  0  0  0  0  0  0  0  0  0  0
  1  2  1  6  0  0  0
  1  8  1  0  0  0  0
  1 36  1  0  0  0  0
  3  4  1  1  0  0  0
  3 10  1  0  0  0  0
  3 47  1  0  0  0  0
  5 11  1  0  0  0  0
  5 30  1  0  0  0  0
  5 38  1  1  0  0  0
  6 21  1  6  0  0  0
  6 42  1  0  0  0  0
  7 15  1  0  0  0  0
  7 44  1  0  0  0  0
  7 32  1  1  0  0  0
  8  9  1  1  0  0  0
  8 17  1  0  0  0  0
 11 12  1  1  0  0  0
 11 20  1  0  0  0  0
 13  6  1  0  0  0  0
 13 14  1  6  0  0  0
 15 16  1  6  0  0  0
 15 24  1  0  0  0  0
 17 26  1  0  0  0  0
 18 10  1  0  0  0  0
 18 19  1  1  0  0  0
 20 21  1  6  0  0  0
 20 29  1  0  0  0  0
 22 13  1  0  0  0  0
 22 23  1  1  0  0  0
 24 25  1  6  0  0  0
 24 33  1  0  0  0  0
 26 27  1  6  0  0  0
 26 35  1  0  0  0  0
 28  2  1  6  0  0  0
 28 18  1  0  0  0  0
 29 30  1  0  0  0  0
 29 39  1  1  0  0  0
 31 22  1  0  0  0  0
 31 32  1  6  0  0  0
 31 41  1  0  0  0  0
 33 34  1  1  0  0  0
 33 43  1  0  0  0  0
 35 36  1  0  0  0  0
 35 45  1  6  0  0  0
 37 28  1  0  0  0  0
 37 38  1  6  0  0  0
 39 40  1  0  0  0  0
 41 42  1  0  0  0  0
 41 49  1  6  0  0  0
 43 44  1  0  0  0  0
 43 51  1  6  0  0  0
 45 46  1  0  0  0  0
 47 37  1  0  0  0  0
 47 48  1  6  0  0  0
 49 50  1  0  0  0  0
 51 52  1  0  0  0  0
M  END
>  <CHROM.1>
-162.41109750,109.81231402,-168.41118233,-175.55836924,72.53629120,64.26895030
-170.37681052,151.51861007,-65.21724941,-169.12263132,158.31611223,179.76117320
22.61343930,-6.40030348,15.68006739,-1.74159003,1.24667865,-0.46426831

>  <Name>
2esj_lig

>  <RI>
0

>  <Rbt.Current_Directory>
/home/itssahil/PROJECTS/Mol_Feturizer/New_Systems/rnas/2esj

>  <Rbt.Executable>
rbdock ($Id: //depot/dev/client3/rdock/2013.1/src/exe/rbdock.cxx#4 $)

>  <Rbt.Library>
libRbt.so (2013.1, Build901 2013/11/27)

>  <Rbt.Parameter_File>
/export/apps/rDock/src/rDock_2013.1_src/data/scripts/dock_solv.prm

>  <Rbt.Receptor>
prm/pocket_docking_8.prm

>  <SCORE>
-9.55061

>  <SCORE.INTER>
-4.64516

>  <SCORE.INTER.CONST>
1

>  <SCORE.INTER.POLAR>
-0.894427

>  <SCORE.INTER.ROT>
12

>  <SCORE.INTER.SOLV>
8.07043

>  <SCORE.INTER.VDW>
-14.4055

>  <SCORE.INTER.norm>
-0.08933

>  <SCORE.INTRA>
-4.90545

>  <SCORE.INTRA.DIHEDRAL>
-14.0261

>  <SCORE.INTRA.DIHEDRAL.0>
32.9766

>  <SCORE.INTRA.POLAR>
0

>  <SCORE.INTRA.POLAR.0>
0

>  <SCORE.INTRA.REPUL>
0

>  <SCORE.INTRA.REPUL.0>
0

>  <SCORE.INTRA.SOLV>
-0.289132

>  <SCORE.INTRA.SOLV.lig_0>
-114.358

>  <SCORE.INTRA.VDW>
2.25217

>  <SCORE.INTRA.VDW.0>
-8.24257

>  <SCORE.INTRA.norm>
-0.0943356

>  <SCORE.RESTR>
0

>  <SCORE.RESTR.CAVITY>
0

>  <SCORE.RESTR.norm>
0

>  <SCORE.SYSTEM>
0

>  <SCORE.SYSTEM.CONST>
0

>  <SCORE.SYSTEM.DIHEDRAL>
0

>  <SCORE.SYSTEM.SOLV>
0

>  <SCORE.SYSTEM.norm>
0

>  <SCORE.heavy>
52

>  <SCORE.norm>
-0.183666

>  <RMSD>
6.880

$$$$
2esj_lig
 OpenBabel11021811423D
libRbt.so/2013.1/901 2013/11/27
 52 56  0  0  0  0  0  0  0  0999 V2000
   21.5001   -7.6208   14.8916 C   0  0  2  0  0  0  0  0  0  0  0  0
   20.5154   -6.6797   14.4232 O   0  0  0  0  0  0  0  0  0  0  0  0
   18.9765   -3.0171   16.0060 C   0  0  2  0  0  0  0  0  0  0  0  0
   18.2408   -1.9964   16.7704 N   0  0  0  0  0  0  0  0  0  0  0  0
   22.7802   -5.1627   17.5124 C   0  0  1  0  0  0  0  0  0  0  0  0
   26.1217   -3.8642   19.7311 C   0  0  1  0  0  0  0  0  0  0  0  0
   30.1437   -2.7914   16.7158 C   0  0  1  0  0  0  0  0  0  0  0  0
   22.2079   -8.2201   13.6407 C   0  0  2  0  0  0  0  0  0  0  0  0
   22.8007   -7.1867   12.7922 N   0  0  0  0  0  0  0  0  0  0  0  0
   17.9673   -4.0047   15.2961 C   0  0  0  0  0  0  0  0  0  0  0  0
   22.7572   -5.1864   19.0412 C   0  0  2  0  0  0  0  0  0  0  0  0
   22.1330   -4.0106   19.6007 O   0  0  0  0  0  0  0  0  0  0  0  0
   26.4824   -2.3465   19.4029 C   0  0  2  0  0  0  0  0  0  0  0  0
   26.2729   -2.0470   17.9615 N   0  0  0  0  0  0  0  0  0  0  0  0
   31.1824   -1.8652   17.3376 C   0  0  1  0  0  0  0  0  0  0  0  0
   32.4985   -2.4062   17.1061 O   0  0  0  0  0  0  0  0  0  0  0  0
   21.2174   -9.0899   12.8032 C   0  0  0  0  0  0  0  0  0  0  0  0
   18.7736   -5.0567   14.4331 C   0  0  2  0  0  0  0  0  0  0  0  0
   17.8595   -5.9949   13.7735 N   0  0  0  0  0  0  0  0  0  0  0  0
   24.2247   -5.3045   19.3355 C   0  0  2  0  0  0  0  0  0  0  0  0
   24.8637   -4.0658   19.1571 O   0  0  0  0  0  0  0  0  0  0  0  0
   27.9445   -2.0328   19.9496 C   0  0  1  0  0  0  0  0  0  0  0  0
   28.0192   -2.4274   21.3234 O   0  0  0  0  0  0  0  0  0  0  0  0
   31.1662   -0.4306   16.8236 C   0  0  1  0  0  0  0  0  0  0  0  0
   32.3389    0.2146   17.3321 O   0  0  0  0  0  0  0  0  0  0  0  0
   20.5831  -10.1662   13.7332 C   0  0  2  0  0  0  0  0  0  0  0  0
   19.7293  -11.0422   13.0191 O   0  0  0  0  0  0  0  0  0  0  0  0
   19.7860   -5.8240   15.3226 C   0  0  2  0  0  0  0  0  0  0  0  0
   24.8100   -6.1911   18.2171 C   0  0  2  0  0  0  0  0  0  0  0  0
   23.9515   -5.8955   17.1269 O   0  0  0  0  0  0  0  0  0  0  0  0
   29.0410   -2.8905   19.1938 C   0  0  2  0  0  0  0  0  0  0  0  0
   28.9616   -2.4475   17.8382 O   0  0  0  0  0  0  0  0  0  0  0  0
   31.1496   -0.3226   15.2977 C   0  0  2  0  0  0  0  0  0  0  0  0
   30.8219    1.0398   14.9799 O   0  0  0  0  0  0  0  0  0  0  0  0
   19.8295   -9.4408   14.8756 C   0  0  2  0  0  0  0  0  0  0  0  0
   20.8133   -8.6662   15.6192 O   0  0  0  0  0  0  0  0  0  0  0  0
   20.7393   -4.9017   16.1481 C   0  0  2  0  0  0  0  0  0  0  0  0
   21.5903   -5.7192   16.9989 O   0  0  0  0  0  0  0  0  0  0  0  0
   24.8055   -7.6983   18.4703 C   0  0  0  0  0  0  0  0  0  0  0  0
   24.8529   -8.3514   17.1932 O   0  0  0  0  0  0  0  0  0  0  0  0
   28.5170   -4.3136   19.1891 C   0  0  1  0  0  0  0  0  0  0  0  0
   27.1590   -4.8018   19.1412 O   0  0  0  0  0  0  0  0  0  0  0  0
   30.2159   -1.3541   14.6742 C   0  0  2  0  0  0  0  0  0  0  0  0
   30.0104   -2.6387   15.2819 O   0  0  0  0  0  0  0  0  0  0  0  0
   19.2182  -10.3785   15.8602 C   0  0  0  0  0  0  0  0  0  0  0  0
   20.1840  -11.3542   16.1694 O   0  0  0  0  0  0  0  0  0  0  0  0
   19.9232   -3.8361   16.9548 C   0  0  1  0  0  0  0  0  0  0  0  0
   20.8803   -2.9082   17.5314 O   0  0  0  0  0  0  0  0  0  0  0  0
   29.4627   -5.3992   18.5890 C   0  0  0  0  0  0  0  0  0  0  0  0
   30.2090   -6.1585   19.6143 N   0  0  0  0  0  0  0  0  0  0  0  0
   30.0076   -1.4859   13.1673 C   0  0  0  0  0  0  0  0  0  0  0  0
   29.6123   -0.2055   12.6076 O   0  0  0  0  0  0  0  0  0  0  0  0
  1  2  1  6  0  0  0
  1  8  1  0  0  0  0
  1 36  1  0  0  0  0
  3  4  1  1  0  0  0
  3 10  1  0  0  0  0
  3 47  1  0  0  0  0
  5 11  1  0  0  0  0
  5 30  1  0  0  0  0
  5 38  1  6  0  0  0
  6 21  1  6  0  0  0
  6 42  1  0  0  0  0
  7 15  1  0  0  0  0
  7 44  1  0  0  0  0
  7 32  1  1  0  0  0
  8  9  1  6  0  0  0
  8 17  1  0  0  0  0
 11 12  1  1  0  0  0
 11 20  1  0  0  0  0
 13  6  1  0  0  0  0
 13 14  1  6  0  0  0
 15 16  1  6  0  0  0
 15 24  1  0  0  0  0
 17 26  1  0  0  0  0
 18 10  1  0  0  0  0
 18 19  1  1  0  0  0
 20 21  1  6  0  0  0
 20 29  1  0  0  0  0
 22 13  1  0  0  0  0
 22 23  1  1  0  0  0
 24 25  1  6  0  0  0
 24 33  1  0  0  0  0
 26 27  1  6  0  0  0
 26 35  1  0  0  0  0
 28  2  1  6  0  0  0
 28 18  1  0  0  0  0
 29 30  1  0  0  0  0
 29 39  1  1  0  0  0
 31 22  1  0  0  0  0
 31 32  1  6  0  0  0
 31 41  1  0  0  0  0
 33 34  1  1  0  0  0
 33 43  1  0  0  0  0
 35 36  1  0  0  0  0
 35 45  1  1  0  0  0
 37 28  1  0  0  0  0
 37 38  1  1  0  0  0
 39 40  1  0  0  0  0
 41 42  1  0  0  0  0
 41 49  1  6  0  0  0
 43 44  1  0  0  0  0
 43 51  1  6  0  0  0
 45 46  1  0  0  0  0
 47 37  1  0  0  0  0
 47 48  1  6  0  0  0
 49 50  1  0  0  0  0
 51 52  1  0  0  0  0
M  END
>  <CHROM.1>
-172.45254390,120.55596146,-176.56454941,-70.47613039,162.02878741,-176.02434552
156.86698262,165.55298923,45.59500372,160.70490104,99.02401269,-54.40916466
24.76480535,-4.73139348,16.65324273,-2.60517640,0.02156055,0.35624849

>  <Name>
2esj_lig

>  <RI>
1.62275e+07

>  <Rbt.Current_Directory>
/home/itssahil/PROJECTS/Mol_Feturizer/New_Systems/rnas/2esj

>  <Rbt.Executable>
rbdock ($Id: //depot/dev/client3/rdock/2013.1/src/exe/rbdock.cxx#4 $)

>  <Rbt.Library>
libRbt.so (2013.1, Build901 2013/11/27)

>  <Rbt.Parameter_File>
/export/apps/rDock/src/rDock_2013.1_src/data/scripts/dock_solv.prm

>  <Rbt.Receptor>
prm/pocket_docking_5.prm

>  <SCORE>
0.51593

>  <SCORE.INTER>
6.39715

>  <SCORE.INTER.CONST>
1

>  <SCORE.INTER.POLAR>
-0.683426

>  <SCORE.INTER.ROT>
12

>  <SCORE.INTER.SOLV>
13.8391

>  <SCORE.INTER.VDW>
-9.67017

>  <SCORE.INTER.norm>
0.123022

>  <SCORE.INTRA>
-5.88122

>  <SCORE.INTRA.DIHEDRAL>
-13.2197

>  <SCORE.INTRA.DIHEDRAL.0>
32.9766

>  <SCORE.INTRA.POLAR>
0

>  <SCORE.INTRA.POLAR.0>
0

>  <SCORE.INTRA.REPUL>
0

>  <SCORE.INTRA.REPUL.0>
0

>  <SCORE.INTRA.SOLV>
-4.44418

>  <SCORE.INTRA.SOLV.lig_0>
-114.358

>  <SCORE.INTRA.VDW>
2.95072

>  <SCORE.INTRA.VDW.0>
-8.24257

>  <SCORE.INTRA.norm>
-0.1131

>  <SCORE.RESTR>
0

>  <SCORE.RESTR.CAVITY>
0

>  <SCORE.RESTR.norm>
0

>  <SCORE.SYSTEM>
0

>  <SCORE.SYSTEM.CONST>
0

>  <SCORE.SYSTEM.DIHEDRAL>
0

>  <SCORE.SYSTEM.SOLV>
0

>  <SCORE.SYSTEM.norm>
0

>  <SCORE.heavy>
52

>  <SCORE.norm>
0.00992173

>  <RMSD>
6.896

$$$$
2esj_lig
 OpenBabel11021811423D
libRbt.so/2013.1/901 2013/11/27
 52 56  0  0  0  0  0  0  0  0999 V2000
   20.5475   -7.1944   16.4027 C   0  0  2  0  0  0  0  0  0  0  0  0
   20.2420   -6.9450   15.0173 O   0  0  0  0  0  0  0  0  0  0  0  0
   21.5635   -3.7895   12.4513 C   0  0  2  0  0  0  0  0  0  0  0  0
   21.7071   -2.5262   11.7091 N   0  0  0  0  0  0  0  0  0  0  0  0
   22.8727   -4.0985   16.7665 C   0  0  1  0  0  0  0  0  0  0  0  0
   24.5793   -1.7556   19.2295 C   0  0  1  0  0  0  0  0  0  0  0  0
   27.8229    1.7965   19.1618 C   0  0  1  0  0  0  0  0  0  0  0  0
   20.1140   -8.6554   16.7226 C   0  0  2  0  0  0  0  0  0  0  0  0
   20.7546   -9.6288   15.8386 N   0  0  0  0  0  0  0  0  0  0  0  0
   20.1457   -4.4306   12.1750 C   0  0  0  0  0  0  0  0  0  0  0  0
   22.7492   -3.9720   18.2854 C   0  0  2  0  0  0  0  0  0  0  0  0
   22.1099   -2.7403   18.6850 O   0  0  0  0  0  0  0  0  0  0  0  0
   25.1809   -0.5152   18.4291 C   0  0  2  0  0  0  0  0  0  0  0  0
   26.5809   -0.7811   18.0046 N   0  0  0  0  0  0  0  0  0  0  0  0
   29.2630    1.3460   19.3782 C   0  0  1  0  0  0  0  0  0  0  0  0
   30.0114    1.5524   18.1634 O   0  0  0  0  0  0  0  0  0  0  0  0
   18.5617   -8.8066   16.6413 C   0  0  0  0  0  0  0  0  0  0  0  0
   20.0327   -5.8144   12.9326 C   0  0  2  0  0  0  0  0  0  0  0  0
   18.7190   -6.4247   12.7033 N   0  0  0  0  0  0  0  0  0  0  0  0
   24.1920   -4.0762   18.6872 C   0  0  2  0  0  0  0  0  0  0  0  0
   24.8624   -2.8679   18.4325 O   0  0  0  0  0  0  0  0  0  0  0  0
   24.9799    0.8056   19.2951 C   0  0  1  0  0  0  0  0  0  0  0  0
   23.6057    0.8988   19.6846 O   0  0  0  0  0  0  0  0  0  0  0  0
   30.0017    2.0485   20.5110 C   0  0  1  0  0  0  0  0  0  0  0  0
   31.3809    1.6772   20.4115 O   0  0  0  0  0  0  0  0  0  0  0  0
   17.9035   -7.7455   17.5722 C   0  0  2  0  0  0  0  0  0  0  0  0
   16.4936   -7.8768   17.6062 O   0  0  0  0  0  0  0  0  0  0  0  0
   20.2812   -5.6217   14.4512 C   0  0  2  0  0  0  0  0  0  0  0  0
   24.8341   -5.0745   17.7019 C   0  0  2  0  0  0  0  0  0  0  0  0
   24.0540   -4.8780   16.5332 O   0  0  0  0  0  0  0  0  0  0  0  0
   25.8077    0.7443   20.6443 C   0  0  2  0  0  0  0  0  0  0  0  0
   27.1701    0.6867   20.2188 O   0  0  0  0  0  0  0  0  0  0  0  0
   29.8831    3.5731   20.4723 C   0  0  2  0  0  0  0  0  0  0  0  0
   30.3473    4.0596   21.7422 O   0  0  0  0  0  0  0  0  0  0  0  0
   18.3338   -6.3384   17.0884 C   0  0  2  0  0  0  0  0  0  0  0  0
   19.7834   -6.2648   17.2065 O   0  0  0  0  0  0  0  0  0  0  0  0
   21.6151   -4.8833   14.7923 C   0  0  2  0  0  0  0  0  0  0  0  0
   21.7096   -4.6900   16.2311 O   0  0  0  0  0  0  0  0  0  0  0  0
   24.7872   -6.5494   18.0995 C   0  0  0  0  0  0  0  0  0  0  0  0
   23.4095   -6.9011   18.2942 O   0  0  0  0  0  0  0  0  0  0  0  0
   25.5107   -0.6158   21.2461 C   0  0  1  0  0  0  0  0  0  0  0  0
   25.2235   -1.8738   20.5986 O   0  0  0  0  0  0  0  0  0  0  0  0
   28.4697    4.0151   20.1099 C   0  0  2  0  0  0  0  0  0  0  0  0
   27.6440    3.2318   19.2345 O   0  0  0  0  0  0  0  0  0  0  0  0
   17.7978   -5.2384   17.9400 C   0  0  0  0  0  0  0  0  0  0  0  0
   18.1660   -4.0210   17.3377 O   0  0  0  0  0  0  0  0  0  0  0  0
   21.7292   -3.5413   13.9934 C   0  0  1  0  0  0  0  0  0  0  0  0
   23.0671   -3.0216   14.2155 O   0  0  0  0  0  0  0  0  0  0  0  0
   26.1261   -0.9023   22.6504 C   0  0  0  0  0  0  0  0  0  0  0  0
   25.5988   -2.1301   23.2823 N   0  0  0  0  0  0  0  0  0  0  0  0
   28.0611    5.4813   19.9870 C   0  0  0  0  0  0  0  0  0  0  0  0
   28.7119    6.0825   18.8365 O   0  0  0  0  0  0  0  0  0  0  0  0
  1  2  1  6  0  0  0
  1  8  1  0  0  0  0
  1 36  1  0  0  0  0
  3  4  1  6  0  0  0
  3 10  1  0  0  0  0
  3 47  1  0  0  0  0
  5 11  1  0  0  0  0
  5 30  1  0  0  0  0
  5 38  1  1  0  0  0
  6 21  1  6  0  0  0
  6 42  1  0  0  0  0
  7 15  1  0  0  0  0
  7 44  1  0  0  0  0
  7 32  1  1  0  0  0
  8  9  1  6  0  0  0
  8 17  1  0  0  0  0
 11 12  1  6  0  0  0
 11 20  1  0  0  0  0
 13  6  1  0  0  0  0
 13 14  1  1  0  0  0
 15 16  1  6  0  0  0
 15 24  1  0  0  0  0
 17 26  1  0  0  0  0
 18 10  1  0  0  0  0
 18 19  1  1  0  0  0
 20 21  1  6  0  0  0
 20 29  1  0  0  0  0
 22 13  1  0  0  0  0
 22 23  1  1  0  0  0
 24 25  1  6  0  0  0
 24 33  1  0  0  0  0
 26 27  1  6  0  0  0
 26 35  1  0  0  0  0
 28  2  1  1  0  0  0
 28 18  1  0  0  0  0
 29 30  1  0  0  0  0
 29 39  1  1  0  0  0
 31 22  1  0  0  0  0
 31 32  1  6  0  0  0
 31 41  1  0  0  0  0
 33 34  1  1  0  0  0
 33 43  1  0  0  0  0
 35 36  1  0  0  0  0
 35 45  1  1  0  0  0
 37 28  1  0  0  0  0
 37 38  1  1  0  0  0
 39 40  1  0  0  0  0
 41 42  1  0  0  0  0
 41 49  1  6  0  0  0
 43 44  1  0  0  0  0
 43 51  1  6  0  0  0
 45 46  1  0  0  0  0
 47 37  1  0  0  0  0
 47 48  1  6  0  0  0
 49 50  1  0  0  0  0
 51 52  1  0  0  0  0
M  END
>  <CHROM.1>
168.19001427,179.08432706,-164.79362829,169.05818085,70.98655597,174.49124863
57.24294850,52.91375948,-175.32175034,176.88409959,169.33891385,68.13921244
23.77720405,-2.56584864,17.79185084,3.07938904,-0.85314837,-1.18954172

>  <Name>
2esj_lig

>  <RI>
0

>  <Rbt.Current_Directory>
/home/itssahil/PROJECTS/Mol_Feturizer/New_Systems/rnas/2esj

>  <Rbt.Executable>
rbdock ($Id: //depot/dev/client3/rdock/2013.1/src/exe/rbdock.cxx#4 $)

>  <Rbt.Library>
libRbt.so (2013.1, Build901 2013/11/27)

>  <Rbt.Parameter_File>
/export/apps/rDock/src/rDock_2013.1_src/data/scripts/dock_solv.prm

>  <Rbt.Receptor>
prm/pocket_docking_8.prm

>  <SCORE>
-9.12607

>  <SCORE.INTER>
1.33337

>  <SCORE.INTER.CONST>
1

>  <SCORE.INTER.POLAR>
-0.986471

>  <SCORE.INTER.ROT>
12

>  <SCORE.INTER.SOLV>
9.36209

>  <SCORE.INTER.VDW>
-10.5436

>  <SCORE.INTER.norm>
0.0256417

>  <SCORE.INTRA>
-10.4594

>  <SCORE.INTRA.DIHEDRAL>
-24.2875

>  <SCORE.INTRA.DIHEDRAL.0>
32.9766

>  <SCORE.INTRA.POLAR>
0

>  <SCORE.INTRA.POLAR.0>
0

>  <SCORE.INTRA.REPUL>
0

>  <SCORE.INTRA.REPUL.0>
0

>  <SCORE.INTRA.SOLV>
-2.95843

>  <SCORE.INTRA.SOLV.lig_0>
-114.358

>  <SCORE.INTRA.VDW>
3.16355

>  <SCORE.INTRA.VDW.0>
-8.24257

>  <SCORE.INTRA.norm>
-0.201143

>  <SCORE.RESTR>
0

>  <SCORE.RESTR.CAVITY>
0

>  <SCORE.RESTR.norm>
0

>  <SCORE.SYSTEM>
0

>  <SCORE.SYSTEM.CONST>
0

>  <SCORE.SYSTEM.DIHEDRAL>
0

>  <SCORE.SYSTEM.SOLV>
0

>  <SCORE.SYSTEM.norm>
0

>  <SCORE.heavy>
52

>  <SCORE.norm>
-0.175501

>  <RMSD>
6.913

$$$$
2esj_lig
 OpenBabel11021811423D
libRbt.so/2013.1/901 2013/11/27
 52 56  0  0  0  0  0  0  0  0999 V2000
   26.3263   -7.5172   18.4546 C   0  0  2  0  0  0  0  0  0  0  0  0
   25.4132   -7.9957   19.4606 O   0  0  0  0  0  0  0  0  0  0  0  0
   22.0523  -10.6400   19.4430 C   0  0  2  0  0  0  0  0  0  0  0  0
   20.7220  -11.2475   19.2742 N   0  0  0  0  0  0  0  0  0  0  0  0
   24.1733   -8.3220   16.1721 C   0  0  1  0  0  0  0  0  0  0  0  0
   24.5217   -5.2811   13.8767 C   0  0  1  0  0  0  0  0  0  0  0  0
   23.0562   -0.3775   12.3389 C   0  0  1  0  0  0  0  0  0  0  0  0
   27.6693   -7.1757   19.1650 C   0  0  2  0  0  0  0  0  0  0  0  0
   28.2140   -8.3185   19.8975 N   0  0  0  0  0  0  0  0  0  0  0  0
   21.9427   -9.3009   20.2750 C   0  0  0  0  0  0  0  0  0  0  0  0
   24.9761   -8.1149   14.8871 C   0  0  2  0  0  0  0  0  0  0  0  0
   26.0772   -7.1981   15.0676 O   0  0  0  0  0  0  0  0  0  0  0  0
   24.0698   -3.9791   14.6778 C   0  0  2  0  0  0  0  0  0  0  0  0
   22.6131   -3.7296   14.5141 N   0  0  0  0  0  0  0  0  0  0  0  0
   23.6088   -0.3608   10.9183 C   0  0  1  0  0  0  0  0  0  0  0  0
   22.8272    0.5475   10.1168 O   0  0  0  0  0  0  0  0  0  0  0  0
   27.4955   -5.9609   20.1310 C   0  0  0  0  0  0  0  0  0  0  0  0
   23.3867   -8.6947   20.4966 C   0  0  2  0  0  0  0  0  0  0  0  0
   23.3118   -7.4421   21.2557 N   0  0  0  0  0  0  0  0  0  0  0  0
   23.8995   -7.6121   13.9694 C   0  0  2  0  0  0  0  0  0  0  0  0
   23.6037   -6.2671   14.2481 O   0  0  0  0  0  0  0  0  0  0  0  0
   25.0113   -2.7640   14.2627 C   0  0  1  0  0  0  0  0  0  0  0  0
   26.3771   -3.1659   14.4097 O   0  0  0  0  0  0  0  0  0  0  0  0
   25.0731    0.0427   10.7941 C   0  0  1  0  0  0  0  0  0  0  0  0
   25.3436    0.2310    9.4007 O   0  0  0  0  0  0  0  0  0  0  0  0
   26.8933   -4.7662   19.3336 C   0  0  2  0  0  0  0  0  0  0  0  0
   26.7804   -3.6027   20.1334 O   0  0  0  0  0  0  0  0  0  0  0  0
   24.0896   -8.4594   19.1344 C   0  0  2  0  0  0  0  0  0  0  0  0
   22.6156   -8.3676   14.3703 C   0  0  2  0  0  0  0  0  0  0  0  0
   22.8293   -8.5982   15.7539 O   0  0  0  0  0  0  0  0  0  0  0  0
   24.8333   -2.3905   12.7337 C   0  0  2  0  0  0  0  0  0  0  0  0
   23.4741   -1.9634   12.6316 O   0  0  0  0  0  0  0  0  0  0  0  0
   25.4272    1.3207   11.5564 C   0  0  2  0  0  0  0  0  0  0  0  0
   26.8615    1.3928   11.6055 O   0  0  0  0  0  0  0  0  0  0  0  0
   25.5205   -5.2024   18.7643 C   0  0  2  0  0  0  0  0  0  0  0  0
   25.7611   -6.3225   17.8652 O   0  0  0  0  0  0  0  0  0  0  0  0
   24.1267   -9.7172   18.2082 C   0  0  2  0  0  0  0  0  0  0  0  0
   24.7367   -9.3658   16.9351 O   0  0  0  0  0  0  0  0  0  0  0  0
   22.3630   -9.7014   13.6683 C   0  0  0  0  0  0  0  0  0  0  0  0
   23.4471  -10.5794   14.0051 O   0  0  0  0  0  0  0  0  0  0  0  0
   24.9056   -3.7043   11.9795 C   0  0  1  0  0  0  0  0  0  0  0  0
   24.4914   -5.0280   12.3807 O   0  0  0  0  0  0  0  0  0  0  0  0
   24.7500    1.3634   12.9217 C   0  0  2  0  0  0  0  0  0  0  0  0
   23.4650    0.7599   13.1367 O   0  0  0  0  0  0  0  0  0  0  0  0
   24.8687   -4.1471   17.9373 C   0  0  0  0  0  0  0  0  0  0  0  0
   24.5378   -3.0825   18.7961 O   0  0  0  0  0  0  0  0  0  0  0  0
   22.6953  -10.3305   18.0437 C   0  0  1  0  0  0  0  0  0  0  0  0
   22.8465  -11.5913   17.3389 O   0  0  0  0  0  0  0  0  0  0  0  0
   24.8613   -3.6140   10.4230 C   0  0  0  0  0  0  0  0  0  0  0  0
   26.1328   -3.1541    9.8258 N   0  0  0  0  0  0  0  0  0  0  0  0
   24.9145    2.5266   13.8972 C   0  0  0  0  0  0  0  0  0  0  0  0
   26.3183    2.7060   14.2225 O   0  0  0  0  0  0  0  0  0  0  0  0
  1  2  1  1  0  0  0
  1  8  1  0  0  0  0
  1 36  1  0  0  0  0
  3  4  1  6  0  0  0
  3 10  1  0  0  0  0
  3 47  1  0  0  0  0
  5 11  1  0  0  0  0
  5 30  1  0  0  0  0
  5 38  1  6  0  0  0
  6 21  1  6  0  0  0
  6 42  1  0  0  0  0
  7 15  1  0  0  0  0
  7 44  1  0  0  0  0
  7 32  1  1  0  0  0
  8  9  1  1  0  0  0
  8 17  1  0  0  0  0
 11 12  1  1  0  0  0
 11 20  1  0  0  0  0
 13  6  1  0  0  0  0
 13 14  1  6  0  0  0
 15 16  1  6  0  0  0
 15 24  1  0  0  0  0
 17 26  1  0  0  0  0
 18 10  1  0  0  0  0
 18 19  1  6  0  0  0
 20 21  1  1  0  0  0
 20 29  1  0  0  0  0
 22 13  1  0  0  0  0
 22 23  1  6  0  0  0
 24 25  1  6  0  0  0
 24 33  1  0  0  0  0
 26 27  1  1  0  0  0
 26 35  1  0  0  0  0
 28  2  1  1  0  0  0
 28 18  1  0  0  0  0
 29 30  1  0  0  0  0
 29 39  1  6  0  0  0
 31 22  1  0  0  0  0
 31 32  1  1  0  0  0
 31 41  1  0  0  0  0
 33 34  1  1  0  0  0
 33 43  1  0  0  0  0
 35 36  1  0  0  0  0
 35 45  1  6  0  0  0
 37 28  1  0  0  0  0
 37 38  1  6  0  0  0
 39 40  1  0  0  0  0
 41 42  1  0  0  0  0
 41 49  1  6  0  0  0
 43 44  1  0  0  0  0
 43 51  1  6  0  0  0
 45 46  1  0  0  0  0
 47 37  1  0  0  0  0
 47 48  1  6  0  0  0
 49 50  1  0  0  0  0
 51 52  1  0  0  0  0
M  END
>  <CHROM.1>
-177.12988401,179.46490809,-165.04968359,67.66534604,72.81460008,-172.55474891
61.88308447,110.77747254,-66.74374052,-57.20115033,75.61954494,-58.49916357
24.55466764,-5.04322971,15.45238238,-1.74755570,-1.13559002,-0.79486447

>  <Name>
2esj_lig

>  <RI>
0

>  <Rbt.Current_Directory>
/home/itssahil/PROJECTS/Mol_Feturizer/New_Systems/rnas/2esj

>  <Rbt.Executable>
rbdock ($Id: //depot/dev/client3/rdock/2013.1/src/exe/rbdock.cxx#4 $)

>  <Rbt.Library>
libRbt.so (2013.1, Build901 2013/11/27)

>  <Rbt.Parameter_File>
/export/apps/rDock/src/rDock_2013.1_src/data/scripts/dock_solv.prm

>  <Rbt.Receptor>
prm/pocket_docking_8.prm

>  <SCORE>
-12.5059

>  <SCORE.INTER>
-3.72757

>  <SCORE.INTER.CONST>
1

>  <SCORE.INTER.POLAR>
0

>  <SCORE.INTER.ROT>
12

>  <SCORE.INTER.SOLV>
10.9314

>  <SCORE.INTER.VDW>
-17.7288

>  <SCORE.INTER.norm>
-0.0716841

>  <SCORE.INTRA>
-8.77837

>  <SCORE.INTRA.DIHEDRAL>
-19.0015

>  <SCORE.INTRA.DIHEDRAL.0>
32.9766

>  <SCORE.INTRA.POLAR>
0

>  <SCORE.INTRA.POLAR.0>
0

>  <SCORE.INTRA.REPUL>
0

>  <SCORE.INTRA.REPUL.0>
0

>  <SCORE.INTRA.SOLV>
-0.516486

>  <SCORE.INTRA.SOLV.lig_0>
-114.358

>  <SCORE.INTRA.VDW>
0.980624

>  <SCORE.INTRA.VDW.0>
-8.24257

>  <SCORE.INTRA.norm>
-0.168815

>  <SCORE.RESTR>
0

>  <SCORE.RESTR.CAVITY>
0

>  <SCORE.RESTR.norm>
0

>  <SCORE.SYSTEM>
0

>  <SCORE.SYSTEM.CONST>
0

>  <SCORE.SYSTEM.DIHEDRAL>
0

>  <SCORE.SYSTEM.SOLV>
0

>  <SCORE.SYSTEM.norm>
0

>  <SCORE.heavy>
52

>  <SCORE.norm>
-0.240499

>  <RMSD>
6.932

$$$$
2esj_lig
 OpenBabel11021811423D
libRbt.so/2013.1/901 2013/11/27
 52 56  0  0  0  0  0  0  0  0999 V2000
   21.4862   -9.7461   14.7561 C   0  0  2  0  0  0  0  0  0  0  0  0
   20.7682   -9.3195   15.9297 O   0  0  0  0  0  0  0  0  0  0  0  0
   18.1478   -6.1375   17.0683 C   0  0  2  0  0  0  0  0  0  0  0  0
   17.5566   -4.8273   17.3865 N   0  0  0  0  0  0  0  0  0  0  0  0
   20.4241   -6.7670   13.2734 C   0  0  1  0  0  0  0  0  0  0  0  0
   23.0145   -4.2772   11.2073 C   0  0  1  0  0  0  0  0  0  0  0  0
   21.2032   -0.2022   12.6954 C   0  0  1  0  0  0  0  0  0  0  0  0
   20.6002  -10.7938   14.0198 C   0  0  2  0  0  0  0  0  0  0  0  0
   19.2774  -10.2649   13.6884 N   0  0  0  0  0  0  0  0  0  0  0  0
   19.4485   -6.3775   17.9331 C   0  0  0  0  0  0  0  0  0  0  0  0
   21.2978   -7.4047   12.1925 C   0  0  2  0  0  0  0  0  0  0  0  0
   22.4809   -8.0281   12.7376 O   0  0  0  0  0  0  0  0  0  0  0  0
   23.9384   -3.4916   12.2420 C   0  0  2  0  0  0  0  0  0  0  0  0
   23.2405   -3.2962   13.5404 N   0  0  0  0  0  0  0  0  0  0  0  0
   21.4221    0.2389   14.1379 C   0  0  1  0  0  0  0  0  0  0  0  0
   20.6286    1.4138   14.3995 O   0  0  0  0  0  0  0  0  0  0  0  0
   20.4528  -12.0952   14.8705 C   0  0  0  0  0  0  0  0  0  0  0  0
   20.0353   -7.8127   17.6212 C   0  0  2  0  0  0  0  0  0  0  0  0
   21.2526   -8.0556   18.4021 N   0  0  0  0  0  0  0  0  0  0  0  0
   21.5742   -6.2114   11.3243 C   0  0  2  0  0  0  0  0  0  0  0  0
   22.5457   -5.3866   11.9160 O   0  0  0  0  0  0  0  0  0  0  0  0
   24.4654   -2.1561   11.5539 C   0  0  1  0  0  0  0  0  0  0  0  0
   25.0534   -2.4870   10.2915 O   0  0  0  0  0  0  0  0  0  0  0  0
   21.0823   -0.8036   15.1962 C   0  0  1  0  0  0  0  0  0  0  0  0
   21.1199   -0.1448   16.4670 O   0  0  0  0  0  0  0  0  0  0  0  0
   21.8727  -12.6250   15.2297 C   0  0  2  0  0  0  0  0  0  0  0  0
   21.8141  -13.8501   15.9381 O   0  0  0  0  0  0  0  0  0  0  0  0
   20.3277   -7.9599   16.1053 C   0  0  2  0  0  0  0  0  0  0  0  0
   20.2895   -5.3581   11.3573 C   0  0  2  0  0  0  0  0  0  0  0  0
   19.7710   -5.6559   12.6440 O   0  0  0  0  0  0  0  0  0  0  0  0
   23.2741   -1.1640   11.2284 C   0  0  2  0  0  0  0  0  0  0  0  0
   22.7350   -0.8297   12.5082 O   0  0  0  0  0  0  0  0  0  0  0  0
   19.7113   -1.4541   15.0030 C   0  0  2  0  0  0  0  0  0  0  0  0
   19.6710   -2.6046   15.8628 O   0  0  0  0  0  0  0  0  0  0  0  0
   22.6104  -11.5314   16.0414 C   0  0  2  0  0  0  0  0  0  0  0  0
   22.7248  -10.3596   15.1843 O   0  0  0  0  0  0  0  0  0  0  0  0
   19.1130   -7.6193   15.1837 C   0  0  2  0  0  0  0  0  0  0  0  0
   19.5179   -7.7164   13.7897 O   0  0  0  0  0  0  0  0  0  0  0  0
   19.2329   -5.6767   10.3000 C   0  0  0  0  0  0  0  0  0  0  0  0
   18.1478   -4.7553   10.4818 O   0  0  0  0  0  0  0  0  0  0  0  0
   22.2134   -2.0068   10.5466 C   0  0  1  0  0  0  0  0  0  0  0  0
   21.8727   -3.3974   10.7325 O   0  0  0  0  0  0  0  0  0  0  0  0
   19.4390   -1.7590   13.5342 C   0  0  2  0  0  0  0  0  0  0  0  0
   19.9671   -0.9280   12.4890 O   0  0  0  0  0  0  0  0  0  0  0  0
   24.0059  -11.9124   16.4016 C   0  0  0  0  0  0  0  0  0  0  0  0
   23.9347  -13.0683   17.2010 O   0  0  0  0  0  0  0  0  0  0  0  0
   18.5164   -6.2169   15.5435 C   0  0  1  0  0  0  0  0  0  0  0  0
   17.2879   -6.0649   14.7839 O   0  0  0  0  0  0  0  0  0  0  0  0
   20.9568   -1.2475   10.0201 C   0  0  0  0  0  0  0  0  0  0  0  0
   20.6311   -1.5581    8.6122 N   0  0  0  0  0  0  0  0  0  0  0  0
   18.1433   -2.4003   13.0428 C   0  0  0  0  0  0  0  0  0  0  0  0
   17.0649   -1.4285   13.0776 O   0  0  0  0  0  0  0  0  0  0  0  0
  1  2  1  1  0  0  0
  1  8  1  0  0  0  0
  1 36  1  0  0  0  0
  3  4  1  6  0  0  0
  3 10  1  0  0  0  0
  3 47  1  0  0  0  0
  5 11  1  0  0  0  0
  5 30  1  0  0  0  0
  5 38  1  6  0  0  0
  6 21  1  1  0  0  0
  6 42  1  0  0  0  0
  7 15  1  0  0  0  0
  7 44  1  0  0  0  0
  7 32  1  1  0  0  0
  8  9  1  1  0  0  0
  8 17  1  0  0  0  0
 11 12  1  1  0  0  0
 11 20  1  0  0  0  0
 13  6  1  0  0  0  0
 13 14  1  1  0  0  0
 15 16  1  1  0  0  0
 15 24  1  0  0  0  0
 17 26  1  0  0  0  0
 18 10  1  0  0  0  0
 18 19  1  1  0  0  0
 20 21  1  1  0  0  0
 20 29  1  0  0  0  0
 22 13  1  0  0  0  0
 22 23  1  6  0  0  0
 24 25  1  1  0  0  0
 24 33  1  0  0  0  0
 26 27  1  1  0  0  0
 26 35  1  0  0  0  0
 28  2  1  1  0  0  0
 28 18  1  0  0  0  0
 29 30  1  0  0  0  0
 29 39  1  6  0  0  0
 31 22  1  0  0  0  0
 31 32  1  1  0  0  0
 31 41  1  0  0  0  0
 33 34  1  1  0  0  0
 33 43  1  0  0  0  0
 35 36  1  0  0  0  0
 35 45  1  6  0  0  0
 37 28  1  0  0  0  0
 37 38  1  6  0  0  0
 39 40  1  0  0  0  0
 41 42  1  0  0  0  0
 41 49  1  1  0  0  0
 43 44  1  0  0  0  0
 43 51  1  1  0  0  0
 45 46  1  0  0  0  0
 47 37  1  0  0  0  0
 47 48  1  6  0  0  0
 49 50  1  0  0  0  0
 51 52  1  0  0  0  0
M  END
>  <CHROM.1>
-116.38400728,148.08743153,172.89654021,-166.12555073,175.02402633,-162.08729328
-178.45814318,-160.70935225,-61.12217980,-68.74180310,129.46979535,74.50011530
20.90583418,-5.48480646,13.79692850,-1.51830342,0.88889356,-0.37548753

>  <Name>
2esj_lig

>  <RI>
2.18877e+07

>  <Rbt.Current_Directory>
/home/itssahil/PROJECTS/Mol_Feturizer/New_Systems/rnas/2esj

>  <Rbt.Executable>
rbdock ($Id: //depot/dev/client3/rdock/2013.1/src/exe/rbdock.cxx#4 $)

>  <Rbt.Library>
libRbt.so (2013.1, Build901 2013/11/27)

>  <Rbt.Parameter_File>
/export/apps/rDock/src/rDock_2013.1_src/data/scripts/dock_solv.prm

>  <Rbt.Receptor>
prm/pocket_docking_7.prm

>  <SCORE>
-13.8853

>  <SCORE.INTER>
-13.1725

>  <SCORE.INTER.CONST>
1

>  <SCORE.INTER.POLAR>
-1.38939

>  <SCORE.INTER.ROT>
12

>  <SCORE.INTER.SOLV>
16.9457

>  <SCORE.INTER.VDW>
-21.399

>  <SCORE.INTER.norm>
-0.253318

>  <SCORE.INTRA>
-0.712772

>  <SCORE.INTRA.DIHEDRAL>
-11.6085

>  <SCORE.INTRA.DIHEDRAL.0>
32.9766

>  <SCORE.INTRA.POLAR>
0

>  <SCORE.INTRA.POLAR.0>
0

>  <SCORE.INTRA.REPUL>
0

>  <SCORE.INTRA.REPUL.0>
0

>  <SCORE.INTRA.SOLV>
2.66882

>  <SCORE.INTRA.SOLV.lig_0>
-114.358

>  <SCORE.INTRA.VDW>
3.75707

>  <SCORE.INTRA.VDW.0>
-8.24257

>  <SCORE.INTRA.norm>
-0.0137071

>  <SCORE.RESTR>
0

>  <SCORE.RESTR.CAVITY>
0

>  <SCORE.RESTR.norm>
0

>  <SCORE.SYSTEM>
0

>  <SCORE.SYSTEM.CONST>
0

>  <SCORE.SYSTEM.DIHEDRAL>
0

>  <SCORE.SYSTEM.SOLV>
0

>  <SCORE.SYSTEM.norm>
0

>  <SCORE.heavy>
52

>  <SCORE.norm>
-0.267025

>  <RMSD>
6.952

$$$$
2esj_lig
 OpenBabel11021811423D
libRbt.so/2013.1/901 2013/11/27
 52 56  0  0  0  0  0  0  0  0999 V2000
   21.5412  -10.6041   20.7731 C   0  0  2  0  0  0  0  0  0  0  0  0
   22.2283  -11.1746   19.6429 O   0  0  0  0  0  0  0  0  0  0  0  0
   23.4704  -15.1376   18.6234 C   0  0  2  0  0  0  0  0  0  0  0  0
   23.5227  -16.5764   18.3158 N   0  0  0  0  0  0  0  0  0  0  0  0
   22.0962  -10.7462   16.6181 C   0  0  1  0  0  0  0  0  0  0  0  0
   23.7852   -7.0272   15.4674 C   0  0  1  0  0  0  0  0  0  0  0  0
   20.4472   -3.1006   14.5552 C   0  0  1  0  0  0  0  0  0  0  0  0
   20.0616  -10.3654   20.3503 C   0  0  2  0  0  0  0  0  0  0  0  0
   19.4158  -11.5907   19.8804 N   0  0  0  0  0  0  0  0  0  0  0  0
   22.8175  -14.9032   20.0434 C   0  0  0  0  0  0  0  0  0  0  0  0
   23.5295  -10.6186   16.1007 C   0  0  2  0  0  0  0  0  0  0  0  0
   24.4912  -10.4872   17.1700 O   0  0  0  0  0  0  0  0  0  0  0  0
   23.0109   -5.9043   16.2926 C   0  0  2  0  0  0  0  0  0  0  0  0
   21.5577   -6.2083   16.3752 N   0  0  0  0  0  0  0  0  0  0  0  0
   20.7050   -3.0226   16.0556 C   0  0  1  0  0  0  0  0  0  0  0  0
   20.6376   -1.6454   16.4767 O   0  0  0  0  0  0  0  0  0  0  0  0
   19.9676   -9.2611   19.2500 C   0  0  0  0  0  0  0  0  0  0  0  0
   22.8240  -13.3581   20.3814 C   0  0  2  0  0  0  0  0  0  0  0  0
   22.2102  -13.1117   21.6903 N   0  0  0  0  0  0  0  0  0  0  0  0
   23.4005   -9.3993   15.2343 C   0  0  2  0  0  0  0  0  0  0  0  0
   23.3607   -8.2371   16.0230 O   0  0  0  0  0  0  0  0  0  0  0  0
   23.3661   -4.4771   15.6827 C   0  0  1  0  0  0  0  0  0  0  0  0
   24.7896   -4.3488   15.6042 O   0  0  0  0  0  0  0  0  0  0  0  0
   19.7456   -3.8276   16.9238 C   0  0  1  0  0  0  0  0  0  0  0  0
   19.9868   -3.4499   18.2837 O   0  0  0  0  0  0  0  0  0  0  0  0
   20.6817   -7.9762   19.7645 C   0  0  2  0  0  0  0  0  0  0  0  0
   20.5673   -6.9057   18.8441 O   0  0  0  0  0  0  0  0  0  0  0  0
   22.0823  -12.5598   19.2780 C   0  0  2  0  0  0  0  0  0  0  0  0
   21.9931   -9.4734   14.6072 C   0  0  2  0  0  0  0  0  0  0  0  0
   21.2615  -10.1660   15.6062 O   0  0  0  0  0  0  0  0  0  0  0  0
   22.8373   -4.3354   14.1963 C   0  0  2  0  0  0  0  0  0  0  0  0
   21.4174   -4.4338   14.3170 O   0  0  0  0  0  0  0  0  0  0  0  0
   18.2708   -3.5990   16.5881 C   0  0  2  0  0  0  0  0  0  0  0  0
   17.5270   -4.6335   17.2524 O   0  0  0  0  0  0  0  0  0  0  0  0
   22.1631   -8.3239   20.0536 C   0  0  2  0  0  0  0  0  0  0  0  0
   22.1732   -9.3426   21.0943 O   0  0  0  0  0  0  0  0  0  0  0  0
   22.6004  -12.8368   17.8304 C   0  0  2  0  0  0  0  0  0  0  0  0
   21.7897  -12.0988   16.8741 O   0  0  0  0  0  0  0  0  0  0  0  0
   21.8768  -10.2258   13.2820 C   0  0  0  0  0  0  0  0  0  0  0  0
   20.5103  -10.1365   12.8527 O   0  0  0  0  0  0  0  0  0  0  0  0
   23.2745   -5.6006   13.4832 C   0  0  1  0  0  0  0  0  0  0  0  0
   23.4411   -6.9415   13.9918 O   0  0  0  0  0  0  0  0  0  0  0  0
   18.0439   -3.5318   15.0820 C   0  0  2  0  0  0  0  0  0  0  0  0
   19.0468   -3.0065   14.1987 O   0  0  0  0  0  0  0  0  0  0  0  0
   22.9377   -7.1734   20.6000 C   0  0  0  0  0  0  0  0  0  0  0  0
   23.0408   -6.2110   19.5785 O   0  0  0  0  0  0  0  0  0  0  0  0
   22.6336  -14.3743   17.5351 C   0  0  1  0  0  0  0  0  0  0  0  0
   23.3031  -14.5523   16.2586 O   0  0  0  0  0  0  0  0  0  0  0  0
   22.9685   -5.6769   11.9556 C   0  0  0  0  0  0  0  0  0  0  0  0
   23.1391   -7.0319   11.3903 N   0  0  0  0  0  0  0  0  0  0  0  0
   16.6703   -3.3015   14.4559 C   0  0  0  0  0  0  0  0  0  0  0  0
   15.9118   -4.5398   14.4557 O   0  0  0  0  0  0  0  0  0  0  0  0
  1  2  1  6  0  0  0
  1  8  1  0  0  0  0
  1 36  1  0  0  0  0
  3  4  1  6  0  0  0
  3 10  1  0  0  0  0
  3 47  1  0  0  0  0
  5 11  1  0  0  0  0
  5 30  1  0  0  0  0
  5 38  1  6  0  0  0
  6 21  1  1  0  0  0
  6 42  1  0  0  0  0
  7 15  1  0  0  0  0
  7 44  1  0  0  0  0
  7 32  1  1  0  0  0
  8  9  1  6  0  0  0
  8 17  1  0  0  0  0
 11 12  1  1  0  0  0
 11 20  1  0  0  0  0
 13  6  1  0  0  0  0
 13 14  1  6  0  0  0
 15 16  1  1  0  0  0
 15 24  1  0  0  0  0
 17 26  1  0  0  0  0
 18 10  1  0  0  0  0
 18 19  1  1  0  0  0
 20 21  1  1  0  0  0
 20 29  1  0  0  0  0
 22 13  1  0  0  0  0
 22 23  1  6  0  0  0
 24 25  1  1  0  0  0
 24 33  1  0  0  0  0
 26 27  1  6  0  0  0
 26 35  1  0  0  0  0
 28  2  1  1  0  0  0
 28 18  1  0  0  0  0
 29 30  1  0  0  0  0
 29 39  1  6  0  0  0
 31 22  1  0  0  0  0
 31 32  1  1  0  0  0
 31 41  1  0  0  0  0
 33 34  1  6  0  0  0
 33 43  1  0  0  0  0
 35 36  1  0  0  0  0
 35 45  1  1  0  0  0
 37 28  1  0  0  0  0
 37 38  1  6  0  0  0
 39 40  1  0  0  0  0
 41 42  1  0  0  0  0
 41 49  1  6  0  0  0
 43 44  1  0  0  0  0
 43 51  1  1  0  0  0
 45 46  1  0  0  0  0
 47 37  1  0  0  0  0
 47 48  1  6  0  0  0
 49 50  1  0  0  0  0
 51 52  1  0  0  0  0
M  END
>  <CHROM.1>
-77.29714386,58.82529849,154.41385648,-80.90225100,154.05580252,-70.85123744
-178.01115518,89.98523964,-67.45524770,83.60417458,-167.08662386,-79.31968897
21.61984171,-8.17895118,16.85154147,1.08895830,-1.05018529,2.33457008

>  <Name>
2esj_lig

>  <RI>
2.18877e+07

>  <Rbt.Current_Directory>
/home/itssahil/PROJECTS/Mol_Feturizer/New_Systems/rnas/2esj

>  <Rbt.Executable>
rbdock ($Id: //depot/dev/client3/rdock/2013.1/src/exe/rbdock.cxx#4 $)

>  <Rbt.Library>
libRbt.so (2013.1, Build901 2013/11/27)

>  <Rbt.Parameter_File>
/export/apps/rDock/src/rDock_2013.1_src/data/scripts/dock_solv.prm

>  <Rbt.Receptor>
prm/pocket_docking_7.prm

>  <SCORE>
-11.7351

>  <SCORE.INTER>
-9.3706

>  <SCORE.INTER.CONST>
1

>  <SCORE.INTER.POLAR>
-1.84848

>  <SCORE.INTER.ROT>
12

>  <SCORE.INTER.SOLV>
11.0203

>  <SCORE.INTER.VDW>
-15.3589

>  <SCORE.INTER.norm>
-0.180204

>  <SCORE.INTRA>
-2.36448

>  <SCORE.INTRA.DIHEDRAL>
-12.3759

>  <SCORE.INTRA.DIHEDRAL.0>
32.9766

>  <SCORE.INTRA.POLAR>
0

>  <SCORE.INTRA.POLAR.0>
0

>  <SCORE.INTRA.REPUL>
0

>  <SCORE.INTRA.REPUL.0>
0

>  <SCORE.INTRA.SOLV>
5.80647

>  <SCORE.INTRA.SOLV.lig_0>
-114.358

>  <SCORE.INTRA.VDW>
0.920229

>  <SCORE.INTRA.VDW.0>
-8.24257

>  <SCORE.INTRA.norm>
-0.0454708

>  <SCORE.RESTR>
0

>  <SCORE.RESTR.CAVITY>
0

>  <SCORE.RESTR.norm>
0

>  <SCORE.SYSTEM>
0

>  <SCORE.SYSTEM.CONST>
0

>  <SCORE.SYSTEM.DIHEDRAL>
0

>  <SCORE.SYSTEM.SOLV>
0

>  <SCORE.SYSTEM.norm>
0

>  <SCORE.heavy>
52

>  <SCORE.norm>
-0.225675

>  <RMSD>
6.967

$$$$
2esj_lig
 OpenBabel11021811423D
libRbt.so/2013.1/901 2013/11/27
 52 56  0  0  0  0  0  0  0  0999 V2000
   18.8362  -13.4253   16.5773 C   0  0  2  0  0  0  0  0  0  0  0  0
   19.9475  -13.0025   17.3904 O   0  0  0  0  0  0  0  0  0  0  0  0
   23.7928  -11.1961   16.9027 C   0  0  2  0  0  0  0  0  0  0  0  0
   24.9281  -10.3625   16.4743 N   0  0  0  0  0  0  0  0  0  0  0  0
   20.0306   -9.2112   18.0815 C   0  0  1  0  0  0  0  0  0  0  0  0
   18.7786   -5.5318   16.7817 C   0  0  1  0  0  0  0  0  0  0  0  0
   20.5830   -4.2735   11.9350 C   0  0  1  0  0  0  0  0  0  0  0  0
   17.7027  -13.8908   17.5383 C   0  0  2  0  0  0  0  0  0  0  0  0
   17.3184  -12.8466   18.4875 N   0  0  0  0  0  0  0  0  0  0  0  0
   23.1518  -11.9316   15.6596 C   0  0  0  0  0  0  0  0  0  0  0  0
   18.7846   -8.6545   18.7715 C   0  0  2  0  0  0  0  0  0  0  0  0
   17.5633   -9.1941   18.2215 O   0  0  0  0  0  0  0  0  0  0  0  0
   17.8928   -5.4308   15.4602 C   0  0  2  0  0  0  0  0  0  0  0  0
   18.2030   -6.5422   14.5225 N   0  0  0  0  0  0  0  0  0  0  0  0
   20.2341   -5.5757   11.2237 C   0  0  1  0  0  0  0  0  0  0  0  0
   20.1573   -5.3342    9.8045 O   0  0  0  0  0  0  0  0  0  0  0  0
   18.1223  -15.1814   18.3111 C   0  0  0  0  0  0  0  0  0  0  0  0
   21.9731  -12.8670   16.1468 C   0  0  2  0  0  0  0  0  0  0  0  0
   21.3513  -13.5520   15.0088 N   0  0  0  0  0  0  0  0  0  0  0  0
   18.9722   -7.1844   18.5312 C   0  0  2  0  0  0  0  0  0  0  0  0
   18.6395   -6.8558   17.2061 O   0  0  0  0  0  0  0  0  0  0  0  0
   18.0454   -3.9698   14.8459 C   0  0  1  0  0  0  0  0  0  0  0  0
   17.7804   -3.0068   15.8711 O   0  0  0  0  0  0  0  0  0  0  0  0
   21.2088   -6.7244   11.4534 C   0  0  1  0  0  0  0  0  0  0  0  0
   20.8584   -7.7668   10.5365 O   0  0  0  0  0  0  0  0  0  0  0  0
   18.5486  -16.2687   17.2806 C   0  0  2  0  0  0  0  0  0  0  0  0
   18.8694  -17.4955   17.9117 O   0  0  0  0  0  0  0  0  0  0  0  0
   20.9148  -12.0428   16.9251 C   0  0  2  0  0  0  0  0  0  0  0  0
   20.4924   -6.9342   18.6076 C   0  0  2  0  0  0  0  0  0  0  0  0
   21.0179   -8.1735   18.1593 O   0  0  0  0  0  0  0  0  0  0  0  0
   19.5308   -3.6951   14.3691 C   0  0  2  0  0  0  0  0  0  0  0  0
   19.7477   -4.6477   13.3270 O   0  0  0  0  0  0  0  0  0  0  0  0
   22.6749   -6.3396   11.2472 C   0  0  2  0  0  0  0  0  0  0  0  0
   23.4668   -7.4066   11.7942 O   0  0  0  0  0  0  0  0  0  0  0  0
   19.7419  -15.7208   16.4590 C   0  0  2  0  0  0  0  0  0  0  0  0
   19.2748  -14.5336   15.7567 O   0  0  0  0  0  0  0  0  0  0  0  0
   21.5014  -11.1939   18.0981 C   0  0  2  0  0  0  0  0  0  0  0  0
   20.4401  -10.4071   18.7071 O   0  0  0  0  0  0  0  0  0  0  0  0
   21.0613   -6.6137   19.9894 C   0  0  0  0  0  0  0  0  0  0  0  0
   22.4334   -6.2313   19.8140 O   0  0  0  0  0  0  0  0  0  0  0  0
   20.4182   -4.1371   15.5168 C   0  0  1  0  0  0  0  0  0  0  0  0
   20.2274   -5.1925   16.4834 O   0  0  0  0  0  0  0  0  0  0  0  0
   22.9807   -4.9665   11.8352 C   0  0  2  0  0  0  0  0  0  0  0  0
   21.9880   -3.9295   11.8654 O   0  0  0  0  0  0  0  0  0  0  0  0
   20.2065  -16.6645   15.4026 C   0  0  0  0  0  0  0  0  0  0  0  0
   19.1167  -16.9093   14.5466 O   0  0  0  0  0  0  0  0  0  0  0  0
   22.6990  -10.3138   17.6045 C   0  0  1  0  0  0  0  0  0  0  0  0
   23.3040   -9.7132   18.7803 O   0  0  0  0  0  0  0  0  0  0  0  0
   21.9473   -3.8778   15.3510 C   0  0  0  0  0  0  0  0  0  0  0  0
   22.7899   -4.9178   15.9781 N   0  0  0  0  0  0  0  0  0  0  0  0
   24.3626   -4.3203   11.7675 C   0  0  0  0  0  0  0  0  0  0  0  0
   24.4167   -3.1718   12.6544 O   0  0  0  0  0  0  0  0  0  0  0  0
  1  2  1  1  0  0  0
  1  8  1  0  0  0  0
  1 36  1  0  0  0  0
  3  4  1  6  0  0  0
  3 10  1  0  0  0  0
  3 47  1  0  0  0  0
  5 11  1  0  0  0  0
  5 30  1  0  0  0  0
  5 38  1  1  0  0  0
  6 21  1  6  0  0  0
  6 42  1  0  0  0  0
  7 15  1  0  0  0  0
  7 44  1  0  0  0  0
  7 32  1  1  0  0  0
  8  9  1  1  0  0  0
  8 17  1  0  0  0  0
 11 12  1  6  0  0  0
 11 20  1  0  0  0  0
 13  6  1  0  0  0  0
 13 14  1  6  0  0  0
 15 16  1  6  0  0  0
 15 24  1  0  0  0  0
 17 26  1  0  0  0  0
 18 10  1  0  0  0  0
 18 19  1  6  0  0  0
 20 21  1  6  0  0  0
 20 29  1  0  0  0  0
 22 13  1  0  0  0  0
 22 23  1  1  0  0  0
 24 25  1  6  0  0  0
 24 33  1  0  0  0  0
 26 27  1  1  0  0  0
 26 35  1  0  0  0  0
 28  2  1  1  0  0  0
 28 18  1  0  0  0  0
 29 30  1  0  0  0  0
 29 39  1  1  0  0  0
 31 22  1  0  0  0  0
 31 32  1  6  0  0  0
 31 41  1  0  0  0  0
 33 34  1  1  0  0  0
 33 43  1  0  0  0  0
 35 36  1  0  0  0  0
 35 45  1  6  0  0  0
 37 28  1  0  0  0  0
 37 38  1  6  0  0  0
 39 40  1  0  0  0  0
 41 42  1  0  0  0  0
 41 49  1  6  0  0  0
 43 44  1  0  0  0  0
 43 51  1  6  0  0  0
 45 46  1  0  0  0  0
 47 37  1  0  0  0  0
 47 48  1  1  0  0  0
 49 50  1  0  0  0  0
 51 52  1  0  0  0  0
M  END
>  <CHROM.1>
-154.27369314,171.99098887,-161.92490564,-170.90760759,-178.60469359,-86.17748501
-171.90869582,140.19331205,58.92461974,-79.98987047,-146.20327992,-167.50658036
20.56492008,-8.82204111,15.71822061,-1.98374285,1.21278045,0.03259970

>  <Name>
2esj_lig

>  <RI>
0

>  <Rbt.Current_Directory>
/home/itssahil/PROJECTS/Mol_Feturizer/New_Systems/rnas/2esj

>  <Rbt.Executable>
rbdock ($Id: //depot/dev/client3/rdock/2013.1/src/exe/rbdock.cxx#4 $)

>  <Rbt.Library>
libRbt.so (2013.1, Build901 2013/11/27)

>  <Rbt.Parameter_File>
/export/apps/rDock/src/rDock_2013.1_src/data/scripts/dock_solv.prm

>  <Rbt.Receptor>
prm/pocket_docking_6.prm

>  <SCORE>
-10.4913

>  <SCORE.INTER>
-8.76761

>  <SCORE.INTER.CONST>
1

>  <SCORE.INTER.POLAR>
-1.44017

>  <SCORE.INTER.ROT>
12

>  <SCORE.INTER.SOLV>
18.1546

>  <SCORE.INTER.VDW>
-18.696

>  <SCORE.INTER.norm>
-0.168608

>  <SCORE.INTRA>
-1.73027

>  <SCORE.INTRA.DIHEDRAL>
-12.8055

>  <SCORE.INTRA.DIHEDRAL.0>
32.9766

>  <SCORE.INTRA.POLAR>
0

>  <SCORE.INTRA.POLAR.0>
0

>  <SCORE.INTRA.REPUL>
0

>  <SCORE.INTRA.REPUL.0>
0

>  <SCORE.INTRA.SOLV>
1.8075

>  <SCORE.INTRA.SOLV.lig_0>
-114.358

>  <SCORE.INTRA.VDW>
3.76871

>  <SCORE.INTRA.VDW.0>
-8.24257

>  <SCORE.INTRA.norm>
-0.0332745

>  <SCORE.RESTR>
0.00660389

>  <SCORE.RESTR.CAVITY>
0.00660389

>  <SCORE.RESTR.norm>
0.000126998

>  <SCORE.SYSTEM>
0

>  <SCORE.SYSTEM.CONST>
0

>  <SCORE.SYSTEM.DIHEDRAL>
0

>  <SCORE.SYSTEM.SOLV>
0

>  <SCORE.SYSTEM.norm>
0

>  <SCORE.heavy>
52

>  <SCORE.norm>
-0.201755

>  <RMSD>
7.027

$$$$
2esj_lig
 OpenBabel11021811423D
libRbt.so/2013.1/901 2013/11/27
 52 56  0  0  0  0  0  0  0  0999 V2000
   17.6578   -3.7649   12.2277 C   0  0  2  0  0  0  0  0  0  0  0  0
   18.7855   -3.2611   12.9688 O   0  0  0  0  0  0  0  0  0  0  0  0
   19.7802   -2.6066   17.0761 C   0  0  2  0  0  0  0  0  0  0  0  0
   19.9857   -2.7392   18.5279 N   0  0  0  0  0  0  0  0  0  0  0  0
   22.7015   -4.3843   14.0834 C   0  0  1  0  0  0  0  0  0  0  0  0
   26.8736   -4.5455   13.6699 C   0  0  1  0  0  0  0  0  0  0  0  0
   29.8783   -2.7600   17.5483 C   0  0  1  0  0  0  0  0  0  0  0  0
   18.0137   -5.2050   11.7541 C   0  0  2  0  0  0  0  0  0  0  0  0
   18.3700   -6.0820   12.8690 N   0  0  0  0  0  0  0  0  0  0  0  0
   18.2664   -2.8740   16.7093 C   0  0  0  0  0  0  0  0  0  0  0  0
   23.3249   -5.3912   13.1160 C   0  0  2  0  0  0  0  0  0  0  0  0
   23.4712   -6.7019   13.7042 O   0  0  0  0  0  0  0  0  0  0  0  0
   27.6220   -5.1034   14.9621 C   0  0  2  0  0  0  0  0  0  0  0  0
   26.9421   -4.6583   16.2074 N   0  0  0  0  0  0  0  0  0  0  0  0
   29.9392   -4.2779   17.6739 C   0  0  1  0  0  0  0  0  0  0  0  0
   31.2092   -4.6554   18.2421 O   0  0  0  0  0  0  0  0  0  0  0  0
   19.1746   -5.1772   10.7096 C   0  0  0  0  0  0  0  0  0  0  0  0
   18.0533   -2.6692   15.1555 C   0  0  2  0  0  0  0  0  0  0  0  0
   16.6573   -2.9249   14.7860 N   0  0  0  0  0  0  0  0  0  0  0  0
   24.6244   -4.7057   12.8068 C   0  0  2  0  0  0  0  0  0  0  0  0
   25.5266   -4.8571   13.8733 O   0  0  0  0  0  0  0  0  0  0  0  0
   29.1663   -4.7276   14.8677 C   0  0  1  0  0  0  0  0  0  0  0  0
   29.6702   -5.1573   13.5987 O   0  0  0  0  0  0  0  0  0  0  0  0
   28.8393   -4.9057   18.5215 C   0  0  1  0  0  0  0  0  0  0  0  0
   29.1897   -6.2797   18.7198 O   0  0  0  0  0  0  0  0  0  0  0  0
   18.7812   -4.2199    9.5457 C   0  0  2  0  0  0  0  0  0  0  0  0
   19.7595   -4.2064    8.5215 O   0  0  0  0  0  0  0  0  0  0  0  0
   19.0030   -3.5954   14.3523 C   0  0  2  0  0  0  0  0  0  0  0  0
   24.3125   -3.1950   12.7931 C   0  0  2  0  0  0  0  0  0  0  0  0
   23.2433   -3.1065   13.7215 O   0  0  0  0  0  0  0  0  0  0  0  0
   29.3835   -3.1590   14.9097 C   0  0  2  0  0  0  0  0  0  0  0  0
   28.9029   -2.7716   16.1978 O   0  0  0  0  0  0  0  0  0  0  0  0
   28.6469   -4.2304   19.8806 C   0  0  2  0  0  0  0  0  0  0  0  0
   27.4029   -4.7133   20.4135 O   0  0  0  0  0  0  0  0  0  0  0  0
   18.5517   -2.8055   10.1339 C   0  0  2  0  0  0  0  0  0  0  0  0
   17.4512   -2.9048   11.0825 O   0  0  0  0  0  0  0  0  0  0  0  0
   20.5083   -3.4682   14.7509 C   0  0  2  0  0  0  0  0  0  0  0  0
   21.2947   -4.4299   13.9938 O   0  0  0  0  0  0  0  0  0  0  0  0
   23.8709   -2.6029   11.4552 C   0  0  0  0  0  0  0  0  0  0  0  0
   23.5910   -1.2117   11.6694 O   0  0  0  0  0  0  0  0  0  0  0  0
   28.3951   -2.5814   13.9150 C   0  0  1  0  0  0  0  0  0  0  0  0
   27.0837   -3.0489   13.5325 O   0  0  0  0  0  0  0  0  0  0  0  0
   28.7340   -2.7124   19.7682 C   0  0  2  0  0  0  0  0  0  0  0  0
   29.5805   -2.0834   18.7937 O   0  0  0  0  0  0  0  0  0  0  0  0
   18.1215   -1.8099    9.1111 C   0  0  0  0  0  0  0  0  0  0  0  0
   16.8964   -2.2537    8.5795 O   0  0  0  0  0  0  0  0  0  0  0  0
   20.6901   -3.6237   16.2985 C   0  0  1  0  0  0  0  0  0  0  0  0
   22.0730   -3.3010   16.6032 O   0  0  0  0  0  0  0  0  0  0  0  0
   28.4683   -1.0413   13.6790 C   0  0  0  0  0  0  0  0  0  0  0  0
   29.2822   -0.6661   12.5036 N   0  0  0  0  0  0  0  0  0  0  0  0
   28.5900   -1.7787   20.9678 C   0  0  0  0  0  0  0  0  0  0  0  0
   28.3798   -0.4158   20.5126 O   0  0  0  0  0  0  0  0  0  0  0  0
  1  2  1  1  0  0  0
  1  8  1  0  0  0  0
  1 36  1  0  0  0  0
  3  4  1  1  0  0  0
  3 10  1  0  0  0  0
  3 47  1  0  0  0  0
  5 11  1  0  0  0  0
  5 30  1  0  0  0  0
  5 38  1  6  0  0  0
  6 21  1  1  0  0  0
  6 42  1  0  0  0  0
  7 15  1  0  0  0  0
  7 44  1  0  0  0  0
  7 32  1  6  0  0  0
  8  9  1  1  0  0  0
  8 17  1  0  0  0  0
 11 12  1  1  0  0  0
 11 20  1  0  0  0  0
 13  6  1  0  0  0  0
 13 14  1  1  0  0  0
 15 16  1  1  0  0  0
 15 24  1  0  0  0  0
 17 26  1  0  0  0  0
 18 10  1  0  0  0  0
 18 19  1  1  0  0  0
 20 21  1  1  0  0  0
 20 29  1  0  0  0  0
 22 13  1  0  0  0  0
 22 23  1  6  0  0  0
 24 25  1  1  0  0  0
 24 33  1  0  0  0  0
 26 27  1  6  0  0  0
 26 35  1  0  0  0  0
 28  2  1  6  0  0  0
 28 18  1  0  0  0  0
 29 30  1  0  0  0  0
 29 39  1  6  0  0  0
 31 22  1  0  0  0  0
 31 32  1  1  0  0  0
 31 41  1  0  0  0  0
 33 34  1  6  0  0  0
 33 43  1  0  0  0  0
 35 36  1  0  0  0  0
 35 45  1  6  0  0  0
 37 28  1  0  0  0  0
 37 38  1  6  0  0  0
 39 40  1  0  0  0  0
 41 42  1  0  0  0  0
 41 49  1  1  0  0  0
 43 44  1  0  0  0  0
 43 51  1  1  0  0  0
 45 46  1  0  0  0  0
 47 37  1  0  0  0  0
 47 48  1  6  0  0  0
 49 50  1  0  0  0  0
 51 52  1  0  0  0  0
M  END
>  <CHROM.1>
-81.67726465,-174.82615836,-169.05284903,-72.44102223,166.37925097,-79.71690894
178.11937368,88.37036511,61.41089453,172.79812565,95.79119384,-165.61452925
23.96683235,-3.57754006,14.65381206,2.64204161,0.01422881,-1.60089279

>  <Name>
2esj_lig

>  <RI>
2.18877e+07

>  <Rbt.Current_Directory>
/home/itssahil/PROJECTS/Mol_Feturizer/New_Systems/rnas/2esj

>  <Rbt.Executable>
rbdock ($Id: //depot/dev/client3/rdock/2013.1/src/exe/rbdock.cxx#4 $)

>  <Rbt.Library>
libRbt.so (2013.1, Build901 2013/11/27)

>  <Rbt.Parameter_File>
/export/apps/rDock/src/rDock_2013.1_src/data/scripts/dock_solv.prm

>  <Rbt.Receptor>
prm/pocket_docking_7.prm

>  <SCORE>
-7.14043

>  <SCORE.INTER>
-1.72087

>  <SCORE.INTER.CONST>
1

>  <SCORE.INTER.POLAR>
-0.824621

>  <SCORE.INTER.ROT>
12

>  <SCORE.INTER.SOLV>
12.033

>  <SCORE.INTER.VDW>
-14.0095

>  <SCORE.INTER.norm>
-0.0330937

>  <SCORE.INTRA>
-5.41956

>  <SCORE.INTRA.DIHEDRAL>
-18.1493

>  <SCORE.INTRA.DIHEDRAL.0>
32.9766

>  <SCORE.INTRA.POLAR>
0

>  <SCORE.INTRA.POLAR.0>
0

>  <SCORE.INTRA.REPUL>
0

>  <SCORE.INTRA.REPUL.0>
0

>  <SCORE.INTRA.SOLV>
0.457992

>  <SCORE.INTRA.SOLV.lig_0>
-114.358

>  <SCORE.INTRA.VDW>
3.42609

>  <SCORE.INTRA.VDW.0>
-8.24257

>  <SCORE.INTRA.norm>
-0.104222

>  <SCORE.RESTR>
0

>  <SCORE.RESTR.CAVITY>
0

>  <SCORE.RESTR.norm>
0

>  <SCORE.SYSTEM>
0

>  <SCORE.SYSTEM.CONST>
0

>  <SCORE.SYSTEM.DIHEDRAL>
0

>  <SCORE.SYSTEM.SOLV>
0

>  <SCORE.SYSTEM.norm>
0

>  <SCORE.heavy>
52

>  <SCORE.norm>
-0.137316

>  <RMSD>
7.106

$$$$
2esj_lig
 OpenBabel11021811423D
libRbt.so/2013.1/901 2013/11/27
 52 56  0  0  0  0  0  0  0  0999 V2000
   17.6170   -4.7111   11.9400 C   0  0  2  0  0  0  0  0  0  0  0  0
   18.5105   -4.1410   12.9155 O   0  0  0  0  0  0  0  0  0  0  0  0
   19.2533   -4.3621   17.1211 C   0  0  2  0  0  0  0  0  0  0  0  0
   19.4407   -4.8125   18.5101 N   0  0  0  0  0  0  0  0  0  0  0  0
   22.5303   -4.7501   13.9699 C   0  0  1  0  0  0  0  0  0  0  0  0
   26.7246   -4.3220   13.8390 C   0  0  1  0  0  0  0  0  0  0  0  0
   27.7149    0.6431   13.2815 C   0  0  1  0  0  0  0  0  0  0  0  0
   18.3611   -5.8982   11.2602 C   0  0  2  0  0  0  0  0  0  0  0  0
   18.8174   -6.8934   12.2300 N   0  0  0  0  0  0  0  0  0  0  0  0
   17.8271   -4.7911   16.5925 C   0  0  0  0  0  0  0  0  0  0  0  0
   23.4019   -5.7969   13.2751 C   0  0  2  0  0  0  0  0  0  0  0  0
   23.7088   -6.9161   14.1345 O   0  0  0  0  0  0  0  0  0  0  0  0
   27.0758   -3.4574   15.1314 C   0  0  2  0  0  0  0  0  0  0  0  0
   26.0223   -2.4425   15.3980 N   0  0  0  0  0  0  0  0  0  0  0  0
   28.9692    1.2219   13.9260 C   0  0  1  0  0  0  0  0  0  0  0  0
   29.6310    2.0867   12.9813 O   0  0  0  0  0  0  0  0  0  0  0  0
   19.5713   -5.3871   10.4158 C   0  0  0  0  0  0  0  0  0  0  0  0
   17.6214   -4.2478   15.1214 C   0  0  2  0  0  0  0  0  0  0  0  0
   16.3086   -4.6445   14.6016 N   0  0  0  0  0  0  0  0  0  0  0  0
   24.5919   -4.9600   12.9041 C   0  0  2  0  0  0  0  0  0  0  0  0
   25.4017   -4.7298   14.0292 O   0  0  0  0  0  0  0  0  0  0  0  0
   28.5491   -2.8735   14.9781 C   0  0  1  0  0  0  0  0  0  0  0  0
   29.4417   -3.9469   14.6622 O   0  0  0  0  0  0  0  0  0  0  0  0
   28.7366    2.0144   15.2067 C   0  0  1  0  0  0  0  0  0  0  0  0
   29.9686    2.6688   15.5293 O   0  0  0  0  0  0  0  0  0  0  0  0
   19.0640   -4.3132    9.4082 C   0  0  2  0  0  0  0  0  0  0  0  0
   20.0998   -3.8608    8.5547 O   0  0  0  0  0  0  0  0  0  0  0  0
   18.7494   -4.7646   14.1911 C   0  0  2  0  0  0  0  0  0  0  0  0
   24.0347   -3.5650   12.5534 C   0  0  2  0  0  0  0  0  0  0  0  0
   22.8827   -3.4918   13.3783 O   0  0  0  0  0  0  0  0  0  0  0  0
   28.6463   -1.8600   13.7646 C   0  0  2  0  0  0  0  0  0  0  0  0
   27.7726   -0.7902   14.1287 O   0  0  0  0  0  0  0  0  0  0  0  0
   27.6234    3.0574   15.0927 C   0  0  2  0  0  0  0  0  0  0  0  0
   27.3160    3.4866   16.4291 O   0  0  0  0  0  0  0  0  0  0  0  0
   18.4375   -3.1472   10.2125 C   0  0  2  0  0  0  0  0  0  0  0  0
   17.3120   -3.6920   10.9590 O   0  0  0  0  0  0  0  0  0  0  0  0
   20.1927   -4.4786   14.7163 C   0  0  2  0  0  0  0  0  0  0  0  0
   21.1658   -5.0692   13.8103 O   0  0  0  0  0  0  0  0  0  0  0  0
   23.6292   -3.3400   11.0972 C   0  0  0  0  0  0  0  0  0  0  0  0
   24.8227   -3.3968   10.3023 O   0  0  0  0  0  0  0  0  0  0  0  0
   27.9750   -2.5547   12.5954 C   0  0  1  0  0  0  0  0  0  0  0  0
   26.8742   -3.4888   12.5794 O   0  0  0  0  0  0  0  0  0  0  0  0
   26.4276    2.5166   14.3169 C   0  0  2  0  0  0  0  0  0  0  0  0
   26.5948    1.5607   13.2585 O   0  0  0  0  0  0  0  0  0  0  0  0
   17.8718   -2.0756    9.3440 C   0  0  0  0  0  0  0  0  0  0  0  0
   16.5843   -2.4863    8.9519 O   0  0  0  0  0  0  0  0  0  0  0  0
   20.3586   -4.9788   16.1909 C   0  0  1  0  0  0  0  0  0  0  0  0
   21.6476   -4.5046   16.6630 O   0  0  0  0  0  0  0  0  0  0  0  0
   28.0219   -1.8096   11.2259 C   0  0  0  0  0  0  0  0  0  0  0  0
   29.3939   -1.6099   10.7136 N   0  0  0  0  0  0  0  0  0  0  0  0
   25.1730    3.3414   14.0385 C   0  0  0  0  0  0  0  0  0  0  0  0
   25.0710    4.4275   14.9970 O   0  0  0  0  0  0  0  0  0  0  0  0
  1  2  1  1  0  0  0
  1  8  1  0  0  0  0
  1 36  1  0  0  0  0
  3  4  1  1  0  0  0
  3 10  1  0  0  0  0
  3 47  1  0  0  0  0
  5 11  1  0  0  0  0
  5 30  1  0  0  0  0
  5 38  1  6  0  0  0
  6 21  1  1  0  0  0
  6 42  1  0  0  0  0
  7 15  1  0  0  0  0
  7 44  1  0  0  0  0
  7 32  1  1  0  0  0
  8  9  1  1  0  0  0
  8 17  1  0  0  0  0
 11 12  1  1  0  0  0
 11 20  1  0  0  0  0
 13  6  1  0  0  0  0
 13 14  1  6  0  0  0
 15 16  1  6  0  0  0
 15 24  1  0  0  0  0
 17 26  1  0  0  0  0
 18 10  1  0  0  0  0
 18 19  1  6  0  0  0
 20 21  1  1  0  0  0
 20 29  1  0  0  0  0
 22 13  1  0  0  0  0
 22 23  1  6  0  0  0
 24 25  1  6  0  0  0
 24 33  1  0  0  0  0
 26 27  1  1  0  0  0
 26 35  1  0  0  0  0
 28  2  1  6  0  0  0
 28 18  1  0  0  0  0
 29 30  1  0  0  0  0
 29 39  1  6  0  0  0
 31 22  1  0  0  0  0
 31 32  1  1  0  0  0
 31 41  1  0  0  0  0
 33 34  1  1  0  0  0
 33 43  1  0  0  0  0
 35 36  1  0  0  0  0
 35 45  1  6  0  0  0
 37 28  1  0  0  0  0
 37 38  1  6  0  0  0
 39 40  1  0  0  0  0
 41 42  1  0  0  0  0
 41 49  1  6  0  0  0
 43 44  1  0  0  0  0
 43 51  1  6  0  0  0
 45 46  1  0  0  0  0
 47 37  1  0  0  0  0
 47 48  1  1  0  0  0
 49 50  1  0  0  0  0
 51 52  1  0  0  0  0
M  END
>  <CHROM.1>
-76.93532524,160.71272862,151.15804960,-79.33231913,161.49243966,-86.16087638
-66.20079372,170.01747557,82.67820139,169.76786599,62.31741678,-21.61643215
23.48214293,-2.58545947,13.39471003,2.75643351,0.35456502,2.71002468

>  <Name>
2esj_lig

>  <RI>
0

>  <Rbt.Current_Directory>
/home/itssahil/PROJECTS/Mol_Feturizer/New_Systems/rnas/2esj

>  <Rbt.Executable>
rbdock ($Id: //depot/dev/client3/rdock/2013.1/src/exe/rbdock.cxx#4 $)

>  <Rbt.Library>
libRbt.so (2013.1, Build901 2013/11/27)

>  <Rbt.Parameter_File>
/export/apps/rDock/src/rDock_2013.1_src/data/scripts/dock_solv.prm

>  <Rbt.Receptor>
prm/pocket_docking_8.prm

>  <SCORE>
-9.49912

>  <SCORE.INTER>
-7.3117

>  <SCORE.INTER.CONST>
1

>  <SCORE.INTER.POLAR>
-1.67649

>  <SCORE.INTER.ROT>
12

>  <SCORE.INTER.SOLV>
14.3511

>  <SCORE.INTER.VDW>
-15.6699

>  <SCORE.INTER.norm>
-0.14061

>  <SCORE.INTRA>
-2.18742

>  <SCORE.INTRA.DIHEDRAL>
-11.6433

>  <SCORE.INTRA.DIHEDRAL.0>
32.9766

>  <SCORE.INTRA.POLAR>
0

>  <SCORE.INTRA.POLAR.0>
0

>  <SCORE.INTRA.REPUL>
0

>  <SCORE.INTRA.REPUL.0>
0

>  <SCORE.INTRA.SOLV>
0.782358

>  <SCORE.INTRA.SOLV.lig_0>
-114.358

>  <SCORE.INTRA.VDW>
3.24307

>  <SCORE.INTRA.VDW.0>
-8.24257

>  <SCORE.INTRA.norm>
-0.0420657

>  <SCORE.RESTR>
0

>  <SCORE.RESTR.CAVITY>
0

>  <SCORE.RESTR.norm>
0

>  <SCORE.SYSTEM>
0

>  <SCORE.SYSTEM.CONST>
0

>  <SCORE.SYSTEM.DIHEDRAL>
0

>  <SCORE.SYSTEM.SOLV>
0

>  <SCORE.SYSTEM.norm>
0

>  <SCORE.heavy>
52

>  <SCORE.norm>
-0.182675

>  <RMSD>
7.144

$$$$
2esj_lig
 OpenBabel11021811423D
libRbt.so/2013.1/901 2013/11/27
 52 56  0  0  0  0  0  0  0  0999 V2000
   20.5503   -2.4800   13.6976 C   0  0  2  0  0  0  0  0  0  0  0  0
   20.4897   -2.0014   15.0548 O   0  0  0  0  0  0  0  0  0  0  0  0
   21.9330   -3.0930   18.9295 C   0  0  2  0  0  0  0  0  0  0  0  0
   22.2296   -3.7898   20.1920 N   0  0  0  0  0  0  0  0  0  0  0  0
   24.1962   -3.9543   15.0527 C   0  0  1  0  0  0  0  0  0  0  0  0
   28.1460   -5.0671   13.9228 C   0  0  1  0  0  0  0  0  0  0  0  0
   31.3377   -1.2375   13.5188 C   0  0  1  0  0  0  0  0  0  0  0  0
   20.0345   -1.3371   12.7741 C   0  0  2  0  0  0  0  0  0  0  0  0
   20.7922   -0.0986   12.9506 N   0  0  0  0  0  0  0  0  0  0  0  0
   20.3709   -2.9728   18.7226 C   0  0  0  0  0  0  0  0  0  0  0  0
   24.5205   -5.1207   14.1185 C   0  0  2  0  0  0  0  0  0  0  0  0
   24.6328   -6.3759   14.8235 O   0  0  0  0  0  0  0  0  0  0  0  0
   29.1265   -4.7976   15.1505 C   0  0  2  0  0  0  0  0  0  0  0  0
   28.8443   -3.4808   15.7809 N   0  0  0  0  0  0  0  0  0  0  0  0
   32.8337   -1.5240   13.4593 C   0  0  1  0  0  0  0  0  0  0  0  0
   33.3936   -0.8786   12.2981 O   0  0  0  0  0  0  0  0  0  0  0  0
   18.5152   -1.0681   13.0159 C   0  0  0  0  0  0  0  0  0  0  0  0
   20.0723   -2.1705   17.3926 C   0  0  2  0  0  0  0  0  0  0  0  0
   18.6273   -2.0564   17.1698 N   0  0  0  0  0  0  0  0  0  0  0  0
   25.8060   -4.6369   13.5123 C   0  0  2  0  0  0  0  0  0  0  0  0
   26.8680   -4.7958   14.4185 O   0  0  0  0  0  0  0  0  0  0  0  0
   30.6294   -5.0036   14.6668 C   0  0  1  0  0  0  0  0  0  0  0  0
   30.7386   -6.2790   14.0264 O   0  0  0  0  0  0  0  0  0  0  0  0
   33.6315   -1.0752   14.6776 C   0  0  1  0  0  0  0  0  0  0  0  0
   35.0185   -1.2055   14.3470 O   0  0  0  0  0  0  0  0  0  0  0  0
   17.7342   -2.4047   12.8453 C   0  0  2  0  0  0  0  0  0  0  0  0
   16.3362   -2.2182   12.9756 O   0  0  0  0  0  0  0  0  0  0  0  0
   20.7530   -2.8589   16.1811 C   0  0  2  0  0  0  0  0  0  0  0  0
   25.6588   -3.1075   13.3740 C   0  0  2  0  0  0  0  0  0  0  0  0
   24.7944   -2.7957   14.4550 O   0  0  0  0  0  0  0  0  0  0  0  0
   31.0361   -3.9343   13.5712 C   0  0  2  0  0  0  0  0  0  0  0  0
   30.9490   -2.6818   14.2525 O   0  0  0  0  0  0  0  0  0  0  0  0
   33.3455    0.3654   15.1054 C   0  0  2  0  0  0  0  0  0  0  0  0
   33.9135    0.5320   16.4147 O   0  0  0  0  0  0  0  0  0  0  0  0
   18.2733   -3.4204   13.8830 C   0  0  2  0  0  0  0  0  0  0  0  0
   19.6834   -3.6334   13.5878 O   0  0  0  0  0  0  0  0  0  0  0  0
   22.2822   -3.1180   16.3688 C   0  0  2  0  0  0  0  0  0  0  0  0
   22.8002   -3.8316   15.2117 O   0  0  0  0  0  0  0  0  0  0  0  0
   25.0438   -2.5976   12.0712 C   0  0  0  0  0  0  0  0  0  0  0  0
   25.7908   -1.4419   11.6637 O   0  0  0  0  0  0  0  0  0  0  0  0
   29.9034   -3.9294   12.5626 C   0  0  1  0  0  0  0  0  0  0  0  0
   28.4917   -4.1653   12.7523 O   0  0  0  0  0  0  0  0  0  0  0  0
   31.8580    0.6890   15.0212 C   0  0  2  0  0  0  0  0  0  0  0  0
   31.0161    0.0782   14.0313 O   0  0  0  0  0  0  0  0  0  0  0  0
   17.6271   -4.7599   13.7800 C   0  0  0  0  0  0  0  0  0  0  0  0
   16.3555   -4.6618   14.3746 O   0  0  0  0  0  0  0  0  0  0  0  0
   22.5592   -3.8682   17.7152 C   0  0  1  0  0  0  0  0  0  0  0  0
   23.9990   -3.8948   17.9039 O   0  0  0  0  0  0  0  0  0  0  0  0
   30.0977   -3.0265   11.3057 C   0  0  0  0  0  0  0  0  0  0  0  0
   28.8429   -2.4084   10.8280 N   0  0  0  0  0  0  0  0  0  0  0  0
   31.2816    2.0572   15.3780 C   0  0  0  0  0  0  0  0  0  0  0  0
   31.5928    3.0145   14.3313 O   0  0  0  0  0  0  0  0  0  0  0  0
  1  2  1  1  0  0  0
  1  8  1  0  0  0  0
  1 36  1  0  0  0  0
  3  4  1  1  0  0  0
  3 10  1  0  0  0  0
  3 47  1  0  0  0  0
  5 11  1  0  0  0  0
  5 30  1  0  0  0  0
  5 38  1  6  0  0  0
  6 21  1  1  0  0  0
  6 42  1  0  0  0  0
  7 15  1  0  0  0  0
  7 44  1  0  0  0  0
  7 32  1  1  0  0  0
  8  9  1  1  0  0  0
  8 17  1  0  0  0  0
 11 12  1  1  0  0  0
 11 20  1  0  0  0  0
 13  6  1  0  0  0  0
 13 14  1  6  0  0  0
 15 16  1  6  0  0  0
 15 24  1  0  0  0  0
 17 26  1  0  0  0  0
 18 10  1  0  0  0  0
 18 19  1  6  0  0  0
 20 21  1  1  0  0  0
 20 29  1  0  0  0  0
 22 13  1  0  0  0  0
 22 23  1  6  0  0  0
 24 25  1  6  0  0  0
 24 33  1  0  0  0  0
 26 27  1  1  0  0  0
 26 35  1  0  0  0  0
 28  2  1  6  0  0  0
 28 18  1  0  0  0  0
 29 30  1  0  0  0  0
 29 39  1  6  0  0  0
 31 22  1  0  0  0  0
 31 32  1  1  0  0  0
 31 41  1  0  0  0  0
 33 34  1  1  0  0  0
 33 43  1  0  0  0  0
 35 36  1  0  0  0  0
 35 45  1  6  0  0  0
 37 28  1  0  0  0  0
 37 38  1  6  0  0  0
 39 40  1  0  0  0  0
 41 42  1  0  0  0  0
 41 49  1  1  0  0  0
 43 44  1  0  0  0  0
 43 51  1  6  0  0  0
 45 46  1  0  0  0  0
 47 37  1  0  0  0  0
 47 48  1  1  0  0  0
 49 50  1  0  0  0  0
 51 52  1  0  0  0  0
M  END
>  <CHROM.1>
172.87828669,159.36946294,165.37952139,-69.99571554,147.89117774,-158.65811386
-138.55710901,177.91881270,-77.18215947,168.46009286,-145.04179459,74.11567303
25.71151706,-2.65412220,14.51420280,2.99946896,0.03230561,2.40832033

>  <Name>
2esj_lig

>  <RI>
0

>  <Rbt.Current_Directory>
/home/itssahil/PROJECTS/Mol_Feturizer/New_Systems/rnas/2esj

>  <Rbt.Executable>
rbdock ($Id: //depot/dev/client3/rdock/2013.1/src/exe/rbdock.cxx#4 $)

>  <Rbt.Library>
libRbt.so (2013.1, Build901 2013/11/27)

>  <Rbt.Parameter_File>
/export/apps/rDock/src/rDock_2013.1_src/data/scripts/dock_solv.prm

>  <Rbt.Receptor>
prm/pocket_docking_6.prm

>  <SCORE>
-4.12777

>  <SCORE.INTER>
0.486215

>  <SCORE.INTER.CONST>
1

>  <SCORE.INTER.POLAR>
-0.959902

>  <SCORE.INTER.ROT>
12

>  <SCORE.INTER.SOLV>
12.7749

>  <SCORE.INTER.VDW>
-12.3345

>  <SCORE.INTER.norm>
0.00935029

>  <SCORE.INTRA>
-4.61398

>  <SCORE.INTRA.DIHEDRAL>
-12.4726

>  <SCORE.INTRA.DIHEDRAL.0>
32.9766

>  <SCORE.INTRA.POLAR>
0

>  <SCORE.INTRA.POLAR.0>
0

>  <SCORE.INTRA.REPUL>
0

>  <SCORE.INTRA.REPUL.0>
0

>  <SCORE.INTRA.SOLV>
-1.31886

>  <SCORE.INTRA.SOLV.lig_0>
-114.358

>  <SCORE.INTRA.VDW>
2.28177

>  <SCORE.INTRA.VDW.0>
-8.24257

>  <SCORE.INTRA.norm>
-0.0887304

>  <SCORE.RESTR>
0

>  <SCORE.RESTR.CAVITY>
0

>  <SCORE.RESTR.norm>
0

>  <SCORE.SYSTEM>
0

>  <SCORE.SYSTEM.CONST>
0

>  <SCORE.SYSTEM.DIHEDRAL>
0

>  <SCORE.SYSTEM.SOLV>
0

>  <SCORE.SYSTEM.norm>
0

>  <SCORE.heavy>
52

>  <SCORE.norm>
-0.0793801

>  <RMSD>
7.189

$$$$
2esj_lig
 OpenBabel11021811423D
libRbt.so/2013.1/901 2013/11/27
 52 56  0  0  0  0  0  0  0  0999 V2000
   20.9455  -11.9081   17.3462 C   0  0  2  0  0  0  0  0  0  0  0  0
   20.5277  -12.1171   18.7088 O   0  0  0  0  0  0  0  0  0  0  0  0
   20.7145   -9.7712   22.2795 C   0  0  2  0  0  0  0  0  0  0  0  0
   21.1487   -9.0702   23.4991 N   0  0  0  0  0  0  0  0  0  0  0  0
   21.2581   -8.1165   18.0058 C   0  0  1  0  0  0  0  0  0  0  0  0
   22.2031   -4.7028   16.6491 C   0  0  1  0  0  0  0  0  0  0  0  0
   21.8710   -0.1608   14.1550 C   0  0  1  0  0  0  0  0  0  0  0  0
   20.0133  -12.7594   16.4344 C   0  0  2  0  0  0  0  0  0  0  0  0
   18.6009  -12.4328   16.6285 N   0  0  0  0  0  0  0  0  0  0  0  0
   21.0553  -11.3111   22.3806 C   0  0  0  0  0  0  0  0  0  0  0  0
   22.2132   -7.7109   16.8825 C   0  0  2  0  0  0  0  0  0  0  0  0
   23.3822   -7.0214   17.3759 O   0  0  0  0  0  0  0  0  0  0  0  0
   21.6427   -3.4033   17.3830 C   0  0  2  0  0  0  0  0  0  0  0  0
   20.3404   -2.9814   16.8023 N   0  0  0  0  0  0  0  0  0  0  0  0
   20.4004    0.1999   14.3304 C   0  0  1  0  0  0  0  0  0  0  0  0
   20.1928    1.5615   13.9046 O   0  0  0  0  0  0  0  0  0  0  0  0
   20.2423  -14.2857   16.6736 C   0  0  0  0  0  0  0  0  0  0  0  0
   20.5289  -12.0565   21.0888 C   0  0  2  0  0  0  0  0  0  0  0  0
   20.8450  -13.4873   21.1515 N   0  0  0  0  0  0  0  0  0  0  0  0
   21.3039   -6.8602   16.0437 C   0  0  2  0  0  0  0  0  0  0  0  0
   21.1292   -5.5968   16.6334 O   0  0  0  0  0  0  0  0  0  0  0  0
   22.7733   -2.2823   17.3845 C   0  0  1  0  0  0  0  0  0  0  0  0
   23.9812   -2.8442   17.9081 O   0  0  0  0  0  0  0  0  0  0  0  0
   19.4181   -0.6851   13.5727 C   0  0  1  0  0  0  0  0  0  0  0  0
   18.1317   -0.0627   13.6619 O   0  0  0  0  0  0  0  0  0  0  0  0
   21.7552  -14.6032   16.4841 C   0  0  2  0  0  0  0  0  0  0  0  0
   22.0226  -15.9883   16.6112 O   0  0  0  0  0  0  0  0  0  0  0  0
   21.1404  -11.4236   19.8119 C   0  0  2  0  0  0  0  0  0  0  0  0
   19.9091   -7.5123   16.1378 C   0  0  2  0  0  0  0  0  0  0  0  0
   19.9451   -8.1002   17.4285 O   0  0  0  0  0  0  0  0  0  0  0  0
   23.1200   -1.8084   15.9133 C   0  0  2  0  0  0  0  0  0  0  0  0
   21.9066   -1.2248   15.4365 O   0  0  0  0  0  0  0  0  0  0  0  0
   19.7813   -0.8895   12.1008 C   0  0  2  0  0  0  0  0  0  0  0  0
   18.9663   -1.9693   11.6166 O   0  0  0  0  0  0  0  0  0  0  0  0
   22.5608  -13.7701   17.5117 C   0  0  2  0  0  0  0  0  0  0  0  0
   22.3127  -12.3652   17.2194 O   0  0  0  0  0  0  0  0  0  0  0  0
   20.9435   -9.8773   19.7074 C   0  0  2  0  0  0  0  0  0  0  0  0
   21.6175   -9.3806   18.5177 O   0  0  0  0  0  0  0  0  0  0  0  0
   19.5889   -8.5882   15.1006 C   0  0  0  0  0  0  0  0  0  0  0  0
   19.6674   -7.9764   13.8048 O   0  0  0  0  0  0  0  0  0  0  0  0
   23.3059   -3.0790   15.1063 C   0  0  1  0  0  0  0  0  0  0  0  0
   22.6680   -4.3669   15.2441 O   0  0  0  0  0  0  0  0  0  0  0  0
   21.2797   -1.1044   11.9191 C   0  0  2  0  0  0  0  0  0  0  0  0
   22.2346   -0.4781   12.7896 O   0  0  0  0  0  0  0  0  0  0  0  0
   24.0346  -13.9589   17.3903 C   0  0  0  0  0  0  0  0  0  0  0  0
   24.3760  -13.7573   16.0401 O   0  0  0  0  0  0  0  0  0  0  0  0
   21.4241   -9.1645   21.0163 C   0  0  1  0  0  0  0  0  0  0  0  0
   21.0300   -7.7703   20.9158 O   0  0  0  0  0  0  0  0  0  0  0  0
   23.7618   -2.8998   13.6255 C   0  0  0  0  0  0  0  0  0  0  0  0
   25.1749   -3.2688   13.3982 N   0  0  0  0  0  0  0  0  0  0  0  0
   21.9304   -1.3244   10.5553 C   0  0  0  0  0  0  0  0  0  0  0  0
   21.3267   -2.4694    9.8970 O   0  0  0  0  0  0  0  0  0  0  0  0
  1  2  1  1  0  0  0
  1  8  1  0  0  0  0
  1 36  1  0  0  0  0
  3  4  1  1  0  0  0
  3 10  1  0  0  0  0
  3 47  1  0  0  0  0
  5 11  1  0  0  0  0
  5 30  1  0  0  0  0
  5 38  1  6  0  0  0
  6 21  1  6  0  0  0
  6 42  1  0  0  0  0
  7 15  1  0  0  0  0
  7 44  1  0  0  0  0
  7 32  1  1  0  0  0
  8  9  1  1  0  0  0
  8 17  1  0  0  0  0
 11 12  1  1  0  0  0
 11 20  1  0  0  0  0
 13  6  1  0  0  0  0
 13 14  1  6  0  0  0
 15 16  1  6  0  0  0
 15 24  1  0  0  0  0
 17 26  1  0  0  0  0
 18 10  1  0  0  0  0
 18 19  1  1  0  0  0
 20 21  1  1  0  0  0
 20 29  1  0  0  0  0
 22 13  1  0  0  0  0
 22 23  1  6  0  0  0
 24 25  1  6  0  0  0
 24 33  1  0  0  0  0
 26 27  1  1  0  0  0
 26 35  1  0  0  0  0
 28  2  1  6  0  0  0
 28 18  1  0  0  0  0
 29 30  1  0  0  0  0
 29 39  1  6  0  0  0
 31 22  1  0  0  0  0
 31 32  1  6  0  0  0
 31 41  1  0  0  0  0
 33 34  1  1  0  0  0
 33 43  1  0  0  0  0
 35 36  1  0  0  0  0
 35 45  1  6  0  0  0
 37 28  1  0  0  0  0
 37 38  1  6  0  0  0
 39 40  1  0  0  0  0
 41 42  1  0  0  0  0
 41 49  1  6  0  0  0
 43 44  1  0  0  0  0
 43 51  1  6  0  0  0
 45 46  1  0  0  0  0
 47 37  1  0  0  0  0
 47 48  1  6  0  0  0
 49 50  1  0  0  0  0
 51 52  1  0  0  0  0
M  END
>  <CHROM.1>
-176.92309566,172.21008799,179.98685473,-172.01946347,70.10054893,-173.26847637
-60.60989366,159.96968652,51.11795006,161.44343137,106.36768686,-56.94784491
21.40003018,-6.87780948,16.45734079,1.10887031,1.55066695,-3.10933054

>  <Name>
2esj_lig

>  <RI>
2.18877e+07

>  <Rbt.Current_Directory>
/home/itssahil/PROJECTS/Mol_Feturizer/New_Systems/rnas/2esj

>  <Rbt.Executable>
rbdock ($Id: //depot/dev/client3/rdock/2013.1/src/exe/rbdock.cxx#4 $)

>  <Rbt.Library>
libRbt.so (2013.1, Build901 2013/11/27)

>  <Rbt.Parameter_File>
/export/apps/rDock/src/rDock_2013.1_src/data/scripts/dock_solv.prm

>  <Rbt.Receptor>
prm/pocket_docking_7.prm

>  <SCORE>
-18.9116

>  <SCORE.INTER>
-8.1172

>  <SCORE.INTER.CONST>
1

>  <SCORE.INTER.POLAR>
-1.58938

>  <SCORE.INTER.ROT>
12

>  <SCORE.INTER.SOLV>
14.9796

>  <SCORE.INTER.VDW>
-16.7067

>  <SCORE.INTER.norm>
-0.1561

>  <SCORE.INTRA>
-10.7944

>  <SCORE.INTRA.DIHEDRAL>
-22.8709

>  <SCORE.INTRA.DIHEDRAL.0>
32.9766

>  <SCORE.INTRA.POLAR>
0

>  <SCORE.INTRA.POLAR.0>
0

>  <SCORE.INTRA.REPUL>
0

>  <SCORE.INTRA.REPUL.0>
0

>  <SCORE.INTRA.SOLV>
-3.89425

>  <SCORE.INTRA.SOLV.lig_0>
-114.358

>  <SCORE.INTRA.VDW>
2.58818

>  <SCORE.INTRA.VDW.0>
-8.24257

>  <SCORE.INTRA.norm>
-0.207585

>  <SCORE.RESTR>
0

>  <SCORE.RESTR.CAVITY>
0

>  <SCORE.RESTR.norm>
0

>  <SCORE.SYSTEM>
0

>  <SCORE.SYSTEM.CONST>
0

>  <SCORE.SYSTEM.DIHEDRAL>
0

>  <SCORE.SYSTEM.SOLV>
0

>  <SCORE.SYSTEM.norm>
0

>  <SCORE.heavy>
52

>  <SCORE.norm>
-0.363685

>  <RMSD>
7.199

$$$$
2esj_lig
 OpenBabel11021811423D
libRbt.so/2013.1/901 2013/11/27
 52 56  0  0  0  0  0  0  0  0999 V2000
   20.1141  -12.8226   21.5270 C   0  0  2  0  0  0  0  0  0  0  0  0
   21.2792  -12.2258   20.9259 O   0  0  0  0  0  0  0  0  0  0  0  0
   20.9298   -8.2667   22.5043 C   0  0  2  0  0  0  0  0  0  0  0  0
   21.1583   -6.8643   22.8895 N   0  0  0  0  0  0  0  0  0  0  0  0
   21.3668   -9.2670   18.2689 C   0  0  1  0  0  0  0  0  0  0  0  0
   24.2743   -7.4660   15.8962 C   0  0  1  0  0  0  0  0  0  0  0  0
   21.9244   -4.2922   12.5039 C   0  0  1  0  0  0  0  0  0  0  0  0
   20.1322  -14.3402   21.1785 C   0  0  2  0  0  0  0  0  0  0  0  0
   21.3664  -14.9933   21.6139 N   0  0  0  0  0  0  0  0  0  0  0  0
   22.1037   -9.1807   23.0373 C   0  0  0  0  0  0  0  0  0  0  0  0
   22.8287   -9.6433   18.5133 C   0  0  2  0  0  0  0  0  0  0  0  0
   23.4131   -8.9006   19.6052 O   0  0  0  0  0  0  0  0  0  0  0  0
   24.3072   -5.8832   16.0830 C   0  0  2  0  0  0  0  0  0  0  0  0
   22.9540   -5.3539   16.3986 N   0  0  0  0  0  0  0  0  0  0  0  0
   20.8789   -3.6797   13.4288 C   0  0  1  0  0  0  0  0  0  0  0  0
   20.2514   -2.5659   12.7624 O   0  0  0  0  0  0  0  0  0  0  0  0
   19.9269  -14.5625   19.6463 C   0  0  0  0  0  0  0  0  0  0  0  0
   21.8112  -10.6900   22.6656 C   0  0  2  0  0  0  0  0  0  0  0  0
   22.8940  -11.5590   23.1378 N   0  0  0  0  0  0  0  0  0  0  0  0
   23.4203   -9.3313   17.1692 C   0  0  2  0  0  0  0  0  0  0  0  0
   23.5864   -7.9447   17.0143 O   0  0  0  0  0  0  0  0  0  0  0  0
   25.0067   -5.2270   14.8121 C   0  0  1  0  0  0  0  0  0  0  0  0
   26.2645   -5.8734   14.5910 O   0  0  0  0  0  0  0  0  0  0  0  0
   19.7814   -4.6306   13.8909 C   0  0  1  0  0  0  0  0  0  0  0  0
   18.7811   -3.8387   14.5409 O   0  0  0  0  0  0  0  0  0  0  0  0
   18.6207  -13.8390   19.2036 C   0  0  2  0  0  0  0  0  0  0  0  0
   18.3316  -14.0646   17.8355 O   0  0  0  0  0  0  0  0  0  0  0  0
   21.6244  -10.8435   21.1337 C   0  0  2  0  0  0  0  0  0  0  0  0
   22.3351   -9.6952   16.1350 C   0  0  2  0  0  0  0  0  0  0  0  0
   21.1416   -9.4620   16.8658 O   0  0  0  0  0  0  0  0  0  0  0  0
   24.1594   -5.4698   13.4958 C   0  0  2  0  0  0  0  0  0  0  0  0
   22.9295   -4.7849   13.7377 O   0  0  0  0  0  0  0  0  0  0  0  0
   19.1378   -5.4278   12.7550 C   0  0  2  0  0  0  0  0  0  0  0  0
   18.3702   -6.4779   13.3657 O   0  0  0  0  0  0  0  0  0  0  0  0
   18.7706  -12.3289   19.5134 C   0  0  2  0  0  0  0  0  0  0  0  0
   18.9416  -12.1977   20.9537 O   0  0  0  0  0  0  0  0  0  0  0  0
   20.5588   -9.8800   20.5196 C   0  0  2  0  0  0  0  0  0  0  0  0
   20.5199  -10.0548   19.0759 O   0  0  0  0  0  0  0  0  0  0  0  0
   22.3401  -11.1343   15.6203 C   0  0  0  0  0  0  0  0  0  0  0  0
   21.3269  -11.2352   14.6089 O   0  0  0  0  0  0  0  0  0  0  0  0
   23.8116   -6.9460   13.4985 C   0  0  1  0  0  0  0  0  0  0  0  0
   23.5673   -7.8392   14.6062 O   0  0  0  0  0  0  0  0  0  0  0  0
   20.1789   -5.9135   11.7527 C   0  0  2  0  0  0  0  0  0  0  0  0
   21.3658   -5.1523   11.4814 O   0  0  0  0  0  0  0  0  0  0  0  0
   17.5533  -11.5386   19.1726 C   0  0  0  0  0  0  0  0  0  0  0  0
   17.3692  -11.6270   17.7803 O   0  0  0  0  0  0  0  0  0  0  0  0
   20.8383   -8.3982   20.9417 C   0  0  1  0  0  0  0  0  0  0  0  0
   19.7062   -7.6041   20.4976 O   0  0  0  0  0  0  0  0  0  0  0  0
   23.0564   -7.4830   12.2439 C   0  0  0  0  0  0  0  0  0  0  0  0
   23.6429   -7.0262   10.9663 N   0  0  0  0  0  0  0  0  0  0  0  0
   19.8233   -6.7263   10.5100 C   0  0  0  0  0  0  0  0  0  0  0  0
   18.7290   -6.0903    9.7980 O   0  0  0  0  0  0  0  0  0  0  0  0
  1  2  1  6  0  0  0
  1  8  1  0  0  0  0
  1 36  1  0  0  0  0
  3  4  1  6  0  0  0
  3 10  1  0  0  0  0
  3 47  1  0  0  0  0
  5 11  1  0  0  0  0
  5 30  1  0  0  0  0
  5 38  1  1  0  0  0
  6 21  1  1  0  0  0
  6 42  1  0  0  0  0
  7 15  1  0  0  0  0
  7 44  1  0  0  0  0
  7 32  1  1  0  0  0
  8  9  1  6  0  0  0
  8 17  1  0  0  0  0
 11 12  1  1  0  0  0
 11 20  1  0  0  0  0
 13  6  1  0  0  0  0
 13 14  1  6  0  0  0
 15 16  1  6  0  0  0
 15 24  1  0  0  0  0
 17 26  1  0  0  0  0
 18 10  1  0  0  0  0
 18 19  1  6  0  0  0
 20 21  1  1  0  0  0
 20 29  1  0  0  0  0
 22 13  1  0  0  0  0
 22 23  1  6  0  0  0
 24 25  1  6  0  0  0
 24 33  1  0  0  0  0
 26 27  1  6  0  0  0
 26 35  1  0  0  0  0
 28  2  1  1  0  0  0
 28 18  1  0  0  0  0
 29 30  1  0  0  0  0
 29 39  1  1  0  0  0
 31 22  1  0  0  0  0
 31 32  1  1  0  0  0
 31 41  1  0  0  0  0
 33 34  1  1  0  0  0
 33 43  1  0  0  0  0
 35 36  1  0  0  0  0
 35 45  1  1  0  0  0
 37 28  1  0  0  0  0
 37 38  1  6  0  0  0
 39 40  1  0  0  0  0
 41 42  1  0  0  0  0
 41 49  1  6  0  0  0
 43 44  1  0  0  0  0
 43 51  1  6  0  0  0
 45 46  1  0  0  0  0
 47 37  1  0  0  0  0
 47 48  1  1  0  0  0
 49 50  1  0  0  0  0
 51 52  1  0  0  0  0
M  END
>  <CHROM.1>
-175.38206807,66.90986908,-178.12264673,179.89353485,172.22992039,59.41617231
-175.90433292,158.38993903,-63.66481797,-89.84522288,46.12556319,48.88047568
21.30646602,-8.61374549,16.92351824,1.72593922,0.73688928,2.13499761

>  <Name>
2esj_lig

>  <RI>
0

>  <Rbt.Current_Directory>
/home/itssahil/PROJECTS/Mol_Feturizer/New_Systems/rnas/2esj

>  <Rbt.Executable>
rbdock ($Id: //depot/dev/client3/rdock/2013.1/src/exe/rbdock.cxx#4 $)

>  <Rbt.Library>
libRbt.so (2013.1, Build901 2013/11/27)

>  <Rbt.Parameter_File>
/export/apps/rDock/src/rDock_2013.1_src/data/scripts/dock_solv.prm

>  <Rbt.Receptor>
prm/pocket_docking_8.prm

>  <SCORE>
-16.4519

>  <SCORE.INTER>
-8.93082

>  <SCORE.INTER.CONST>
1

>  <SCORE.INTER.POLAR>
-0.824621

>  <SCORE.INTER.ROT>
12

>  <SCORE.INTER.SOLV>
14.854

>  <SCORE.INTER.VDW>
-19.7565

>  <SCORE.INTER.norm>
-0.171747

>  <SCORE.INTRA>
-7.52109

>  <SCORE.INTRA.DIHEDRAL>
-21.5362

>  <SCORE.INTRA.DIHEDRAL.0>
32.9766

>  <SCORE.INTRA.POLAR>
0

>  <SCORE.INTRA.POLAR.0>
0

>  <SCORE.INTRA.REPUL>
0

>  <SCORE.INTRA.REPUL.0>
0

>  <SCORE.INTRA.SOLV>
0.819443

>  <SCORE.INTRA.SOLV.lig_0>
-114.358

>  <SCORE.INTRA.VDW>
2.83729

>  <SCORE.INTRA.VDW.0>
-8.24257

>  <SCORE.INTRA.norm>
-0.144636

>  <SCORE.RESTR>
0

>  <SCORE.RESTR.CAVITY>
0

>  <SCORE.RESTR.norm>
0

>  <SCORE.SYSTEM>
0

>  <SCORE.SYSTEM.CONST>
0

>  <SCORE.SYSTEM.DIHEDRAL>
0

>  <SCORE.SYSTEM.SOLV>
0

>  <SCORE.SYSTEM.norm>
0

>  <SCORE.heavy>
52

>  <SCORE.norm>
-0.316383

>  <RMSD>
7.241

$$$$
2esj_lig
 OpenBabel11021811423D
libRbt.so/2013.1/901 2013/11/27
 52 56  0  0  0  0  0  0  0  0999 V2000
   22.0314   -5.3981   20.8998 C   0  0  2  0  0  0  0  0  0  0  0  0
   22.2888   -4.5036   21.9991 O   0  0  0  0  0  0  0  0  0  0  0  0
   25.1908   -1.6010   23.1998 C   0  0  2  0  0  0  0  0  0  0  0  0
   26.4290   -0.9017   23.5807 N   0  0  0  0  0  0  0  0  0  0  0  0
   24.3057   -2.4070   18.8644 C   0  0  1  0  0  0  0  0  0  0  0  0
   24.7862   -0.0693   15.5097 C   0  0  1  0  0  0  0  0  0  0  0  0
   27.8191    0.5109   11.4517 C   0  0  1  0  0  0  0  0  0  0  0  0
   20.5217   -5.7769   20.9474 C   0  0  2  0  0  0  0  0  0  0  0  0
   19.6544   -4.5998   20.9080 N   0  0  0  0  0  0  0  0  0  0  0  0
   24.9568   -2.8525   24.1360 C   0  0  0  0  0  0  0  0  0  0  0  0
   24.2385   -3.1309   17.5191 C   0  0  2  0  0  0  0  0  0  0  0  0
   25.4906   -3.7596   17.1691 O   0  0  0  0  0  0  0  0  0  0  0  0
   25.0419   -0.6360   14.0419 C   0  0  2  0  0  0  0  0  0  0  0  0
   26.3001   -1.4264   13.9858 N   0  0  0  0  0  0  0  0  0  0  0  0
   29.0479   -0.2647   11.9120 C   0  0  1  0  0  0  0  0  0  0  0  0
   29.3258   -1.3165   10.9660 O   0  0  0  0  0  0  0  0  0  0  0  0
   20.2008   -6.6295   22.2159 C   0  0  0  0  0  0  0  0  0  0  0  0
   23.5934   -3.5555   23.7505 C   0  0  2  0  0  0  0  0  0  0  0  0
   23.3588   -4.7300   24.5969 N   0  0  0  0  0  0  0  0  0  0  0  0
   23.8446   -1.9971   16.6172 C   0  0  2  0  0  0  0  0  0  0  0  0
   24.9504   -1.1713   16.3531 O   0  0  0  0  0  0  0  0  0  0  0  0
   24.9557    0.5660   13.0013 C   0  0  1  0  0  0  0  0  0  0  0  0
   23.7289    1.2728   13.2115 O   0  0  0  0  0  0  0  0  0  0  0  0
   30.3156    0.5640   12.0801 C   0  0  1  0  0  0  0  0  0  0  0  0
   31.3974   -0.3527   12.2792 O   0  0  0  0  0  0  0  0  0  0  0  0
   21.1519   -7.8625   22.2471 C   0  0  2  0  0  0  0  0  0  0  0  0
   20.8630   -8.7232   23.3343 O   0  0  0  0  0  0  0  0  0  0  0  0
   23.5979   -3.9607   22.2536 C   0  0  2  0  0  0  0  0  0  0  0  0
   22.9014   -1.1036   17.4488 C   0  0  2  0  0  0  0  0  0  0  0  0
   23.3833   -1.3128   18.7667 O   0  0  0  0  0  0  0  0  0  0  0  0
   26.1099    1.6237   13.2424 C   0  0  2  0  0  0  0  0  0  0  0  0
   27.3128    0.8953   12.9916 O   0  0  0  0  0  0  0  0  0  0  0  0
   30.6274    1.4637   10.8829 C   0  0  2  0  0  0  0  0  0  0  0  0
   31.6408    2.3888   11.3095 O   0  0  0  0  0  0  0  0  0  0  0  0
   22.6128   -7.3505   22.2976 C   0  0  2  0  0  0  0  0  0  0  0  0
   22.8440   -6.5815   21.0826 O   0  0  0  0  0  0  0  0  0  0  0  0
   23.9422   -2.7919   21.2757 C   0  0  2  0  0  0  0  0  0  0  0  0
   23.9928   -3.2974   19.9125 O   0  0  0  0  0  0  0  0  0  0  0  0
   21.4134   -1.4475   17.3938 C   0  0  0  0  0  0  0  0  0  0  0  0
   21.0097   -1.4020   16.0173 O   0  0  0  0  0  0  0  0  0  0  0  0
   26.1056    1.9028   14.7331 C   0  0  1  0  0  0  0  0  0  0  0  0
   25.7743    1.0347   15.8382 O   0  0  0  0  0  0  0  0  0  0  0  0
   29.3664    2.1232   10.3356 C   0  0  2  0  0  0  0  0  0  0  0  0
   28.0927    1.4630   10.3953 O   0  0  0  0  0  0  0  0  0  0  0  0
   23.6186   -8.4507   22.2827 C   0  0  0  0  0  0  0  0  0  0  0  0
   24.8878   -7.8643   22.4420 O   0  0  0  0  0  0  0  0  0  0  0  0
   25.2682   -2.0781   21.7052 C   0  0  1  0  0  0  0  0  0  0  0  0
   25.4099   -0.8972   20.8718 O   0  0  0  0  0  0  0  0  0  0  0  0
   27.0906    3.0027   15.2358 C   0  0  0  0  0  0  0  0  0  0  0  0
   27.9477    2.5558   16.3541 N   0  0  0  0  0  0  0  0  0  0  0  0
   29.3737    3.0664    9.1348 C   0  0  0  0  0  0  0  0  0  0  0  0
   30.0342    2.4303    8.0088 O   0  0  0  0  0  0  0  0  0  0  0  0
  1  2  1  1  0  0  0
  1  8  1  0  0  0  0
  1 36  1  0  0  0  0
  3  4  1  1  0  0  0
  3 10  1  0  0  0  0
  3 47  1  0  0  0  0
  5 11  1  0  0  0  0
  5 30  1  0  0  0  0
  5 38  1  1  0  0  0
  6 21  1  1  0  0  0
  6 42  1  0  0  0  0
  7 15  1  0  0  0  0
  7 44  1  0  0  0  0
  7 32  1  1  0  0  0
  8  9  1  1  0  0  0
  8 17  1  0  0  0  0
 11 12  1  6  0  0  0
 11 20  1  0  0  0  0
 13  6  1  0  0  0  0
 13 14  1  1  0  0  0
 15 16  1  6  0  0  0
 15 24  1  0  0  0  0
 17 26  1  0  0  0  0
 18 10  1  0  0  0  0
 18 19  1  1  0  0  0
 20 21  1  1  0  0  0
 20 29  1  0  0  0  0
 22 13  1  0  0  0  0
 22 23  1  1  0  0  0
 24 25  1  6  0  0  0
 24 33  1  0  0  0  0
 26 27  1  1  0  0  0
 26 35  1  0  0  0  0
 28  2  1  6  0  0  0
 28 18  1  0  0  0  0
 29 30  1  0  0  0  0
 29 39  1  1  0  0  0
 31 22  1  0  0  0  0
 31 32  1  1  0  0  0
 31 41  1  0  0  0  0
 33 34  1  1  0  0  0
 33 43  1  0  0  0  0
 35 36  1  0  0  0  0
 35 45  1  6  0  0  0
 37 28  1  0  0  0  0
 37 38  1  6  0  0  0
 39 40  1  0  0  0  0
 41 42  1  0  0  0  0
 41 49  1  1  0  0  0
 43 44  1  0  0  0  0
 43 51  1  6  0  0  0
 45 46  1  0  0  0  0
 47 37  1  0  0  0  0
 47 48  1  6  0  0  0
 49 50  1  0  0  0  0
 51 52  1  0  0  0  0
M  END
>  <CHROM.1>
179.73345008,-177.32561240,-87.70464611,-177.72168594,178.93745940,-157.95618798
-57.31687879,75.46994223,-175.27604286,-179.24289732,-128.32680842,53.04699344
25.22178318,-1.83127048,17.24131198,2.09789684,0.54136751,1.84324605

>  <Name>
2esj_lig

>  <RI>
0

>  <Rbt.Current_Directory>
/home/itssahil/PROJECTS/Mol_Feturizer/New_Systems/rnas/2esj

>  <Rbt.Executable>
rbdock ($Id: //depot/dev/client3/rdock/2013.1/src/exe/rbdock.cxx#4 $)

>  <Rbt.Library>
libRbt.so (2013.1, Build901 2013/11/27)

>  <Rbt.Parameter_File>
/export/apps/rDock/src/rDock_2013.1_src/data/scripts/dock_solv.prm

>  <Rbt.Receptor>
prm/pocket_docking_8.prm

>  <SCORE>
-14.453

>  <SCORE.INTER>
-5.69501

>  <SCORE.INTER.CONST>
1

>  <SCORE.INTER.POLAR>
-0.8

>  <SCORE.INTER.ROT>
12

>  <SCORE.INTER.SOLV>
10.7721

>  <SCORE.INTER.VDW>
-16.3207

>  <SCORE.INTER.norm>
-0.109519

>  <SCORE.INTRA>
-8.75798

>  <SCORE.INTRA.DIHEDRAL>
-21.2262

>  <SCORE.INTRA.DIHEDRAL.0>
32.9766

>  <SCORE.INTRA.POLAR>
0

>  <SCORE.INTRA.POLAR.0>
0

>  <SCORE.INTRA.REPUL>
0

>  <SCORE.INTRA.REPUL.0>
0

>  <SCORE.INTRA.SOLV>
-2.45791

>  <SCORE.INTRA.SOLV.lig_0>
-114.358

>  <SCORE.INTRA.VDW>
3.08409

>  <SCORE.INTRA.VDW.0>
-8.24257

>  <SCORE.INTRA.norm>
-0.168423

>  <SCORE.RESTR>
0

>  <SCORE.RESTR.CAVITY>
0

>  <SCORE.RESTR.norm>
0

>  <SCORE.SYSTEM>
0

>  <SCORE.SYSTEM.CONST>
0

>  <SCORE.SYSTEM.DIHEDRAL>
0

>  <SCORE.SYSTEM.SOLV>
0

>  <SCORE.SYSTEM.norm>
0

>  <SCORE.heavy>
52

>  <SCORE.norm>
-0.277942

>  <RMSD>
7.369

$$$$
2esj_lig
 OpenBabel11021811423D
libRbt.so/2013.1/901 2013/11/27
 52 56  0  0  0  0  0  0  0  0999 V2000
   20.2029   -2.5958   12.9111 C   0  0  2  0  0  0  0  0  0  0  0  0
   19.8994   -2.1751   14.2549 O   0  0  0  0  0  0  0  0  0  0  0  0
   22.6241   -0.9930   17.3317 C   0  0  2  0  0  0  0  0  0  0  0  0
   23.5393   -0.9589   18.4843 N   0  0  0  0  0  0  0  0  0  0  0  0
   24.1336   -2.6943   13.5193 C   0  0  1  0  0  0  0  0  0  0  0  0
   27.9567   -2.6571   11.8897 C   0  0  1  0  0  0  0  0  0  0  0  0
   31.3192   -0.3212   14.9582 C   0  0  1  0  0  0  0  0  0  0  0  0
   18.8993   -2.4562   12.0707 C   0  0  2  0  0  0  0  0  0  0  0  0
   18.3594   -1.0974   12.1085 N   0  0  0  0  0  0  0  0  0  0  0  0
   21.2193   -1.5743   17.7631 C   0  0  0  0  0  0  0  0  0  0  0  0
   24.4251   -3.6526   12.3638 C   0  0  2  0  0  0  0  0  0  0  0  0
   24.7436   -4.9850   12.8206 O   0  0  0  0  0  0  0  0  0  0  0  0
   29.0882   -3.5204   12.6079 C   0  0  2  0  0  0  0  0  0  0  0  0
   28.8943   -3.5353   14.0820 N   0  0  0  0  0  0  0  0  0  0  0  0
   31.3717   -1.1426   16.2412 C   0  0  1  0  0  0  0  0  0  0  0  0
   32.4245   -0.6353   17.0855 O   0  0  0  0  0  0  0  0  0  0  0  0
   17.8145   -3.4713   12.5521 C   0  0  0  0  0  0  0  0  0  0  0  0
   20.2324   -1.5479   16.5273 C   0  0  2  0  0  0  0  0  0  0  0  0
   18.9235   -2.0957   16.8980 N   0  0  0  0  0  0  0  0  0  0  0  0
   25.5666   -2.9399   11.6981 C   0  0  2  0  0  0  0  0  0  0  0  0
   26.7542   -3.1254   12.4258 O   0  0  0  0  0  0  0  0  0  0  0  0
   30.5155   -3.0083   12.1223 C   0  0  1  0  0  0  0  0  0  0  0  0
   30.5367   -2.9860   10.6912 O   0  0  0  0  0  0  0  0  0  0  0  0
   30.0836   -1.1616   17.0553 C   0  0  1  0  0  0  0  0  0  0  0  0
   30.3882   -1.7691   18.3157 O   0  0  0  0  0  0  0  0  0  0  0  0
   18.4205   -4.9058   12.5249 C   0  0  2  0  0  0  0  0  0  0  0  0
   17.4635   -5.8886   12.8775 O   0  0  0  0  0  0  0  0  0  0  0  0
   20.8331   -2.3418   15.3382 C   0  0  2  0  0  0  0  0  0  0  0  0
   25.2688   -1.4336   11.8470 C   0  0  2  0  0  0  0  0  0  0  0  0
   24.5395   -1.3963   13.0634 O   0  0  0  0  0  0  0  0  0  0  0  0
   30.7814   -1.5157   12.5812 C   0  0  2  0  0  0  0  0  0  0  0  0
   30.7873   -1.5821   14.0081 O   0  0  0  0  0  0  0  0  0  0  0  0
   29.4839    0.2255   17.2929 C   0  0  2  0  0  0  0  0  0  0  0  0
   28.1483    0.0237   17.7829 O   0  0  0  0  0  0  0  0  0  0  0  0
   19.6450   -4.9360   13.4729 C   0  0  2  0  0  0  0  0  0  0  0  0
   20.6161   -3.9818   12.9558 O   0  0  0  0  0  0  0  0  0  0  0  0
   22.2755   -1.8966   14.9355 C   0  0  2  0  0  0  0  0  0  0  0  0
   22.7680   -2.7522   13.8670 O   0  0  0  0  0  0  0  0  0  0  0  0
   24.4363   -0.7912   10.7380 C   0  0  0  0  0  0  0  0  0  0  0  0
   25.1675   -0.9326    9.5113 O   0  0  0  0  0  0  0  0  0  0  0  0
   29.5282   -0.7444   12.2141 C   0  0  1  0  0  0  0  0  0  0  0  0
   28.1518   -1.1783   12.1693 O   0  0  0  0  0  0  0  0  0  0  0  0
   29.5688    1.0932   16.0422 C   0  0  2  0  0  0  0  0  0  0  0  0
   30.6524    0.9553   15.1102 O   0  0  0  0  0  0  0  0  0  0  0  0
   20.3381   -6.2558   13.4906 C   0  0  0  0  0  0  0  0  0  0  0  0
   19.3680   -7.2381   13.7631 O   0  0  0  0  0  0  0  0  0  0  0  0
   23.2225   -1.8812   16.1825 C   0  0  1  0  0  0  0  0  0  0  0  0
   24.4746   -1.2761   15.7637 O   0  0  0  0  0  0  0  0  0  0  0  0
   29.5621    0.7945   12.4660 C   0  0  0  0  0  0  0  0  0  0  0  0
   29.5290    1.5932   11.2227 N   0  0  0  0  0  0  0  0  0  0  0  0
   29.0570    2.5309   15.9895 C   0  0  0  0  0  0  0  0  0  0  0  0
   27.6049    2.5401   15.9791 O   0  0  0  0  0  0  0  0  0  0  0  0
  1  2  1  1  0  0  0
  1  8  1  0  0  0  0
  1 36  1  0  0  0  0
  3  4  1  1  0  0  0
  3 10  1  0  0  0  0
  3 47  1  0  0  0  0
  5 11  1  0  0  0  0
  5 30  1  0  0  0  0
  5 38  1  6  0  0  0
  6 21  1  1  0  0  0
  6 42  1  0  0  0  0
  7 15  1  0  0  0  0
  7 44  1  0  0  0  0
  7 32  1  6  0  0  0
  8  9  1  1  0  0  0
  8 17  1  0  0  0  0
 11 12  1  1  0  0  0
 11 20  1  0  0  0  0
 13  6  1  0  0  0  0
 13 14  1  1  0  0  0
 15 16  1  1  0  0  0
 15 24  1  0  0  0  0
 17 26  1  0  0  0  0
 18 10  1  0  0  0  0
 18 19  1  1  0  0  0
 20 21  1  1  0  0  0
 20 29  1  0  0  0  0
 22 13  1  0  0  0  0
 22 23  1  6  0  0  0
 24 25  1  1  0  0  0
 24 33  1  0  0  0  0
 26 27  1  1  0  0  0
 26 35  1  0  0  0  0
 28  2  1  6  0  0  0
 28 18  1  0  0  0  0
 29 30  1  0  0  0  0
 29 39  1  6  0  0  0
 31 22  1  0  0  0  0
 31 32  1  1  0  0  0
 31 41  1  0  0  0  0
 33 34  1  6  0  0  0
 33 43  1  0  0  0  0
 35 36  1  0  0  0  0
 35 45  1  6  0  0  0
 37 28  1  0  0  0  0
 37 38  1  6  0  0  0
 39 40  1  0  0  0  0
 41 42  1  0  0  0  0
 41 49  1  1  0  0  0
 43 44  1  0  0  0  0
 43 51  1  1  0  0  0
 45 46  1  0  0  0  0
 47 37  1  0  0  0  0
 47 48  1  6  0  0  0
 49 50  1  0  0  0  0
 51 52  1  0  0  0  0
M  END
>  <CHROM.1>
171.68096621,-179.01754877,-157.36674667,-167.47743595,173.26789008,170.31374575
-61.19386709,167.85782456,-52.81608975,-168.27716885,112.93965289,-72.83865411
25.24404316,-1.93452588,14.07380791,-2.94978306,0.23153390,1.16456124

>  <Name>
2esj_lig

>  <RI>
1.62275e+07

>  <Rbt.Current_Directory>
/home/itssahil/PROJECTS/Mol_Feturizer/New_Systems/rnas/2esj

>  <Rbt.Executable>
rbdock ($Id: //depot/dev/client3/rdock/2013.1/src/exe/rbdock.cxx#4 $)

>  <Rbt.Library>
libRbt.so (2013.1, Build901 2013/11/27)

>  <Rbt.Parameter_File>
/export/apps/rDock/src/rDock_2013.1_src/data/scripts/dock_solv.prm

>  <Rbt.Receptor>
prm/pocket_docking_5.prm

>  <SCORE>
-7.34561

>  <SCORE.INTER>
1.10093

>  <SCORE.INTER.CONST>
1

>  <SCORE.INTER.POLAR>
-1.29343

>  <SCORE.INTER.ROT>
12

>  <SCORE.INTER.SOLV>
9.63522

>  <SCORE.INTER.VDW>
-9.76635

>  <SCORE.INTER.norm>
0.0211718

>  <SCORE.INTRA>
-8.44654

>  <SCORE.INTRA.DIHEDRAL>
-22.1455

>  <SCORE.INTRA.DIHEDRAL.0>
32.9766

>  <SCORE.INTRA.POLAR>
0

>  <SCORE.INTRA.POLAR.0>
0

>  <SCORE.INTRA.REPUL>
0.00469973

>  <SCORE.INTRA.REPUL.0>
0

>  <SCORE.INTRA.SOLV>
-4.2796

>  <SCORE.INTRA.SOLV.lig_0>
-114.358

>  <SCORE.INTRA.VDW>
4.74253

>  <SCORE.INTRA.VDW.0>
-8.24257

>  <SCORE.INTRA.norm>
-0.162434

>  <SCORE.RESTR>
0

>  <SCORE.RESTR.CAVITY>
0

>  <SCORE.RESTR.norm>
0

>  <SCORE.SYSTEM>
0

>  <SCORE.SYSTEM.CONST>
0

>  <SCORE.SYSTEM.DIHEDRAL>
0

>  <SCORE.SYSTEM.SOLV>
0

>  <SCORE.SYSTEM.norm>
0

>  <SCORE.heavy>
52

>  <SCORE.norm>
-0.141262

>  <RMSD>
7.407

$$$$
2esj_lig
 OpenBabel11021811423D
libRbt.so/2013.1/901 2013/11/27
 52 56  0  0  0  0  0  0  0  0999 V2000
   23.4224   -8.7525   22.3305 C   0  0  2  0  0  0  0  0  0  0  0  0
   22.6068   -9.1095   21.1982 O   0  0  0  0  0  0  0  0  0  0  0  0
   20.2591  -12.4584   19.9491 C   0  0  2  0  0  0  0  0  0  0  0  0
   19.3218  -13.5917   19.8813 N   0  0  0  0  0  0  0  0  0  0  0  0
   19.7017   -7.6747   19.4513 C   0  0  1  0  0  0  0  0  0  0  0  0
   19.0041   -4.7940   16.6842 C   0  0  1  0  0  0  0  0  0  0  0  0
   17.2910   -3.5145   11.8773 C   0  0  1  0  0  0  0  0  0  0  0  0
   22.5097   -8.0082   23.3494 C   0  0  2  0  0  0  0  0  0  0  0  0
   21.3508   -8.8094   23.7423 N   0  0  0  0  0  0  0  0  0  0  0  0
   21.2918  -12.6698   21.1264 C   0  0  0  0  0  0  0  0  0  0  0  0
   18.4319   -7.8904   18.6269 C   0  0  2  0  0  0  0  0  0  0  0  0
   18.6306   -8.8252   17.5443 O   0  0  0  0  0  0  0  0  0  0  0  0
   17.6030   -4.6299   15.9417 C   0  0  2  0  0  0  0  0  0  0  0  0
   17.3733   -5.7420   14.9818 N   0  0  0  0  0  0  0  0  0  0  0  0
   17.4590   -4.8587   11.1785 C   0  0  1  0  0  0  0  0  0  0  0  0
   16.2596   -5.1604   10.4375 O   0  0  0  0  0  0  0  0  0  0  0  0
   22.0351   -6.6362   22.7738 C   0  0  0  0  0  0  0  0  0  0  0  0
   22.3257  -11.4731   21.1460 C   0  0  2  0  0  0  0  0  0  0  0  0
   23.2886  -11.6383   22.2398 N   0  0  0  0  0  0  0  0  0  0  0  0
   18.1512   -6.4838   18.1831 C   0  0  2  0  0  0  0  0  0  0  0  0
   19.0162   -6.1153   17.1388 O   0  0  0  0  0  0  0  0  0  0  0  0
   17.5195   -3.1698   15.3121 C   0  0  1  0  0  0  0  0  0  0  0  0
   17.8231   -2.2094   16.3290 O   0  0  0  0  0  0  0  0  0  0  0  0
   18.6400   -4.9510   10.2198 C   0  0  1  0  0  0  0  0  0  0  0  0
   18.5001   -6.1763    9.4923 O   0  0  0  0  0  0  0  0  0  0  0  0
   23.2844   -5.8126   22.3419 C   0  0  2  0  0  0  0  0  0  0  0  0
   22.9300   -4.5213   21.8801 O   0  0  0  0  0  0  0  0  0  0  0  0
   21.5829  -10.1184   21.2804 C   0  0  2  0  0  0  0  0  0  0  0  0
   18.5757   -5.5776   19.3570 C   0  0  2  0  0  0  0  0  0  0  0  0
   19.6231   -6.3311   19.9471 O   0  0  0  0  0  0  0  0  0  0  0  0
   18.6116   -2.9633   14.1834 C   0  0  2  0  0  0  0  0  0  0  0  0
   18.2584   -3.9106   13.1744 O   0  0  0  0  0  0  0  0  0  0  0  0
   18.7273   -3.7839    9.2348 C   0  0  2  0  0  0  0  0  0  0  0  0
   20.0292   -3.8454    8.6300 O   0  0  0  0  0  0  0  0  0  0  0  0
   24.0478   -6.6157   21.2597 C   0  0  2  0  0  0  0  0  0  0  0  0
   24.4713   -7.8688   21.8691 O   0  0  0  0  0  0  0  0  0  0  0  0
   20.4613   -9.8958   20.2158 C   0  0  2  0  0  0  0  0  0  0  0  0
   19.7833   -8.6360   20.4800 O   0  0  0  0  0  0  0  0  0  0  0  0
   17.5086   -5.2833   20.4107 C   0  0  0  0  0  0  0  0  0  0  0  0
   17.0717   -6.5410   20.9465 O   0  0  0  0  0  0  0  0  0  0  0  0
   19.9141   -3.4656   14.7763 C   0  0  1  0  0  0  0  0  0  0  0  0
   20.1522   -4.5237   15.7293 O   0  0  0  0  0  0  0  0  0  0  0  0
   18.4129   -2.4551    9.9130 C   0  0  2  0  0  0  0  0  0  0  0  0
   17.4824   -2.3754   11.0037 O   0  0  0  0  0  0  0  0  0  0  0  0
   25.2961   -5.9408   20.8028 C   0  0  0  0  0  0  0  0  0  0  0  0
   24.9154   -4.8174   20.0457 O   0  0  0  0  0  0  0  0  0  0  0  0
   19.4788  -11.1146   20.1782 C   0  0  1  0  0  0  0  0  0  0  0  0
   18.5944  -10.9186   19.0429 O   0  0  0  0  0  0  0  0  0  0  0  0
   21.1916   -3.2811   13.9007 C   0  0  0  0  0  0  0  0  0  0  0  0
   21.7972   -1.9383   14.0225 N   0  0  0  0  0  0  0  0  0  0  0  0
   18.4137   -1.1204    9.1710 C   0  0  0  0  0  0  0  0  0  0  0  0
   18.3662   -0.0244   10.1224 O   0  0  0  0  0  0  0  0  0  0  0  0
  1  2  1  6  0  0  0
  1  8  1  0  0  0  0
  1 36  1  0  0  0  0
  3  4  1  1  0  0  0
  3 10  1  0  0  0  0
  3 47  1  0  0  0  0
  5 11  1  0  0  0  0
  5 30  1  0  0  0  0
  5 38  1  1  0  0  0
  6 21  1  6  0  0  0
  6 42  1  0  0  0  0
  7 15  1  0  0  0  0
  7 44  1  0  0  0  0
  7 32  1  1  0  0  0
  8  9  1  6  0  0  0
  8 17  1  0  0  0  0
 11 12  1  6  0  0  0
 11 20  1  0  0  0  0
 13  6  1  0  0  0  0
 13 14  1  6  0  0  0
 15 16  1  6  0  0  0
 15 24  1  0  0  0  0
 17 26  1  0  0  0  0
 18 10  1  0  0  0  0
 18 19  1  1  0  0  0
 20 21  1  6  0  0  0
 20 29  1  0  0  0  0
 22 13  1  0  0  0  0
 22 23  1  1  0  0  0
 24 25  1  6  0  0  0
 24 33  1  0  0  0  0
 26 27  1  6  0  0  0
 26 35  1  0  0  0  0
 28  2  1  6  0  0  0
 28 18  1  0  0  0  0
 29 30  1  0  0  0  0
 29 39  1  1  0  0  0
 31 22  1  0  0  0  0
 31 32  1  6  0  0  0
 31 41  1  0  0  0  0
 33 34  1  1  0  0  0
 33 43  1  0  0  0  0
 35 36  1  0  0  0  0
 35 45  1  1  0  0  0
 37 28  1  0  0  0  0
 37 38  1  1  0  0  0
 39 40  1  0  0  0  0
 41 42  1  0  0  0  0
 41 49  1  6  0  0  0
 43 44  1  0  0  0  0
 43 51  1  6  0  0  0
 45 46  1  0  0  0  0
 47 37  1  0  0  0  0
 47 48  1  6  0  0  0
 49 50  1  0  0  0  0
 51 52  1  0  0  0  0
M  END
>  <CHROM.1>
-69.77638937,89.97650495,-69.79378248,174.06657292,-173.37527677,-80.96724155
58.28711101,93.74198177,-70.77865741,125.07085123,83.48800873,-167.74103387
19.96881574,-6.28850504,17.17144170,-1.10090013,-0.91168179,-0.66930126

>  <Name>
2esj_lig

>  <RI>
0

>  <Rbt.Current_Directory>
/home/itssahil/PROJECTS/Mol_Feturizer/New_Systems/rnas/2esj

>  <Rbt.Executable>
rbdock ($Id: //depot/dev/client3/rdock/2013.1/src/exe/rbdock.cxx#4 $)

>  <Rbt.Library>
libRbt.so (2013.1, Build901 2013/11/27)

>  <Rbt.Parameter_File>
/export/apps/rDock/src/rDock_2013.1_src/data/scripts/dock_solv.prm

>  <Rbt.Receptor>
prm/pocket_docking_8.prm

>  <SCORE>
-9.94997

>  <SCORE.INTER>
-8.99901

>  <SCORE.INTER.CONST>
1

>  <SCORE.INTER.POLAR>
-1.11407

>  <SCORE.INTER.ROT>
12

>  <SCORE.INTER.SOLV>
16.6111

>  <SCORE.INTER.VDW>
-19.4228

>  <SCORE.INTER.norm>
-0.173058

>  <SCORE.INTRA>
-0.950958

>  <SCORE.INTRA.DIHEDRAL>
-9.47988

>  <SCORE.INTRA.DIHEDRAL.0>
32.9766

>  <SCORE.INTRA.POLAR>
0

>  <SCORE.INTRA.POLAR.0>
0

>  <SCORE.INTRA.REPUL>
0

>  <SCORE.INTRA.REPUL.0>
0

>  <SCORE.INTRA.SOLV>
0.444673

>  <SCORE.INTRA.SOLV.lig_0>
-114.358

>  <SCORE.INTRA.VDW>
3.56664

>  <SCORE.INTRA.VDW.0>
-8.24257

>  <SCORE.INTRA.norm>
-0.0182877

>  <SCORE.RESTR>
0

>  <SCORE.RESTR.CAVITY>
0

>  <SCORE.RESTR.norm>
0

>  <SCORE.SYSTEM>
0

>  <SCORE.SYSTEM.CONST>
0

>  <SCORE.SYSTEM.DIHEDRAL>
0

>  <SCORE.SYSTEM.SOLV>
0

>  <SCORE.SYSTEM.norm>
0

>  <SCORE.heavy>
52

>  <SCORE.norm>
-0.191346

>  <RMSD>
7.547

$$$$
2esj_lig
 OpenBabel11021811423D
libRbt.so/2013.1/901 2013/11/27
 52 56  0  0  0  0  0  0  0  0999 V2000
   21.2686   -6.3346   13.5372 C   0  0  2  0  0  0  0  0  0  0  0  0
   22.4656   -5.5338   13.5647 O   0  0  0  0  0  0  0  0  0  0  0  0
   20.7236   -1.6903   14.2582 C   0  0  2  0  0  0  0  0  0  0  0  0
   20.4885   -0.2722   14.5764 N   0  0  0  0  0  0  0  0  0  0  0  0
   24.0917   -3.2588   11.5852 C   0  0  1  0  0  0  0  0  0  0  0  0
   28.1236   -2.2493   11.4251 C   0  0  1  0  0  0  0  0  0  0  0  0
   30.7786   -3.5258   15.4018 C   0  0  1  0  0  0  0  0  0  0  0  0
   21.7020   -7.8191   13.3543 C   0  0  2  0  0  0  0  0  0  0  0  0
   22.6284   -8.2577   14.3977 N   0  0  0  0  0  0  0  0  0  0  0  0
   21.4410   -2.4125   15.4669 C   0  0  0  0  0  0  0  0  0  0  0  0
   24.7591   -3.1924   10.2109 C   0  0  2  0  0  0  0  0  0  0  0  0
   25.1735   -4.4919    9.7368 O   0  0  0  0  0  0  0  0  0  0  0  0
   29.0909   -3.3542   12.0455 C   0  0  2  0  0  0  0  0  0  0  0  0
   28.4277   -4.0795   13.1613 N   0  0  0  0  0  0  0  0  0  0  0  0
   29.8597   -3.6960   16.6060 C   0  0  1  0  0  0  0  0  0  0  0  0
   29.9183   -5.0641   17.0568 O   0  0  0  0  0  0  0  0  0  0  0  0
   22.3430   -8.0432   11.9479 C   0  0  0  0  0  0  0  0  0  0  0  0
   21.6315   -3.9462   15.1307 C   0  0  2  0  0  0  0  0  0  0  0  0
   22.3084   -4.6379   16.2326 N   0  0  0  0  0  0  0  0  0  0  0  0
   25.8927   -2.2520   10.5020 C   0  0  2  0  0  0  0  0  0  0  0  0
   26.9169   -2.9162   11.1978 O   0  0  0  0  0  0  0  0  0  0  0  0
   30.4814   -2.6738   12.4178 C   0  0  1  0  0  0  0  0  0  0  0  0
   30.9690   -1.9626   11.2753 O   0  0  0  0  0  0  0  0  0  0  0  0
   30.1709   -2.7950   17.7950 C   0  0  1  0  0  0  0  0  0  0  0  0
   29.3755   -3.2539   18.8936 O   0  0  0  0  0  0  0  0  0  0  0  0
   21.3481   -7.5476   10.8568 C   0  0  2  0  0  0  0  0  0  0  0  0
   21.8352   -7.7926    9.5496 O   0  0  0  0  0  0  0  0  0  0  0  0
   22.4321   -4.1160   13.8134 C   0  0  2  0  0  0  0  0  0  0  0  0
   25.3458   -1.2344   11.5243 C   0  0  2  0  0  0  0  0  0  0  0  0
   24.3822   -2.0071   12.2225 O   0  0  0  0  0  0  0  0  0  0  0  0
   30.3075   -1.5894   13.5593 C   0  0  2  0  0  0  0  0  0  0  0  0
   29.8543   -2.3372   14.6889 O   0  0  0  0  0  0  0  0  0  0  0  0
   31.6457   -2.7975   18.2010 C   0  0  2  0  0  0  0  0  0  0  0  0
   31.8322   -1.6928   19.1007 O   0  0  0  0  0  0  0  0  0  0  0  0
   21.0777   -6.0407   11.0917 C   0  0  2  0  0  0  0  0  0  0  0  0
   20.4689   -5.9104   12.4082 O   0  0  0  0  0  0  0  0  0  0  0  0
   21.8424   -3.3273   12.6005 C   0  0  2  0  0  0  0  0  0  0  0  0
   22.7085   -3.4954   11.4438 O   0  0  0  0  0  0  0  0  0  0  0  0
   24.6748    0.0133   10.9510 C   0  0  0  0  0  0  0  0  0  0  0  0
   24.2355    0.8149   12.0574 O   0  0  0  0  0  0  0  0  0  0  0  0
   29.1283   -0.7345   13.1366 C   0  0  1  0  0  0  0  0  0  0  0  0
   27.9458   -1.0902   12.3884 O   0  0  0  0  0  0  0  0  0  0  0  0
   32.5614   -2.7752   16.9822 C   0  0  2  0  0  0  0  0  0  0  0  0
   32.1792   -3.4052   15.7498 O   0  0  0  0  0  0  0  0  0  0  0  0
   20.0957   -5.4660   10.1284 C   0  0  0  0  0  0  0  0  0  0  0  0
   19.9637   -4.0972   10.4267 O   0  0  0  0  0  0  0  0  0  0  0  0
   21.6148   -1.8230   12.9715 C   0  0  1  0  0  0  0  0  0  0  0  0
   20.8919   -1.2133   11.8692 O   0  0  0  0  0  0  0  0  0  0  0  0
   28.7993    0.4909   14.0437 C   0  0  0  0  0  0  0  0  0  0  0  0
   29.4709    1.7356   13.6144 N   0  0  0  0  0  0  0  0  0  0  0  0
   34.0849   -2.7829   17.0846 C   0  0  0  0  0  0  0  0  0  0  0  0
   34.6695   -2.4135   15.8076 O   0  0  0  0  0  0  0  0  0  0  0  0
  1  2  1  6  0  0  0
  1  8  1  0  0  0  0
  1 36  1  0  0  0  0
  3  4  1  1  0  0  0
  3 10  1  0  0  0  0
  3 47  1  0  0  0  0
  5 11  1  0  0  0  0
  5 30  1  0  0  0  0
  5 38  1  6  0  0  0
  6 21  1  1  0  0  0
  6 42  1  0  0  0  0
  7 15  1  0  0  0  0
  7 44  1  0  0  0  0
  7 32  1  1  0  0  0
  8  9  1  1  0  0  0
  8 17  1  0  0  0  0
 11 12  1  1  0  0  0
 11 20  1  0  0  0  0
 13  6  1  0  0  0  0
 13 14  1  1  0  0  0
 15 16  1  1  0  0  0
 15 24  1  0  0  0  0
 17 26  1  0  0  0  0
 18 10  1  0  0  0  0
 18 19  1  1  0  0  0
 20 21  1  1  0  0  0
 20 29  1  0  0  0  0
 22 13  1  0  0  0  0
 22 23  1  6  0  0  0
 24 25  1  1  0  0  0
 24 33  1  0  0  0  0
 26 27  1  6  0  0  0
 26 35  1  0  0  0  0
 28  2  1  6  0  0  0
 28 18  1  0  0  0  0
 29 30  1  0  0  0  0
 29 39  1  6  0  0  0
 31 22  1  0  0  0  0
 31 32  1  1  0  0  0
 31 41  1  0  0  0  0
 33 34  1  1  0  0  0
 33 43  1  0  0  0  0
 35 36  1  0  0  0  0
 35 45  1  6  0  0  0
 37 28  1  0  0  0  0
 37 38  1  6  0  0  0
 39 40  1  0  0  0  0
 41 42  1  0  0  0  0
 41 49  1  1  0  0  0
 43 44  1  0  0  0  0
 43 51  1  1  0  0  0
 45 46  1  0  0  0  0
 47 37  1  0  0  0  0
 47 48  1  6  0  0  0
 49 50  1  0  0  0  0
 51 52  1  0  0  0  0
M  END
>  <CHROM.1>
-175.66210957,-167.69837434,-172.52491268,170.48988862,172.72938739,52.80573208
179.68700728,62.88570108,-178.63621456,-50.40789194,91.80386650,-165.37958885
25.91835957,-3.26835074,13.45554373,3.07730949,-0.41497300,-0.72137964

>  <Name>
2esj_lig

>  <RI>
2.18877e+07

>  <Rbt.Current_Directory>
/home/itssahil/PROJECTS/Mol_Feturizer/New_Systems/rnas/2esj

>  <Rbt.Executable>
rbdock ($Id: //depot/dev/client3/rdock/2013.1/src/exe/rbdock.cxx#4 $)

>  <Rbt.Library>
libRbt.so (2013.1, Build901 2013/11/27)

>  <Rbt.Parameter_File>
/export/apps/rDock/src/rDock_2013.1_src/data/scripts/dock_solv.prm

>  <Rbt.Receptor>
prm/pocket_docking_7.prm

>  <SCORE>
-8.94814

>  <SCORE.INTER>
2.37634

>  <SCORE.INTER.CONST>
1

>  <SCORE.INTER.POLAR>
0

>  <SCORE.INTER.ROT>
12

>  <SCORE.INTER.SOLV>
9.08781

>  <SCORE.INTER.VDW>
-13.045

>  <SCORE.INTER.norm>
0.0456988

>  <SCORE.INTRA>
-11.3245

>  <SCORE.INTRA.DIHEDRAL>
-25.0816

>  <SCORE.INTRA.DIHEDRAL.0>
32.9766

>  <SCORE.INTRA.POLAR>
0

>  <SCORE.INTRA.POLAR.0>
0

>  <SCORE.INTRA.REPUL>
0

>  <SCORE.INTRA.REPUL.0>
0

>  <SCORE.INTRA.SOLV>
-2.71125

>  <SCORE.INTRA.SOLV.lig_0>
-114.358

>  <SCORE.INTRA.VDW>
2.57196

>  <SCORE.INTRA.VDW.0>
-8.24257

>  <SCORE.INTRA.norm>
-0.217778

>  <SCORE.RESTR>
0

>  <SCORE.RESTR.CAVITY>
0

>  <SCORE.RESTR.norm>
0

>  <SCORE.SYSTEM>
0

>  <SCORE.SYSTEM.CONST>
0

>  <SCORE.SYSTEM.DIHEDRAL>
0

>  <SCORE.SYSTEM.SOLV>
0

>  <SCORE.SYSTEM.norm>
0

>  <SCORE.heavy>
52

>  <SCORE.norm>
-0.17208

>  <RMSD>
7.717

$$$$
2esj_lig
 OpenBabel11021811423D
libRbt.so/2013.1/901 2013/11/27
 52 56  0  0  0  0  0  0  0  0999 V2000
   23.0942   -6.5869   20.8091 C   0  0  2  0  0  0  0  0  0  0  0  0
   24.3740   -6.7476   21.4502 O   0  0  0  0  0  0  0  0  0  0  0  0
   28.1959   -6.5326   19.5437 C   0  0  2  0  0  0  0  0  0  0  0  0
   29.4764   -6.8421   18.8865 N   0  0  0  0  0  0  0  0  0  0  0  0
   24.0069   -6.2137   17.4812 C   0  0  1  0  0  0  0  0  0  0  0  0
   22.7614   -5.6440   13.8637 C   0  0  1  0  0  0  0  0  0  0  0  0
   20.9829   -2.9011   10.0809 C   0  0  1  0  0  0  0  0  0  0  0  0
   22.1479   -5.8785   21.8228 C   0  0  2  0  0  0  0  0  0  0  0  0
   22.6901   -4.6018   22.2867 N   0  0  0  0  0  0  0  0  0  0  0  0
   28.0967   -7.2806   20.9323 C   0  0  0  0  0  0  0  0  0  0  0  0
   22.9701   -6.9573   16.6383 C   0  0  2  0  0  0  0  0  0  0  0  0
   23.5723   -7.7105   15.5633 O   0  0  0  0  0  0  0  0  0  0  0  0
   23.0809   -4.4124   12.9033 C   0  0  2  0  0  0  0  0  0  0  0  0
   22.1987   -3.2547   13.2071 N   0  0  0  0  0  0  0  0  0  0  0  0
   20.1491   -1.9556   10.9378 C   0  0  1  0  0  0  0  0  0  0  0  0
   20.6594   -0.6146   10.7971 O   0  0  0  0  0  0  0  0  0  0  0  0
   21.8484   -6.8029   23.0454 C   0  0  0  0  0  0  0  0  0  0  0  0
   26.7422   -6.8897   21.6494 C   0  0  2  0  0  0  0  0  0  0  0  0
   26.6190   -7.5821   22.9364 N   0  0  0  0  0  0  0  0  0  0  0  0
   22.1137   -5.8111   16.1836 C   0  0  2  0  0  0  0  0  0  0  0  0
   22.7494   -5.1009   15.1511 O   0  0  0  0  0  0  0  0  0  0  0  0
   23.0398   -4.9112   11.3918 C   0  0  1  0  0  0  0  0  0  0  0  0
   23.8810   -6.0619   11.2613 O   0  0  0  0  0  0  0  0  0  0  0  0
   18.6597   -1.9283   10.6167 C   0  0  1  0  0  0  0  0  0  0  0  0
   18.0902   -0.8327   11.3417 O   0  0  0  0  0  0  0  0  0  0  0  0
   21.2949   -8.1623   22.5245 C   0  0  2  0  0  0  0  0  0  0  0  0
   20.9285   -9.0238   23.5875 O   0  0  0  0  0  0  0  0  0  0  0  0
   25.5320   -7.2229   20.7387 C   0  0  2  0  0  0  0  0  0  0  0  0
   22.0838   -4.8133   17.3597 C   0  0  2  0  0  0  0  0  0  0  0  0
   23.3449   -5.0387   17.9695 O   0  0  0  0  0  0  0  0  0  0  0  0
   21.5869   -5.3896   10.9800 C   0  0  2  0  0  0  0  0  0  0  0  0
   20.7848   -4.2127   11.0887 O   0  0  0  0  0  0  0  0  0  0  0  0
   18.3530   -1.7644    9.1270 C   0  0  2  0  0  0  0  0  0  0  0  0
   16.9597   -2.0690    8.9523 O   0  0  0  0  0  0  0  0  0  0  0  0
   22.3666   -8.8075   21.6111 C   0  0  2  0  0  0  0  0  0  0  0  0
   22.5819   -7.9023   20.4907 O   0  0  0  0  0  0  0  0  0  0  0  0
   25.6238   -6.6112   19.3040 C   0  0  2  0  0  0  0  0  0  0  0  0
   24.4814   -7.0468   18.5157 O   0  0  0  0  0  0  0  0  0  0  0  0
   20.9780   -5.0143   18.3953 C   0  0  0  0  0  0  0  0  0  0  0  0
   21.1107   -3.9755   19.3766 O   0  0  0  0  0  0  0  0  0  0  0  0
   21.1238   -6.3035   12.0982 C   0  0  1  0  0  0  0  0  0  0  0  0
   21.4233   -6.2667   13.5102 O   0  0  0  0  0  0  0  0  0  0  0  0
   19.2912   -2.6042    8.2672 C   0  0  2  0  0  0  0  0  0  0  0  0
   20.6436   -2.8645    8.6735 O   0  0  0  0  0  0  0  0  0  0  0  0
   21.9242  -10.0997   21.0136 C   0  0  0  0  0  0  0  0  0  0  0  0
   23.0097  -10.6216   20.2859 O   0  0  0  0  0  0  0  0  0  0  0  0
   26.9928   -6.9680   18.6325 C   0  0  1  0  0  0  0  0  0  0  0  0
   27.0767   -6.2080   17.3978 O   0  0  0  0  0  0  0  0  0  0  0  0
   19.7457   -7.0051   11.8949 C   0  0  0  0  0  0  0  0  0  0  0  0
   18.7410   -6.6303   12.9122 N   0  0  0  0  0  0  0  0  0  0  0  0
   19.2241   -2.6298    6.7419 C   0  0  0  0  0  0  0  0  0  0  0  0
   20.0022   -3.7440    6.2302 O   0  0  0  0  0  0  0  0  0  0  0  0
  1  2  1  1  0  0  0
  1  8  1  0  0  0  0
  1 36  1  0  0  0  0
  3  4  1  6  0  0  0
  3 10  1  0  0  0  0
  3 47  1  0  0  0  0
  5 11  1  0  0  0  0
  5 30  1  0  0  0  0
  5 38  1  1  0  0  0
  6 21  1  1  0  0  0
  6 42  1  0  0  0  0
  7 15  1  0  0  0  0
  7 44  1  0  0  0  0
  7 32  1  1  0  0  0
  8  9  1  1  0  0  0
  8 17  1  0  0  0  0
 11 12  1  6  0  0  0
 11 20  1  0  0  0  0
 13  6  1  0  0  0  0
 13 14  1  6  0  0  0
 15 16  1  6  0  0  0
 15 24  1  0  0  0  0
 17 26  1  0  0  0  0
 18 10  1  0  0  0  0
 18 19  1  1  0  0  0
 20 21  1  6  0  0  0
 20 29  1  0  0  0  0
 22 13  1  0  0  0  0
 22 23  1  1  0  0  0
 24 25  1  1  0  0  0
 24 33  1  0  0  0  0
 26 27  1  1  0  0  0
 26 35  1  0  0  0  0
 28  2  1  1  0  0  0
 28 18  1  0  0  0  0
 29 30  1  0  0  0  0
 29 39  1  1  0  0  0
 31 22  1  0  0  0  0
 31 32  1  1  0  0  0
 31 41  1  0  0  0  0
 33 34  1  1  0  0  0
 33 43  1  0  0  0  0
 35 36  1  0  0  0  0
 35 45  1  6  0  0  0
 37 28  1  0  0  0  0
 37 38  1  6  0  0  0
 39 40  1  0  0  0  0
 41 42  1  0  0  0  0
 41 49  1  1  0  0  0
 43 44  1  0  0  0  0
 43 51  1  6  0  0  0
 45 46  1  0  0  0  0
 47 37  1  0  0  0  0
 47 48  1  6  0  0  0
 49 50  1  0  0  0  0
 51 52  1  0  0  0  0
M  END
>  <CHROM.1>
-172.36926769,170.41139497,161.01190536,-166.01869893,76.43160426,165.14513365
-178.77700816,66.86088844,-176.12564898,151.28756231,-117.98414287,-166.13893615
22.45744454,-5.55153863,15.89393403,1.21334724,-0.15074963,1.87499324

>  <Name>
2esj_lig

>  <RI>
2.18877e+07

>  <Rbt.Current_Directory>
/home/itssahil/PROJECTS/Mol_Feturizer/New_Systems/rnas/2esj

>  <Rbt.Executable>
rbdock ($Id: //depot/dev/client3/rdock/2013.1/src/exe/rbdock.cxx#4 $)

>  <Rbt.Library>
libRbt.so (2013.1, Build901 2013/11/27)

>  <Rbt.Parameter_File>
/export/apps/rDock/src/rDock_2013.1_src/data/scripts/dock_solv.prm

>  <Rbt.Receptor>
prm/pocket_docking_7.prm

>  <SCORE>
-15.2275

>  <SCORE.INTER>
-7.17826

>  <SCORE.INTER.CONST>
1

>  <SCORE.INTER.POLAR>
-1.61667

>  <SCORE.INTER.ROT>
12

>  <SCORE.INTER.SOLV>
15.0235

>  <SCORE.INTER.VDW>
-16.0045

>  <SCORE.INTER.norm>
-0.138043

>  <SCORE.INTRA>
-8.0492

>  <SCORE.INTRA.DIHEDRAL>
-18.3051

>  <SCORE.INTRA.DIHEDRAL.0>
32.9766

>  <SCORE.INTRA.POLAR>
0

>  <SCORE.INTRA.POLAR.0>
0

>  <SCORE.INTRA.REPUL>
0

>  <SCORE.INTRA.REPUL.0>
0

>  <SCORE.INTRA.SOLV>
-2.05698

>  <SCORE.INTRA.SOLV.lig_0>
-114.358

>  <SCORE.INTRA.VDW>
2.13186

>  <SCORE.INTRA.VDW.0>
-8.24257

>  <SCORE.INTRA.norm>
-0.154792

>  <SCORE.RESTR>
0

>  <SCORE.RESTR.CAVITY>
0

>  <SCORE.RESTR.norm>
0

>  <SCORE.SYSTEM>
0

>  <SCORE.SYSTEM.CONST>
0

>  <SCORE.SYSTEM.DIHEDRAL>
0

>  <SCORE.SYSTEM.SOLV>
0

>  <SCORE.SYSTEM.norm>
0

>  <SCORE.heavy>
52

>  <SCORE.norm>
-0.292836

>  <RMSD>
7.779

$$$$
2esj_lig
 OpenBabel11021811423D
libRbt.so/2013.1/901 2013/11/27
 52 56  0  0  0  0  0  0  0  0999 V2000
   20.9938  -10.3945   17.6786 C   0  0  2  0  0  0  0  0  0  0  0  0
   22.0350   -9.9996   18.5923 O   0  0  0  0  0  0  0  0  0  0  0  0
   22.2776   -7.1717   21.7910 C   0  0  2  0  0  0  0  0  0  0  0  0
   22.3828   -5.9470   22.6012 N   0  0  0  0  0  0  0  0  0  0  0  0
   19.3395   -7.4181   18.4489 C   0  0  1  0  0  0  0  0  0  0  0  0
   18.1534   -5.9083   15.0491 C   0  0  1  0  0  0  0  0  0  0  0  0
   19.5576   -2.4892   11.6399 C   0  0  1  0  0  0  0  0  0  0  0  0
   20.5795  -11.8511   18.0416 C   0  0  2  0  0  0  0  0  0  0  0  0
   20.1576  -11.9750   19.4366 N   0  0  0  0  0  0  0  0  0  0  0  0
   23.5009   -7.2785   20.7962 C   0  0  0  0  0  0  0  0  0  0  0  0
   18.1155   -7.7106   17.5801 C   0  0  2  0  0  0  0  0  0  0  0  0
   18.4576   -8.4130   16.3656 O   0  0  0  0  0  0  0  0  0  0  0  0
   19.4189   -5.2901   14.3024 C   0  0  2  0  0  0  0  0  0  0  0  0
   19.6771   -3.8967   14.7527 N   0  0  0  0  0  0  0  0  0  0  0  0
   19.5250   -1.2436   12.5179 C   0  0  1  0  0  0  0  0  0  0  0  0
   20.8482   -0.6749   12.5825 O   0  0  0  0  0  0  0  0  0  0  0  0
   21.7430  -12.8508   17.7489 C   0  0  0  0  0  0  0  0  0  0  0  0
   23.4020   -8.6280   19.9773 C   0  0  2  0  0  0  0  0  0  0  0  0
   24.5201   -8.7455   19.0355 N   0  0  0  0  0  0  0  0  0  0  0  0
   17.5956   -6.3192   17.3620 C   0  0  2  0  0  0  0  0  0  0  0  0
   18.3739   -5.6475   16.4041 O   0  0  0  0  0  0  0  0  0  0  0  0
   19.2287   -5.4651   12.7314 C   0  0  1  0  0  0  0  0  0  0  0  0
   18.9252   -6.8357   12.4519 O   0  0  0  0  0  0  0  0  0  0  0  0
   18.5651   -0.1511   12.0624 C   0  0  1  0  0  0  0  0  0  0  0  0
   18.8407    1.0110   12.8523 O   0  0  0  0  0  0  0  0  0  0  0  0
   22.1892  -12.6832   16.2661 C   0  0  2  0  0  0  0  0  0  0  0  0
   23.1932  -13.6165   15.9096 O   0  0  0  0  0  0  0  0  0  0  0  0
   22.0495   -8.7050   19.2224 C   0  0  2  0  0  0  0  0  0  0  0  0
   17.8735   -5.5538   18.6722 C   0  0  2  0  0  0  0  0  0  0  0  0
   19.0400   -6.2040   19.1514 O   0  0  0  0  0  0  0  0  0  0  0  0
   17.9897   -4.6320   12.2023 C   0  0  2  0  0  0  0  0  0  0  0  0
   18.3412   -3.2728   12.4657 O   0  0  0  0  0  0  0  0  0  0  0  0
   18.6920    0.2022   10.5795 C   0  0  2  0  0  0  0  0  0  0  0  0
   17.5413    0.9929   10.2395 O   0  0  0  0  0  0  0  0  0  0  0  0
   22.6685  -11.2244   16.0629 C   0  0  2  0  0  0  0  0  0  0  0  0
   21.5334  -10.3540   16.3365 O   0  0  0  0  0  0  0  0  0  0  0  0
   20.7970   -8.4870   20.1305 C   0  0  2  0  0  0  0  0  0  0  0  0
   19.5943   -8.5039   19.3123 O   0  0  0  0  0  0  0  0  0  0  0  0
   16.7838   -5.6167   19.7418 C   0  0  0  0  0  0  0  0  0  0  0  0
   17.2272   -4.8303   20.8575 O   0  0  0  0  0  0  0  0  0  0  0  0
   16.8482   -4.9487   13.1494 C   0  0  1  0  0  0  0  0  0  0  0  0
   16.8718   -5.2598   14.5591 O   0  0  0  0  0  0  0  0  0  0  0  0
   18.8720   -1.0447    9.7209 C   0  0  2  0  0  0  0  0  0  0  0  0
   19.5595   -2.2021   10.2205 O   0  0  0  0  0  0  0  0  0  0  0  0
   23.0777  -10.9338   14.6592 C   0  0  0  0  0  0  0  0  0  0  0  0
   23.4605   -9.5809   14.6029 O   0  0  0  0  0  0  0  0  0  0  0  0
   20.9389   -7.1723   20.9694 C   0  0  1  0  0  0  0  0  0  0  0  0
   19.8391   -7.1468   21.9176 O   0  0  0  0  0  0  0  0  0  0  0  0
   15.4605   -4.3315   12.7941 C   0  0  0  0  0  0  0  0  0  0  0  0
   14.9313   -4.7888   11.4920 N   0  0  0  0  0  0  0  0  0  0  0  0
   19.0350   -0.9949    8.2035 C   0  0  0  0  0  0  0  0  0  0  0  0
   20.3188   -0.4083    7.8619 O   0  0  0  0  0  0  0  0  0  0  0  0
  1  2  1  1  0  0  0
  1  8  1  0  0  0  0
  1 36  1  0  0  0  0
  3  4  1  6  0  0  0
  3 10  1  0  0  0  0
  3 47  1  0  0  0  0
  5 11  1  0  0  0  0
  5 30  1  0  0  0  0
  5 38  1  1  0  0  0
  6 21  1  1  0  0  0
  6 42  1  0  0  0  0
  7 15  1  0  0  0  0
  7 44  1  0  0  0  0
  7 32  1  6  0  0  0
  8  9  1  1  0  0  0
  8 17  1  0  0  0  0
 11 12  1  6  0  0  0
 11 20  1  0  0  0  0
 13  6  1  0  0  0  0
 13 14  1  6  0  0  0
 15 16  1  6  0  0  0
 15 24  1  0  0  0  0
 17 26  1  0  0  0  0
 18 10  1  0  0  0  0
 18 19  1  6  0  0  0
 20 21  1  6  0  0  0
 20 29  1  0  0  0  0
 22 13  1  0  0  0  0
 22 23  1  1  0  0  0
 24 25  1  1  0  0  0
 24 33  1  0  0  0  0
 26 27  1  1  0  0  0
 26 35  1  0  0  0  0
 28  2  1  1  0  0  0
 28 18  1  0  0  0  0
 29 30  1  0  0  0  0
 29 39  1  1  0  0  0
 31 22  1  0  0  0  0
 31 32  1  1  0  0  0
 31 41  1  0  0  0  0
 33 34  1  6  0  0  0
 33 43  1  0  0  0  0
 35 36  1  0  0  0  0
 35 45  1  6  0  0  0
 37 28  1  0  0  0  0
 37 38  1  6  0  0  0
 39 40  1  0  0  0  0
 41 42  1  0  0  0  0
 41 49  1  1  0  0  0
 43 44  1  0  0  0  0
 43 51  1  6  0  0  0
 45 46  1  0  0  0  0
 47 37  1  0  0  0  0
 47 48  1  1  0  0  0
 49 50  1  0  0  0  0
 51 52  1  0  0  0  0
M  END
>  <CHROM.1>
-136.05797362,173.85327859,-165.90886279,-172.36071837,79.65794593,-173.45059855
-179.08756591,69.22177869,178.75065649,-71.20518897,61.48581533,69.19813413
19.81854529,-6.17292968,15.73654441,-0.94944976,1.12004948,-1.34466398

>  <Name>
2esj_lig

>  <RI>
2.18877e+07

>  <Rbt.Current_Directory>
/home/itssahil/PROJECTS/Mol_Feturizer/New_Systems/rnas/2esj

>  <Rbt.Executable>
rbdock ($Id: //depot/dev/client3/rdock/2013.1/src/exe/rbdock.cxx#4 $)

>  <Rbt.Library>
libRbt.so (2013.1, Build901 2013/11/27)

>  <Rbt.Parameter_File>
/export/apps/rDock/src/rDock_2013.1_src/data/scripts/dock_solv.prm

>  <Rbt.Receptor>
prm/pocket_docking_7.prm

>  <SCORE>
-25.0638

>  <SCORE.INTER>
-17.3632

>  <SCORE.INTER.CONST>
1

>  <SCORE.INTER.POLAR>
-2.27821

>  <SCORE.INTER.ROT>
12

>  <SCORE.INTER.SOLV>
15.4271

>  <SCORE.INTER.VDW>
-20.7238

>  <SCORE.INTER.norm>
-0.333908

>  <SCORE.INTRA>
-7.7006

>  <SCORE.INTRA.DIHEDRAL>
-17.4934

>  <SCORE.INTRA.DIHEDRAL.0>
32.9766

>  <SCORE.INTRA.POLAR>
0

>  <SCORE.INTRA.POLAR.0>
0

>  <SCORE.INTRA.REPUL>
0

>  <SCORE.INTRA.REPUL.0>
0

>  <SCORE.INTRA.SOLV>
-2.52197

>  <SCORE.INTRA.SOLV.lig_0>
-114.358

>  <SCORE.INTRA.VDW>
2.3071

>  <SCORE.INTRA.VDW.0>
-8.24257

>  <SCORE.INTRA.norm>
-0.148088

>  <SCORE.RESTR>
0

>  <SCORE.RESTR.CAVITY>
0

>  <SCORE.RESTR.norm>
0

>  <SCORE.SYSTEM>
0

>  <SCORE.SYSTEM.CONST>
0

>  <SCORE.SYSTEM.DIHEDRAL>
0

>  <SCORE.SYSTEM.SOLV>
0

>  <SCORE.SYSTEM.norm>
0

>  <SCORE.heavy>
52

>  <SCORE.norm>
-0.481997

>  <RMSD>
7.882

$$$$
2esj_lig
 OpenBabel11021811423D
libRbt.so/2013.1/901 2013/11/27
 52 56  0  0  0  0  0  0  0  0999 V2000
   26.0270   -6.7822   17.9364 C   0  0  2  0  0  0  0  0  0  0  0  0
   25.3466   -8.0468   17.8236 O   0  0  0  0  0  0  0  0  0  0  0  0
   23.4076  -10.1743   14.6610 C   0  0  2  0  0  0  0  0  0  0  0  0
   22.4702  -10.6371   13.6244 N   0  0  0  0  0  0  0  0  0  0  0  0
   24.6081   -5.8505   15.0582 C   0  0  1  0  0  0  0  0  0  0  0  0
   22.5927   -2.1474   14.6685 C   0  0  1  0  0  0  0  0  0  0  0  0
   17.7101   -2.6526   12.8758 C   0  0  1  0  0  0  0  0  0  0  0  0
   27.0359   -6.8966   19.1170 C   0  0  2  0  0  0  0  0  0  0  0  0
   27.9720   -8.0063   18.9395 N   0  0  0  0  0  0  0  0  0  0  0  0
   22.6823  -10.0993   16.0631 C   0  0  0  0  0  0  0  0  0  0  0  0
   25.3669   -4.5364   14.8693 C   0  0  2  0  0  0  0  0  0  0  0  0
   25.7882   -3.9587   16.1240 O   0  0  0  0  0  0  0  0  0  0  0  0
   21.3357   -2.1767   15.6485 C   0  0  2  0  0  0  0  0  0  0  0  0
   20.6972   -3.5195   15.6589 N   0  0  0  0  0  0  0  0  0  0  0  0
   17.6077   -4.1284   13.2434 C   0  0  1  0  0  0  0  0  0  0  0  0
   16.2349   -4.5522   13.1235 O   0  0  0  0  0  0  0  0  0  0  0  0
   26.2857   -7.0486   20.4784 C   0  0  0  0  0  0  0  0  0  0  0  0
   23.7188   -9.6579   17.1732 C   0  0  2  0  0  0  0  0  0  0  0  0
   23.0669   -9.5673   18.4838 N   0  0  0  0  0  0  0  0  0  0  0  0
   24.3371   -3.7287   14.1337 C   0  0  2  0  0  0  0  0  0  0  0  0
   23.3466   -3.2706   15.0188 O   0  0  0  0  0  0  0  0  0  0  0  0
   20.3629   -0.9720   15.2778 C   0  0  1  0  0  0  0  0  0  0  0  0
   21.1215    0.2413   15.2432 O   0  0  0  0  0  0  0  0  0  0  0  0
   18.4654   -5.0690   12.4057 C   0  0  1  0  0  0  0  0  0  0  0  0
   18.0658   -6.4058   12.7273 O   0  0  0  0  0  0  0  0  0  0  0  0
   25.2798   -5.8696   20.6328 C   0  0  2  0  0  0  0  0  0  0  0  0
   24.6179   -5.9025   21.8846 O   0  0  0  0  0  0  0  0  0  0  0  0
   24.3683   -8.3005   16.7980 C   0  0  2  0  0  0  0  0  0  0  0  0
   23.5914   -4.7245   13.2217 C   0  0  2  0  0  0  0  0  0  0  0  0
   23.6846   -5.9303   13.9636 O   0  0  0  0  0  0  0  0  0  0  0  0
   19.7571   -1.1440   13.8243 C   0  0  2  0  0  0  0  0  0  0  0  0
   18.9822   -2.3412   13.9054 O   0  0  0  0  0  0  0  0  0  0  0  0
   18.3302   -4.8484   10.8980 C   0  0  2  0  0  0  0  0  0  0  0  0
   19.4048   -5.5692   10.2733 O   0  0  0  0  0  0  0  0  0  0  0  0
   24.2757   -5.9276   19.4550 C   0  0  2  0  0  0  0  0  0  0  0  0
   25.0402   -5.7643   18.2262 O   0  0  0  0  0  0  0  0  0  0  0  0
   25.0017   -8.2677   15.3702 C   0  0  2  0  0  0  0  0  0  0  0  0
   25.5113   -6.9332   15.0949 O   0  0  0  0  0  0  0  0  0  0  0  0
   24.1782   -4.9419   11.8274 C   0  0  0  0  0  0  0  0  0  0  0  0
   23.3931   -5.9545   11.1809 O   0  0  0  0  0  0  0  0  0  0  0  0
   20.9330   -1.4795   12.9271 C   0  0  1  0  0  0  0  0  0  0  0  0
   22.1448   -2.2079   13.2198 O   0  0  0  0  0  0  0  0  0  0  0  0
   18.2857   -3.3643   10.5517 C   0  0  2  0  0  0  0  0  0  0  0  0
   17.7046   -2.4056   11.4489 O   0  0  0  0  0  0  0  0  0  0  0  0
   23.2879   -4.8112   19.4734 C   0  0  0  0  0  0  0  0  0  0  0  0
   22.4261   -5.0284   20.5645 O   0  0  0  0  0  0  0  0  0  0  0  0
   23.9748   -8.7564   14.2936 C   0  0  1  0  0  0  0  0  0  0  0  0
   24.6948   -8.8807   13.0384 O   0  0  0  0  0  0  0  0  0  0  0  0
   20.6293   -1.6013   11.4021 C   0  0  0  0  0  0  0  0  0  0  0  0
   21.8343   -1.8463   10.5818 N   0  0  0  0  0  0  0  0  0  0  0  0
   18.1443   -2.8463    9.1223 C   0  0  0  0  0  0  0  0  0  0  0  0
   16.7598   -2.4987    8.8557 O   0  0  0  0  0  0  0  0  0  0  0  0
  1  2  1  1  0  0  0
  1  8  1  0  0  0  0
  1 36  1  0  0  0  0
  3  4  1  6  0  0  0
  3 10  1  0  0  0  0
  3 47  1  0  0  0  0
  5 11  1  0  0  0  0
  5 30  1  0  0  0  0
  5 38  1  6  0  0  0
  6 21  1  1  0  0  0
  6 42  1  0  0  0  0
  7 15  1  0  0  0  0
  7 44  1  0  0  0  0
  7 32  1  6  0  0  0
  8  9  1  6  0  0  0
  8 17  1  0  0  0  0
 11 12  1  1  0  0  0
 11 20  1  0  0  0  0
 13  6  1  0  0  0  0
 13 14  1  6  0  0  0
 15 16  1  6  0  0  0
 15 24  1  0  0  0  0
 17 26  1  0  0  0  0
 18 10  1  0  0  0  0
 18 19  1  1  0  0  0
 20 21  1  1  0  0  0
 20 29  1  0  0  0  0
 22 13  1  0  0  0  0
 22 23  1  6  0  0  0
 24 25  1  6  0  0  0
 24 33  1  0  0  0  0
 26 27  1  1  0  0  0
 26 35  1  0  0  0  0
 28  2  1  1  0  0  0
 28 18  1  0  0  0  0
 29 30  1  0  0  0  0
 29 39  1  6  0  0  0
 31 22  1  0  0  0  0
 31 32  1  1  0  0  0
 31 41  1  0  0  0  0
 33 34  1  6  0  0  0
 33 43  1  0  0  0  0
 35 36  1  0  0  0  0
 35 45  1  1  0  0  0
 37 28  1  0  0  0  0
 37 38  1  6  0  0  0
 39 40  1  0  0  0  0
 41 42  1  0  0  0  0
 41 49  1  6  0  0  0
 43 44  1  0  0  0  0
 43 51  1  6  0  0  0
 45 46  1  0  0  0  0
 47 37  1  0  0  0  0
 47 48  1  6  0  0  0
 49 50  1  0  0  0  0
 51 52  1  0  0  0  0
M  END
>  <CHROM.1>
-178.02389850,175.35884679,164.01173793,166.16145084,157.24742765,-170.67028867
176.47140714,155.97683541,-69.70857089,-62.41949629,176.41449277,98.49113129
22.31947973,-5.13154892,14.83434662,-0.00060933,-0.89484115,0.57517079

>  <Name>
2esj_lig

>  <RI>
0

>  <Rbt.Current_Directory>
/home/itssahil/PROJECTS/Mol_Feturizer/New_Systems/rnas/2esj

>  <Rbt.Executable>
rbdock ($Id: //depot/dev/client3/rdock/2013.1/src/exe/rbdock.cxx#4 $)

>  <Rbt.Library>
libRbt.so (2013.1, Build901 2013/11/27)

>  <Rbt.Parameter_File>
/export/apps/rDock/src/rDock_2013.1_src/data/scripts/dock_solv.prm

>  <Rbt.Receptor>
prm/pocket_docking_8.prm

>  <SCORE>
-13.0656

>  <SCORE.INTER>
-4.00457

>  <SCORE.INTER.CONST>
1

>  <SCORE.INTER.POLAR>
-0.716018

>  <SCORE.INTER.ROT>
12

>  <SCORE.INTER.SOLV>
14.8524

>  <SCORE.INTER.VDW>
-16.8338

>  <SCORE.INTER.norm>
-0.0770109

>  <SCORE.INTRA>
-9.06103

>  <SCORE.INTRA.DIHEDRAL>
-19.1691

>  <SCORE.INTRA.DIHEDRAL.0>
32.9766

>  <SCORE.INTRA.POLAR>
0

>  <SCORE.INTRA.POLAR.0>
0

>  <SCORE.INTRA.REPUL>
0.0209737

>  <SCORE.INTRA.REPUL.0>
0

>  <SCORE.INTRA.SOLV>
-0.993593

>  <SCORE.INTRA.SOLV.lig_0>
-114.358

>  <SCORE.INTRA.VDW>
0.915445

>  <SCORE.INTRA.VDW.0>
-8.24257

>  <SCORE.INTRA.norm>
-0.174251

>  <SCORE.RESTR>
0

>  <SCORE.RESTR.CAVITY>
0

>  <SCORE.RESTR.norm>
0

>  <SCORE.SYSTEM>
0

>  <SCORE.SYSTEM.CONST>
0

>  <SCORE.SYSTEM.DIHEDRAL>
0

>  <SCORE.SYSTEM.SOLV>
0

>  <SCORE.SYSTEM.norm>
0

>  <SCORE.heavy>
52

>  <SCORE.norm>
-0.251261

>  <RMSD>
7.902

$$$$
2esj_lig
 OpenBabel11021811423D
libRbt.so/2013.1/901 2013/11/27
 52 56  0  0  0  0  0  0  0  0999 V2000
   20.8284  -11.1751   14.9760 C   0  0  2  0  0  0  0  0  0  0  0  0
   20.9534  -10.5471   16.2663 O   0  0  0  0  0  0  0  0  0  0  0  0
   21.4945  -12.0410   20.2366 C   0  0  2  0  0  0  0  0  0  0  0  0
   21.9953  -12.7130   21.4469 N   0  0  0  0  0  0  0  0  0  0  0  0
   22.3937   -7.8690   17.7402 C   0  0  1  0  0  0  0  0  0  0  0  0
   21.3161   -3.8870   17.3926 C   0  0  1  0  0  0  0  0  0  0  0  0
   17.7983   -2.3737   14.0152 C   0  0  1  0  0  0  0  0  0  0  0  0
   22.2652  -11.5047   14.4741 C   0  0  2  0  0  0  0  0  0  0  0  0
   23.0033  -12.3417   15.4195 N   0  0  0  0  0  0  0  0  0  0  0  0
   21.3074  -13.0861   19.0660 C   0  0  0  0  0  0  0  0  0  0  0  0
   22.2178   -7.0783   19.0372 C   0  0  2  0  0  0  0  0  0  0  0  0
   20.9197   -7.2840   19.6357 O   0  0  0  0  0  0  0  0  0  0  0  0
   19.7733   -3.5026   17.2771 C   0  0  2  0  0  0  0  0  0  0  0  0
   19.0164   -4.5464   16.5365 N   0  0  0  0  0  0  0  0  0  0  0  0
   17.1790   -3.7327   14.3204 C   0  0  1  0  0  0  0  0  0  0  0  0
   15.8139   -3.5465   14.7450 O   0  0  0  0  0  0  0  0  0  0  0  0
   23.0682  -10.1967   14.1852 C   0  0  0  0  0  0  0  0  0  0  0  0
   20.7135  -12.3571   17.7942 C   0  0  2  0  0  0  0  0  0  0  0  0
   20.5426  -13.3037   16.6872 N   0  0  0  0  0  0  0  0  0  0  0  0
   22.4531   -5.6812   18.5404 C   0  0  2  0  0  0  0  0  0  0  0  0
   21.3232   -5.2063   17.8533 O   0  0  0  0  0  0  0  0  0  0  0  0
   19.6504   -2.0316   16.6802 C   0  0  1  0  0  0  0  0  0  0  0  0
   20.4755   -1.1501   17.4488 O   0  0  0  0  0  0  0  0  0  0  0  0
   17.1806   -4.7236   13.1626 C   0  0  1  0  0  0  0  0  0  0  0  0
   16.3621   -5.8319   13.5527 O   0  0  0  0  0  0  0  0  0  0  0  0
   22.2519   -9.3134   13.1957 C   0  0  2  0  0  0  0  0  0  0  0  0
   22.9589   -8.1421   12.8290 O   0  0  0  0  0  0  0  0  0  0  0  0
   21.6323  -11.1839   17.3648 C   0  0  2  0  0  0  0  0  0  0  0  0
   23.5339   -5.7983   17.4459 C   0  0  2  0  0  0  0  0  0  0  0  0
   23.2910   -7.0974   16.9297 O   0  0  0  0  0  0  0  0  0  0  0  0
   20.2056   -1.9604   15.1984 C   0  0  2  0  0  0  0  0  0  0  0  0
   19.3408   -2.8220   14.4567 O   0  0  0  0  0  0  0  0  0  0  0  0
   16.6522   -4.1401   11.8510 C   0  0  2  0  0  0  0  0  0  0  0  0
   17.0043   -5.0669   10.8108 O   0  0  0  0  0  0  0  0  0  0  0  0
   20.8905   -8.9757   13.8526 C   0  0  2  0  0  0  0  0  0  0  0  0
   20.1943  -10.2349   14.0772 O   0  0  0  0  0  0  0  0  0  0  0  0
   21.9571  -10.1733   18.5112 C   0  0  2  0  0  0  0  0  0  0  0  0
   22.8813   -9.1624   18.0208 O   0  0  0  0  0  0  0  0  0  0  0  0
   24.9867   -5.7020   17.9103 C   0  0  0  0  0  0  0  0  0  0  0  0
   25.1502   -4.4318   18.5581 O   0  0  0  0  0  0  0  0  0  0  0  0
   21.5502   -2.6613   15.2302 C   0  0  1  0  0  0  0  0  0  0  0  0
   22.0017   -3.7650   16.0443 O   0  0  0  0  0  0  0  0  0  0  0  0
   17.1612   -2.7208   11.6251 C   0  0  2  0  0  0  0  0  0  0  0  0
   17.4166   -1.8353   12.7262 O   0  0  0  0  0  0  0  0  0  0  0  0
   20.0004   -8.1679   12.9708 C   0  0  0  0  0  0  0  0  0  0  0  0
   20.6167   -6.9172   12.7811 O   0  0  0  0  0  0  0  0  0  0  0  0
   22.4956  -10.9211   19.7773 C   0  0  1  0  0  0  0  0  0  0  0  0
   22.5856   -9.9436   20.8477 O   0  0  0  0  0  0  0  0  0  0  0  0
   22.3726   -2.6449   13.9050 C   0  0  0  0  0  0  0  0  0  0  0  0
   23.2514   -1.4636   13.7748 N   0  0  0  0  0  0  0  0  0  0  0  0
   16.7875   -1.8867   10.4019 C   0  0  0  0  0  0  0  0  0  0  0  0
   15.3463   -1.8859   10.2238 O   0  0  0  0  0  0  0  0  0  0  0  0
  1  2  1  1  0  0  0
  1  8  1  0  0  0  0
  1 36  1  0  0  0  0
  3  4  1  1  0  0  0
  3 10  1  0  0  0  0
  3 47  1  0  0  0  0
  5 11  1  0  0  0  0
  5 30  1  0  0  0  0
  5 38  1  1  0  0  0
  6 21  1  6  0  0  0
  6 42  1  0  0  0  0
  7 15  1  0  0  0  0
  7 44  1  0  0  0  0
  7 32  1  6  0  0  0
  8  9  1  1  0  0  0
  8 17  1  0  0  0  0
 11 12  1  6  0  0  0
 11 20  1  0  0  0  0
 13  6  1  0  0  0  0
 13 14  1  6  0  0  0
 15 16  1  6  0  0  0
 15 24  1  0  0  0  0
 17 26  1  0  0  0  0
 18 10  1  0  0  0  0
 18 19  1  6  0  0  0
 20 21  1  6  0  0  0
 20 29  1  0  0  0  0
 22 13  1  0  0  0  0
 22 23  1  1  0  0  0
 24 25  1  1  0  0  0
 24 33  1  0  0  0  0
 26 27  1  1  0  0  0
 26 35  1  0  0  0  0
 28  2  1  6  0  0  0
 28 18  1  0  0  0  0
 29 30  1  0  0  0  0
 29 39  1  1  0  0  0
 31 22  1  0  0  0  0
 31 32  1  6  0  0  0
 31 41  1  0  0  0  0
 33 34  1  6  0  0  0
 33 43  1  0  0  0  0
 35 36  1  0  0  0  0
 35 45  1  6  0  0  0
 37 28  1  0  0  0  0
 37 38  1  6  0  0  0
 39 40  1  0  0  0  0
 41 42  1  0  0  0  0
 41 49  1  6  0  0  0
 43 44  1  0  0  0  0
 43 51  1  6  0  0  0
 45 46  1  0  0  0  0
 47 37  1  0  0  0  0
 47 48  1  1  0  0  0
 49 50  1  0  0  0  0
 51 52  1  0  0  0  0
M  END
>  <CHROM.1>
-56.76895394,78.26812932,-155.74536455,-139.02245691,175.71970844,-70.33031331
-58.82527306,76.09732453,-65.36174920,104.98966561,88.56540639,50.70399793
20.64733248,-6.62393929,15.73991884,0.86203777,0.91621929,-3.09426593

>  <Name>
2esj_lig

>  <RI>
0

>  <Rbt.Current_Directory>
/home/itssahil/PROJECTS/Mol_Feturizer/New_Systems/rnas/2esj

>  <Rbt.Executable>
rbdock ($Id: //depot/dev/client3/rdock/2013.1/src/exe/rbdock.cxx#4 $)

>  <Rbt.Library>
libRbt.so (2013.1, Build901 2013/11/27)

>  <Rbt.Parameter_File>
/export/apps/rDock/src/rDock_2013.1_src/data/scripts/dock_solv.prm

>  <Rbt.Receptor>
prm/pocket_docking_8.prm

>  <SCORE>
-7.57305

>  <SCORE.INTER>
-6.84274

>  <SCORE.INTER.CONST>
1

>  <SCORE.INTER.POLAR>
-1.44336

>  <SCORE.INTER.ROT>
12

>  <SCORE.INTER.SOLV>
9.25426

>  <SCORE.INTER.VDW>
-14.4354

>  <SCORE.INTER.norm>
-0.131591

>  <SCORE.INTRA>
-0.730307

>  <SCORE.INTRA.DIHEDRAL>
-10.3819

>  <SCORE.INTRA.DIHEDRAL.0>
32.9766

>  <SCORE.INTRA.POLAR>
0

>  <SCORE.INTRA.POLAR.0>
0

>  <SCORE.INTRA.REPUL>
0

>  <SCORE.INTRA.REPUL.0>
0

>  <SCORE.INTRA.SOLV>
2.42714

>  <SCORE.INTRA.SOLV.lig_0>
-114.358

>  <SCORE.INTRA.VDW>
3.24705

>  <SCORE.INTRA.VDW.0>
-8.24257

>  <SCORE.INTRA.norm>
-0.0140444

>  <SCORE.RESTR>
0

>  <SCORE.RESTR.CAVITY>
0

>  <SCORE.RESTR.norm>
0

>  <SCORE.SYSTEM>
0

>  <SCORE.SYSTEM.CONST>
0

>  <SCORE.SYSTEM.DIHEDRAL>
0

>  <SCORE.SYSTEM.SOLV>
0

>  <SCORE.SYSTEM.norm>
0

>  <SCORE.heavy>
52

>  <SCORE.norm>
-0.145635

>  <RMSD>
7.919

$$$$
2esj_lig
 OpenBabel11021811423D
libRbt.so/2013.1/901 2013/11/27
 52 56  0  0  0  0  0  0  0  0999 V2000
   22.3141  -11.8733   15.6746 C   0  0  2  0  0  0  0  0  0  0  0  0
   21.8451  -11.3442   16.9295 O   0  0  0  0  0  0  0  0  0  0  0  0
   23.5388   -8.4537   19.5875 C   0  0  2  0  0  0  0  0  0  0  0  0
   24.0658   -7.2242   20.2023 N   0  0  0  0  0  0  0  0  0  0  0  0
   19.5228   -8.2716   17.8506 C   0  0  1  0  0  0  0  0  0  0  0  0
   18.2659   -6.0742   15.0128 C   0  0  1  0  0  0  0  0  0  0  0  0
   19.1383   -1.6611   13.0518 C   0  0  1  0  0  0  0  0  0  0  0  0
   21.0657  -12.3233   14.8598 C   0  0  2  0  0  0  0  0  0  0  0  0
   20.1074  -11.2349   14.6693 N   0  0  0  0  0  0  0  0  0  0  0  0
   24.3025   -8.7642   18.2392 C   0  0  0  0  0  0  0  0  0  0  0  0
   18.4374   -8.5086   16.7997 C   0  0  2  0  0  0  0  0  0  0  0  0
   18.9809   -8.6508   15.4694 O   0  0  0  0  0  0  0  0  0  0  0  0
   19.3718   -4.9650   14.7161 C   0  0  2  0  0  0  0  0  0  0  0  0
   19.1310   -3.7405   15.5245 N   0  0  0  0  0  0  0  0  0  0  0  0
   18.1279   -0.5224   12.9757 C   0  0  1  0  0  0  0  0  0  0  0  0
   18.7134    0.6688   13.5384 O   0  0  0  0  0  0  0  0  0  0  0  0
   20.3605  -13.5365   15.5454 C   0  0  0  0  0  0  0  0  0  0  0  0
   23.7641  -10.1185   17.6246 C   0  0  2  0  0  0  0  0  0  0  0  0
   24.4482  -10.4232   16.3637 N   0  0  0  0  0  0  0  0  0  0  0  0
   17.5955   -7.2807   16.9937 C   0  0  2  0  0  0  0  0  0  0  0  0
   18.2123   -6.1632   16.4063 O   0  0  0  0  0  0  0  0  0  0  0  0
   19.4570   -4.7273   13.1441 C   0  0  1  0  0  0  0  0  0  0  0  0
   19.6251   -5.9912   12.4935 O   0  0  0  0  0  0  0  0  0  0  0  0
   17.6307   -0.1857   11.5750 C   0  0  1  0  0  0  0  0  0  0  0  0
   16.8909    1.0365   11.6707 O   0  0  0  0  0  0  0  0  0  0  0  0
   21.4056  -14.6715   15.7580 C   0  0  2  0  0  0  0  0  0  0  0  0
   20.8146  -15.8355   16.3075 O   0  0  0  0  0  0  0  0  0  0  0  0
   22.2313  -10.0402   17.4024 C   0  0  2  0  0  0  0  0  0  0  0  0
   17.6337   -6.9766   18.5056 C   0  0  2  0  0  0  0  0  0  0  0  0
   18.9095   -7.4760   18.8744 O   0  0  0  0  0  0  0  0  0  0  0  0
   18.1062   -4.1257   12.5760 C   0  0  2  0  0  0  0  0  0  0  0  0
   17.9890   -2.8554   13.2187 O   0  0  0  0  0  0  0  0  0  0  0  0
   18.7507   -0.0211   10.5462 C   0  0  2  0  0  0  0  0  0  0  0  0
   18.1299   -0.0228    9.2504 O   0  0  0  0  0  0  0  0  0  0  0  0
   22.5400  -14.1270   16.6613 C   0  0  2  0  0  0  0  0  0  0  0  0
   23.1591  -13.0142   15.9548 O   0  0  0  0  0  0  0  0  0  0  0  0
   21.4220   -9.6190   18.6706 C   0  0  2  0  0  0  0  0  0  0  0  0
   20.0119   -9.5039   18.3316 O   0  0  0  0  0  0  0  0  0  0  0  0
   16.5608   -7.6475   19.3625 C   0  0  0  0  0  0  0  0  0  0  0  0
   15.2829   -7.2657   18.8325 O   0  0  0  0  0  0  0  0  0  0  0  0
   16.9986   -4.9817   13.1597 C   0  0  1  0  0  0  0  0  0  0  0  0
   16.9259   -5.6650   14.4295 O   0  0  0  0  0  0  0  0  0  0  0  0
   19.8337   -1.0794   10.7243 C   0  0  2  0  0  0  0  0  0  0  0  0
   20.1529   -1.6101   12.0197 O   0  0  0  0  0  0  0  0  0  0  0  0
   23.6280  -15.1190   16.8951 C   0  0  0  0  0  0  0  0  0  0  0  0
   23.0915  -16.1564   17.6801 O   0  0  0  0  0  0  0  0  0  0  0  0
   22.0034   -8.3042   19.2916 C   0  0  1  0  0  0  0  0  0  0  0  0
   21.3281   -8.0929   20.5599 O   0  0  0  0  0  0  0  0  0  0  0  0
   15.5500   -4.6672   12.6746 C   0  0  0  0  0  0  0  0  0  0  0  0
   15.4888   -4.2027   11.2727 N   0  0  0  0  0  0  0  0  0  0  0  0
   21.0791   -1.1531    9.8439 C   0  0  0  0  0  0  0  0  0  0  0  0
   20.6960   -1.3715    8.4604 O   0  0  0  0  0  0  0  0  0  0  0  0
  1  2  1  1  0  0  0
  1  8  1  0  0  0  0
  1 36  1  0  0  0  0
  3  4  1  6  0  0  0
  3 10  1  0  0  0  0
  3 47  1  0  0  0  0
  5 11  1  0  0  0  0
  5 30  1  0  0  0  0
  5 38  1  1  0  0  0
  6 21  1  1  0  0  0
  6 42  1  0  0  0  0
  7 15  1  0  0  0  0
  7 44  1  0  0  0  0
  7 32  1  6  0  0  0
  8  9  1  1  0  0  0
  8 17  1  0  0  0  0
 11 12  1  6  0  0  0
 11 20  1  0  0  0  0
 13  6  1  0  0  0  0
 13 14  1  1  0  0  0
 15 16  1  6  0  0  0
 15 24  1  0  0  0  0
 17 26  1  0  0  0  0
 18 10  1  0  0  0  0
 18 19  1  6  0  0  0
 20 21  1  6  0  0  0
 20 29  1  0  0  0  0
 22 13  1  0  0  0  0
 22 23  1  6  0  0  0
 24 25  1  1  0  0  0
 24 33  1  0  0  0  0
 26 27  1  1  0  0  0
 26 35  1  0  0  0  0
 28  2  1  1  0  0  0
 28 18  1  0  0  0  0
 29 30  1  0  0  0  0
 29 39  1  1  0  0  0
 31 22  1  0  0  0  0
 31 32  1  1  0  0  0
 31 41  1  0  0  0  0
 33 34  1  6  0  0  0
 33 43  1  0  0  0  0
 35 36  1  0  0  0  0
 35 45  1  6  0  0  0
 37 28  1  0  0  0  0
 37 38  1  6  0  0  0
 39 40  1  0  0  0  0
 41 42  1  0  0  0  0
 41 49  1  1  0  0  0
 43 44  1  0  0  0  0
 43 51  1  1  0  0  0
 45 46  1  0  0  0  0
 47 37  1  0  0  0  0
 47 48  1  1  0  0  0
 49 50  1  0  0  0  0
 51 52  1  0  0  0  0
M  END
>  <CHROM.1>
-127.22349599,144.52361828,-163.66092350,140.75932925,70.91306455,-64.05767263
-56.93209979,59.75950629,-67.86859170,-88.35825366,33.10789977,-61.11642942
19.87503019,-7.02166165,15.25820588,-1.03757421,0.97320636,-0.93566082

>  <Name>
2esj_lig

>  <RI>
0

>  <Rbt.Current_Directory>
/home/itssahil/PROJECTS/Mol_Feturizer/New_Systems/rnas/2esj

>  <Rbt.Executable>
rbdock ($Id: //depot/dev/client3/rdock/2013.1/src/exe/rbdock.cxx#4 $)

>  <Rbt.Library>
libRbt.so (2013.1, Build901 2013/11/27)

>  <Rbt.Parameter_File>
/export/apps/rDock/src/rDock_2013.1_src/data/scripts/dock_solv.prm

>  <Rbt.Receptor>
prm/pocket_docking_8.prm

>  <SCORE>
-21.105

>  <SCORE.INTER>
-22.7166

>  <SCORE.INTER.CONST>
1

>  <SCORE.INTER.POLAR>
-2.82969

>  <SCORE.INTER.ROT>
12

>  <SCORE.INTER.SOLV>
13.2297

>  <SCORE.INTER.VDW>
-21.722

>  <SCORE.INTER.norm>
-0.436857

>  <SCORE.INTRA>
1.61157

>  <SCORE.INTRA.DIHEDRAL>
-5.56759

>  <SCORE.INTRA.DIHEDRAL.0>
32.9766

>  <SCORE.INTRA.POLAR>
0

>  <SCORE.INTRA.POLAR.0>
0

>  <SCORE.INTRA.REPUL>
0

>  <SCORE.INTRA.REPUL.0>
0

>  <SCORE.INTRA.SOLV>
0.556661

>  <SCORE.INTRA.SOLV.lig_0>
-114.358

>  <SCORE.INTRA.VDW>
4.11703

>  <SCORE.INTRA.VDW.0>
-8.24257

>  <SCORE.INTRA.norm>
0.0309917

>  <SCORE.RESTR>
0

>  <SCORE.RESTR.CAVITY>
0

>  <SCORE.RESTR.norm>
0

>  <SCORE.SYSTEM>
0

>  <SCORE.SYSTEM.CONST>
0

>  <SCORE.SYSTEM.DIHEDRAL>
0

>  <SCORE.SYSTEM.SOLV>
0

>  <SCORE.SYSTEM.norm>
0

>  <SCORE.heavy>
52

>  <SCORE.norm>
-0.405866

>  <RMSD>
8.202

$$$$
2esj_lig
 OpenBabel11021811423D
libRbt.so/2013.1/901 2013/11/27
 52 56  0  0  0  0  0  0  0  0999 V2000
   20.9983  -10.5584   19.1813 C   0  0  2  0  0  0  0  0  0  0  0  0
   22.1678   -9.9651   19.7772 O   0  0  0  0  0  0  0  0  0  0  0  0
   22.9367   -6.1085   21.4576 C   0  0  2  0  0  0  0  0  0  0  0  0
   23.2394   -4.6829   21.6657 N   0  0  0  0  0  0  0  0  0  0  0  0
   19.9085   -7.5527   18.4289 C   0  0  1  0  0  0  0  0  0  0  0  0
   19.3225   -5.9554   14.7167 C   0  0  1  0  0  0  0  0  0  0  0  0
   15.4833   -4.7666   11.8886 C   0  0  1  0  0  0  0  0  0  0  0  0
   20.6422  -11.8273   20.0108 C   0  0  2  0  0  0  0  0  0  0  0  0
   20.4390  -11.5237   21.4270 N   0  0  0  0  0  0  0  0  0  0  0  0
   24.0823   -6.7955   20.6132 C   0  0  0  0  0  0  0  0  0  0  0  0
   18.4514   -7.4965   17.9682 C   0  0  2  0  0  0  0  0  0  0  0  0
   17.9928   -8.7586   17.4371 O   0  0  0  0  0  0  0  0  0  0  0  0
   17.9770   -5.1057   14.6224 C   0  0  2  0  0  0  0  0  0  0  0  0
   16.7850   -5.9939   14.5917 N   0  0  0  0  0  0  0  0  0  0  0  0
   15.6282   -4.2704   10.4546 C   0  0  1  0  0  0  0  0  0  0  0  0
   14.3222   -4.1795    9.8507 O   0  0  0  0  0  0  0  0  0  0  0  0
   21.7456  -12.9217   19.8563 C   0  0  0  0  0  0  0  0  0  0  0  0
   23.7694   -8.3374   20.4507 C   0  0  2  0  0  0  0  0  0  0  0  0
   24.8122   -8.9968   19.6581 N   0  0  0  0  0  0  0  0  0  0  0  0
   18.5271   -6.3919   16.9542 C   0  0  2  0  0  0  0  0  0  0  0  0
   19.1039   -6.8581   15.7607 O   0  0  0  0  0  0  0  0  0  0  0  0
   18.0912   -4.0905   13.4012 C   0  0  1  0  0  0  0  0  0  0  0  0
   19.3099   -3.3505   13.5271 O   0  0  0  0  0  0  0  0  0  0  0  0
   16.3132   -2.9179   10.2998 C   0  0  1  0  0  0  0  0  0  0  0  0
   16.1475   -2.5130    8.9365 O   0  0  0  0  0  0  0  0  0  0  0  0
   21.9595  -13.2101   18.3408 C   0  0  2  0  0  0  0  0  0  0  0  0
   22.8956  -14.2520   18.1299 O   0  0  0  0  0  0  0  0  0  0  0  0
   22.3803   -8.5411   19.7921 C   0  0  2  0  0  0  0  0  0  0  0  0
   19.5614   -5.3864   17.5009 C   0  0  2  0  0  0  0  0  0  0  0  0
   20.4302   -6.2300   18.2402 O   0  0  0  0  0  0  0  0  0  0  0  0
   18.1927   -4.8576   12.0189 C   0  0  2  0  0  0  0  0  0  0  0  0
   16.9508   -5.5549   11.9114 O   0  0  0  0  0  0  0  0  0  0  0  0
   15.7530   -1.8339   11.2223 C   0  0  2  0  0  0  0  0  0  0  0  0
   16.6823   -0.7384   11.1903 O   0  0  0  0  0  0  0  0  0  0  0  0
   22.4042  -11.8958   17.6523 C   0  0  2  0  0  0  0  0  0  0  0  0
   21.3258  -10.9320   17.8223 O   0  0  0  0  0  0  0  0  0  0  0  0
   21.2153   -7.7874   20.5102 C   0  0  2  0  0  0  0  0  0  0  0  0
   19.9788   -7.9849   19.7696 O   0  0  0  0  0  0  0  0  0  0  0  0
   19.0242   -4.2867   18.4162 C   0  0  0  0  0  0  0  0  0  0  0  0
   18.3134   -4.9247   19.4874 O   0  0  0  0  0  0  0  0  0  0  0  0
   19.2462   -5.9297   12.2214 C   0  0  1  0  0  0  0  0  0  0  0  0
   19.5961   -6.6737   13.4082 O   0  0  0  0  0  0  0  0  0  0  0  0
   15.4725   -2.3779   12.6187 C   0  0  2  0  0  0  0  0  0  0  0  0
   15.0667   -3.7402   12.8214 O   0  0  0  0  0  0  0  0  0  0  0  0
   22.5938  -12.0420   16.1809 C   0  0  0  0  0  0  0  0  0  0  0  0
   23.6122  -12.9920   15.9790 O   0  0  0  0  0  0  0  0  0  0  0  0
   21.5674   -6.2742   20.7059 C   0  0  1  0  0  0  0  0  0  0  0  0
   20.5312   -5.6968   21.5439 O   0  0  0  0  0  0  0  0  0  0  0  0
   19.6233   -6.7772   10.9675 C   0  0  0  0  0  0  0  0  0  0  0  0
   21.0348   -7.2159   10.9590 N   0  0  0  0  0  0  0  0  0  0  0  0
   14.8988   -1.5227   13.7461 C   0  0  0  0  0  0  0  0  0  0  0  0
   14.9969   -0.1157   13.4003 O   0  0  0  0  0  0  0  0  0  0  0  0
  1  2  1  1  0  0  0
  1  8  1  0  0  0  0
  1 36  1  0  0  0  0
  3  4  1  6  0  0  0
  3 10  1  0  0  0  0
  3 47  1  0  0  0  0
  5 11  1  0  0  0  0
  5 30  1  0  0  0  0
  5 38  1  1  0  0  0
  6 21  1  1  0  0  0
  6 42  1  0  0  0  0
  7 15  1  0  0  0  0
  7 44  1  0  0  0  0
  7 32  1  1  0  0  0
  8  9  1  1  0  0  0
  8 17  1  0  0  0  0
 11 12  1  6  0  0  0
 11 20  1  0  0  0  0
 13  6  1  0  0  0  0
 13 14  1  6  0  0  0
 15 16  1  1  0  0  0
 15 24  1  0  0  0  0
 17 26  1  0  0  0  0
 18 10  1  0  0  0  0
 18 19  1  6  0  0  0
 20 21  1  6  0  0  0
 20 29  1  0  0  0  0
 22 13  1  0  0  0  0
 22 23  1  1  0  0  0
 24 25  1  6  0  0  0
 24 33  1  0  0  0  0
 26 27  1  1  0  0  0
 26 35  1  0  0  0  0
 28  2  1  1  0  0  0
 28 18  1  0  0  0  0
 29 30  1  0  0  0  0
 29 39  1  1  0  0  0
 31 22  1  0  0  0  0
 31 32  1  1  0  0  0
 31 41  1  0  0  0  0
 33 34  1  1  0  0  0
 33 43  1  0  0  0  0
 35 36  1  0  0  0  0
 35 45  1  6  0  0  0
 37 28  1  0  0  0  0
 37 38  1  6  0  0  0
 39 40  1  0  0  0  0
 41 42  1  0  0  0  0
 41 49  1  6  0  0  0
 43 44  1  0  0  0  0
 43 51  1  6  0  0  0
 45 46  1  0  0  0  0
 47 37  1  0  0  0  0
 47 48  1  1  0  0  0
 49 50  1  0  0  0  0
 51 52  1  0  0  0  0
M  END
>  <CHROM.1>
-146.57537073,-164.46161853,-45.05694176,75.17095535,-176.77166134,-177.15755305
54.84442424,60.27766172,-61.49499606,-59.85537160,147.82029121,-14.54240548
19.46325156,-6.74931233,16.11153824,-0.13462208,1.05431930,-2.27202878

>  <Name>
2esj_lig

>  <RI>
2.18877e+07

>  <Rbt.Current_Directory>
/home/itssahil/PROJECTS/Mol_Feturizer/New_Systems/rnas/2esj

>  <Rbt.Executable>
rbdock ($Id: //depot/dev/client3/rdock/2013.1/src/exe/rbdock.cxx#4 $)

>  <Rbt.Library>
libRbt.so (2013.1, Build901 2013/11/27)

>  <Rbt.Parameter_File>
/export/apps/rDock/src/rDock_2013.1_src/data/scripts/dock_solv.prm

>  <Rbt.Receptor>
prm/pocket_docking_7.prm

>  <SCORE>
-16.5735

>  <SCORE.INTER>
-12.1014

>  <SCORE.INTER.CONST>
1

>  <SCORE.INTER.POLAR>
-2.37595

>  <SCORE.INTER.ROT>
12

>  <SCORE.INTER.SOLV>
16.9312

>  <SCORE.INTER.VDW>
-17.3915

>  <SCORE.INTER.norm>
-0.232719

>  <SCORE.INTRA>
-4.52141

>  <SCORE.INTRA.DIHEDRAL>
-18.621

>  <SCORE.INTRA.DIHEDRAL.0>
32.9766

>  <SCORE.INTRA.POLAR>
0

>  <SCORE.INTRA.POLAR.0>
0

>  <SCORE.INTRA.REPUL>
0

>  <SCORE.INTRA.REPUL.0>
0

>  <SCORE.INTRA.SOLV>
-0.206999

>  <SCORE.INTRA.SOLV.lig_0>
-114.358

>  <SCORE.INTRA.VDW>
4.89257

>  <SCORE.INTRA.VDW.0>
-8.24257

>  <SCORE.INTRA.norm>
-0.0869501

>  <SCORE.RESTR>
0.0492543

>  <SCORE.RESTR.CAVITY>
0.0492543

>  <SCORE.RESTR.norm>
0.000947198

>  <SCORE.SYSTEM>
0

>  <SCORE.SYSTEM.CONST>
0

>  <SCORE.SYSTEM.DIHEDRAL>
0

>  <SCORE.SYSTEM.SOLV>
0

>  <SCORE.SYSTEM.norm>
0

>  <SCORE.heavy>
52

>  <SCORE.norm>
-0.318722

>  <RMSD>
8.663

$$$$
2esj_lig
 OpenBabel11021811423D
libRbt.so/2013.1/901 2013/11/27
 52 56  0  0  0  0  0  0  0  0999 V2000
   24.3256   -2.7862   20.0789 C   0  0  2  0  0  0  0  0  0  0  0  0
   23.5608   -3.3966   19.0218 O   0  0  0  0  0  0  0  0  0  0  0  0
   21.2167   -6.1520   21.3024 C   0  0  2  0  0  0  0  0  0  0  0  0
   20.2774   -7.1980   21.7393 N   0  0  0  0  0  0  0  0  0  0  0  0
   24.1992   -6.3756   17.7667 C   0  0  1  0  0  0  0  0  0  0  0  0
   23.9897   -7.3304   13.7011 C   0  0  1  0  0  0  0  0  0  0  0  0
   19.0772   -6.7294   11.6752 C   0  0  1  0  0  0  0  0  0  0  0  0
   24.9454   -1.4749   19.5118 C   0  0  2  0  0  0  0  0  0  0  0  0
   23.9292   -0.5677   18.9793 N   0  0  0  0  0  0  0  0  0  0  0  0
   20.4604   -5.0550   20.4527 C   0  0  0  0  0  0  0  0  0  0  0  0
   25.4684   -6.8397   17.0510 C   0  0  2  0  0  0  0  0  0  0  0  0
   26.2936   -5.7351   16.6218 O   0  0  0  0  0  0  0  0  0  0  0  0
   23.4338   -6.0956   12.8600 C   0  0  2  0  0  0  0  0  0  0  0  0
   22.4549   -5.3059   13.6531 N   0  0  0  0  0  0  0  0  0  0  0  0
   19.4111   -5.9630   10.4006 C   0  0  1  0  0  0  0  0  0  0  0  0
   18.4985   -6.3590    9.3571 O   0  0  0  0  0  0  0  0  0  0  0  0
   26.0045   -1.7908   18.4085 C   0  0  0  0  0  0  0  0  0  0  0  0
   21.4725   -3.9107   20.0430 C   0  0  2  0  0  0  0  0  0  0  0  0
   20.7976   -2.8850   19.2408 N   0  0  0  0  0  0  0  0  0  0  0  0
   24.8729   -7.6375   15.9271 C   0  0  2  0  0  0  0  0  0  0  0  0
   24.3725   -6.7843   14.9291 O   0  0  0  0  0  0  0  0  0  0  0  0
   22.8932   -6.6256   11.4593 C   0  0  1  0  0  0  0  0  0  0  0  0
   23.9121   -7.4174   10.8398 O   0  0  0  0  0  0  0  0  0  0  0  0
   19.3580   -4.4448   10.5209 C   0  0  1  0  0  0  0  0  0  0  0  0
   19.4616   -3.9112    9.1962 O   0  0  0  0  0  0  0  0  0  0  0  0
   27.0608   -2.7753   18.9923 C   0  0  2  0  0  0  0  0  0  0  0  0
   28.0977   -3.0453   18.0659 O   0  0  0  0  0  0  0  0  0  0  0  0
   22.6730   -4.5046   19.2613 C   0  0  2  0  0  0  0  0  0  0  0  0
   23.6130   -8.3115   16.5084 C   0  0  2  0  0  0  0  0  0  0  0  0
   23.2090   -7.3777   17.4973 O   0  0  0  0  0  0  0  0  0  0  0  0
   21.6508   -7.5904   11.6464 C   0  0  2  0  0  0  0  0  0  0  0  0
   20.6466   -6.7612   12.2331 O   0  0  0  0  0  0  0  0  0  0  0  0
   18.0797   -3.9228   11.1792 C   0  0  2  0  0  0  0  0  0  0  0  0
   18.3111   -2.5419   11.5020 O   0  0  0  0  0  0  0  0  0  0  0  0
   26.3321   -4.0714   19.4263 C   0  0  2  0  0  0  0  0  0  0  0  0
   25.3765   -3.7042   20.4621 O   0  0  0  0  0  0  0  0  0  0  0  0
   23.3954   -5.6797   19.9948 C   0  0  2  0  0  0  0  0  0  0  0  0
   24.4508   -6.2083   19.1444 O   0  0  0  0  0  0  0  0  0  0  0  0
   23.8111   -9.6811   17.1569 C   0  0  0  0  0  0  0  0  0  0  0  0
   24.2436  -10.5867   16.1311 O   0  0  0  0  0  0  0  0  0  0  0  0
   22.0535   -8.5720   12.7302 C   0  0  1  0  0  0  0  0  0  0  0  0
   22.9158   -8.3888   13.8736 O   0  0  0  0  0  0  0  0  0  0  0  0
   17.6708   -4.7849   12.3683 C   0  0  2  0  0  0  0  0  0  0  0  0
   17.9403   -6.1950   12.3958 O   0  0  0  0  0  0  0  0  0  0  0  0
   27.2435   -5.0742   20.0478 C   0  0  0  0  0  0  0  0  0  0  0  0
   27.9144   -4.4353   21.1069 O   0  0  0  0  0  0  0  0  0  0  0  0
   22.3685   -6.7766   20.4360 C   0  0  1  0  0  0  0  0  0  0  0  0
   23.0847   -7.7245   21.2713 O   0  0  0  0  0  0  0  0  0  0  0  0
   21.0380   -9.7135   13.0443 C   0  0  0  0  0  0  0  0  0  0  0  0
   20.0398   -9.3446   14.0701 N   0  0  0  0  0  0  0  0  0  0  0  0
   16.4275   -4.5071   13.2102 C   0  0  0  0  0  0  0  0  0  0  0  0
   16.3232   -5.4857   14.2781 O   0  0  0  0  0  0  0  0  0  0  0  0
  1  2  1  6  0  0  0
  1  8  1  0  0  0  0
  1 36  1  0  0  0  0
  3  4  1  6  0  0  0
  3 10  1  0  0  0  0
  3 47  1  0  0  0  0
  5 11  1  0  0  0  0
  5 30  1  0  0  0  0
  5 38  1  1  0  0  0
  6 21  1  1  0  0  0
  6 42  1  0  0  0  0
  7 15  1  0  0  0  0
  7 44  1  0  0  0  0
  7 32  1  1  0  0  0
  8  9  1  6  0  0  0
  8 17  1  0  0  0  0
 11 12  1  6  0  0  0
 11 20  1  0  0  0  0
 13  6  1  0  0  0  0
 13 14  1  1  0  0  0
 15 16  1  6  0  0  0
 15 24  1  0  0  0  0
 17 26  1  0  0  0  0
 18 10  1  0  0  0  0
 18 19  1  6  0  0  0
 20 21  1  6  0  0  0
 20 29  1  0  0  0  0
 22 13  1  0  0  0  0
 22 23  1  1  0  0  0
 24 25  1  6  0  0  0
 24 33  1  0  0  0  0
 26 27  1  6  0  0  0
 26 35  1  0  0  0  0
 28  2  1  1  0  0  0
 28 18  1  0  0  0  0
 29 30  1  0  0  0  0
 29 39  1  1  0  0  0
 31 22  1  0  0  0  0
 31 32  1  1  0  0  0
 31 41  1  0  0  0  0
 33 34  1  1  0  0  0
 33 43  1  0  0  0  0
 35 36  1  0  0  0  0
 35 45  1  1  0  0  0
 37 28  1  0  0  0  0
 37 38  1  6  0  0  0
 39 40  1  0  0  0  0
 41 42  1  0  0  0  0
 41 49  1  1  0  0  0
 43 44  1  0  0  0  0
 43 51  1  6  0  0  0
 45 46  1  0  0  0  0
 47 37  1  0  0  0  0
 47 48  1  1  0  0  0
 49 50  1  0  0  0  0
 51 52  1  0  0  0  0
M  END
>  <CHROM.1>
-169.37389365,175.74655955,177.97192482,-72.69717544,169.03274789,71.22391768
-64.01066250,132.77078673,54.40504756,-41.87106343,-88.51361156,-179.01335531
22.51939059,-5.71421666,15.99189158,0.86811708,-0.56983289,0.96712714

>  <Name>
2esj_lig

>  <RI>
1.62275e+07

>  <Rbt.Current_Directory>
/home/itssahil/PROJECTS/Mol_Feturizer/New_Systems/rnas/2esj

>  <Rbt.Executable>
rbdock ($Id: //depot/dev/client3/rdock/2013.1/src/exe/rbdock.cxx#4 $)

>  <Rbt.Library>
libRbt.so (2013.1, Build901 2013/11/27)

>  <Rbt.Parameter_File>
/export/apps/rDock/src/rDock_2013.1_src/data/scripts/dock_solv.prm

>  <Rbt.Receptor>
prm/pocket_docking_5.prm

>  <SCORE>
-19.8384

>  <SCORE.INTER>
-13.3086

>  <SCORE.INTER.CONST>
1

>  <SCORE.INTER.POLAR>
-1.55826

>  <SCORE.INTER.ROT>
12

>  <SCORE.INTER.SOLV>
17.4448

>  <SCORE.INTER.VDW>
-21.0931

>  <SCORE.INTER.norm>
-0.255934

>  <SCORE.INTRA>
-6.69071

>  <SCORE.INTRA.DIHEDRAL>
-17.4681

>  <SCORE.INTRA.DIHEDRAL.0>
32.9766

>  <SCORE.INTRA.POLAR>
0

>  <SCORE.INTRA.POLAR.0>
0

>  <SCORE.INTRA.REPUL>
0

>  <SCORE.INTRA.REPUL.0>
0

>  <SCORE.INTRA.SOLV>
-0.988836

>  <SCORE.INTRA.SOLV.lig_0>
-114.358

>  <SCORE.INTRA.VDW>
2.53778

>  <SCORE.INTRA.VDW.0>
-8.24257

>  <SCORE.INTRA.norm>
-0.128667

>  <SCORE.RESTR>
0.160867

>  <SCORE.RESTR.CAVITY>
0.160867

>  <SCORE.RESTR.norm>
0.0030936

>  <SCORE.SYSTEM>
0

>  <SCORE.SYSTEM.CONST>
0

>  <SCORE.SYSTEM.DIHEDRAL>
0

>  <SCORE.SYSTEM.SOLV>
0

>  <SCORE.SYSTEM.norm>
0

>  <SCORE.heavy>
52

>  <SCORE.norm>
-0.381508

>  <RMSD>
8.731

$$$$
2esj_lig
 OpenBabel11021811423D
libRbt.so/2013.1/901 2013/11/27
 52 56  0  0  0  0  0  0  0  0999 V2000
   23.0888   -1.4082   16.4251 C   0  0  2  0  0  0  0  0  0  0  0  0
   22.9380   -2.8294   16.2451 O   0  0  0  0  0  0  0  0  0  0  0  0
   26.8235   -3.7763   14.7306 C   0  0  2  0  0  0  0  0  0  0  0  0
   28.0592   -4.4588   14.3128 N   0  0  0  0  0  0  0  0  0  0  0  0
   22.6131   -5.2720   13.8111 C   0  0  1  0  0  0  0  0  0  0  0  0
   21.0679   -9.0495   14.0612 C   0  0  1  0  0  0  0  0  0  0  0  0
   22.0409  -11.1577   18.4755 C   0  0  1  0  0  0  0  0  0  0  0  0
   21.7485   -0.8639   17.0015 C   0  0  2  0  0  0  0  0  0  0  0  0
   21.3680   -1.5343   18.2445 N   0  0  0  0  0  0  0  0  0  0  0  0
   26.5291   -4.0597   16.2572 C   0  0  0  0  0  0  0  0  0  0  0  0
   21.3385   -5.5124   13.0011 C   0  0  2  0  0  0  0  0  0  0  0  0
   20.1553   -5.0459   13.6850 O   0  0  0  0  0  0  0  0  0  0  0  0
   19.8189   -9.4688   14.9588 C   0  0  2  0  0  0  0  0  0  0  0  0
   19.7822   -8.6862   16.2225 N   0  0  0  0  0  0  0  0  0  0  0  0
   21.1212  -10.6211   19.5663 C   0  0  1  0  0  0  0  0  0  0  0  0
   21.4101  -11.2992   20.8053 O   0  0  0  0  0  0  0  0  0  0  0  0
   20.5973   -0.9955   15.9544 C   0  0  0  0  0  0  0  0  0  0  0  0
   25.2322   -3.2713   16.7024 C   0  0  2  0  0  0  0  0  0  0  0  0
   24.9288   -3.5284   18.1140 N   0  0  0  0  0  0  0  0  0  0  0  0
   21.4022   -7.0022   12.8259 C   0  0  2  0  0  0  0  0  0  0  0  0
   21.0207   -7.6538   14.0109 O   0  0  0  0  0  0  0  0  0  0  0  0
   19.8247  -11.0498   15.1465 C   0  0  1  0  0  0  0  0  0  0  0  0
   19.9265  -11.6682   13.8596 O   0  0  0  0  0  0  0  0  0  0  0  0
   21.2157   -9.1210   19.8178 C   0  0  1  0  0  0  0  0  0  0  0  0
   20.4743   -8.8442   21.0110 O   0  0  0  0  0  0  0  0  0  0  0  0
   21.0356   -0.2951   14.6342 C   0  0  2  0  0  0  0  0  0  0  0  0
   20.0047   -0.3096   13.6630 O   0  0  0  0  0  0  0  0  0  0  0  0
   24.0265   -3.6654   15.8102 C   0  0  2  0  0  0  0  0  0  0  0  0
   22.8983   -7.3464   12.6754 C   0  0  2  0  0  0  0  0  0  0  0  0
   23.5143   -6.3261   13.4451 O   0  0  0  0  0  0  0  0  0  0  0  0
   21.0968  -11.5312   15.9585 C   0  0  2  0  0  0  0  0  0  0  0  0
   20.9447  -10.9249   17.2429 O   0  0  0  0  0  0  0  0  0  0  0  0
   22.6491   -8.6126   19.9823 C   0  0  2  0  0  0  0  0  0  0  0  0
   22.5954   -7.1793   19.8956 O   0  0  0  0  0  0  0  0  0  0  0  0
   22.3181   -0.9914   14.1152 C   0  0  2  0  0  0  0  0  0  0  0  0
   23.3471   -0.8154   15.1305 O   0  0  0  0  0  0  0  0  0  0  0  0
   24.2918   -3.5229   14.2772 C   0  0  2  0  0  0  0  0  0  0  0  0
   23.1290   -3.9882   13.5371 O   0  0  0  0  0  0  0  0  0  0  0  0
   23.4637   -7.3203   11.2558 C   0  0  0  0  0  0  0  0  0  0  0  0
   23.4657   -5.9542   10.8163 O   0  0  0  0  0  0  0  0  0  0  0  0
   22.2810  -10.8344   15.3164 C   0  0  1  0  0  0  0  0  0  0  0  0
   22.3630   -9.5404   14.6814 O   0  0  0  0  0  0  0  0  0  0  0  0
   23.5930   -9.2666   18.9794 C   0  0  2  0  0  0  0  0  0  0  0  0
   23.3811  -10.6111   18.5220 O   0  0  0  0  0  0  0  0  0  0  0  0
   22.8588   -0.3696   12.8729 C   0  0  0  0  0  0  0  0  0  0  0  0
   23.9883   -1.1142   12.4855 O   0  0  0  0  0  0  0  0  0  0  0  0
   25.6068   -4.2680   13.8674 C   0  0  1  0  0  0  0  0  0  0  0  0
   25.8810   -3.9257   12.4829 O   0  0  0  0  0  0  0  0  0  0  0  0
   23.6908  -11.2159   15.8639 C   0  0  0  0  0  0  0  0  0  0  0  0
   23.8910  -12.6736   16.0036 N   0  0  0  0  0  0  0  0  0  0  0  0
   25.0872   -8.9578   18.9180 C   0  0  0  0  0  0  0  0  0  0  0  0
   25.3112   -7.7421   18.1561 O   0  0  0  0  0  0  0  0  0  0  0  0
  1  2  1  6  0  0  0
  1  8  1  0  0  0  0
  1 36  1  0  0  0  0
  3  4  1  6  0  0  0
  3 10  1  0  0  0  0
  3 47  1  0  0  0  0
  5 11  1  0  0  0  0
  5 30  1  0  0  0  0
  5 38  1  6  0  0  0
  6 21  1  1  0  0  0
  6 42  1  0  0  0  0
  7 15  1  0  0  0  0
  7 44  1  0  0  0  0
  7 32  1  6  0  0  0
  8  9  1  1  0  0  0
  8 17  1  0  0  0  0
 11 12  1  1  0  0  0
 11 20  1  0  0  0  0
 13  6  1  0  0  0  0
 13 14  1  1  0  0  0
 15 16  1  1  0  0  0
 15 24  1  0  0  0  0
 17 26  1  0  0  0  0
 18 10  1  0  0  0  0
 18 19  1  1  0  0  0
 20 21  1  1  0  0  0
 20 29  1  0  0  0  0
 22 13  1  0  0  0  0
 22 23  1  6  0  0  0
 24 25  1  1  0  0  0
 24 33  1  0  0  0  0
 26 27  1  6  0  0  0
 26 35  1  0  0  0  0
 28  2  1  1  0  0  0
 28 18  1  0  0  0  0
 29 30  1  0  0  0  0
 29 39  1  6  0  0  0
 31 22  1  0  0  0  0
 31 32  1  1  0  0  0
 31 41  1  0  0  0  0
 33 34  1  6  0  0  0
 33 43  1  0  0  0  0
 35 36  1  0  0  0  0
 35 45  1  6  0  0  0
 37 28  1  0  0  0  0
 37 38  1  6  0  0  0
 39 40  1  0  0  0  0
 41 42  1  0  0  0  0
 41 49  1  1  0  0  0
 43 44  1  0  0  0  0
 43 51  1  1  0  0  0
 45 46  1  0  0  0  0
 47 37  1  0  0  0  0
 47 48  1  6  0  0  0
 49 50  1  0  0  0  0
 51 52  1  0  0  0  0
M  END
>  <CHROM.1>
-175.70338564,175.76347074,-144.13686204,-164.94906148,-177.45488812,48.06359326
68.30933936,179.03296468,-178.17904608,-52.85641919,46.70139063,-82.35901860
22.70986803,-6.29997409,15.67999710,-0.64188851,1.37701138,1.86260533

>  <Name>
2esj_lig

>  <RI>
0

>  <Rbt.Current_Directory>
/home/itssahil/PROJECTS/Mol_Feturizer/New_Systems/rnas/2esj

>  <Rbt.Executable>
rbdock ($Id: //depot/dev/client3/rdock/2013.1/src/exe/rbdock.cxx#4 $)

>  <Rbt.Library>
libRbt.so (2013.1, Build901 2013/11/27)

>  <Rbt.Parameter_File>
/export/apps/rDock/src/rDock_2013.1_src/data/scripts/dock_solv.prm

>  <Rbt.Receptor>
prm/pocket_docking_8.prm

>  <SCORE>
-12.7934

>  <SCORE.INTER>
-5.34026

>  <SCORE.INTER.CONST>
1

>  <SCORE.INTER.POLAR>
-0.736359

>  <SCORE.INTER.ROT>
12

>  <SCORE.INTER.SOLV>
14.1952

>  <SCORE.INTER.VDW>
-17.4374

>  <SCORE.INTER.norm>
-0.102697

>  <SCORE.INTRA>
-7.45313

>  <SCORE.INTRA.DIHEDRAL>
-20.3447

>  <SCORE.INTRA.DIHEDRAL.0>
32.9766

>  <SCORE.INTRA.POLAR>
0

>  <SCORE.INTRA.POLAR.0>
0

>  <SCORE.INTRA.REPUL>
0

>  <SCORE.INTRA.REPUL.0>
0

>  <SCORE.INTRA.SOLV>
0.147058

>  <SCORE.INTRA.SOLV.lig_0>
-114.358

>  <SCORE.INTRA.VDW>
2.64571

>  <SCORE.INTRA.VDW.0>
-8.24257

>  <SCORE.INTRA.norm>
-0.143329

>  <SCORE.RESTR>
0

>  <SCORE.RESTR.CAVITY>
0

>  <SCORE.RESTR.norm>
0

>  <SCORE.SYSTEM>
0

>  <SCORE.SYSTEM.CONST>
0

>  <SCORE.SYSTEM.DIHEDRAL>
0

>  <SCORE.SYSTEM.SOLV>
0

>  <SCORE.SYSTEM.norm>
0

>  <SCORE.heavy>
52

>  <SCORE.norm>
-0.246027

>  <RMSD>
8.821

$$$$
2esj_lig
 OpenBabel11021811423D
libRbt.so/2013.1/901 2013/11/27
 52 56  0  0  0  0  0  0  0  0999 V2000
   20.9811   -1.9943   11.7980 C   0  0  2  0  0  0  0  0  0  0  0  0
   21.9550   -3.0094   11.4883 O   0  0  0  0  0  0  0  0  0  0  0  0
   21.6801   -7.1842   10.6032 C   0  0  2  0  0  0  0  0  0  0  0  0
   21.5435   -8.6481   10.6803 N   0  0  0  0  0  0  0  0  0  0  0  0
   18.5530   -4.7720   12.4945 C   0  0  1  0  0  0  0  0  0  0  0  0
   17.4830   -4.6571   16.1321 C   0  0  1  0  0  0  0  0  0  0  0  0
   19.4205   -7.7226   19.8661 C   0  0  1  0  0  0  0  0  0  0  0  0
   21.4148   -0.6901   11.0659 C   0  0  2  0  0  0  0  0  0  0  0  0
   21.5587   -0.8867    9.6237 N   0  0  0  0  0  0  0  0  0  0  0  0
   22.8667   -6.6943   11.5248 C   0  0  0  0  0  0  0  0  0  0  0  0
   17.9420   -3.6441   13.3270 C   0  0  2  0  0  0  0  0  0  0  0  0
   18.8452   -3.1590   14.3439 O   0  0  0  0  0  0  0  0  0  0  0  0
   19.0419   -4.9810   16.2113 C   0  0  2  0  0  0  0  0  0  0  0  0
   19.3060   -6.4136   15.9131 N   0  0  0  0  0  0  0  0  0  0  0  0
   20.4402   -6.9529   20.6976 C   0  0  1  0  0  0  0  0  0  0  0  0
   20.1945   -7.2007   22.0964 O   0  0  0  0  0  0  0  0  0  0  0  0
   22.7474   -0.1339   11.6607 C   0  0  0  0  0  0  0  0  0  0  0  0
   23.0360   -5.1281   11.3833 C   0  0  2  0  0  0  0  0  0  0  0  0
   24.1238   -4.6452   12.2403 N   0  0  0  0  0  0  0  0  0  0  0  0
   16.7202   -4.3314   13.8646 C   0  0  2  0  0  0  0  0  0  0  0  0
   17.0656   -5.1998   14.9139 O   0  0  0  0  0  0  0  0  0  0  0  0
   19.6058   -4.4699   17.6098 C   0  0  1  0  0  0  0  0  0  0  0  0
   19.2246   -3.1021   17.7903 O   0  0  0  0  0  0  0  0  0  0  0  0
   21.8993   -7.2859   20.4100 C   0  0  1  0  0  0  0  0  0  0  0  0
   22.6855   -6.6583   21.4289 O   0  0  0  0  0  0  0  0  0  0  0  0
   22.5762    0.0445   13.1984 C   0  0  2  0  0  0  0  0  0  0  0  0
   23.7256    0.6202   13.7931 O   0  0  0  0  0  0  0  0  0  0  0  0
   21.7095   -4.4064   11.7362 C   0  0  2  0  0  0  0  0  0  0  0  0
   16.2377   -5.2743   12.7431 C   0  0  2  0  0  0  0  0  0  0  0  0
   17.4533   -5.5978   12.0868 O   0  0  0  0  0  0  0  0  0  0  0  0
   18.9577   -5.2618   18.8190 C   0  0  2  0  0  0  0  0  0  0  0  0
   19.3855   -6.6109   18.6259 O   0  0  0  0  0  0  0  0  0  0  0  0
   22.1973   -8.7861   20.3917 C   0  0  2  0  0  0  0  0  0  0  0  0
   23.5016   -8.9449   19.8100 O   0  0  0  0  0  0  0  0  0  0  0  0
   22.2458   -1.3371   13.8159 C   0  0  2  0  0  0  0  0  0  0  0  0
   20.9898   -1.7838   13.2296 O   0  0  0  0  0  0  0  0  0  0  0  0
   20.4677   -4.9274   10.9439 C   0  0  2  0  0  0  0  0  0  0  0  0
   19.2725   -4.2382   11.4052 O   0  0  0  0  0  0  0  0  0  0  0  0
   15.2580   -4.6826   11.7304 C   0  0  0  0  0  0  0  0  0  0  0  0
   15.8957   -3.5492   11.1233 O   0  0  0  0  0  0  0  0  0  0  0  0
   17.4645   -5.2656   18.5534 C   0  0  1  0  0  0  0  0  0  0  0  0
   16.7452   -5.2824   17.3016 O   0  0  0  0  0  0  0  0  0  0  0  0
   21.0955   -9.5666   19.6836 C   0  0  2  0  0  0  0  0  0  0  0  0
   19.7280   -9.1305   19.7236 O   0  0  0  0  0  0  0  0  0  0  0  0
   22.0125   -1.2790   15.2872 C   0  0  0  0  0  0  0  0  0  0  0  0
   20.8692   -0.4872   15.5021 O   0  0  0  0  0  0  0  0  0  0  0  0
   20.3485   -6.4847   11.0559 C   0  0  1  0  0  0  0  0  0  0  0  0
   19.2985   -6.9020   10.1433 O   0  0  0  0  0  0  0  0  0  0  0  0
   16.5649   -5.9000   19.6584 C   0  0  0  0  0  0  0  0  0  0  0  0
   15.5737   -6.8598   19.1284 N   0  0  0  0  0  0  0  0  0  0  0  0
   21.1212  -11.0850   19.5236 C   0  0  0  0  0  0  0  0  0  0  0  0
   22.2693  -11.4801   18.7271 O   0  0  0  0  0  0  0  0  0  0  0  0
  1  2  1  1  0  0  0
  1  8  1  0  0  0  0
  1 36  1  0  0  0  0
  3  4  1  1  0  0  0
  3 10  1  0  0  0  0
  3 47  1  0  0  0  0
  5 11  1  0  0  0  0
  5 30  1  0  0  0  0
  5 38  1  6  0  0  0
  6 21  1  6  0  0  0
  6 42  1  0  0  0  0
  7 15  1  0  0  0  0
  7 44  1  0  0  0  0
  7 32  1  6  0  0  0
  8  9  1  6  0  0  0
  8 17  1  0  0  0  0
 11 12  1  1  0  0  0
 11 20  1  0  0  0  0
 13  6  1  0  0  0  0
 13 14  1  1  0  0  0
 15 16  1  1  0  0  0
 15 24  1  0  0  0  0
 17 26  1  0  0  0  0
 18 10  1  0  0  0  0
 18 19  1  1  0  0  0
 20 21  1  1  0  0  0
 20 29  1  0  0  0  0
 22 13  1  0  0  0  0
 22 23  1  1  0  0  0
 24 25  1  1  0  0  0
 24 33  1  0  0  0  0
 26 27  1  1  0  0  0
 26 35  1  0  0  0  0
 28  2  1  6  0  0  0
 28 18  1  0  0  0  0
 29 30  1  0  0  0  0
 29 39  1  6  0  0  0
 31 22  1  0  0  0  0
 31 32  1  6  0  0  0
 31 41  1  0  0  0  0
 33 34  1  6  0  0  0
 33 43  1  0  0  0  0
 35 36  1  0  0  0  0
 35 45  1  1  0  0  0
 37 28  1  0  0  0  0
 37 38  1  1  0  0  0
 39 40  1  0  0  0  0
 41 42  1  0  0  0  0
 41 49  1  1  0  0  0
 43 44  1  0  0  0  0
 43 51  1  1  0  0  0
 45 46  1  0  0  0  0
 47 37  1  0  0  0  0
 47 48  1  6  0  0  0
 49 50  1  0  0  0  0
 51 52  1  0  0  0  0
M  END
>  <CHROM.1>
-165.20739861,146.30644369,-109.25052637,-62.01189189,70.13932866,-175.18910536
58.31686850,158.48957451,63.95936827,-88.47499664,-131.82358514,-62.51517680
20.05790503,-5.08048724,15.16496506,-1.52397194,0.29496924,2.10298359

>  <Name>
2esj_lig

>  <RI>
2.18877e+07

>  <Rbt.Current_Directory>
/home/itssahil/PROJECTS/Mol_Feturizer/New_Systems/rnas/2esj

>  <Rbt.Executable>
rbdock ($Id: //depot/dev/client3/rdock/2013.1/src/exe/rbdock.cxx#4 $)

>  <Rbt.Library>
libRbt.so (2013.1, Build901 2013/11/27)

>  <Rbt.Parameter_File>
/export/apps/rDock/src/rDock_2013.1_src/data/scripts/dock_solv.prm

>  <Rbt.Receptor>
prm/pocket_docking_7.prm

>  <SCORE>
-21.6229

>  <SCORE.INTER>
-20.2352

>  <SCORE.INTER.CONST>
1

>  <SCORE.INTER.POLAR>
-1.93951

>  <SCORE.INTER.ROT>
12

>  <SCORE.INTER.SOLV>
20.6822

>  <SCORE.INTER.VDW>
-25.5192

>  <SCORE.INTER.norm>
-0.389138

>  <SCORE.INTRA>
-1.38777

>  <SCORE.INTRA.DIHEDRAL>
-9.94957

>  <SCORE.INTRA.DIHEDRAL.0>
32.9766

>  <SCORE.INTRA.POLAR>
0

>  <SCORE.INTRA.POLAR.0>
0

>  <SCORE.INTRA.REPUL>
0

>  <SCORE.INTRA.REPUL.0>
0

>  <SCORE.INTRA.SOLV>
-0.602529

>  <SCORE.INTRA.SOLV.lig_0>
-114.358

>  <SCORE.INTRA.VDW>
3.88828

>  <SCORE.INTRA.VDW.0>
-8.24257

>  <SCORE.INTRA.norm>
-0.0266878

>  <SCORE.RESTR>
0

>  <SCORE.RESTR.CAVITY>
0

>  <SCORE.RESTR.norm>
0

>  <SCORE.SYSTEM>
0

>  <SCORE.SYSTEM.CONST>
0

>  <SCORE.SYSTEM.DIHEDRAL>
0

>  <SCORE.SYSTEM.SOLV>
0

>  <SCORE.SYSTEM.norm>
0

>  <SCORE.heavy>
52

>  <SCORE.norm>
-0.415826

>  <RMSD>
8.905

$$$$
2esj_lig
 OpenBabel11021811423D
libRbt.so/2013.1/901 2013/11/27
 52 56  0  0  0  0  0  0  0  0999 V2000
   27.1141   -4.1931   18.7680 C   0  0  2  0  0  0  0  0  0  0  0  0
   26.3098   -4.5402   19.9115 O   0  0  0  0  0  0  0  0  0  0  0  0
   24.0543   -8.0078   20.9960 C   0  0  2  0  0  0  0  0  0  0  0  0
   23.0259   -9.0541   21.1185 N   0  0  0  0  0  0  0  0  0  0  0  0
   25.4898   -6.5118   16.9984 C   0  0  1  0  0  0  0  0  0  0  0  0
   23.9385   -5.5151   13.1573 C   0  0  1  0  0  0  0  0  0  0  0  0
   19.3539   -3.7846   12.4569 C   0  0  1  0  0  0  0  0  0  0  0  0
   28.2072   -3.1941   19.2498 C   0  0  2  0  0  0  0  0  0  0  0  0
   29.0149   -3.7408   20.3397 N   0  0  0  0  0  0  0  0  0  0  0  0
   23.4324   -6.5879   21.3034 C   0  0  0  0  0  0  0  0  0  0  0  0
   26.2826   -6.4656   15.6915 C   0  0  2  0  0  0  0  0  0  0  0  0
   26.8689   -5.1684   15.4488 O   0  0  0  0  0  0  0  0  0  0  0  0
   23.0003   -4.2310   13.2681 C   0  0  2  0  0  0  0  0  0  0  0  0
   21.9864   -4.4010   14.3424 N   0  0  0  0  0  0  0  0  0  0  0  0
   18.3625   -4.5479   13.3275 C   0  0  1  0  0  0  0  0  0  0  0  0
   17.7517   -3.6351   14.2615 O   0  0  0  0  0  0  0  0  0  0  0  0
   27.5681   -1.8393   19.6917 C   0  0  0  0  0  0  0  0  0  0  0  0
   24.5636   -5.4853   21.2251 C   0  0  2  0  0  0  0  0  0  0  0  0
   24.0092   -4.1544   21.4935 N   0  0  0  0  0  0  0  0  0  0  0  0
   25.2150   -6.8531   14.7096 C   0  0  2  0  0  0  0  0  0  0  0  0
   24.3528   -5.7704   14.4672 O   0  0  0  0  0  0  0  0  0  0  0  0
   22.4062   -3.8990   11.8287 C   0  0  1  0  0  0  0  0  0  0  0  0
   23.4834   -3.8275   10.8889 O   0  0  0  0  0  0  0  0  0  0  0  0
   17.2489   -5.2632   12.5722 C   0  0  1  0  0  0  0  0  0  0  0  0
   16.2995   -5.7141   13.5445 O   0  0  0  0  0  0  0  0  0  0  0  0
   26.6957   -1.2901   18.5242 C   0  0  2  0  0  0  0  0  0  0  0  0
   26.1459   -0.0210   18.8295 O   0  0  0  0  0  0  0  0  0  0  0  0
   25.2516   -5.5137   19.8356 C   0  0  2  0  0  0  0  0  0  0  0  0
   24.3259   -7.8830   15.4365 C   0  0  2  0  0  0  0  0  0  0  0  0
   24.4461   -7.4733   16.7895 O   0  0  0  0  0  0  0  0  0  0  0  0
   21.4591   -5.0590   11.3123 C   0  0  2  0  0  0  0  0  0  0  0  0
   20.3827   -5.0786   12.2511 O   0  0  0  0  0  0  0  0  0  0  0  0
   16.5397   -4.3837   11.5410 C   0  0  2  0  0  0  0  0  0  0  0  0
   15.7573   -5.2599   10.7135 O   0  0  0  0  0  0  0  0  0  0  0  0
   25.5913   -2.3295   18.2098 C   0  0  2  0  0  0  0  0  0  0  0  0
   26.2573   -3.5554   17.7918 O   0  0  0  0  0  0  0  0  0  0  0  0
   25.7856   -6.9204   19.4150 C   0  0  2  0  0  0  0  0  0  0  0  0
   26.3402   -6.8485   18.0720 O   0  0  0  0  0  0  0  0  0  0  0  0
   24.7412   -9.3486   15.3130 C   0  0  0  0  0  0  0  0  0  0  0  0
   24.7790   -9.6710   13.9150 O   0  0  0  0  0  0  0  0  0  0  0  0
   22.2252   -6.3473   11.5433 C   0  0  1  0  0  0  0  0  0  0  0  0
   23.1732   -6.6900   12.5769 O   0  0  0  0  0  0  0  0  0  0  0  0
   17.5286   -3.5134   10.7735 C   0  0  2  0  0  0  0  0  0  0  0  0
   18.7313   -3.0286   11.3901 O   0  0  0  0  0  0  0  0  0  0  0  0
   24.7190   -1.9287   17.0692 C   0  0  0  0  0  0  0  0  0  0  0  0
   23.7394   -2.9272   16.9161 O   0  0  0  0  0  0  0  0  0  0  0  0
   24.6640   -8.0050   19.5484 C   0  0  1  0  0  0  0  0  0  0  0  0
   25.2884   -9.2980   19.3300 O   0  0  0  0  0  0  0  0  0  0  0  0
   21.5551   -7.6558   11.0220 C   0  0  0  0  0  0  0  0  0  0  0  0
   21.8170   -7.9190    9.5913 N   0  0  0  0  0  0  0  0  0  0  0  0
   17.1027   -2.5275    9.6879 C   0  0  0  0  0  0  0  0  0  0  0  0
   18.2310   -2.2207    8.8267 O   0  0  0  0  0  0  0  0  0  0  0  0
  1  2  1  1  0  0  0
  1  8  1  0  0  0  0
  1 36  1  0  0  0  0
  3  4  1  6  0  0  0
  3 10  1  0  0  0  0
  3 47  1  0  0  0  0
  5 11  1  0  0  0  0
  5 30  1  0  0  0  0
  5 38  1  1  0  0  0
  6 21  1  1  0  0  0
  6 42  1  0  0  0  0
  7 15  1  0  0  0  0
  7 44  1  0  0  0  0
  7 32  1  6  0  0  0
  8  9  1  1  0  0  0
  8 17  1  0  0  0  0
 11 12  1  6  0  0  0
 11 20  1  0  0  0  0
 13  6  1  0  0  0  0
 13 14  1  1  0  0  0
 15 16  1  1  0  0  0
 15 24  1  0  0  0  0
 17 26  1  0  0  0  0
 18 10  1  0  0  0  0
 18 19  1  6  0  0  0
 20 21  1  1  0  0  0
 20 29  1  0  0  0  0
 22 13  1  0  0  0  0
 22 23  1  6  0  0  0
 24 25  1  1  0  0  0
 24 33  1  0  0  0  0
 26 27  1  1  0  0  0
 26 35  1  0  0  0  0
 28  2  1  1  0  0  0
 28 18  1  0  0  0  0
 29 30  1  0  0  0  0
 29 39  1  1  0  0  0
 31 22  1  0  0  0  0
 31 32  1  1  0  0  0
 31 41  1  0  0  0  0
 33 34  1  6  0  0  0
 33 43  1  0  0  0  0
 35 36  1  0  0  0  0
 35 45  1  6  0  0  0
 37 28  1  0  0  0  0
 37 38  1  6  0  0  0
 39 40  1  0  0  0  0
 41 42  1  0  0  0  0
 41 49  1  1  0  0  0
 43 44  1  0  0  0  0
 43 51  1  1  0  0  0
 45 46  1  0  0  0  0
 47 37  1  0  0  0  0
 47 48  1  1  0  0  0
 49 50  1  0  0  0  0
 51 52  1  0  0  0  0
M  END
>  <CHROM.1>
-176.13153488,178.81034542,-179.49052840,169.68827305,137.80481783,-174.70323940
-57.52048537,62.97196953,-178.10002177,-62.69661751,84.19285741,-159.29482988
23.10131732,-5.16788842,15.48399423,0.00092823,-0.83868320,0.07265050

>  <Name>
2esj_lig

>  <RI>
2.18877e+07

>  <Rbt.Current_Directory>
/home/itssahil/PROJECTS/Mol_Feturizer/New_Systems/rnas/2esj

>  <Rbt.Executable>
rbdock ($Id: //depot/dev/client3/rdock/2013.1/src/exe/rbdock.cxx#4 $)

>  <Rbt.Library>
libRbt.so (2013.1, Build901 2013/11/27)

>  <Rbt.Parameter_File>
/export/apps/rDock/src/rDock_2013.1_src/data/scripts/dock_solv.prm

>  <Rbt.Receptor>
prm/pocket_docking_7.prm

>  <SCORE>
-17.3423

>  <SCORE.INTER>
-6.29784

>  <SCORE.INTER.CONST>
1

>  <SCORE.INTER.POLAR>
-0.979796

>  <SCORE.INTER.ROT>
12

>  <SCORE.INTER.SOLV>
16.351

>  <SCORE.INTER.VDW>
-17.9829

>  <SCORE.INTER.norm>
-0.121112

>  <SCORE.INTRA>
-11.0445

>  <SCORE.INTRA.DIHEDRAL>
-21.07

>  <SCORE.INTRA.DIHEDRAL.0>
32.9766

>  <SCORE.INTRA.POLAR>
0

>  <SCORE.INTRA.POLAR.0>
0

>  <SCORE.INTRA.REPUL>
0

>  <SCORE.INTRA.REPUL.0>
0

>  <SCORE.INTRA.SOLV>
-3.00765

>  <SCORE.INTRA.SOLV.lig_0>
-114.358

>  <SCORE.INTRA.VDW>
0.994344

>  <SCORE.INTRA.VDW.0>
-8.24257

>  <SCORE.INTRA.norm>
-0.212394

>  <SCORE.RESTR>
0

>  <SCORE.RESTR.CAVITY>
0

>  <SCORE.RESTR.norm>
0

>  <SCORE.SYSTEM>
0

>  <SCORE.SYSTEM.CONST>
0

>  <SCORE.SYSTEM.DIHEDRAL>
0

>  <SCORE.SYSTEM.SOLV>
0

>  <SCORE.SYSTEM.norm>
0

>  <SCORE.heavy>
52

>  <SCORE.norm>
-0.333506

>  <RMSD>
8.908

$$$$
2esj_lig
 OpenBabel11021811423D
libRbt.so/2013.1/901 2013/11/27
 52 56  0  0  0  0  0  0  0  0999 V2000
   19.6710   -1.9269    9.9231 C   0  0  2  0  0  0  0  0  0  0  0  0
   19.3266   -3.2677    9.5250 O   0  0  0  0  0  0  0  0  0  0  0  0
   16.0964   -4.0760   12.2084 C   0  0  2  0  0  0  0  0  0  0  0  0
   14.8748   -4.5907   12.8488 N   0  0  0  0  0  0  0  0  0  0  0  0
   20.1577   -6.2676   12.2346 C   0  0  1  0  0  0  0  0  0  0  0  0
   22.4526   -8.3474   15.0380 C   0  0  1  0  0  0  0  0  0  0  0  0
   22.3938   -6.7852   19.7632 C   0  0  1  0  0  0  0  0  0  0  0  0
   20.7365   -1.3987    8.9179 C   0  0  2  0  0  0  0  0  0  0  0  0
   20.2667   -1.4536    7.5339 N   0  0  0  0  0  0  0  0  0  0  0  0
   15.7550   -3.4503   10.7979 C   0  0  0  0  0  0  0  0  0  0  0  0
   20.3103   -7.7814   12.0805 C   0  0  2  0  0  0  0  0  0  0  0  0
   19.1922   -8.5068   12.6365 O   0  0  0  0  0  0  0  0  0  0  0  0
   21.7672   -8.5552   16.4621 C   0  0  2  0  0  0  0  0  0  0  0  0
   20.9256   -7.3847   16.8262 N   0  0  0  0  0  0  0  0  0  0  0  0
   23.6893   -6.6175   20.5489 C   0  0  1  0  0  0  0  0  0  0  0  0
   23.4047   -5.9498   21.7945 O   0  0  0  0  0  0  0  0  0  0  0  0
   22.0743   -2.1926    9.0555 C   0  0  0  0  0  0  0  0  0  0  0  0
   17.0681   -2.8502   10.1521 C   0  0  2  0  0  0  0  0  0  0  0  0
   16.7808   -2.2745    8.8343 N   0  0  0  0  0  0  0  0  0  0  0  0
   21.6080   -8.0009   12.8028 C   0  0  2  0  0  0  0  0  0  0  0  0
   21.4117   -7.9528   14.1933 O   0  0  0  0  0  0  0  0  0  0  0  0
   22.8898   -8.9335   17.5260 C   0  0  1  0  0  0  0  0  0  0  0  0
   23.6583  -10.0288   17.0178 O   0  0  0  0  0  0  0  0  0  0  0  0
   24.4299   -7.9109   20.8668 C   0  0  1  0  0  0  0  0  0  0  0  0
   25.4709   -7.5856   21.7945 O   0  0  0  0  0  0  0  0  0  0  0  0
   22.5408   -2.1388   10.5405 C   0  0  2  0  0  0  0  0  0  0  0  0
   23.7925   -2.7761   10.7227 O   0  0  0  0  0  0  0  0  0  0  0  0
   18.1626   -3.9429   10.0372 C   0  0  2  0  0  0  0  0  0  0  0  0
   22.4729   -6.7588   12.5047 C   0  0  2  0  0  0  0  0  0  0  0  0
   21.4906   -5.7484   12.3397 O   0  0  0  0  0  0  0  0  0  0  0  0
   23.9161   -7.7445   17.7314 C   0  0  2  0  0  0  0  0  0  0  0  0
   23.1238   -6.6846   18.2691 O   0  0  0  0  0  0  0  0  0  0  0  0
   23.5389   -9.0002   21.4662 C   0  0  2  0  0  0  0  0  0  0  0  0
   24.2873  -10.2257   21.4152 O   0  0  0  0  0  0  0  0  0  0  0  0
   21.4402   -2.7810   11.4210 C   0  0  2  0  0  0  0  0  0  0  0  0
   20.2332   -1.9832   11.2553 O   0  0  0  0  0  0  0  0  0  0  0  0
   18.4656   -4.6879   11.3767 C   0  0  2  0  0  0  0  0  0  0  0  0
   19.4459   -5.7362   11.1391 O   0  0  0  0  0  0  0  0  0  0  0  0
   23.3480   -6.8227   11.2533 C   0  0  0  0  0  0  0  0  0  0  0  0
   23.9767   -5.5418   11.0995 O   0  0  0  0  0  0  0  0  0  0  0  0
   24.3068   -7.2945   16.3367 C   0  0  1  0  0  0  0  0  0  0  0  0
   23.5383   -7.2898   15.1144 O   0  0  0  0  0  0  0  0  0  0  0  0
   22.1851   -9.0626   20.7678 C   0  0  2  0  0  0  0  0  0  0  0  0
   21.5709   -7.8842   20.2237 O   0  0  0  0  0  0  0  0  0  0  0  0
   21.7595   -2.7420   12.8767 C   0  0  0  0  0  0  0  0  0  0  0  0
   20.7421   -3.4426   13.5506 O   0  0  0  0  0  0  0  0  0  0  0  0
   17.1466   -5.2294   12.0240 C   0  0  1  0  0  0  0  0  0  0  0  0
   17.4894   -5.7293   13.3438 O   0  0  0  0  0  0  0  0  0  0  0  0
   25.4016   -6.1872   16.2463 C   0  0  0  0  0  0  0  0  0  0  0  0
   26.6848   -6.5793   16.8663 N   0  0  0  0  0  0  0  0  0  0  0  0
   21.0884  -10.0488   21.1631 C   0  0  0  0  0  0  0  0  0  0  0  0
   21.6064  -11.4051   21.1315 O   0  0  0  0  0  0  0  0  0  0  0  0
  1  2  1  6  0  0  0
  1  8  1  0  0  0  0
  1 36  1  0  0  0  0
  3  4  1  6  0  0  0
  3 10  1  0  0  0  0
  3 47  1  0  0  0  0
  5 11  1  0  0  0  0
  5 30  1  0  0  0  0
  5 38  1  6  0  0  0
  6 21  1  6  0  0  0
  6 42  1  0  0  0  0
  7 15  1  0  0  0  0
  7 44  1  0  0  0  0
  7 32  1  6  0  0  0
  8  9  1  6  0  0  0
  8 17  1  0  0  0  0
 11 12  1  1  0  0  0
 11 20  1  0  0  0  0
 13  6  1  0  0  0  0
 13 14  1  1  0  0  0
 15 16  1  1  0  0  0
 15 24  1  0  0  0  0
 17 26  1  0  0  0  0
 18 10  1  0  0  0  0
 18 19  1  6  0  0  0
 20 21  1  1  0  0  0
 20 29  1  0  0  0  0
 22 13  1  0  0  0  0
 22 23  1  6  0  0  0
 24 25  1  1  0  0  0
 24 33  1  0  0  0  0
 26 27  1  6  0  0  0
 26 35  1  0  0  0  0
 28  2  1  1  0  0  0
 28 18  1  0  0  0  0
 29 30  1  0  0  0  0
 29 39  1  6  0  0  0
 31 22  1  0  0  0  0
 31 32  1  6  0  0  0
 31 41  1  0  0  0  0
 33 34  1  6  0  0  0
 33 43  1  0  0  0  0
 35 36  1  0  0  0  0
 35 45  1  1  0  0  0
 37 28  1  0  0  0  0
 37 38  1  6  0  0  0
 39 40  1  0  0  0  0
 41 42  1  0  0  0  0
 41 49  1  1  0  0  0
 43 44  1  0  0  0  0
 43 51  1  1  0  0  0
 45 46  1  0  0  0  0
 47 37  1  0  0  0  0
 47 48  1  1  0  0  0
 49 50  1  0  0  0  0
 51 52  1  0  0  0  0
M  END
>  <CHROM.1>
-165.46007553,140.09056196,-164.66219230,73.39946299,169.73289537,37.32442578
175.26345367,65.06835784,-175.49674499,161.43540950,59.49624622,-54.73195041
21.37964445,-5.97978428,14.53513145,-1.93358713,0.13951481,2.11656079

>  <Name>
2esj_lig

>  <RI>
0

>  <Rbt.Current_Directory>
/home/itssahil/PROJECTS/Mol_Feturizer/New_Systems/rnas/2esj

>  <Rbt.Executable>
rbdock ($Id: //depot/dev/client3/rdock/2013.1/src/exe/rbdock.cxx#4 $)

>  <Rbt.Library>
libRbt.so (2013.1, Build901 2013/11/27)

>  <Rbt.Parameter_File>
/export/apps/rDock/src/rDock_2013.1_src/data/scripts/dock_solv.prm

>  <Rbt.Receptor>
prm/pocket_docking_8.prm

>  <SCORE>
-11.2364

>  <SCORE.INTER>
-4.5116

>  <SCORE.INTER.CONST>
1

>  <SCORE.INTER.POLAR>
-1.01683

>  <SCORE.INTER.ROT>
12

>  <SCORE.INTER.SOLV>
15.8765

>  <SCORE.INTER.VDW>
-16.5104

>  <SCORE.INTER.norm>
-0.0867615

>  <SCORE.INTRA>
-6.72483

>  <SCORE.INTRA.DIHEDRAL>
-14.9991

>  <SCORE.INTRA.DIHEDRAL.0>
32.9766

>  <SCORE.INTRA.POLAR>
0

>  <SCORE.INTRA.POLAR.0>
0

>  <SCORE.INTRA.REPUL>
0.0451978

>  <SCORE.INTRA.REPUL.0>
0

>  <SCORE.INTRA.SOLV>
0.0344713

>  <SCORE.INTRA.SOLV.lig_0>
-114.358

>  <SCORE.INTRA.VDW>
0.531501

>  <SCORE.INTRA.VDW.0>
-8.24257

>  <SCORE.INTRA.norm>
-0.129324

>  <SCORE.RESTR>
0

>  <SCORE.RESTR.CAVITY>
0

>  <SCORE.RESTR.norm>
0

>  <SCORE.SYSTEM>
0

>  <SCORE.SYSTEM.CONST>
0

>  <SCORE.SYSTEM.DIHEDRAL>
0

>  <SCORE.SYSTEM.SOLV>
0

>  <SCORE.SYSTEM.norm>
0

>  <SCORE.heavy>
52

>  <SCORE.norm>
-0.216085

>  <RMSD>
8.937

$$$$
2esj_lig
 OpenBabel11021811423D
libRbt.so/2013.1/901 2013/11/27
 52 56  0  0  0  0  0  0  0  0999 V2000
   20.2919   -2.5983   17.1111 C   0  0  2  0  0  0  0  0  0  0  0  0
   19.6805   -1.9370   15.9870 O   0  0  0  0  0  0  0  0  0  0  0  0
   16.7897   -2.9936   13.0179 C   0  0  2  0  0  0  0  0  0  0  0  0
   16.0835   -3.5756   11.8647 N   0  0  0  0  0  0  0  0  0  0  0  0
   18.5779   -5.8074   15.8263 C   0  0  1  0  0  0  0  0  0  0  0  0
   21.0825   -8.7729   15.1081 C   0  0  1  0  0  0  0  0  0  0  0  0
   22.3615  -13.4879   16.3170 C   0  0  1  0  0  0  0  0  0  0  0  0
   20.6045   -1.5110   18.1812 C   0  0  2  0  0  0  0  0  0  0  0  0
   19.4117   -0.7602   18.5721 N   0  0  0  0  0  0  0  0  0  0  0  0
   18.1166   -2.2773   12.5448 C   0  0  0  0  0  0  0  0  0  0  0  0
   19.7241   -6.3930   16.6520 C   0  0  2  0  0  0  0  0  0  0  0  0
   21.0204   -6.0456   16.1186 O   0  0  0  0  0  0  0  0  0  0  0  0
   20.9982   -9.8830   13.9671 C   0  0  2  0  0  0  0  0  0  0  0  0
   19.9648  -10.9026   14.2887 N   0  0  0  0  0  0  0  0  0  0  0  0
   21.4078  -14.4946   15.6841 C   0  0  1  0  0  0  0  0  0  0  0  0
   21.8721  -15.8297   15.9675 O   0  0  0  0  0  0  0  0  0  0  0  0
   21.7061   -0.5281   17.6717 C   0  0  0  0  0  0  0  0  0  0  0  0
   18.8301   -1.6082   13.7877 C   0  0  2  0  0  0  0  0  0  0  0  0
   20.0732   -0.9470   13.3772 N   0  0  0  0  0  0  0  0  0  0  0  0
   19.3977   -7.8564   16.5747 C   0  0  2  0  0  0  0  0  0  0  0  0
   19.7596   -8.3758   15.3203 O   0  0  0  0  0  0  0  0  0  0  0  0
   22.4568  -10.4638   13.7022 C   0  0  1  0  0  0  0  0  0  0  0  0
   23.3542   -9.3730   13.4711 O   0  0  0  0  0  0  0  0  0  0  0  0
   19.9576  -14.3939   16.1413 C   0  0  1  0  0  0  0  0  0  0  0  0
   19.2733  -15.5456   15.6357 O   0  0  0  0  0  0  0  0  0  0  0  0
   22.9552   -1.3524   17.2404 C   0  0  2  0  0  0  0  0  0  0  0  0
   24.0251   -0.5158   16.8384 O   0  0  0  0  0  0  0  0  0  0  0  0
   19.1181   -2.6688   14.8818 C   0  0  2  0  0  0  0  0  0  0  0  0
   17.8579   -7.9471   16.5863 C   0  0  2  0  0  0  0  0  0  0  0  0
   17.4861   -6.7273   15.9644 O   0  0  0  0  0  0  0  0  0  0  0  0
   23.0175  -11.2219   14.9750 C   0  0  2  0  0  0  0  0  0  0  0  0
   22.1207  -12.3191   15.1546 O   0  0  0  0  0  0  0  0  0  0  0  0
   19.7930  -14.3331   17.6609 C   0  0  2  0  0  0  0  0  0  0  0  0
   18.4379  -13.9299   17.9176 O   0  0  0  0  0  0  0  0  0  0  0  0
   22.5329   -2.3217   16.1085 C   0  0  2  0  0  0  0  0  0  0  0  0
   21.5208   -3.2133   16.6577 O   0  0  0  0  0  0  0  0  0  0  0  0
   17.8670   -3.4999   15.3120 C   0  0  2  0  0  0  0  0  0  0  0  0
   18.2639   -4.5098   16.2810 O   0  0  0  0  0  0  0  0  0  0  0  0
   17.1914   -8.0389   17.9586 C   0  0  0  0  0  0  0  0  0  0  0  0
   17.6156   -9.2691   18.5638 O   0  0  0  0  0  0  0  0  0  0  0  0
   22.7668  -10.2941   16.1483 C   0  0  1  0  0  0  0  0  0  0  0  0
   21.7003   -9.3465   16.3700 O   0  0  0  0  0  0  0  0  0  0  0  0
   20.8462  -13.4364   18.3021 C   0  0  2  0  0  0  0  0  0  0  0  0
   22.1617  -13.3107   17.7403 O   0  0  0  0  0  0  0  0  0  0  0  0
   23.6448   -3.2007   15.6465 C   0  0  0  0  0  0  0  0  0  0  0  0
   24.5988   -2.3790   15.0181 O   0  0  0  0  0  0  0  0  0  0  0  0
   17.1474   -4.1109   14.0626 C   0  0  1  0  0  0  0  0  0  0  0  0
   15.9017   -4.6954   14.5275 O   0  0  0  0  0  0  0  0  0  0  0  0
   23.3229  -10.7572   17.5300 C   0  0  0  0  0  0  0  0  0  0  0  0
   23.4332   -9.6608   18.5151 N   0  0  0  0  0  0  0  0  0  0  0  0
   20.9314  -13.1967   19.8077 C   0  0  0  0  0  0  0  0  0  0  0  0
   21.8469  -12.1040   20.0847 O   0  0  0  0  0  0  0  0  0  0  0  0
  1  2  1  6  0  0  0
  1  8  1  0  0  0  0
  1 36  1  0  0  0  0
  3  4  1  6  0  0  0
  3 10  1  0  0  0  0
  3 47  1  0  0  0  0
  5 11  1  0  0  0  0
  5 30  1  0  0  0  0
  5 38  1  1  0  0  0
  6 21  1  1  0  0  0
  6 42  1  0  0  0  0
  7 15  1  0  0  0  0
  7 44  1  0  0  0  0
  7 32  1  6  0  0  0
  8  9  1  6  0  0  0
  8 17  1  0  0  0  0
 11 12  1  6  0  0  0
 11 20  1  0  0  0  0
 13  6  1  0  0  0  0
 13 14  1  1  0  0  0
 15 16  1  1  0  0  0
 15 24  1  0  0  0  0
 17 26  1  0  0  0  0
 18 10  1  0  0  0  0
 18 19  1  6  0  0  0
 20 21  1  6  0  0  0
 20 29  1  0  0  0  0
 22 13  1  0  0  0  0
 22 23  1  1  0  0  0
 24 25  1  1  0  0  0
 24 33  1  0  0  0  0
 26 27  1  6  0  0  0
 26 35  1  0  0  0  0
 28  2  1  1  0  0  0
 28 18  1  0  0  0  0
 29 30  1  0  0  0  0
 29 39  1  1  0  0  0
 31 22  1  0  0  0  0
 31 32  1  1  0  0  0
 31 41  1  0  0  0  0
 33 34  1  6  0  0  0
 33 43  1  0  0  0  0
 35 36  1  0  0  0  0
 35 45  1  1  0  0  0
 37 28  1  0  0  0  0
 37 38  1  1  0  0  0
 39 40  1  0  0  0  0
 41 42  1  0  0  0  0
 41 49  1  1  0  0  0
 43 44  1  0  0  0  0
 43 51  1  1  0  0  0
 45 46  1  0  0  0  0
 47 37  1  0  0  0  0
 47 48  1  1  0  0  0
 49 50  1  0  0  0  0
 51 52  1  0  0  0  0
M  END
>  <CHROM.1>
-172.42911553,143.82256688,153.77338121,-162.70038834,83.64652359,-169.12963287
-63.88826335,175.34760046,-67.09830372,-94.19671578,161.70404790,-168.54111425
20.41498319,-7.44029570,16.07325888,-1.66782313,0.32947071,3.06058304

>  <Name>
2esj_lig

>  <RI>
0

>  <Rbt.Current_Directory>
/home/itssahil/PROJECTS/Mol_Feturizer/New_Systems/rnas/2esj

>  <Rbt.Executable>
rbdock ($Id: //depot/dev/client3/rdock/2013.1/src/exe/rbdock.cxx#4 $)

>  <Rbt.Library>
libRbt.so (2013.1, Build901 2013/11/27)

>  <Rbt.Parameter_File>
/export/apps/rDock/src/rDock_2013.1_src/data/scripts/dock_solv.prm

>  <Rbt.Receptor>
prm/pocket_docking_8.prm

>  <SCORE>
-12.3129

>  <SCORE.INTER>
-9.16103

>  <SCORE.INTER.CONST>
1

>  <SCORE.INTER.POLAR>
-0.966385

>  <SCORE.INTER.ROT>
12

>  <SCORE.INTER.SOLV>
20.7261

>  <SCORE.INTER.VDW>
-21.3948

>  <SCORE.INTER.norm>
-0.176174

>  <SCORE.INTRA>
-3.15184

>  <SCORE.INTRA.DIHEDRAL>
-10.7335

>  <SCORE.INTRA.DIHEDRAL.0>
32.9766

>  <SCORE.INTRA.POLAR>
0

>  <SCORE.INTRA.POLAR.0>
0

>  <SCORE.INTRA.REPUL>
0

>  <SCORE.INTRA.REPUL.0>
0

>  <SCORE.INTRA.SOLV>
-1.55999

>  <SCORE.INTRA.SOLV.lig_0>
-114.358

>  <SCORE.INTRA.VDW>
2.9949

>  <SCORE.INTRA.VDW.0>
-8.24257

>  <SCORE.INTRA.norm>
-0.0606122

>  <SCORE.RESTR>
0

>  <SCORE.RESTR.CAVITY>
0

>  <SCORE.RESTR.norm>
0

>  <SCORE.SYSTEM>
0

>  <SCORE.SYSTEM.CONST>
0

>  <SCORE.SYSTEM.DIHEDRAL>
0

>  <SCORE.SYSTEM.SOLV>
0

>  <SCORE.SYSTEM.norm>
0

>  <SCORE.heavy>
52

>  <SCORE.norm>
-0.236786

>  <RMSD>
9.200

$$$$
2esj_lig
 OpenBabel11021811423D
libRbt.so/2013.1/901 2013/11/27
 52 56  0  0  0  0  0  0  0  0999 V2000
   18.6565   -2.9522   10.2683 C   0  0  2  0  0  0  0  0  0  0  0  0
   18.8340   -1.7844   11.0927 O   0  0  0  0  0  0  0  0  0  0  0  0
   22.3102    0.0664   12.7595 C   0  0  2  0  0  0  0  0  0  0  0  0
   23.4636    0.4289   13.5996 N   0  0  0  0  0  0  0  0  0  0  0  0
   21.5583   -4.1741   11.4882 C   0  0  1  0  0  0  0  0  0  0  0  0
   23.4479   -7.2014   13.5608 C   0  0  1  0  0  0  0  0  0  0  0  0
   22.1131  -11.6347   15.4888 C   0  0  1  0  0  0  0  0  0  0  0  0
   17.4765   -2.6632    9.2941 C   0  0  2  0  0  0  0  0  0  0  0  0
   17.7013   -1.4594    8.4944 N   0  0  0  0  0  0  0  0  0  0  0  0
   20.9850    0.0576   13.6205 C   0  0  0  0  0  0  0  0  0  0  0  0
   22.9785   -4.2718   12.0468 C   0  0  2  0  0  0  0  0  0  0  0  0
   23.8556   -5.0353   11.1906 O   0  0  0  0  0  0  0  0  0  0  0  0
   22.8332   -8.6267   13.1978 C   0  0  2  0  0  0  0  0  0  0  0  0
   21.4669   -8.7796   13.7642 N   0  0  0  0  0  0  0  0  0  0  0  0
   20.8601  -11.3274   16.3006 C   0  0  1  0  0  0  0  0  0  0  0  0
   19.7512  -12.0739   15.7609 O   0  0  0  0  0  0  0  0  0  0  0  0
   16.1287   -2.5381   10.0731 C   0  0  0  0  0  0  0  0  0  0  0  0
   19.7502   -0.2753   12.6899 C   0  0  2  0  0  0  0  0  0  0  0  0
   18.5076   -0.3031   13.4683 N   0  0  0  0  0  0  0  0  0  0  0  0
   22.7061   -4.9110   13.3776 C   0  0  2  0  0  0  0  0  0  0  0  0
   22.4502   -6.2838   13.2211 O   0  0  0  0  0  0  0  0  0  0  0  0
   23.8682   -9.7595   13.6227 C   0  0  1  0  0  0  0  0  0  0  0  0
   25.1482   -9.4509   13.0614 O   0  0  0  0  0  0  0  0  0  0  0  0
   20.9565  -11.6383   17.7894 C   0  0  1  0  0  0  0  0  0  0  0  0
   19.6379  -11.5153   18.3338 O   0  0  0  0  0  0  0  0  0  0  0  0
   15.9241   -3.8201   10.9336 C   0  0  2  0  0  0  0  0  0  0  0  0
   14.6794   -3.8076   11.6094 O   0  0  0  0  0  0  0  0  0  0  0  0
   19.9663   -1.6312   11.9688 C   0  0  2  0  0  0  0  0  0  0  0  0
   21.3588   -4.3323   13.8566 C   0  0  2  0  0  0  0  0  0  0  0  0
   20.6945   -4.0773   12.6292 O   0  0  0  0  0  0  0  0  0  0  0  0
   24.0810   -9.7893   15.1922 C   0  0  2  0  0  0  0  0  0  0  0  0
   22.7968  -10.1324   15.7150 O   0  0  0  0  0  0  0  0  0  0  0  0
   21.5023  -13.0346   18.0935 C   0  0  2  0  0  0  0  0  0  0  0  0
   21.8252  -13.0600   19.4935 O   0  0  0  0  0  0  0  0  0  0  0  0
   17.1095   -3.9373   11.9235 C   0  0  2  0  0  0  0  0  0  0  0  0
   18.3243   -4.0658   11.1305 O   0  0  0  0  0  0  0  0  0  0  0  0
   21.3188   -1.7348   11.1936 C   0  0  2  0  0  0  0  0  0  0  0  0
   21.4510   -3.0661   10.6222 O   0  0  0  0  0  0  0  0  0  0  0  0
   21.4237   -3.0426   14.6741 C   0  0  0  0  0  0  0  0  0  0  0  0
   22.1426   -3.3321   15.8820 O   0  0  0  0  0  0  0  0  0  0  0  0
   24.3161   -8.3480   15.6015 C   0  0  1  0  0  0  0  0  0  0  0  0
   23.7935   -7.1264   15.0366 O   0  0  0  0  0  0  0  0  0  0  0  0
   22.6652  -13.3929   17.1750 C   0  0  2  0  0  0  0  0  0  0  0  0
   22.7322  -12.8990   15.8283 O   0  0  0  0  0  0  0  0  0  0  0  0
   17.0437   -5.1614   12.7719 C   0  0  0  0  0  0  0  0  0  0  0  0
   18.0520   -5.0534   13.7474 O   0  0  0  0  0  0  0  0  0  0  0  0
   22.5225   -1.3522   12.1193 C   0  0  1  0  0  0  0  0  0  0  0  0
   23.7057   -1.2848   11.2797 O   0  0  0  0  0  0  0  0  0  0  0  0
   24.6605   -8.1005   17.1025 C   0  0  0  0  0  0  0  0  0  0  0  0
   25.0098   -6.6955   17.4001 N   0  0  0  0  0  0  0  0  0  0  0  0
   23.3999  -14.7297   17.2439 C   0  0  0  0  0  0  0  0  0  0  0  0
   24.0010  -15.0318   15.9569 O   0  0  0  0  0  0  0  0  0  0  0  0
  1  2  1  1  0  0  0
  1  8  1  0  0  0  0
  1 36  1  0  0  0  0
  3  4  1  1  0  0  0
  3 10  1  0  0  0  0
  3 47  1  0  0  0  0
  5 11  1  0  0  0  0
  5 30  1  0  0  0  0
  5 38  1  6  0  0  0
  6 21  1  1  0  0  0
  6 42  1  0  0  0  0
  7 15  1  0  0  0  0
  7 44  1  0  0  0  0
  7 32  1  1  0  0  0
  8  9  1  1  0  0  0
  8 17  1  0  0  0  0
 11 12  1  6  0  0  0
 11 20  1  0  0  0  0
 13  6  1  0  0  0  0
 13 14  1  1  0  0  0
 15 16  1  6  0  0  0
 15 24  1  0  0  0  0
 17 26  1  0  0  0  0
 18 10  1  0  0  0  0
 18 19  1  1  0  0  0
 20 21  1  6  0  0  0
 20 29  1  0  0  0  0
 22 13  1  0  0  0  0
 22 23  1  6  0  0  0
 24 25  1  6  0  0  0
 24 33  1  0  0  0  0
 26 27  1  1  0  0  0
 26 35  1  0  0  0  0
 28  2  1  6  0  0  0
 28 18  1  0  0  0  0
 29 30  1  0  0  0  0
 29 39  1  6  0  0  0
 31 22  1  0  0  0  0
 31 32  1  1  0  0  0
 31 41  1  0  0  0  0
 33 34  1  1  0  0  0
 33 43  1  0  0  0  0
 35 36  1  0  0  0  0
 35 45  1  1  0  0  0
 37 28  1  0  0  0  0
 37 38  1  1  0  0  0
 39 40  1  0  0  0  0
 41 42  1  0  0  0  0
 41 49  1  1  0  0  0
 43 44  1  0  0  0  0
 43 51  1  6  0  0  0
 45 46  1  0  0  0  0
 47 37  1  0  0  0  0
 47 48  1  6  0  0  0
 49 50  1  0  0  0  0
 51 52  1  0  0  0  0
M  END
>  <CHROM.1>
-170.55274347,-78.19510457,-177.64433521,178.20813793,103.82873868,-178.41065239
-63.10897027,68.13669004,-171.58763006,-64.97673670,174.16858280,154.72455979
21.23164544,-6.20677891,13.74578594,1.84876094,-0.24250861,-0.39832443

>  <Name>
2esj_lig

>  <RI>
0

>  <Rbt.Current_Directory>
/home/itssahil/PROJECTS/Mol_Feturizer/New_Systems/rnas/2esj

>  <Rbt.Executable>
rbdock ($Id: //depot/dev/client3/rdock/2013.1/src/exe/rbdock.cxx#4 $)

>  <Rbt.Library>
libRbt.so (2013.1, Build901 2013/11/27)

>  <Rbt.Parameter_File>
/export/apps/rDock/src/rDock_2013.1_src/data/scripts/dock_solv.prm

>  <Rbt.Receptor>
prm/pocket_docking_8.prm

>  <SCORE>
-21.3797

>  <SCORE.INTER>
-13.4565

>  <SCORE.INTER.CONST>
1

>  <SCORE.INTER.POLAR>
-1.52637

>  <SCORE.INTER.ROT>
12

>  <SCORE.INTER.SOLV>
12.9687

>  <SCORE.INTER.VDW>
-19.806

>  <SCORE.INTER.norm>
-0.258779

>  <SCORE.INTRA>
-7.94046

>  <SCORE.INTRA.DIHEDRAL>
-18.9672

>  <SCORE.INTRA.DIHEDRAL.0>
32.9766

>  <SCORE.INTRA.POLAR>
0

>  <SCORE.INTRA.POLAR.0>
0

>  <SCORE.INTRA.REPUL>
0.0351891

>  <SCORE.INTRA.REPUL.0>
0

>  <SCORE.INTRA.SOLV>
-1.88437

>  <SCORE.INTRA.SOLV.lig_0>
-114.358

>  <SCORE.INTRA.VDW>
2.30937

>  <SCORE.INTRA.VDW.0>
-8.24257

>  <SCORE.INTRA.norm>
-0.152701

>  <SCORE.RESTR>
0.0172333

>  <SCORE.RESTR.CAVITY>
0.0172333

>  <SCORE.RESTR.norm>
0.00033141

>  <SCORE.SYSTEM>
0

>  <SCORE.SYSTEM.CONST>
0

>  <SCORE.SYSTEM.DIHEDRAL>
0

>  <SCORE.SYSTEM.SOLV>
0

>  <SCORE.SYSTEM.norm>
0

>  <SCORE.heavy>
52

>  <SCORE.norm>
-0.411149

>  <RMSD>
9.260

$$$$
2esj_lig
 OpenBabel11021811423D
libRbt.so/2013.1/901 2013/11/27
 52 56  0  0  0  0  0  0  0  0999 V2000
   24.0873   -0.5464   18.0963 C   0  0  2  0  0  0  0  0  0  0  0  0
   24.9897   -1.1935   17.1788 O   0  0  0  0  0  0  0  0  0  0  0  0
   24.5870   -2.6162   13.1661 C   0  0  2  0  0  0  0  0  0  0  0  0
   24.2715   -3.3995   11.9602 N   0  0  0  0  0  0  0  0  0  0  0  0
   21.4926   -1.7951   16.3107 C   0  0  1  0  0  0  0  0  0  0  0  0
   18.5670   -4.3671   17.3998 C   0  0  1  0  0  0  0  0  0  0  0  0
   19.8179   -8.6059   19.7611 C   0  0  1  0  0  0  0  0  0  0  0  0
   24.9509    0.1694   19.1765 C   0  0  2  0  0  0  0  0  0  0  0  0
   25.9017    1.1128   18.5890 N   0  0  0  0  0  0  0  0  0  0  0  0
   25.4172   -3.4911   14.1874 C   0  0  0  0  0  0  0  0  0  0  0  0
   20.2823   -1.1203   16.9573 C   0  0  2  0  0  0  0  0  0  0  0  0
   20.4964   -0.8281   18.3552 O   0  0  0  0  0  0  0  0  0  0  0  0
   18.5602   -5.0999   18.8155 C   0  0  2  0  0  0  0  0  0  0  0  0
   19.9402   -5.2426   19.3502 N   0  0  0  0  0  0  0  0  0  0  0  0
   21.3358   -8.5022   19.8545 C   0  0  1  0  0  0  0  0  0  0  0  0
   21.7241   -8.4744   21.2427 O   0  0  0  0  0  0  0  0  0  0  0  0
   25.7122   -0.8696   20.0597 C   0  0  0  0  0  0  0  0  0  0  0  0
   25.7972   -2.6158   15.4488 C   0  0  2  0  0  0  0  0  0  0  0  0
   26.5578   -3.4093   16.4197 N   0  0  0  0  0  0  0  0  0  0  0  0
   19.2226   -2.1518   16.6984 C   0  0  2  0  0  0  0  0  0  0  0  0
   19.3582   -3.2308   17.5882 O   0  0  0  0  0  0  0  0  0  0  0  0
   17.7435   -6.4609   18.6892 C   0  0  1  0  0  0  0  0  0  0  0  0
   16.4670   -6.1820   18.1048 O   0  0  0  0  0  0  0  0  0  0  0  0
   22.1083   -9.6248   19.1723 C   0  0  1  0  0  0  0  0  0  0  0  0
   23.4798   -9.4924   19.5616 O   0  0  0  0  0  0  0  0  0  0  0  0
   24.6821   -1.8753   20.6541 C   0  0  2  0  0  0  0  0  0  0  0  0
   25.2969   -2.8027   21.5305 O   0  0  0  0  0  0  0  0  0  0  0  0
   24.5199   -2.0344   16.1086 C   0  0  2  0  0  0  0  0  0  0  0  0
   19.5532   -2.7607   15.3201 C   0  0  2  0  0  0  0  0  0  0  0  0
   20.9655   -2.6333   15.2729 O   0  0  0  0  0  0  0  0  0  0  0  0
   18.4575   -7.4745   17.7032 C   0  0  2  0  0  0  0  0  0  0  0  0
   19.7085   -7.7557   18.3327 O   0  0  0  0  0  0  0  0  0  0  0  0
   21.6111  -11.0250   19.5360 C   0  0  2  0  0  0  0  0  0  0  0  0
   22.2080  -11.9358   18.5986 O   0  0  0  0  0  0  0  0  0  0  0  0
   23.9642   -2.5884   19.4814 C   0  0  2  0  0  0  0  0  0  0  0  0
   23.2667   -1.5652   18.7148 O   0  0  0  0  0  0  0  0  0  0  0  0
   23.5893   -1.2560   15.1241 C   0  0  2  0  0  0  0  0  0  0  0  0
   22.3919   -0.8221   15.8273 O   0  0  0  0  0  0  0  0  0  0  0  0
   18.9417   -2.0656   14.1041 C   0  0  0  0  0  0  0  0  0  0  0  0
   19.2934   -2.8343   12.9444 O   0  0  0  0  0  0  0  0  0  0  0  0
   18.7967   -6.6700   16.4631 C   0  0  1  0  0  0  0  0  0  0  0  0
   19.1433   -5.2748   16.3288 O   0  0  0  0  0  0  0  0  0  0  0  0
   20.0883  -11.0828   19.5839 C   0  0  2  0  0  0  0  0  0  0  0  0
   19.3102   -9.9439   19.9832 O   0  0  0  0  0  0  0  0  0  0  0  0
   22.9153   -3.5462   19.9340 C   0  0  0  0  0  0  0  0  0  0  0  0
   22.4656   -4.2465   18.7993 O   0  0  0  0  0  0  0  0  0  0  0  0
   23.2672   -2.1217   13.8596 C   0  0  1  0  0  0  0  0  0  0  0  0
   22.5688   -1.2641   12.9183 O   0  0  0  0  0  0  0  0  0  0  0  0
   19.4235   -7.4603   15.2735 C   0  0  0  0  0  0  0  0  0  0  0  0
   19.5595   -8.9081   15.5380 N   0  0  0  0  0  0  0  0  0  0  0  0
   19.3133  -12.3518   19.9313 C   0  0  0  0  0  0  0  0  0  0  0  0
   19.4432  -12.6396   21.3487 O   0  0  0  0  0  0  0  0  0  0  0  0
  1  2  1  6  0  0  0
  1  8  1  0  0  0  0
  1 36  1  0  0  0  0
  3  4  1  6  0  0  0
  3 10  1  0  0  0  0
  3 47  1  0  0  0  0
  5 11  1  0  0  0  0
  5 30  1  0  0  0  0
  5 38  1  6  0  0  0
  6 21  1  1  0  0  0
  6 42  1  0  0  0  0
  7 15  1  0  0  0  0
  7 44  1  0  0  0  0
  7 32  1  6  0  0  0
  8  9  1  6  0  0  0
  8 17  1  0  0  0  0
 11 12  1  1  0  0  0
 11 20  1  0  0  0  0
 13  6  1  0  0  0  0
 13 14  1  6  0  0  0
 15 16  1  1  0  0  0
 15 24  1  0  0  0  0
 17 26  1  0  0  0  0
 18 10  1  0  0  0  0
 18 19  1  1  0  0  0
 20 21  1  1  0  0  0
 20 29  1  0  0  0  0
 22 13  1  0  0  0  0
 22 23  1  6  0  0  0
 24 25  1  1  0  0  0
 24 33  1  0  0  0  0
 26 27  1  1  0  0  0
 26 35  1  0  0  0  0
 28  2  1  1  0  0  0
 28 18  1  0  0  0  0
 29 30  1  0  0  0  0
 29 39  1  6  0  0  0
 31 22  1  0  0  0  0
 31 32  1  1  0  0  0
 31 41  1  0  0  0  0
 33 34  1  6  0  0  0
 33 43  1  0  0  0  0
 35 36  1  0  0  0  0
 35 45  1  1  0  0  0
 37 28  1  0  0  0  0
 37 38  1  1  0  0  0
 39 40  1  0  0  0  0
 41 42  1  0  0  0  0
 41 49  1  1  0  0  0
 43 44  1  0  0  0  0
 43 51  1  1  0  0  0
 45 46  1  0  0  0  0
 47 37  1  0  0  0  0
 47 48  1  6  0  0  0
 49 50  1  0  0  0  0
 51 52  1  0  0  0  0
M  END
>  <CHROM.1>
175.24578582,-177.49581971,-159.24930111,-178.64939589,-172.23977722,-175.37990197
-176.13925630,67.76997033,-172.53904516,-65.50231300,1.45976366,72.46208774
21.66631339,-4.74165009,17.54495290,-1.07918311,0.62369705,2.50454477

>  <Name>
2esj_lig

>  <RI>
2.18877e+07

>  <Rbt.Current_Directory>
/home/itssahil/PROJECTS/Mol_Feturizer/New_Systems/rnas/2esj

>  <Rbt.Executable>
rbdock ($Id: //depot/dev/client3/rdock/2013.1/src/exe/rbdock.cxx#4 $)

>  <Rbt.Library>
libRbt.so (2013.1, Build901 2013/11/27)

>  <Rbt.Parameter_File>
/export/apps/rDock/src/rDock_2013.1_src/data/scripts/dock_solv.prm

>  <Rbt.Receptor>
prm/pocket_docking_7.prm

>  <SCORE>
-18.6173

>  <SCORE.INTER>
-8.40757

>  <SCORE.INTER.CONST>
1

>  <SCORE.INTER.POLAR>
-0.979796

>  <SCORE.INTER.ROT>
12

>  <SCORE.INTER.SOLV>
9.41658

>  <SCORE.INTER.VDW>
-17.0779

>  <SCORE.INTER.norm>
-0.161684

>  <SCORE.INTRA>
-10.2097

>  <SCORE.INTRA.DIHEDRAL>
-24.3024

>  <SCORE.INTRA.DIHEDRAL.0>
32.9766

>  <SCORE.INTRA.POLAR>
0

>  <SCORE.INTRA.POLAR.0>
0

>  <SCORE.INTRA.REPUL>
0.00389556

>  <SCORE.INTRA.REPUL.0>
0

>  <SCORE.INTRA.SOLV>
0.115481

>  <SCORE.INTRA.SOLV.lig_0>
-114.358

>  <SCORE.INTRA.VDW>
1.86427

>  <SCORE.INTRA.VDW.0>
-8.24257

>  <SCORE.INTRA.norm>
-0.19634

>  <SCORE.RESTR>
0

>  <SCORE.RESTR.CAVITY>
0

>  <SCORE.RESTR.norm>
0

>  <SCORE.SYSTEM>
0

>  <SCORE.SYSTEM.CONST>
0

>  <SCORE.SYSTEM.DIHEDRAL>
0

>  <SCORE.SYSTEM.SOLV>
0

>  <SCORE.SYSTEM.norm>
0

>  <SCORE.heavy>
52

>  <SCORE.norm>
-0.358024

>  <RMSD>
9.274

$$$$
2esj_lig
 OpenBabel11021811423D
libRbt.so/2013.1/901 2013/11/27
 52 56  0  0  0  0  0  0  0  0999 V2000
   20.0504   -1.4329   11.3136 C   0  0  2  0  0  0  0  0  0  0  0  0
   20.3350   -2.8169   11.5933 O   0  0  0  0  0  0  0  0  0  0  0  0
   16.5230   -4.0300   13.1048 C   0  0  2  0  0  0  0  0  0  0  0  0
   15.3793   -4.7938   13.6301 N   0  0  0  0  0  0  0  0  0  0  0  0
   20.8268   -4.4175   14.5974 C   0  0  1  0  0  0  0  0  0  0  0  0
   23.7808   -7.4384   14.7728 C   0  0  1  0  0  0  0  0  0  0  0  0
   22.1954  -11.5522   17.2893 C   0  0  1  0  0  0  0  0  0  0  0  0
   21.2240   -0.8775   10.4538 C   0  0  2  0  0  0  0  0  0  0  0  0
   21.4275   -1.6513    9.2295 N   0  0  0  0  0  0  0  0  0  0  0  0
   17.0120   -4.6467   11.7344 C   0  0  0  0  0  0  0  0  0  0  0  0
   22.2609   -4.1582   14.1340 C   0  0  2  0  0  0  0  0  0  0  0  0
   22.4202   -4.3377   12.7100 O   0  0  0  0  0  0  0  0  0  0  0  0
   23.3381   -8.7205   13.9354 C   0  0  2  0  0  0  0  0  0  0  0  0
   21.8865   -8.9946   14.1048 N   0  0  0  0  0  0  0  0  0  0  0  0
   22.7984  -12.9138   16.9638 C   0  0  1  0  0  0  0  0  0  0  0  0
   23.1145  -13.5978   18.1929 O   0  0  0  0  0  0  0  0  0  0  0  0
   22.5485   -0.8348   11.2802 C   0  0  0  0  0  0  0  0  0  0  0  0
   18.2013   -3.7786   11.1568 C   0  0  2  0  0  0  0  0  0  0  0  0
   18.6833   -4.3383    9.8898 N   0  0  0  0  0  0  0  0  0  0  0  0
   23.0040   -5.1608   14.9687 C   0  0  2  0  0  0  0  0  0  0  0  0
   22.8464   -6.4536   14.4414 O   0  0  0  0  0  0  0  0  0  0  0  0
   24.2994   -9.9354   14.3030 C   0  0  1  0  0  0  0  0  0  0  0  0
   25.6584   -9.5108   14.1559 O   0  0  0  0  0  0  0  0  0  0  0  0
   21.9168  -13.8330   16.1271 C   0  0  1  0  0  0  0  0  0  0  0  0
   22.5339  -15.1251   16.1252 O   0  0  0  0  0  0  0  0  0  0  0  0
   22.2997   -0.0263   12.5880 C   0  0  2  0  0  0  0  0  0  0  0  0
   23.4840    0.1181   13.3513 O   0  0  0  0  0  0  0  0  0  0  0  0
   19.3590   -3.6944   12.1853 C   0  0  2  0  0  0  0  0  0  0  0  0
   22.2640   -5.2163   16.3211 C   0  0  2  0  0  0  0  0  0  0  0  0
   20.9321   -4.9083   15.9410 O   0  0  0  0  0  0  0  0  0  0  0  0
   24.1415  -10.3591   15.8211 C   0  0  2  0  0  0  0  0  0  0  0  0
   22.7890  -10.8073   15.9224 O   0  0  0  0  0  0  0  0  0  0  0  0
   20.4842  -13.9563   16.6491 C   0  0  2  0  0  0  0  0  0  0  0  0
   19.7139  -14.5806   15.6091 O   0  0  0  0  0  0  0  0  0  0  0  0
   21.1839   -0.7354   13.3949 C   0  0  2  0  0  0  0  0  0  0  0  0
   19.9817   -0.7239   12.5732 O   0  0  0  0  0  0  0  0  0  0  0  0
   18.9208   -3.2041   13.6025 C   0  0  2  0  0  0  0  0  0  0  0  0
   20.0634   -3.2354   14.5026 O   0  0  0  0  0  0  0  0  0  0  0  0
   22.7260   -4.2280   17.3913 C   0  0  0  0  0  0  0  0  0  0  0  0
   21.9873   -4.5108   18.5888 O   0  0  0  0  0  0  0  0  0  0  0  0
   24.2040   -9.0687   16.6156 C   0  0  1  0  0  0  0  0  0  0  0  0
   23.7686   -7.7388   16.2603 O   0  0  0  0  0  0  0  0  0  0  0  0
   19.9393  -12.6092   17.1106 C   0  0  2  0  0  0  0  0  0  0  0  0
   20.8011  -11.6096   17.6762 O   0  0  0  0  0  0  0  0  0  0  0  0
   20.8266   -0.0188   14.6524 C   0  0  0  0  0  0  0  0  0  0  0  0
   20.4498    1.2903   14.2995 O   0  0  0  0  0  0  0  0  0  0  0  0
   17.7103   -4.0439   14.1332 C   0  0  1  0  0  0  0  0  0  0  0  0
   17.2458   -3.4053   15.3521 O   0  0  0  0  0  0  0  0  0  0  0  0
   24.1763   -9.2084   18.1688 C   0  0  0  0  0  0  0  0  0  0  0  0
   22.8812   -8.8249   18.7692 N   0  0  0  0  0  0  0  0  0  0  0  0
   18.5372  -12.4316   17.6889 C   0  0  0  0  0  0  0  0  0  0  0  0
   17.7578  -11.5504   16.8376 O   0  0  0  0  0  0  0  0  0  0  0  0
  1  2  1  1  0  0  0
  1  8  1  0  0  0  0
  1 36  1  0  0  0  0
  3  4  1  1  0  0  0
  3 10  1  0  0  0  0
  3 47  1  0  0  0  0
  5 11  1  0  0  0  0
  5 30  1  0  0  0  0
  5 38  1  1  0  0  0
  6 21  1  1  0  0  0
  6 42  1  0  0  0  0
  7 15  1  0  0  0  0
  7 44  1  0  0  0  0
  7 32  1  6  0  0  0
  8  9  1  6  0  0  0
  8 17  1  0  0  0  0
 11 12  1  6  0  0  0
 11 20  1  0  0  0  0
 13  6  1  0  0  0  0
 13 14  1  1  0  0  0
 15 16  1  1  0  0  0
 15 24  1  0  0  0  0
 17 26  1  0  0  0  0
 18 10  1  0  0  0  0
 18 19  1  6  0  0  0
 20 21  1  6  0  0  0
 20 29  1  0  0  0  0
 22 13  1  0  0  0  0
 22 23  1  1  0  0  0
 24 25  1  1  0  0  0
 24 33  1  0  0  0  0
 26 27  1  1  0  0  0
 26 35  1  0  0  0  0
 28  2  1  6  0  0  0
 28 18  1  0  0  0  0
 29 30  1  0  0  0  0
 29 39  1  1  0  0  0
 31 22  1  0  0  0  0
 31 32  1  6  0  0  0
 31 41  1  0  0  0  0
 33 34  1  6  0  0  0
 33 43  1  0  0  0  0
 35 36  1  0  0  0  0
 35 45  1  1  0  0  0
 37 28  1  0  0  0  0
 37 38  1  1  0  0  0
 39 40  1  0  0  0  0
 41 42  1  0  0  0  0
 41 49  1  1  0  0  0
 43 44  1  0  0  0  0
 43 51  1  1  0  0  0
 45 46  1  0  0  0  0
 47 37  1  0  0  0  0
 47 48  1  1  0  0  0
 49 50  1  0  0  0  0
 51 52  1  0  0  0  0
M  END
>  <CHROM.1>
-169.89887397,117.42175810,-176.59442575,-79.45366035,158.75517865,63.38299237
-175.73781495,171.56506405,56.74505488,-51.26210821,-105.58782967,-117.54614374
21.21636037,-6.45155073,14.69314141,1.71573198,-0.25653704,-0.33229191

>  <Name>
2esj_lig

>  <RI>
2.18877e+07

>  <Rbt.Current_Directory>
/home/itssahil/PROJECTS/Mol_Feturizer/New_Systems/rnas/2esj

>  <Rbt.Executable>
rbdock ($Id: //depot/dev/client3/rdock/2013.1/src/exe/rbdock.cxx#4 $)

>  <Rbt.Library>
libRbt.so (2013.1, Build901 2013/11/27)

>  <Rbt.Parameter_File>
/export/apps/rDock/src/rDock_2013.1_src/data/scripts/dock_solv.prm

>  <Rbt.Receptor>
prm/pocket_docking_7.prm

>  <SCORE>
-17.6449

>  <SCORE.INTER>
-11.8663

>  <SCORE.INTER.CONST>
1

>  <SCORE.INTER.POLAR>
-1.63937

>  <SCORE.INTER.ROT>
12

>  <SCORE.INTER.SOLV>
16.4453

>  <SCORE.INTER.VDW>
-19.5281

>  <SCORE.INTER.norm>
-0.228198

>  <SCORE.INTRA>
-5.77865

>  <SCORE.INTRA.DIHEDRAL>
-14.0085

>  <SCORE.INTRA.DIHEDRAL.0>
32.9766

>  <SCORE.INTRA.POLAR>
0

>  <SCORE.INTRA.POLAR.0>
0

>  <SCORE.INTRA.REPUL>
0

>  <SCORE.INTRA.REPUL.0>
0

>  <SCORE.INTRA.SOLV>
-0.643044

>  <SCORE.INTRA.SOLV.lig_0>
-114.358

>  <SCORE.INTRA.VDW>
1.54712

>  <SCORE.INTRA.VDW.0>
-8.24257

>  <SCORE.INTRA.norm>
-0.111128

>  <SCORE.RESTR>
0

>  <SCORE.RESTR.CAVITY>
0

>  <SCORE.RESTR.norm>
0

>  <SCORE.SYSTEM>
0

>  <SCORE.SYSTEM.CONST>
0

>  <SCORE.SYSTEM.DIHEDRAL>
0

>  <SCORE.SYSTEM.SOLV>
0

>  <SCORE.SYSTEM.norm>
0

>  <SCORE.heavy>
52

>  <SCORE.norm>
-0.339326

>  <RMSD>
9.324

$$$$
2esj_lig
 OpenBabel11021811423D
libRbt.so/2013.1/901 2013/11/27
 52 56  0  0  0  0  0  0  0  0999 V2000
   19.5158   -0.6019   10.9586 C   0  0  2  0  0  0  0  0  0  0  0  0
   19.4987   -1.7717   11.7988 O   0  0  0  0  0  0  0  0  0  0  0  0
   23.6885   -2.1747   12.5542 C   0  0  2  0  0  0  0  0  0  0  0  0
   25.0060   -2.5318   13.1057 N   0  0  0  0  0  0  0  0  0  0  0  0
   20.5320   -5.2776   11.8201 C   0  0  1  0  0  0  0  0  0  0  0  0
   19.6324   -8.7528   13.9600 C   0  0  1  0  0  0  0  0  0  0  0  0
   22.0478   -8.3427   18.2650 C   0  0  1  0  0  0  0  0  0  0  0  0
   18.0483   -0.3161   10.5231 C   0  0  2  0  0  0  0  0  0  0  0  0
   17.1531   -0.1528   11.6681 N   0  0  0  0  0  0  0  0  0  0  0  0
   22.7920   -1.5002   13.6672 C   0  0  0  0  0  0  0  0  0  0  0  0
   19.7986   -6.4131   11.1049 C   0  0  2  0  0  0  0  0  0  0  0  0
   18.3693   -6.2101   11.0711 O   0  0  0  0  0  0  0  0  0  0  0  0
   19.5474   -8.1984   15.4521 C   0  0  2  0  0  0  0  0  0  0  0  0
   20.4850   -7.0622   15.6544 N   0  0  0  0  0  0  0  0  0  0  0  0
   23.1565   -7.3360   17.9805 C   0  0  1  0  0  0  0  0  0  0  0  0
   22.9409   -6.1556   18.7796 O   0  0  0  0  0  0  0  0  0  0  0  0
   17.5136   -1.4482    9.5895 C   0  0  0  0  0  0  0  0  0  0  0  0
   21.4043   -1.0703   13.0417 C   0  0  2  0  0  0  0  0  0  0  0  0
   20.5468   -0.4530   14.0587 N   0  0  0  0  0  0  0  0  0  0  0  0
   20.2353   -7.5862   11.9339 C   0  0  2  0  0  0  0  0  0  0  0  0
   19.5319   -7.6187   13.1499 O   0  0  0  0  0  0  0  0  0  0  0  0
   19.7324   -9.4120   16.4660 C   0  0  1  0  0  0  0  0  0  0  0  0
   18.8143  -10.4524   16.1147 O   0  0  0  0  0  0  0  0  0  0  0  0
   24.5719   -7.8334   18.2484 C   0  0  1  0  0  0  0  0  0  0  0  0
   25.4430   -6.7007   18.1574 O   0  0  0  0  0  0  0  0  0  0  0  0
   18.4950   -1.6183    8.3921 C   0  0  2  0  0  0  0  0  0  0  0  0
   18.0293   -2.5795    7.4619 O   0  0  0  0  0  0  0  0  0  0  0  0
   20.6944   -2.2945   12.4072 C   0  0  2  0  0  0  0  0  0  0  0  0
   21.6903   -7.2900   12.3520 C   0  0  2  0  0  0  0  0  0  0  0  0
   21.6990   -5.8722   12.4048 O   0  0  0  0  0  0  0  0  0  0  0  0
   21.1765  -10.0517   16.3450 C   0  0  2  0  0  0  0  0  0  0  0  0
   22.0611   -8.9998   16.7342 O   0  0  0  0  0  0  0  0  0  0  0  0
   24.7438   -8.4966   19.6161 C   0  0  2  0  0  0  0  0  0  0  0  0
   26.0091   -9.1773   19.5931 O   0  0  0  0  0  0  0  0  0  0  0  0
   19.8883   -1.9960    8.9533 C   0  0  2  0  0  0  0  0  0  0  0  0
   20.3282   -0.8936    9.7972 O   0  0  0  0  0  0  0  0  0  0  0  0
   21.5715   -3.0817   11.3816 C   0  0  2  0  0  0  0  0  0  0  0  0
   20.8391   -4.2462   10.9084 O   0  0  0  0  0  0  0  0  0  0  0  0
   22.7839   -7.7674   11.3970 C   0  0  0  0  0  0  0  0  0  0  0  0
   22.4925   -7.2253   10.1005 O   0  0  0  0  0  0  0  0  0  0  0  0
   21.4121  -10.2544   14.8606 C   0  0  1  0  0  0  0  0  0  0  0  0
   20.9429   -9.4839   13.7333 O   0  0  0  0  0  0  0  0  0  0  0  0
   23.5568   -9.3904   19.9574 C   0  0  2  0  0  0  0  0  0  0  0  0
   22.2324   -9.0805   19.4973 O   0  0  0  0  0  0  0  0  0  0  0  0
   20.9265   -2.1387    7.8930 C   0  0  0  0  0  0  0  0  0  0  0  0
   20.5764   -3.2522    7.1070 O   0  0  0  0  0  0  0  0  0  0  0  0
   22.9594   -3.4529   12.0046 C   0  0  1  0  0  0  0  0  0  0  0  0
   23.7765   -4.0022   10.9369 O   0  0  0  0  0  0  0  0  0  0  0  0
   22.7363  -10.9751   14.4604 C   0  0  0  0  0  0  0  0  0  0  0  0
   23.0103  -12.1861   15.2624 N   0  0  0  0  0  0  0  0  0  0  0  0
   23.4510  -10.1714   21.2653 C   0  0  0  0  0  0  0  0  0  0  0  0
   23.3293   -9.2523   22.3830 O   0  0  0  0  0  0  0  0  0  0  0  0
  1  2  1  1  0  0  0
  1  8  1  0  0  0  0
  1 36  1  0  0  0  0
  3  4  1  1  0  0  0
  3 10  1  0  0  0  0
  3 47  1  0  0  0  0
  5 11  1  0  0  0  0
  5 30  1  0  0  0  0
  5 38  1  6  0  0  0
  6 21  1  6  0  0  0
  6 42  1  0  0  0  0
  7 15  1  0  0  0  0
  7 44  1  0  0  0  0
  7 32  1  6  0  0  0
  8  9  1  1  0  0  0
  8 17  1  0  0  0  0
 11 12  1  1  0  0  0
 11 20  1  0  0  0  0
 13  6  1  0  0  0  0
 13 14  1  1  0  0  0
 15 16  1  1  0  0  0
 15 24  1  0  0  0  0
 17 26  1  0  0  0  0
 18 10  1  0  0  0  0
 18 19  1  1  0  0  0
 20 21  1  1  0  0  0
 20 29  1  0  0  0  0
 22 13  1  0  0  0  0
 22 23  1  6  0  0  0
 24 25  1  1  0  0  0
 24 33  1  0  0  0  0
 26 27  1  6  0  0  0
 26 35  1  0  0  0  0
 28  2  1  6  0  0  0
 28 18  1  0  0  0  0
 29 30  1  0  0  0  0
 29 39  1  6  0  0  0
 31 22  1  0  0  0  0
 31 32  1  6  0  0  0
 31 41  1  0  0  0  0
 33 34  1  6  0  0  0
 33 43  1  0  0  0  0
 35 36  1  0  0  0  0
 35 45  1  6  0  0  0
 37 28  1  0  0  0  0
 37 38  1  1  0  0  0
 39 40  1  0  0  0  0
 41 42  1  0  0  0  0
 41 49  1  1  0  0  0
 43 44  1  0  0  0  0
 43 51  1  1  0  0  0
 45 46  1  0  0  0  0
 47 37  1  0  0  0  0
 47 48  1  6  0  0  0
 49 50  1  0  0  0  0
 51 52  1  0  0  0  0
M  END
>  <CHROM.1>
-178.31004649,-178.41587676,146.41858635,-179.32708199,169.43597826,47.69974281
54.30224271,63.21620559,-66.44444421,-65.63834374,46.18428343,66.05442644
21.38400470,-5.80705987,13.77787361,-2.11885911,1.02619001,2.75322036

>  <Name>
2esj_lig

>  <RI>
2.18877e+07

>  <Rbt.Current_Directory>
/home/itssahil/PROJECTS/Mol_Feturizer/New_Systems/rnas/2esj

>  <Rbt.Executable>
rbdock ($Id: //depot/dev/client3/rdock/2013.1/src/exe/rbdock.cxx#4 $)

>  <Rbt.Library>
libRbt.so (2013.1, Build901 2013/11/27)

>  <Rbt.Parameter_File>
/export/apps/rDock/src/rDock_2013.1_src/data/scripts/dock_solv.prm

>  <Rbt.Receptor>
prm/pocket_docking_7.prm

>  <SCORE>
-16.9655

>  <SCORE.INTER>
-9.34212

>  <SCORE.INTER.CONST>
1

>  <SCORE.INTER.POLAR>
-1.08796

>  <SCORE.INTER.ROT>
12

>  <SCORE.INTER.SOLV>
14.1885

>  <SCORE.INTER.VDW>
-18.9311

>  <SCORE.INTER.norm>
-0.179656

>  <SCORE.INTRA>
-7.62839

>  <SCORE.INTRA.DIHEDRAL>
-21.7048

>  <SCORE.INTRA.DIHEDRAL.0>
32.9766

>  <SCORE.INTRA.POLAR>
0

>  <SCORE.INTRA.POLAR.0>
0

>  <SCORE.INTRA.REPUL>
0

>  <SCORE.INTRA.REPUL.0>
0

>  <SCORE.INTRA.SOLV>
-0.322943

>  <SCORE.INTRA.SOLV.lig_0>
-114.358

>  <SCORE.INTRA.VDW>
3.38546

>  <SCORE.INTRA.VDW.0>
-8.24257

>  <SCORE.INTRA.norm>
-0.1467

>  <SCORE.RESTR>
0.00502022

>  <SCORE.RESTR.CAVITY>
0.00502022

>  <SCORE.RESTR.norm>
9.65428e-05

>  <SCORE.SYSTEM>
0

>  <SCORE.SYSTEM.CONST>
0

>  <SCORE.SYSTEM.DIHEDRAL>
0

>  <SCORE.SYSTEM.SOLV>
0

>  <SCORE.SYSTEM.norm>
0

>  <SCORE.heavy>
52

>  <SCORE.norm>
-0.326259

>  <RMSD>
9.346

$$$$
2esj_lig
 OpenBabel11021811423D
libRbt.so/2013.1/901 2013/11/27
 52 56  0  0  0  0  0  0  0  0999 V2000
   21.1769   -1.0387   15.3816 C   0  0  2  0  0  0  0  0  0  0  0  0
   21.9927   -2.1944   15.1102 O   0  0  0  0  0  0  0  0  0  0  0  0
   23.1403   -1.3146   11.0857 C   0  0  2  0  0  0  0  0  0  0  0  0
   23.7561   -1.3234    9.7485 N   0  0  0  0  0  0  0  0  0  0  0  0
   21.4152   -4.9698   13.2764 C   0  0  1  0  0  0  0  0  0  0  0  0
   22.6212   -8.9385   14.1104 C   0  0  1  0  0  0  0  0  0  0  0  0
   20.5034  -12.4155   17.1506 C   0  0  1  0  0  0  0  0  0  0  0  0
   20.9652   -0.9659   16.9226 C   0  0  2  0  0  0  0  0  0  0  0  0
   22.2313   -0.9243   17.6538 N   0  0  0  0  0  0  0  0  0  0  0  0
   24.2565   -1.2785   12.2039 C   0  0  0  0  0  0  0  0  0  0  0  0
   20.3960   -6.0970   13.4471 C   0  0  2  0  0  0  0  0  0  0  0  0
   19.8746   -6.1689   14.7918 O   0  0  0  0  0  0  0  0  0  0  0  0
   21.3430   -9.8803   14.2528 C   0  0  2  0  0  0  0  0  0  0  0  0
   20.4534   -9.4120   15.3484 N   0  0  0  0  0  0  0  0  0  0  0  0
   19.9150  -11.5256   18.2393 C   0  0  1  0  0  0  0  0  0  0  0  0
   18.4913  -11.7413   18.3092 O   0  0  0  0  0  0  0  0  0  0  0  0
   20.1027   -2.1675   17.4240 C   0  0  0  0  0  0  0  0  0  0  0  0
   23.5761   -1.2095   13.6301 C   0  0  2  0  0  0  0  0  0  0  0  0
   24.5917   -1.1886   14.6880 N   0  0  0  0  0  0  0  0  0  0  0  0
   21.2268   -7.2809   13.0440 C   0  0  2  0  0  0  0  0  0  0  0  0
   22.1075   -7.6393   14.0785 O   0  0  0  0  0  0  0  0  0  0  0  0
   21.8262  -11.3922   14.3784 C   0  0  1  0  0  0  0  0  0  0  0  0
   22.7206  -11.6831   13.2994 O   0  0  0  0  0  0  0  0  0  0  0  0
   20.4917  -11.7356   19.6342 C   0  0  1  0  0  0  0  0  0  0  0  0
   19.6691  -11.0012   20.5475 O   0  0  0  0  0  0  0  0  0  0  0  0
   18.7722   -2.2038   16.6152 C   0  0  2  0  0  0  0  0  0  0  0  0
   17.9055   -3.2264   17.0726 O   0  0  0  0  0  0  0  0  0  0  0  0
   22.6136   -2.4091   13.8290 C   0  0  2  0  0  0  0  0  0  0  0  0
   22.1563   -6.7814   11.9187 C   0  0  2  0  0  0  0  0  0  0  0  0
   22.3248   -5.4147   12.2605 O   0  0  0  0  0  0  0  0  0  0  0  0
   22.6600  -11.6246   15.7050 C   0  0  2  0  0  0  0  0  0  0  0  0
   21.7300  -11.3594   16.7562 O   0  0  0  0  0  0  0  0  0  0  0  0
   20.5434  -13.2023   20.0655 C   0  0  2  0  0  0  0  0  0  0  0  0
   21.3791  -13.2642   21.2328 O   0  0  0  0  0  0  0  0  0  0  0  0
   19.1177   -2.3774   15.1154 C   0  0  2  0  0  0  0  0  0  0  0  0
   19.9049   -1.2191   14.7158 O   0  0  0  0  0  0  0  0  0  0  0  0
   21.5556   -2.5755   12.6914 C   0  0  2  0  0  0  0  0  0  0  0  0
   20.7595   -3.7677   12.9385 O   0  0  0  0  0  0  0  0  0  0  0  0
   21.6152   -6.8833   10.4930 C   0  0  0  0  0  0  0  0  0  0  0  0
   21.4606   -8.2771   10.1878 O   0  0  0  0  0  0  0  0  0  0  0  0
   23.6692  -10.4938   15.7584 C   0  0  1  0  0  0  0  0  0  0  0  0
   23.5653   -9.1347   15.2823 O   0  0  0  0  0  0  0  0  0  0  0  0
   20.9939  -14.1058   18.9230 C   0  0  2  0  0  0  0  0  0  0  0  0
   20.6803  -13.7942   17.5569 O   0  0  0  0  0  0  0  0  0  0  0  0
   17.9148   -2.3778   14.2347 C   0  0  0  0  0  0  0  0  0  0  0  0
   18.3571   -2.5954   12.9167 O   0  0  0  0  0  0  0  0  0  0  0  0
   22.2461   -2.5904   11.2860 C   0  0  1  0  0  0  0  0  0  0  0  0
   21.1912   -2.5509   10.2886 O   0  0  0  0  0  0  0  0  0  0  0  0
   24.7008  -10.5393   16.9274 C   0  0  0  0  0  0  0  0  0  0  0  0
   24.3339   -9.6730   18.0674 N   0  0  0  0  0  0  0  0  0  0  0  0
   21.1277  -15.6205   19.0619 C   0  0  0  0  0  0  0  0  0  0  0  0
   19.8148  -16.2222   19.2137 O   0  0  0  0  0  0  0  0  0  0  0  0
  1  2  1  1  0  0  0
  1  8  1  0  0  0  0
  1 36  1  0  0  0  0
  3  4  1  6  0  0  0
  3 10  1  0  0  0  0
  3 47  1  0  0  0  0
  5 11  1  0  0  0  0
  5 30  1  0  0  0  0
  5 38  1  6  0  0  0
  6 21  1  1  0  0  0
  6 42  1  0  0  0  0
  7 15  1  0  0  0  0
  7 44  1  0  0  0  0
  7 32  1  1  0  0  0
  8  9  1  1  0  0  0
  8 17  1  0  0  0  0
 11 12  1  1  0  0  0
 11 20  1  0  0  0  0
 13  6  1  0  0  0  0
 13 14  1  1  0  0  0
 15 16  1  1  0  0  0
 15 24  1  0  0  0  0
 17 26  1  0  0  0  0
 18 10  1  0  0  0  0
 18 19  1  1  0  0  0
 20 21  1  1  0  0  0
 20 29  1  0  0  0  0
 22 13  1  0  0  0  0
 22 23  1  6  0  0  0
 24 25  1  1  0  0  0
 24 33  1  0  0  0  0
 26 27  1  1  0  0  0
 26 35  1  0  0  0  0
 28  2  1  1  0  0  0
 28 18  1  0  0  0  0
 29 30  1  0  0  0  0
 29 39  1  6  0  0  0
 31 22  1  0  0  0  0
 31 32  1  1  0  0  0
 31 41  1  0  0  0  0
 33 34  1  1  0  0  0
 33 43  1  0  0  0  0
 35 36  1  0  0  0  0
 35 45  1  6  0  0  0
 37 28  1  0  0  0  0
 37 38  1  1  0  0  0
 39 40  1  0  0  0  0
 41 42  1  0  0  0  0
 41 49  1  1  0  0  0
 43 44  1  0  0  0  0
 43 51  1  1  0  0  0
 45 46  1  0  0  0  0
 47 37  1  0  0  0  0
 47 48  1  6  0  0  0
 49 50  1  0  0  0  0
 51 52  1  0  0  0  0
M  END
>  <CHROM.1>
-166.73428171,-178.19504948,-60.97146781,-177.88847779,158.17479627,61.73960460
-65.17147872,73.79611288,-177.67361817,-47.16077944,-98.57164004,68.69514460
21.35249918,-6.96618901,15.18322963,1.47559275,1.14581445,-0.33439959

>  <Name>
2esj_lig

>  <RI>
0

>  <Rbt.Current_Directory>
/home/itssahil/PROJECTS/Mol_Feturizer/New_Systems/rnas/2esj

>  <Rbt.Executable>
rbdock ($Id: //depot/dev/client3/rdock/2013.1/src/exe/rbdock.cxx#4 $)

>  <Rbt.Library>
libRbt.so (2013.1, Build901 2013/11/27)

>  <Rbt.Parameter_File>
/export/apps/rDock/src/rDock_2013.1_src/data/scripts/dock_solv.prm

>  <Rbt.Receptor>
prm/pocket_docking_8.prm

>  <SCORE>
-13.9533

>  <SCORE.INTER>
-4.54372

>  <SCORE.INTER.CONST>
1

>  <SCORE.INTER.POLAR>
0

>  <SCORE.INTER.ROT>
12

>  <SCORE.INTER.SOLV>
11.3827

>  <SCORE.INTER.VDW>
-18.4234

>  <SCORE.INTER.norm>
-0.0873793

>  <SCORE.INTRA>
-9.40961

>  <SCORE.INTRA.DIHEDRAL>
-22.8509

>  <SCORE.INTRA.DIHEDRAL.0>
32.9766

>  <SCORE.INTRA.POLAR>
0

>  <SCORE.INTRA.POLAR.0>
0

>  <SCORE.INTRA.REPUL>
0

>  <SCORE.INTRA.REPUL.0>
0

>  <SCORE.INTRA.SOLV>
-0.104913

>  <SCORE.INTRA.SOLV.lig_0>
-114.358

>  <SCORE.INTRA.VDW>
2.06828

>  <SCORE.INTRA.VDW.0>
-8.24257

>  <SCORE.INTRA.norm>
-0.180954

>  <SCORE.RESTR>
0

>  <SCORE.RESTR.CAVITY>
0

>  <SCORE.RESTR.norm>
0

>  <SCORE.SYSTEM>
0

>  <SCORE.SYSTEM.CONST>
0

>  <SCORE.SYSTEM.DIHEDRAL>
0

>  <SCORE.SYSTEM.SOLV>
0

>  <SCORE.SYSTEM.norm>
0

>  <SCORE.heavy>
52

>  <SCORE.norm>
-0.268333

>  <RMSD>
9.541

$$$$
2esj_lig
 OpenBabel11021811423D
libRbt.so/2013.1/901 2013/11/27
 52 56  0  0  0  0  0  0  0  0999 V2000
   30.0460   -3.9071   16.7217 C   0  0  2  0  0  0  0  0  0  0  0  0
   29.3531   -3.5864   17.9431 O   0  0  0  0  0  0  0  0  0  0  0  0
   27.7135   -7.3813   19.0378 C   0  0  2  0  0  0  0  0  0  0  0  0
   27.2188   -8.5585   19.7705 N   0  0  0  0  0  0  0  0  0  0  0  0
   25.2264   -3.5709   18.3544 C   0  0  1  0  0  0  0  0  0  0  0  0
   21.2990   -2.6350   17.2538 C   0  0  1  0  0  0  0  0  0  0  0  0
   20.0599   -4.6358   12.5370 C   0  0  1  0  0  0  0  0  0  0  0  0
   30.1856   -2.5901   15.9025 C   0  0  2  0  0  0  0  0  0  0  0  0
   30.8673   -1.5387   16.6570 N   0  0  0  0  0  0  0  0  0  0  0  0
   29.2087   -7.0702   19.4441 C   0  0  0  0  0  0  0  0  0  0  0  0
   24.3927   -2.6747   19.2710 C   0  0  2  0  0  0  0  0  0  0  0  0
   23.7794   -3.4109   20.3514 O   0  0  0  0  0  0  0  0  0  0  0  0
   20.6548   -3.9793   16.6888 C   0  0  2  0  0  0  0  0  0  0  0  0
   21.6793   -4.8217   16.0168 N   0  0  0  0  0  0  0  0  0  0  0  0
   19.3194   -5.5960   13.4608 C   0  0  1  0  0  0  0  0  0  0  0  0
   18.1496   -6.0973   12.7835 O   0  0  0  0  0  0  0  0  0  0  0  0
   28.7888   -2.0797   15.4256 C   0  0  0  0  0  0  0  0  0  0  0  0
   29.7414   -5.8404   18.6042 C   0  0  2  0  0  0  0  0  0  0  0  0
   31.1248   -5.5219   18.9725 N   0  0  0  0  0  0  0  0  0  0  0  0
   23.4175   -2.1035   18.2827 C   0  0  2  0  0  0  0  0  0  0  0  0
   22.4291   -3.0498   17.9633 O   0  0  0  0  0  0  0  0  0  0  0  0
   19.3929   -3.6102   15.7908 C   0  0  1  0  0  0  0  0  0  0  0  0
   18.5282   -2.7495   16.5393 O   0  0  0  0  0  0  0  0  0  0  0  0
   20.1319   -6.7913   13.9438 C   0  0  1  0  0  0  0  0  0  0  0  0
   19.2220   -7.6885   14.5899 O   0  0  0  0  0  0  0  0  0  0  0  0
   28.0745   -3.2233   14.6461 C   0  0  2  0  0  0  0  0  0  0  0  0
   26.8299   -2.8025   14.1169 O   0  0  0  0  0  0  0  0  0  0  0  0
   28.8282   -4.6048   18.8151 C   0  0  2  0  0  0  0  0  0  0  0  0
   24.2037   -1.9262   16.9674 C   0  0  2  0  0  0  0  0  0  0  0  0
   25.1619   -2.9690   17.0540 O   0  0  0  0  0  0  0  0  0  0  0  0
   19.8179   -2.7849   14.5072 C   0  0  2  0  0  0  0  0  0  0  0  0
   20.6488   -3.6832   13.7704 O   0  0  0  0  0  0  0  0  0  0  0  0
   20.8645   -7.5320   12.8236 C   0  0  2  0  0  0  0  0  0  0  0  0
   21.8115   -8.4097   13.4542 O   0  0  0  0  0  0  0  0  0  0  0  0
   27.9094   -4.4336   15.5985 C   0  0  2  0  0  0  0  0  0  0  0  0
   29.2454   -4.8633   15.9877 O   0  0  0  0  0  0  0  0  0  0  0  0
   27.3133   -4.8759   18.5458 C   0  0  2  0  0  0  0  0  0  0  0  0
   26.5442   -3.6779   18.8455 O   0  0  0  0  0  0  0  0  0  0  0  0
   24.9242   -0.5916   16.7792 C   0  0  0  0  0  0  0  0  0  0  0  0
   25.4594   -0.5732   15.4477 O   0  0  0  0  0  0  0  0  0  0  0  0
   20.7429   -1.6930   15.0096 C   0  0  1  0  0  0  0  0  0  0  0  0
   21.6679   -1.6984   16.1181 O   0  0  0  0  0  0  0  0  0  0  0  0
   21.4795   -6.5622   11.8208 C   0  0  2  0  0  0  0  0  0  0  0  0
   20.8632   -5.2981   11.5305 O   0  0  0  0  0  0  0  0  0  0  0  0
   27.2760   -5.6123   14.9413 C   0  0  0  0  0  0  0  0  0  0  0  0
   25.9719   -5.2374   14.5689 O   0  0  0  0  0  0  0  0  0  0  0  0
   26.8198   -6.1272   19.3476 C   0  0  1  0  0  0  0  0  0  0  0  0
   25.4719   -6.4233   18.8951 O   0  0  0  0  0  0  0  0  0  0  0  0
   21.2332   -0.6578   13.9509 C   0  0  0  0  0  0  0  0  0  0  0  0
   20.1738    0.2714   13.5048 N   0  0  0  0  0  0  0  0  0  0  0  0
   22.2621   -7.0195   10.5920 C   0  0  0  0  0  0  0  0  0  0  0  0
   23.5779   -7.4886   10.9886 O   0  0  0  0  0  0  0  0  0  0  0  0
  1  2  1  1  0  0  0
  1  8  1  0  0  0  0
  1 36  1  0  0  0  0
  3  4  1  1  0  0  0
  3 10  1  0  0  0  0
  3 47  1  0  0  0  0
  5 11  1  0  0  0  0
  5 30  1  0  0  0  0
  5 38  1  1  0  0  0
  6 21  1  6  0  0  0
  6 42  1  0  0  0  0
  7 15  1  0  0  0  0
  7 44  1  0  0  0  0
  7 32  1  1  0  0  0
  8  9  1  1  0  0  0
  8 17  1  0  0  0  0
 11 12  1  1  0  0  0
 11 20  1  0  0  0  0
 13  6  1  0  0  0  0
 13 14  1  6  0  0  0
 15 16  1  6  0  0  0
 15 24  1  0  0  0  0
 17 26  1  0  0  0  0
 18 10  1  0  0  0  0
 18 19  1  1  0  0  0
 20 21  1  6  0  0  0
 20 29  1  0  0  0  0
 22 13  1  0  0  0  0
 22 23  1  1  0  0  0
 24 25  1  6  0  0  0
 24 33  1  0  0  0  0
 26 27  1  1  0  0  0
 26 35  1  0  0  0  0
 28  2  1  6  0  0  0
 28 18  1  0  0  0  0
 29 30  1  0  0  0  0
 29 39  1  1  0  0  0
 31 22  1  0  0  0  0
 31 32  1  6  0  0  0
 31 41  1  0  0  0  0
 33 34  1  1  0  0  0
 33 43  1  0  0  0  0
 35 36  1  0  0  0  0
 35 45  1  6  0  0  0
 37 28  1  0  0  0  0
 37 38  1  1  0  0  0
 39 40  1  0  0  0  0
 41 42  1  0  0  0  0
 41 49  1  6  0  0  0
 43 44  1  0  0  0  0
 43 51  1  6  0  0  0
 45 46  1  0  0  0  0
 47 37  1  0  0  0  0
 47 48  1  6  0  0  0
 49 50  1  0  0  0  0
 51 52  1  0  0  0  0
M  END
>  <CHROM.1>
167.79013445,152.32464085,162.96318458,-73.16982265,168.44696207,28.48854833
-173.63781947,95.26749838,-63.64099571,163.59737686,71.48918246,-74.85151293
24.33404670,-4.27540193,15.95287195,-0.23949228,0.38367107,-2.63192977

>  <Name>
2esj_lig

>  <RI>
0

>  <Rbt.Current_Directory>
/home/itssahil/PROJECTS/Mol_Feturizer/New_Systems/rnas/2esj

>  <Rbt.Executable>
rbdock ($Id: //depot/dev/client3/rdock/2013.1/src/exe/rbdock.cxx#4 $)

>  <Rbt.Library>
libRbt.so (2013.1, Build901 2013/11/27)

>  <Rbt.Parameter_File>
/export/apps/rDock/src/rDock_2013.1_src/data/scripts/dock_solv.prm

>  <Rbt.Receptor>
prm/pocket_docking_8.prm

>  <SCORE>
-8.97706

>  <SCORE.INTER>
-6.09905

>  <SCORE.INTER.CONST>
1

>  <SCORE.INTER.POLAR>
-0.932823

>  <SCORE.INTER.ROT>
12

>  <SCORE.INTER.SOLV>
12.6337

>  <SCORE.INTER.VDW>
-16.7679

>  <SCORE.INTER.norm>
-0.117289

>  <SCORE.INTRA>
-2.87801

>  <SCORE.INTRA.DIHEDRAL>
-11.6877

>  <SCORE.INTRA.DIHEDRAL.0>
32.9766

>  <SCORE.INTRA.POLAR>
0

>  <SCORE.INTRA.POLAR.0>
0

>  <SCORE.INTRA.REPUL>
0

>  <SCORE.INTRA.REPUL.0>
0

>  <SCORE.INTRA.SOLV>
0.0707466

>  <SCORE.INTRA.SOLV.lig_0>
-114.358

>  <SCORE.INTRA.VDW>
2.93048

>  <SCORE.INTRA.VDW.0>
-8.24257

>  <SCORE.INTRA.norm>
-0.0553463

>  <SCORE.RESTR>
0

>  <SCORE.RESTR.CAVITY>
0

>  <SCORE.RESTR.norm>
0

>  <SCORE.SYSTEM>
0

>  <SCORE.SYSTEM.CONST>
0

>  <SCORE.SYSTEM.DIHEDRAL>
0

>  <SCORE.SYSTEM.SOLV>
0

>  <SCORE.SYSTEM.norm>
0

>  <SCORE.heavy>
52

>  <SCORE.norm>
-0.172636

>  <RMSD>
9.542

$$$$
2esj_lig
 OpenBabel11021811423D
libRbt.so/2013.1/901 2013/11/27
 52 56  0  0  0  0  0  0  0  0999 V2000
   26.8583   -2.1331   17.4032 C   0  0  2  0  0  0  0  0  0  0  0  0
   27.3646   -2.0262   16.0589 O   0  0  0  0  0  0  0  0  0  0  0  0
   25.9119   -0.6920   12.2645 C   0  0  2  0  0  0  0  0  0  0  0  0
   25.1808   -0.5384   10.9959 N   0  0  0  0  0  0  0  0  0  0  0  0
   23.8664   -1.4921   16.2268 C   0  0  1  0  0  0  0  0  0  0  0  0
   20.5812   -3.8925   17.3202 C   0  0  1  0  0  0  0  0  0  0  0  0
   19.9988   -7.7101   14.0643 C   0  0  1  0  0  0  0  0  0  0  0  0
   28.0644   -1.9613   18.3732 C   0  0  2  0  0  0  0  0  0  0  0  0
   28.7742   -0.7011   18.1558 N   0  0  0  0  0  0  0  0  0  0  0  0
   26.5716   -2.1256   12.3479 C   0  0  0  0  0  0  0  0  0  0  0  0
   22.9706   -1.0925   17.4000 C   0  0  2  0  0  0  0  0  0  0  0  0
   23.5044   -1.5215   18.6714 O   0  0  0  0  0  0  0  0  0  0  0  0
   21.0349   -5.3495   17.7812 C   0  0  2  0  0  0  0  0  0  0  0  0
   22.1759   -5.8380   16.9624 N   0  0  0  0  0  0  0  0  0  0  0  0
   20.4850   -9.1222   14.3698 C   0  0  1  0  0  0  0  0  0  0  0  0
   19.8009  -10.0551   13.5094 O   0  0  0  0  0  0  0  0  0  0  0  0
   29.0585   -3.1588   18.2439 C   0  0  0  0  0  0  0  0  0  0  0  0
   27.4008   -2.2505   13.6890 C   0  0  2  0  0  0  0  0  0  0  0  0
   28.0132   -3.5787   13.7975 N   0  0  0  0  0  0  0  0  0  0  0  0
   21.6890   -1.7699   17.0093 C   0  0  2  0  0  0  0  0  0  0  0  0
   21.7633   -3.1494   17.2658 O   0  0  0  0  0  0  0  0  0  0  0  0
   19.7619   -6.3057   17.7995 C   0  0  1  0  0  0  0  0  0  0  0  0
   18.7267   -5.6832   18.5672 O   0  0  0  0  0  0  0  0  0  0  0  0
   21.9838   -9.3441   14.2072 C   0  0  1  0  0  0  0  0  0  0  0  0
   22.2157  -10.7540   14.3004 O   0  0  0  0  0  0  0  0  0  0  0  0
   28.2751   -4.4881   18.4561 C   0  0  2  0  0  0  0  0  0  0  0  0
   29.1327   -5.6150   18.4285 O   0  0  0  0  0  0  0  0  0  0  0  0
   26.4922   -1.9729   14.9147 C   0  0  2  0  0  0  0  0  0  0  0  0
   21.6151   -1.6795   15.4711 C   0  0  2  0  0  0  0  0  0  0  0  0
   22.9871   -1.6816   15.1096 O   0  0  0  0  0  0  0  0  0  0  0  0
   19.1637   -6.5003   16.3458 C   0  0  2  0  0  0  0  0  0  0  0  0
   20.2072   -7.1521   15.6201 O   0  0  0  0  0  0  0  0  0  0  0  0
   22.5438   -8.8249   12.8818 C   0  0  2  0  0  0  0  0  0  0  0  0
   23.9751   -8.8175   13.0083 O   0  0  0  0  0  0  0  0  0  0  0  0
   27.1731   -4.5833   17.3719 C   0  0  2  0  0  0  0  0  0  0  0  0
   26.2792   -3.4496   17.5629 O   0  0  0  0  0  0  0  0  0  0  0  0
   25.7137   -0.6203   14.8404 C   0  0  2  0  0  0  0  0  0  0  0  0
   24.8401   -0.4979   15.9972 O   0  0  0  0  0  0  0  0  0  0  0  0
   20.9417   -0.4351   14.8935 C   0  0  0  0  0  0  0  0  0  0  0  0
   20.8508   -0.6130   13.4724 O   0  0  0  0  0  0  0  0  0  0  0  0
   19.0637   -5.1076   15.7537 C   0  0  1  0  0  0  0  0  0  0  0  0
   19.8957   -3.9471   15.9674 O   0  0  0  0  0  0  0  0  0  0  0  0
   21.9400   -7.4751   12.5101 C   0  0  2  0  0  0  0  0  0  0  0  0
   20.5950   -7.1323   12.8778 O   0  0  0  0  0  0  0  0  0  0  0  0
   26.3238   -5.8010   17.5070 C   0  0  0  0  0  0  0  0  0  0  0  0
   25.4330   -5.8170   16.4178 O   0  0  0  0  0  0  0  0  0  0  0  0
   24.9413   -0.4956   13.4839 C   0  0  1  0  0  0  0  0  0  0  0  0
   24.4118    0.8549   13.4135 O   0  0  0  0  0  0  0  0  0  0  0  0
   18.4003   -4.9981   14.3463 C   0  0  0  0  0  0  0  0  0  0  0  0
   16.9467   -5.2656   14.3608 N   0  0  0  0  0  0  0  0  0  0  0  0
   22.3059   -6.7222   11.2330 C   0  0  0  0  0  0  0  0  0  0  0  0
   23.5672   -6.0253   11.4126 O   0  0  0  0  0  0  0  0  0  0  0  0
  1  2  1  6  0  0  0
  1  8  1  0  0  0  0
  1 36  1  0  0  0  0
  3  4  1  6  0  0  0
  3 10  1  0  0  0  0
  3 47  1  0  0  0  0
  5 11  1  0  0  0  0
  5 30  1  0  0  0  0
  5 38  1  6  0  0  0
  6 21  1  6  0  0  0
  6 42  1  0  0  0  0
  7 15  1  0  0  0  0
  7 44  1  0  0  0  0
  7 32  1  1  0  0  0
  8  9  1  6  0  0  0
  8 17  1  0  0  0  0
 11 12  1  1  0  0  0
 11 20  1  0  0  0  0
 13  6  1  0  0  0  0
 13 14  1  6  0  0  0
 15 16  1  6  0  0  0
 15 24  1  0  0  0  0
 17 26  1  0  0  0  0
 18 10  1  0  0  0  0
 18 19  1  1  0  0  0
 20 21  1  6  0  0  0
 20 29  1  0  0  0  0
 22 13  1  0  0  0  0
 22 23  1  1  0  0  0
 24 25  1  6  0  0  0
 24 33  1  0  0  0  0
 26 27  1  6  0  0  0
 26 35  1  0  0  0  0
 28  2  1  1  0  0  0
 28 18  1  0  0  0  0
 29 30  1  0  0  0  0
 29 39  1  1  0  0  0
 31 22  1  0  0  0  0
 31 32  1  6  0  0  0
 31 41  1  0  0  0  0
 33 34  1  1  0  0  0
 33 43  1  0  0  0  0
 35 36  1  0  0  0  0
 35 45  1  1  0  0  0
 37 28  1  0  0  0  0
 37 38  1  1  0  0  0
 39 40  1  0  0  0  0
 41 42  1  0  0  0  0
 41 49  1  6  0  0  0
 43 44  1  0  0  0  0
 43 51  1  6  0  0  0
 45 46  1  0  0  0  0
 47 37  1  0  0  0  0
 47 48  1  6  0  0  0
 49 50  1  0  0  0  0
 51 52  1  0  0  0  0
M  END
>  <CHROM.1>
-172.14388603,-174.06073690,-173.99289438,-127.24909382,162.68546296,-164.99773273
-174.00435932,173.77649577,-175.91767084,-58.06722002,69.96076872,-80.09926660
23.40414949,-4.19796984,15.38675177,-0.70476929,0.15956345,-3.05613979

>  <Name>
2esj_lig

>  <RI>
0

>  <Rbt.Current_Directory>
/home/itssahil/PROJECTS/Mol_Feturizer/New_Systems/rnas/2esj

>  <Rbt.Executable>
rbdock ($Id: //depot/dev/client3/rdock/2013.1/src/exe/rbdock.cxx#4 $)

>  <Rbt.Library>
libRbt.so (2013.1, Build901 2013/11/27)

>  <Rbt.Parameter_File>
/export/apps/rDock/src/rDock_2013.1_src/data/scripts/dock_solv.prm

>  <Rbt.Receptor>
prm/pocket_docking_4.prm

>  <SCORE>
-13.6006

>  <SCORE.INTER>
-5.01819

>  <SCORE.INTER.CONST>
1

>  <SCORE.INTER.POLAR>
-0.979796

>  <SCORE.INTER.ROT>
12

>  <SCORE.INTER.SOLV>
9.68925

>  <SCORE.INTER.VDW>
-14.9092

>  <SCORE.INTER.norm>
-0.0965036

>  <SCORE.INTRA>
-8.58833

>  <SCORE.INTRA.DIHEDRAL>
-17.423

>  <SCORE.INTRA.DIHEDRAL.0>
32.9766

>  <SCORE.INTRA.POLAR>
0

>  <SCORE.INTRA.POLAR.0>
0

>  <SCORE.INTRA.REPUL>
0

>  <SCORE.INTRA.REPUL.0>
0

>  <SCORE.INTRA.SOLV>
-2.78099

>  <SCORE.INTRA.SOLV.lig_0>
-114.358

>  <SCORE.INTRA.VDW>
1.51365

>  <SCORE.INTRA.VDW.0>
-8.24257

>  <SCORE.INTRA.norm>
-0.16516

>  <SCORE.RESTR>
0.00588705

>  <SCORE.RESTR.CAVITY>
0.00588705

>  <SCORE.RESTR.norm>
0.000113212

>  <SCORE.SYSTEM>
0

>  <SCORE.SYSTEM.CONST>
0

>  <SCORE.SYSTEM.DIHEDRAL>
0

>  <SCORE.SYSTEM.SOLV>
0

>  <SCORE.SYSTEM.norm>
0

>  <SCORE.heavy>
52

>  <SCORE.norm>
-0.261551

>  <RMSD>
9.554

$$$$
2esj_lig
 OpenBabel11021811423D
libRbt.so/2013.1/901 2013/11/27
 52 56  0  0  0  0  0  0  0  0999 V2000
   25.5989   -4.0052   17.1888 C   0  0  2  0  0  0  0  0  0  0  0  0
   25.1540   -4.1825   15.8303 O   0  0  0  0  0  0  0  0  0  0  0  0
   28.9147   -4.9364   13.9390 C   0  0  2  0  0  0  0  0  0  0  0  0
   29.9837   -5.3350   13.0086 N   0  0  0  0  0  0  0  0  0  0  0  0
   24.6917   -2.3071   14.0697 C   0  0  1  0  0  0  0  0  0  0  0  0
   20.6175   -2.1193   14.4871 C   0  0  1  0  0  0  0  0  0  0  0  0
   18.7315   -4.4564   18.4501 C   0  0  1  0  0  0  0  0  0  0  0  0
   24.3423   -3.7038   18.0579 C   0  0  2  0  0  0  0  0  0  0  0  0
   23.3288   -4.7525   17.9478 N   0  0  0  0  0  0  0  0  0  0  0  0
   27.9856   -6.1714   14.2693 C   0  0  0  0  0  0  0  0  0  0  0  0
   24.0420   -0.9890   13.6466 C   0  0  2  0  0  0  0  0  0  0  0  0
   24.1294    0.0225   14.6736 O   0  0  0  0  0  0  0  0  0  0  0  0
   20.0404   -1.9155   15.9590 C   0  0  2  0  0  0  0  0  0  0  0  0
   20.9672   -2.4743   16.9787 N   0  0  0  0  0  0  0  0  0  0  0  0
   19.7916   -5.3920   19.0195 C   0  0  1  0  0  0  0  0  0  0  0  0
   20.1128   -4.9818   20.3637 O   0  0  0  0  0  0  0  0  0  0  0  0
   23.7197   -2.3229   17.6773 C   0  0  0  0  0  0  0  0  0  0  0  0
   26.8803   -5.7388   15.3147 C   0  0  2  0  0  0  0  0  0  0  0  0
   25.9950   -6.8652   15.6285 N   0  0  0  0  0  0  0  0  0  0  0  0
   22.6441   -1.4534   13.3562 C   0  0  2  0  0  0  0  0  0  0  0  0
   21.9354   -1.6593   14.5519 O   0  0  0  0  0  0  0  0  0  0  0  0
   18.5550   -2.4859   16.0155 C   0  0  1  0  0  0  0  0  0  0  0  0
   17.7982   -1.9126   14.9445 O   0  0  0  0  0  0  0  0  0  0  0  0
   19.4067   -6.8661   19.0567 C   0  0  1  0  0  0  0  0  0  0  0  0
   20.4052   -7.5451   19.8263 O   0  0  0  0  0  0  0  0  0  0  0  0
   24.8230   -1.2283   17.7797 C   0  0  2  0  0  0  0  0  0  0  0  0
   24.3070    0.0652   17.5216 O   0  0  0  0  0  0  0  0  0  0  0  0
   26.0589   -4.5417   14.7696 C   0  0  2  0  0  0  0  0  0  0  0  0
   22.7846   -2.8680   12.7571 C   0  0  2  0  0  0  0  0  0  0  0  0
   23.9660   -3.3385   13.3863 O   0  0  0  0  0  0  0  0  0  0  0  0
   18.5269   -4.0513   15.7743 C   0  0  2  0  0  0  0  0  0  0  0  0
   19.2595   -4.5903   16.8757 O   0  0  0  0  0  0  0  0  0  0  0  0
   18.0296   -7.1284   19.6688 C   0  0  2  0  0  0  0  0  0  0  0  0
   17.6843   -8.4866   19.3514 O   0  0  0  0  0  0  0  0  0  0  0  0
   25.9646   -1.5932   16.7987 C   0  0  2  0  0  0  0  0  0  0  0  0
   26.5051   -2.8775   17.2223 O   0  0  0  0  0  0  0  0  0  0  0  0
   26.9271   -3.3267   14.3103 C   0  0  2  0  0  0  0  0  0  0  0  0
   26.0652   -2.2975   13.7497 O   0  0  0  0  0  0  0  0  0  0  0  0
   22.9517   -2.9516   11.2402 C   0  0  0  0  0  0  0  0  0  0  0  0
   21.8265   -2.2895   10.6442 O   0  0  0  0  0  0  0  0  0  0  0  0
   19.3916   -4.2933   14.5520 C   0  0  1  0  0  0  0  0  0  0  0  0
   20.5579   -3.5816   14.0853 O   0  0  0  0  0  0  0  0  0  0  0  0
   17.0065   -6.0968   19.2068 C   0  0  2  0  0  0  0  0  0  0  0  0
   17.3901   -4.7445   18.9136 O   0  0  0  0  0  0  0  0  0  0  0  0
   27.1049   -0.6341   16.8461 C   0  0  0  0  0  0  0  0  0  0  0  0
   27.9938   -0.9840   15.8129 O   0  0  0  0  0  0  0  0  0  0  0  0
   28.0461   -3.7856   13.3156 C   0  0  1  0  0  0  0  0  0  0  0  0
   28.9179   -2.6454   13.0939 O   0  0  0  0  0  0  0  0  0  0  0  0
   19.4543   -5.7604   14.0261 C   0  0  0  0  0  0  0  0  0  0  0  0
   18.2297   -6.1806   13.3131 N   0  0  0  0  0  0  0  0  0  0  0  0
   15.5501   -6.1045   19.6657 C   0  0  0  0  0  0  0  0  0  0  0  0
   15.4500   -5.5556   21.0065 O   0  0  0  0  0  0  0  0  0  0  0  0
  1  2  1  6  0  0  0
  1  8  1  0  0  0  0
  1 36  1  0  0  0  0
  3  4  1  6  0  0  0
  3 10  1  0  0  0  0
  3 47  1  0  0  0  0
  5 11  1  0  0  0  0
  5 30  1  0  0  0  0
  5 38  1  6  0  0  0
  6 21  1  1  0  0  0
  6 42  1  0  0  0  0
  7 15  1  0  0  0  0
  7 44  1  0  0  0  0
  7 32  1  6  0  0  0
  8  9  1  6  0  0  0
  8 17  1  0  0  0  0
 11 12  1  1  0  0  0
 11 20  1  0  0  0  0
 13  6  1  0  0  0  0
 13 14  1  1  0  0  0
 15 16  1  1  0  0  0
 15 24  1  0  0  0  0
 17 26  1  0  0  0  0
 18 10  1  0  0  0  0
 18 19  1  6  0  0  0
 20 21  1  1  0  0  0
 20 29  1  0  0  0  0
 22 13  1  0  0  0  0
 22 23  1  6  0  0  0
 24 25  1  1  0  0  0
 24 33  1  0  0  0  0
 26 27  1  6  0  0  0
 26 35  1  0  0  0  0
 28  2  1  1  0  0  0
 28 18  1  0  0  0  0
 29 30  1  0  0  0  0
 29 39  1  6  0  0  0
 31 22  1  0  0  0  0
 31 32  1  1  0  0  0
 31 41  1  0  0  0  0
 33 34  1  6  0  0  0
 33 43  1  0  0  0  0
 35 36  1  0  0  0  0
 35 45  1  1  0  0  0
 37 28  1  0  0  0  0
 37 38  1  6  0  0  0
 39 40  1  0  0  0  0
 41 42  1  0  0  0  0
 41 49  1  1  0  0  0
 43 44  1  0  0  0  0
 43 51  1  1  0  0  0
 45 46  1  0  0  0  0
 47 37  1  0  0  0  0
 47 48  1  1  0  0  0
 49 50  1  0  0  0  0
 51 52  1  0  0  0  0
M  END
>  <CHROM.1>
-176.87019007,167.29715341,-167.44564643,171.31270035,-178.80657978,48.43187134
-56.80479629,64.69139576,-173.35731864,19.88608188,74.86435875,77.98291294
22.60300705,-3.76223835,15.97222951,-0.48681716,-0.00914544,2.14114288

>  <Name>
2esj_lig

>  <RI>
1.01272e+07

>  <Rbt.Current_Directory>
/home/itssahil/PROJECTS/Mol_Feturizer/New_Systems/rnas/2esj

>  <Rbt.Executable>
rbdock ($Id: //depot/dev/client3/rdock/2013.1/src/exe/rbdock.cxx#4 $)

>  <Rbt.Library>
libRbt.so (2013.1, Build901 2013/11/27)

>  <Rbt.Parameter_File>
/export/apps/rDock/src/rDock_2013.1_src/data/scripts/dock_solv.prm

>  <Rbt.Receptor>
prm/pocket_docking_3.prm

>  <SCORE>
-7.85267

>  <SCORE.INTER>
-3.63117

>  <SCORE.INTER.CONST>
1

>  <SCORE.INTER.POLAR>
-0.824621

>  <SCORE.INTER.ROT>
12

>  <SCORE.INTER.SOLV>
16.2911

>  <SCORE.INTER.VDW>
-16.7024

>  <SCORE.INTER.norm>
-0.0698302

>  <SCORE.INTRA>
-4.82288

>  <SCORE.INTRA.DIHEDRAL>
-19.3385

>  <SCORE.INTRA.DIHEDRAL.0>
32.9766

>  <SCORE.INTRA.POLAR>
0

>  <SCORE.INTRA.POLAR.0>
0

>  <SCORE.INTRA.REPUL>
0.0649494

>  <SCORE.INTRA.REPUL.0>
0

>  <SCORE.INTRA.SOLV>
2.09112

>  <SCORE.INTRA.SOLV.lig_0>
-114.358

>  <SCORE.INTRA.VDW>
3.47607

>  <SCORE.INTRA.VDW.0>
-8.24257

>  <SCORE.INTRA.norm>
-0.0927476

>  <SCORE.RESTR>
0.601382

>  <SCORE.RESTR.CAVITY>
0.601382

>  <SCORE.RESTR.norm>
0.011565

>  <SCORE.SYSTEM>
0

>  <SCORE.SYSTEM.CONST>
0

>  <SCORE.SYSTEM.DIHEDRAL>
0

>  <SCORE.SYSTEM.SOLV>
0

>  <SCORE.SYSTEM.norm>
0

>  <SCORE.heavy>
52

>  <SCORE.norm>
-0.151013

>  <RMSD>
9.560

$$$$
2esj_lig
 OpenBabel11021811423D
libRbt.so/2013.1/901 2013/11/27
 52 56  0  0  0  0  0  0  0  0999 V2000
   27.8605   -4.3676   17.8738 C   0  0  2  0  0  0  0  0  0  0  0  0
   26.6003   -4.3520   17.1763 O   0  0  0  0  0  0  0  0  0  0  0  0
   27.9192   -2.8805   13.3838 C   0  0  2  0  0  0  0  0  0  0  0  0
   28.0178   -2.4765   11.9716 N   0  0  0  0  0  0  0  0  0  0  0  0
   24.3999   -2.0619   16.2766 C   0  0  1  0  0  0  0  0  0  0  0  0
   20.3110   -2.6681   15.9276 C   0  0  1  0  0  0  0  0  0  0  0  0
   18.5810   -7.6010   15.8969 C   0  0  1  0  0  0  0  0  0  0  0  0
   27.6054   -4.9643   19.2894 C   0  0  2  0  0  0  0  0  0  0  0  0
   26.9986   -6.2937   19.2284 N   0  0  0  0  0  0  0  0  0  0  0  0
   27.5129   -4.4039   13.4919 C   0  0  0  0  0  0  0  0  0  0  0  0
   23.4762   -0.9759   16.8296 C   0  0  2  0  0  0  0  0  0  0  0  0
   23.2752   -1.0971   18.2545 O   0  0  0  0  0  0  0  0  0  0  0  0
   19.4596   -3.2695   17.1337 C   0  0  2  0  0  0  0  0  0  0  0  0
   20.2300   -4.3098   17.8653 N   0  0  0  0  0  0  0  0  0  0  0  0
   19.2327   -8.1404   17.1649 C   0  0  1  0  0  0  0  0  0  0  0  0
   18.6401   -9.4117   17.4980 O   0  0  0  0  0  0  0  0  0  0  0  0
   26.7093   -4.0113   20.1426 C   0  0  0  0  0  0  0  0  0  0  0  0
   27.4700   -4.8345   15.0132 C   0  0  2  0  0  0  0  0  0  0  0  0
   27.0816   -6.2428   15.1422 N   0  0  0  0  0  0  0  0  0  0  0  0
   22.2427   -1.2219   16.0099 C   0  0  2  0  0  0  0  0  0  0  0  0
   21.5498   -2.3467   16.4886 O   0  0  0  0  0  0  0  0  0  0  0  0
   18.0442   -3.7449   16.5807 C   0  0  1  0  0  0  0  0  0  0  0  0
   17.4484   -2.6690   15.8485 O   0  0  0  0  0  0  0  0  0  0  0  0
   20.7429   -8.3303   17.0906 C   0  0  1  0  0  0  0  0  0  0  0  0
   21.1368   -9.0539   18.2617 O   0  0  0  0  0  0  0  0  0  0  0  0
   27.3639   -2.5984   20.1727 C   0  0  2  0  0  0  0  0  0  0  0  0
   26.6411   -1.7005   20.9959 O   0  0  0  0  0  0  0  0  0  0  0  0
   26.4902   -3.9294   15.8043 C   0  0  2  0  0  0  0  0  0  0  0  0
   22.7411   -1.6558   14.6160 C   0  0  2  0  0  0  0  0  0  0  0  0
   23.9707   -2.2914   14.9273 O   0  0  0  0  0  0  0  0  0  0  0  0
   18.1971   -4.9369   15.5487 C   0  0  2  0  0  0  0  0  0  0  0  0
   18.7605   -5.9995   16.3192 O   0  0  0  0  0  0  0  0  0  0  0  0
   21.2085   -9.0881   15.8460 C   0  0  2  0  0  0  0  0  0  0  0  0
   22.6321   -8.9131   15.7598 O   0  0  0  0  0  0  0  0  0  0  0  0
   27.4699   -2.0787   18.7175 C   0  0  2  0  0  0  0  0  0  0  0  0
   28.3280   -3.0030   17.9894 O   0  0  0  0  0  0  0  0  0  0  0  0
   26.7623   -2.3992   15.6442 C   0  0  2  0  0  0  0  0  0  0  0  0
   25.7451   -1.6467   16.3621 O   0  0  0  0  0  0  0  0  0  0  0  0
   22.9913   -0.5382   13.6040 C   0  0  0  0  0  0  0  0  0  0  0  0
   21.7271    0.0787   13.3197 O   0  0  0  0  0  0  0  0  0  0  0  0
   19.2879   -4.5084   14.5861 C   0  0  1  0  0  0  0  0  0  0  0  0
   20.4533   -3.6863   14.8113 O   0  0  0  0  0  0  0  0  0  0  0  0
   20.4456   -8.6441   14.6029 C   0  0  2  0  0  0  0  0  0  0  0  0
   19.0792   -8.2099   14.6811 O   0  0  0  0  0  0  0  0  0  0  0  0
   28.1292   -0.7452   18.6196 C   0  0  0  0  0  0  0  0  0  0  0  0
   27.9859   -0.3002   17.2923 O   0  0  0  0  0  0  0  0  0  0  0  0
   26.8512   -2.0043   14.1315 C   0  0  1  0  0  0  0  0  0  0  0  0
   27.2952   -0.6226   14.0736 O   0  0  0  0  0  0  0  0  0  0  0  0
   19.5730   -5.4673   13.3894 C   0  0  0  0  0  0  0  0  0  0  0  0
   18.3516   -6.0759   12.8216 N   0  0  0  0  0  0  0  0  0  0  0  0
   20.6929   -9.2371   13.2177 C   0  0  0  0  0  0  0  0  0  0  0  0
   20.3894   -8.2517   12.1952 O   0  0  0  0  0  0  0  0  0  0  0  0
  1  2  1  6  0  0  0
  1  8  1  0  0  0  0
  1 36  1  0  0  0  0
  3  4  1  6  0  0  0
  3 10  1  0  0  0  0
  3 47  1  0  0  0  0
  5 11  1  0  0  0  0
  5 30  1  0  0  0  0
  5 38  1  6  0  0  0
  6 21  1  1  0  0  0
  6 42  1  0  0  0  0
  7 15  1  0  0  0  0
  7 44  1  0  0  0  0
  7 32  1  6  0  0  0
  8  9  1  6  0  0  0
  8 17  1  0  0  0  0
 11 12  1  1  0  0  0
 11 20  1  0  0  0  0
 13  6  1  0  0  0  0
 13 14  1  6  0  0  0
 15 16  1  6  0  0  0
 15 24  1  0  0  0  0
 17 26  1  0  0  0  0
 18 10  1  0  0  0  0
 18 19  1  6  0  0  0
 20 21  1  1  0  0  0
 20 29  1  0  0  0  0
 22 13  1  0  0  0  0
 22 23  1  6  0  0  0
 24 25  1  1  0  0  0
 24 33  1  0  0  0  0
 26 27  1  1  0  0  0
 26 35  1  0  0  0  0
 28  2  1  1  0  0  0
 28 18  1  0  0  0  0
 29 30  1  0  0  0  0
 29 39  1  6  0  0  0
 31 22  1  0  0  0  0
 31 32  1  1  0  0  0
 31 41  1  0  0  0  0
 33 34  1  6  0  0  0
 33 43  1  0  0  0  0
 35 36  1  0  0  0  0
 35 45  1  1  0  0  0
 37 28  1  0  0  0  0
 37 38  1  6  0  0  0
 39 40  1  0  0  0  0
 41 42  1  0  0  0  0
 41 49  1  1  0  0  0
 43 44  1  0  0  0  0
 43 51  1  6  0  0  0
 45 46  1  0  0  0  0
 47 37  1  0  0  0  0
 47 48  1  1  0  0  0
 49 50  1  0  0  0  0
 51 52  1  0  0  0  0
M  END
>  <CHROM.1>
-176.38131966,-167.31016047,-145.74304159,-173.54328896,174.46545795,56.24093328
-65.00016048,155.75430186,-171.40843332,-42.24934433,38.50649300,-151.16784824
23.29129502,-4.22753033,16.07661491,-0.43749123,0.33898264,2.84993159

>  <Name>
2esj_lig

>  <RI>
0

>  <Rbt.Current_Directory>
/home/itssahil/PROJECTS/Mol_Feturizer/New_Systems/rnas/2esj

>  <Rbt.Executable>
rbdock ($Id: //depot/dev/client3/rdock/2013.1/src/exe/rbdock.cxx#4 $)

>  <Rbt.Library>
libRbt.so (2013.1, Build901 2013/11/27)

>  <Rbt.Parameter_File>
/export/apps/rDock/src/rDock_2013.1_src/data/scripts/dock_solv.prm

>  <Rbt.Receptor>
prm/pocket_docking_4.prm

>  <SCORE>
-8.91176

>  <SCORE.INTER>
-2.56786

>  <SCORE.INTER.CONST>
1

>  <SCORE.INTER.POLAR>
-1.21425

>  <SCORE.INTER.ROT>
12

>  <SCORE.INTER.SOLV>
12.2687

>  <SCORE.INTER.VDW>
-13.354

>  <SCORE.INTER.norm>
-0.0493819

>  <SCORE.INTRA>
-6.3439

>  <SCORE.INTRA.DIHEDRAL>
-17.1389

>  <SCORE.INTRA.DIHEDRAL.0>
32.9766

>  <SCORE.INTRA.POLAR>
0

>  <SCORE.INTRA.POLAR.0>
0

>  <SCORE.INTRA.REPUL>
0

>  <SCORE.INTRA.REPUL.0>
0

>  <SCORE.INTRA.SOLV>
1.41256

>  <SCORE.INTRA.SOLV.lig_0>
-114.358

>  <SCORE.INTRA.VDW>
1.51927

>  <SCORE.INTRA.VDW.0>
-8.24257

>  <SCORE.INTRA.norm>
-0.121998

>  <SCORE.RESTR>
0

>  <SCORE.RESTR.CAVITY>
0

>  <SCORE.RESTR.norm>
0

>  <SCORE.SYSTEM>
0

>  <SCORE.SYSTEM.CONST>
0

>  <SCORE.SYSTEM.DIHEDRAL>
0

>  <SCORE.SYSTEM.SOLV>
0

>  <SCORE.SYSTEM.norm>
0

>  <SCORE.heavy>
52

>  <SCORE.norm>
-0.17138

>  <RMSD>
9.597

$$$$
2esj_lig
 OpenBabel11021811423D
libRbt.so/2013.1/901 2013/11/27
 52 56  0  0  0  0  0  0  0  0999 V2000
   26.6796   -4.2493   16.9925 C   0  0  2  0  0  0  0  0  0  0  0  0
   25.9450   -4.2123   15.7541 O   0  0  0  0  0  0  0  0  0  0  0  0
   29.0812   -3.1789   13.0367 C   0  0  2  0  0  0  0  0  0  0  0  0
   29.9301   -2.9983   11.8475 N   0  0  0  0  0  0  0  0  0  0  0  0
   24.4249   -2.5952   13.6497 C   0  0  1  0  0  0  0  0  0  0  0  0
   21.3318   -4.6015   12.1484 C   0  0  1  0  0  0  0  0  0  0  0  0
   20.4377   -7.8322   15.0192 C   0  0  1  0  0  0  0  0  0  0  0  0
   25.6427   -4.3543   18.1496 C   0  0  2  0  0  0  0  0  0  0  0  0
   24.7637   -5.5139   18.0013 N   0  0  0  0  0  0  0  0  0  0  0  0
   28.7549   -4.7103   13.2508 C   0  0  0  0  0  0  0  0  0  0  0  0
   23.3329   -1.6617   13.1256 C   0  0  2  0  0  0  0  0  0  0  0  0
   22.4832   -1.1614   14.1806 O   0  0  0  0  0  0  0  0  0  0  0  0
   19.7861   -4.6747   12.5311 C   0  0  2  0  0  0  0  0  0  0  0  0
   19.5942   -4.5734   14.0021 N   0  0  0  0  0  0  0  0  0  0  0  0
   19.8535   -9.2398   15.0476 C   0  0  1  0  0  0  0  0  0  0  0  0
   20.8896  -10.1755   15.4073 O   0  0  0  0  0  0  0  0  0  0  0  0
   24.7881   -3.0511   18.2520 C   0  0  0  0  0  0  0  0  0  0  0  0
   27.8927   -4.8901   14.5645 C   0  0  2  0  0  0  0  0  0  0  0  0
   27.5643   -6.3032   14.7792 N   0  0  0  0  0  0  0  0  0  0  0  0
   22.6383   -2.5711   12.1537 C   0  0  2  0  0  0  0  0  0  0  0  0
   21.8188   -3.4865   12.8356 O   0  0  0  0  0  0  0  0  0  0  0  0
   19.1472   -5.9680   11.8569 C   0  0  1  0  0  0  0  0  0  0  0  0
   19.4633   -5.9658   10.4609 O   0  0  0  0  0  0  0  0  0  0  0  0
   18.6851   -9.4406   16.0052 C   0  0  1  0  0  0  0  0  0  0  0  0
   18.4298  -10.8479   16.0726 O   0  0  0  0  0  0  0  0  0  0  0  0
   25.7462   -1.8305   18.3854 C   0  0  2  0  0  0  0  0  0  0  0  0
   25.0341   -0.6187   18.5607 O   0  0  0  0  0  0  0  0  0  0  0  0
   26.5976   -4.0411   14.4821 C   0  0  2  0  0  0  0  0  0  0  0  0
   23.7438   -3.4500   11.5332 C   0  0  2  0  0  0  0  0  0  0  0  0
   24.6892   -3.5233   12.5886 O   0  0  0  0  0  0  0  0  0  0  0  0
   19.7805   -7.2973   12.4408 C   0  0  2  0  0  0  0  0  0  0  0  0
   19.4175   -7.2828   13.8223 O   0  0  0  0  0  0  0  0  0  0  0  0
   18.9436   -8.9042   17.4143 C   0  0  2  0  0  0  0  0  0  0  0  0
   17.6756   -8.8787   18.0896 O   0  0  0  0  0  0  0  0  0  0  0  0
   26.6531   -1.7827   17.1307 C   0  0  2  0  0  0  0  0  0  0  0  0
   27.4274   -3.0160   17.1094 O   0  0  0  0  0  0  0  0  0  0  0  0
   26.8411   -2.5334   14.1525 C   0  0  2  0  0  0  0  0  0  0  0  0
   25.5627   -1.8509   14.0247 O   0  0  0  0  0  0  0  0  0  0  0  0
   24.4261   -2.9023   10.2801 C   0  0  0  0  0  0  0  0  0  0  0  0
   25.0215   -1.6434   10.6272 O   0  0  0  0  0  0  0  0  0  0  0  0
   21.2817   -7.0838   12.4114 C   0  0  1  0  0  0  0  0  0  0  0  0
   22.0492   -5.8710   12.5689 O   0  0  0  0  0  0  0  0  0  0  0  0
   19.6621   -7.5600   17.3779 C   0  0  2  0  0  0  0  0  0  0  0  0
   20.5905   -7.2379   16.3309 O   0  0  0  0  0  0  0  0  0  0  0  0
   27.6496   -0.6748   17.1715 C   0  0  0  0  0  0  0  0  0  0  0  0
   26.9441    0.5331   17.0183 O   0  0  0  0  0  0  0  0  0  0  0  0
   27.7384   -2.3794   12.8783 C   0  0  1  0  0  0  0  0  0  0  0  0
   28.0746   -0.9717   12.7572 O   0  0  0  0  0  0  0  0  0  0  0  0
   22.1635   -8.2961   12.8422 C   0  0  0  0  0  0  0  0  0  0  0  0
   23.5956   -7.9588   12.9837 N   0  0  0  0  0  0  0  0  0  0  0  0
   20.0585   -6.7930   18.6374 C   0  0  0  0  0  0  0  0  0  0  0  0
   19.1456   -7.1129   19.7205 O   0  0  0  0  0  0  0  0  0  0  0  0
  1  2  1  6  0  0  0
  1  8  1  0  0  0  0
  1 36  1  0  0  0  0
  3  4  1  6  0  0  0
  3 10  1  0  0  0  0
  3 47  1  0  0  0  0
  5 11  1  0  0  0  0
  5 30  1  0  0  0  0
  5 38  1  6  0  0  0
  6 21  1  1  0  0  0
  6 42  1  0  0  0  0
  7 15  1  0  0  0  0
  7 44  1  0  0  0  0
  7 32  1  6  0  0  0
  8  9  1  6  0  0  0
  8 17  1  0  0  0  0
 11 12  1  1  0  0  0
 11 20  1  0  0  0  0
 13  6  1  0  0  0  0
 13 14  1  1  0  0  0
 15 16  1  1  0  0  0
 15 24  1  0  0  0  0
 17 26  1  0  0  0  0
 18 10  1  0  0  0  0
 18 19  1  6  0  0  0
 20 21  1  1  0  0  0
 20 29  1  0  0  0  0
 22 13  1  0  0  0  0
 22 23  1  6  0  0  0
 24 25  1  1  0  0  0
 24 33  1  0  0  0  0
 26 27  1  6  0  0  0
 26 35  1  0  0  0  0
 28  2  1  1  0  0  0
 28 18  1  0  0  0  0
 29 30  1  0  0  0  0
 29 39  1  6  0  0  0
 31 22  1  0  0  0  0
 31 32  1  1  0  0  0
 31 41  1  0  0  0  0
 33 34  1  6  0  0  0
 33 43  1  0  0  0  0
 35 36  1  0  0  0  0
 35 45  1  1  0  0  0
 37 28  1  0  0  0  0
 37 38  1  6  0  0  0
 39 40  1  0  0  0  0
 41 42  1  0  0  0  0
 41 49  1  1  0  0  0
 43 44  1  0  0  0  0
 43 51  1  1  0  0  0
 45 46  1  0  0  0  0
 47 37  1  0  0  0  0
 47 48  1  1  0  0  0
 49 50  1  0  0  0  0
 51 52  1  0  0  0  0
M  END
>  <CHROM.1>
176.45243557,-161.10223556,-134.03184946,-94.18391273,-165.47533090,39.79677011
59.44072362,-143.10897822,-70.26019618,-26.00676264,-171.39117796,-28.16422608
23.43294091,-4.78217517,14.67992988,-0.17236958,0.64576758,1.71481261

>  <Name>
2esj_lig

>  <RI>
1.01272e+07

>  <Rbt.Current_Directory>
/home/itssahil/PROJECTS/Mol_Feturizer/New_Systems/rnas/2esj

>  <Rbt.Executable>
rbdock ($Id: //depot/dev/client3/rdock/2013.1/src/exe/rbdock.cxx#4 $)

>  <Rbt.Library>
libRbt.so (2013.1, Build901 2013/11/27)

>  <Rbt.Parameter_File>
/export/apps/rDock/src/rDock_2013.1_src/data/scripts/dock_solv.prm

>  <Rbt.Receptor>
prm/pocket_docking_3.prm

>  <SCORE>
6.36458

>  <SCORE.INTER>
-0.154281

>  <SCORE.INTER.CONST>
1

>  <SCORE.INTER.POLAR>
-0.824621

>  <SCORE.INTER.ROT>
12

>  <SCORE.INTER.SOLV>
11.3297

>  <SCORE.INTER.VDW>
-12.7307

>  <SCORE.INTER.norm>
-0.00296695

>  <SCORE.INTRA>
6.11613

>  <SCORE.INTRA.DIHEDRAL>
-2.7688

>  <SCORE.INTRA.DIHEDRAL.0>
32.9766

>  <SCORE.INTRA.POLAR>
0

>  <SCORE.INTRA.POLAR.0>
0

>  <SCORE.INTRA.REPUL>
0

>  <SCORE.INTRA.REPUL.0>
0

>  <SCORE.INTRA.SOLV>
-0.963086

>  <SCORE.INTRA.SOLV.lig_0>
-114.358

>  <SCORE.INTRA.VDW>
7.98207

>  <SCORE.INTRA.VDW.0>
-8.24257

>  <SCORE.INTRA.norm>
0.117618

>  <SCORE.RESTR>
0.402731

>  <SCORE.RESTR.CAVITY>
0.402731

>  <SCORE.RESTR.norm>
0.00774482

>  <SCORE.SYSTEM>
0

>  <SCORE.SYSTEM.CONST>
0

>  <SCORE.SYSTEM.DIHEDRAL>
0

>  <SCORE.SYSTEM.SOLV>
0

>  <SCORE.SYSTEM.norm>
0

>  <SCORE.heavy>
52

>  <SCORE.norm>
0.122396

>  <RMSD>
9.622

$$$$
2esj_lig
 OpenBabel11021811423D
libRbt.so/2013.1/901 2013/11/27
 52 56  0  0  0  0  0  0  0  0999 V2000
   23.5214   -0.6210   12.9365 C   0  0  2  0  0  0  0  0  0  0  0  0
   23.5076   -2.0113   12.5599 O   0  0  0  0  0  0  0  0  0  0  0  0
   22.9187   -1.5911    8.3450 C   0  0  2  0  0  0  0  0  0  0  0  0
   22.7692   -1.8277    6.8997 N   0  0  0  0  0  0  0  0  0  0  0  0
   21.0356   -4.0548   11.7816 C   0  0  1  0  0  0  0  0  0  0  0  0
   20.8323   -8.0129   13.2912 C   0  0  1  0  0  0  0  0  0  0  0  0
   20.1170   -9.3555   18.0523 C   0  0  1  0  0  0  0  0  0  0  0  0
   24.0015   -0.5410   14.4157 C   0  0  2  0  0  0  0  0  0  0  0  0
   25.3068   -1.1719   14.6088 N   0  0  0  0  0  0  0  0  0  0  0  0
   24.3082   -2.1479    8.8517 C   0  0  0  0  0  0  0  0  0  0  0  0
   20.1114   -4.4432   12.9363 C   0  0  2  0  0  0  0  0  0  0  0  0
   20.7106   -4.1987   14.2272 O   0  0  0  0  0  0  0  0  0  0  0  0
   19.7670   -8.0397   14.4768 C   0  0  2  0  0  0  0  0  0  0  0  0
   20.1450   -7.0899   15.5566 N   0  0  0  0  0  0  0  0  0  0  0  0
   20.3571   -7.8930   18.4089 C   0  0  1  0  0  0  0  0  0  0  0  0
   19.1679   -7.3530   19.0192 O   0  0  0  0  0  0  0  0  0  0  0  0
   22.9535   -1.1860   15.3774 C   0  0  0  0  0  0  0  0  0  0  0  0
   24.4761   -1.8321   10.3924 C   0  0  2  0  0  0  0  0  0  0  0  0
   25.7537   -2.3512   10.8913 N   0  0  0  0  0  0  0  0  0  0  0  0
   19.8825   -5.8946   12.6278 C   0  0  2  0  0  0  0  0  0  0  0  0
   21.0037   -6.6583   12.9939 O   0  0  0  0  0  0  0  0  0  0  0  0
   19.5565   -9.5457   14.9488 C   0  0  1  0  0  0  0  0  0  0  0  0
   19.2626  -10.3526   13.8037 O   0  0  0  0  0  0  0  0  0  0  0  0
   21.5275   -7.6362   19.3505 C   0  0  1  0  0  0  0  0  0  0  0  0
   21.4526   -6.2647   19.7548 O   0  0  0  0  0  0  0  0  0  0  0  0
   21.5692   -0.5142   15.1363 C   0  0  2  0  0  0  0  0  0  0  0  0
   20.5852   -0.9995   16.0322 O   0  0  0  0  0  0  0  0  0  0  0  0
   23.2964   -2.4336   11.1996 C   0  0  2  0  0  0  0  0  0  0  0  0
   19.8459   -5.9989   11.0892 C   0  0  2  0  0  0  0  0  0  0  0  0
   20.7054   -4.9388   10.7014 O   0  0  0  0  0  0  0  0  0  0  0  0
   20.8828  -10.1473   15.5718 C   0  0  2  0  0  0  0  0  0  0  0  0
   21.1258   -9.3424   16.7266 O   0  0  0  0  0  0  0  0  0  0  0  0
   21.5283   -8.5311   20.5912 C   0  0  2  0  0  0  0  0  0  0  0  0
   22.8227   -8.3971   21.2008 O   0  0  0  0  0  0  0  0  0  0  0  0
   21.1629   -0.7502   13.6604 C   0  0  2  0  0  0  0  0  0  0  0  0
   22.1716   -0.1114   12.8266 O   0  0  0  0  0  0  0  0  0  0  0  0
   21.8847   -2.0179   10.6749 C   0  0  2  0  0  0  0  0  0  0  0  0
   20.8583   -2.6949   11.4524 O   0  0  0  0  0  0  0  0  0  0  0  0
   18.4816   -5.8123   10.4262 C   0  0  0  0  0  0  0  0  0  0  0  0
   18.5593   -6.3789    9.1100 O   0  0  0  0  0  0  0  0  0  0  0  0
   21.9890   -9.8015   14.5936 C   0  0  1  0  0  0  0  0  0  0  0  0
   22.1359   -8.6562   13.7268 O   0  0  0  0  0  0  0  0  0  0  0  0
   21.1428   -9.9653   20.2466 C   0  0  2  0  0  0  0  0  0  0  0  0
   20.2252  -10.2561   19.1812 O   0  0  0  0  0  0  0  0  0  0  0  0
   19.8673   -0.1063   13.3007 C   0  0  0  0  0  0  0  0  0  0  0  0
   19.5748   -0.4612   11.9708 O   0  0  0  0  0  0  0  0  0  0  0  0
   21.7583   -2.2922    9.1383 C   0  0  1  0  0  0  0  0  0  0  0  0
   20.5051   -1.7043    8.6986 O   0  0  0  0  0  0  0  0  0  0  0  0
   23.4042  -10.3721   14.9166 C   0  0  0  0  0  0  0  0  0  0  0  0
   23.4188  -11.8397   15.0917 N   0  0  0  0  0  0  0  0  0  0  0  0
   21.0506  -11.0767   21.2897 C   0  0  0  0  0  0  0  0  0  0  0  0
   20.4645  -10.5602   22.5139 O   0  0  0  0  0  0  0  0  0  0  0  0
  1  2  1  1  0  0  0
  1  8  1  0  0  0  0
  1 36  1  0  0  0  0
  3  4  1  6  0  0  0
  3 10  1  0  0  0  0
  3 47  1  0  0  0  0
  5 11  1  0  0  0  0
  5 30  1  0  0  0  0
  5 38  1  6  0  0  0
  6 21  1  1  0  0  0
  6 42  1  0  0  0  0
  7 15  1  0  0  0  0
  7 44  1  0  0  0  0
  7 32  1  6  0  0  0
  8  9  1  6  0  0  0
  8 17  1  0  0  0  0
 11 12  1  1  0  0  0
 11 20  1  0  0  0  0
 13  6  1  0  0  0  0
 13 14  1  1  0  0  0
 15 16  1  1  0  0  0
 15 24  1  0  0  0  0
 17 26  1  0  0  0  0
 18 10  1  0  0  0  0
 18 19  1  1  0  0  0
 20 21  1  6  0  0  0
 20 29  1  0  0  0  0
 22 13  1  0  0  0  0
 22 23  1  6  0  0  0
 24 25  1  1  0  0  0
 24 33  1  0  0  0  0
 26 27  1  1  0  0  0
 26 35  1  0  0  0  0
 28  2  1  1  0  0  0
 28 18  1  0  0  0  0
 29 30  1  0  0  0  0
 29 39  1  6  0  0  0
 31 22  1  0  0  0  0
 31 32  1  1  0  0  0
 31 41  1  0  0  0  0
 33 34  1  6  0  0  0
 33 43  1  0  0  0  0
 35 36  1  0  0  0  0
 35 45  1  1  0  0  0
 37 28  1  0  0  0  0
 37 38  1  1  0  0  0
 39 40  1  0  0  0  0
 41 42  1  0  0  0  0
 41 49  1  1  0  0  0
 43 44  1  0  0  0  0
 43 51  1  1  0  0  0
 45 46  1  0  0  0  0
 47 37  1  0  0  0  0
 47 48  1  6  0  0  0
 49 50  1  0  0  0  0
 51 52  1  0  0  0  0
M  END
>  <CHROM.1>
-170.94050105,162.03358000,-57.48342128,-147.80084638,154.96478089,61.69085796
-160.76186646,66.74870465,-176.48359339,-42.21484505,54.95422339,39.33862697
21.42120391,-5.36566987,14.21733729,-1.15893040,1.30304482,1.94901787

>  <Name>
2esj_lig

>  <RI>
1.62275e+07

>  <Rbt.Current_Directory>
/home/itssahil/PROJECTS/Mol_Feturizer/New_Systems/rnas/2esj

>  <Rbt.Executable>
rbdock ($Id: //depot/dev/client3/rdock/2013.1/src/exe/rbdock.cxx#4 $)

>  <Rbt.Library>
libRbt.so (2013.1, Build901 2013/11/27)

>  <Rbt.Parameter_File>
/export/apps/rDock/src/rDock_2013.1_src/data/scripts/dock_solv.prm

>  <Rbt.Receptor>
prm/pocket_docking_5.prm

>  <SCORE>
-6.87116

>  <SCORE.INTER>
-1.38261

>  <SCORE.INTER.CONST>
1

>  <SCORE.INTER.POLAR>
-0.142458

>  <SCORE.INTER.ROT>
12

>  <SCORE.INTER.SOLV>
14.0597

>  <SCORE.INTER.VDW>
-16.7335

>  <SCORE.INTER.norm>
-0.0265887

>  <SCORE.INTRA>
-5.49558

>  <SCORE.INTRA.DIHEDRAL>
-16.2672

>  <SCORE.INTRA.DIHEDRAL.0>
32.9766

>  <SCORE.INTRA.POLAR>
0

>  <SCORE.INTRA.POLAR.0>
0

>  <SCORE.INTRA.REPUL>
0

>  <SCORE.INTRA.REPUL.0>
0

>  <SCORE.INTRA.SOLV>
0.439476

>  <SCORE.INTRA.SOLV.lig_0>
-114.358

>  <SCORE.INTRA.VDW>
2.41825

>  <SCORE.INTRA.VDW.0>
-8.24257

>  <SCORE.INTRA.norm>
-0.105684

>  <SCORE.RESTR>
0.00704228

>  <SCORE.RESTR.CAVITY>
0.00704228

>  <SCORE.RESTR.norm>
0.000135428

>  <SCORE.SYSTEM>
0

>  <SCORE.SYSTEM.CONST>
0

>  <SCORE.SYSTEM.DIHEDRAL>
0

>  <SCORE.SYSTEM.SOLV>
0

>  <SCORE.SYSTEM.norm>
0

>  <SCORE.heavy>
52

>  <SCORE.norm>
-0.132138

>  <RMSD>
9.622

$$$$
2esj_lig
 OpenBabel11021811423D
libRbt.so/2013.1/901 2013/11/27
 52 56  0  0  0  0  0  0  0  0999 V2000
   20.7200   -1.3173   14.9405 C   0  0  2  0  0  0  0  0  0  0  0  0
   21.5615   -2.4446   14.6306 O   0  0  0  0  0  0  0  0  0  0  0  0
   22.5729   -1.4934   10.5858 C   0  0  2  0  0  0  0  0  0  0  0  0
   23.1302   -1.4878    9.2232 N   0  0  0  0  0  0  0  0  0  0  0  0
   20.7477   -5.0386   13.0737 C   0  0  1  0  0  0  0  0  0  0  0  0
   22.2785   -8.5478   14.3753 C   0  0  1  0  0  0  0  0  0  0  0  0
   21.6759  -12.9709   17.1991 C   0  0  1  0  0  0  0  0  0  0  0  0
   20.7244   -1.1406   16.4877 C   0  0  2  0  0  0  0  0  0  0  0  0
   22.0759   -0.9762   17.0221 N   0  0  0  0  0  0  0  0  0  0  0  0
   23.7362   -1.5364   11.6546 C   0  0  0  0  0  0  0  0  0  0  0  0
   19.7232   -6.1714   13.1497 C   0  0  2  0  0  0  0  0  0  0  0  0
   18.9266   -6.1133   14.3528 O   0  0  0  0  0  0  0  0  0  0  0  0
   21.6155   -9.8794   13.8021 C   0  0  2  0  0  0  0  0  0  0  0  0
   20.2977  -10.1379   14.4404 N   0  0  0  0  0  0  0  0  0  0  0  0
   22.1705  -14.1219   16.3307 C   0  0  1  0  0  0  0  0  0  0  0  0
   22.8949  -15.0584   17.1533 O   0  0  0  0  0  0  0  0  0  0  0  0
   20.0203   -2.3458   17.1882 C   0  0  0  0  0  0  0  0  0  0  0  0
   23.1207   -1.4819   13.1106 C   0  0  2  0  0  0  0  0  0  0  0  0
   24.1804   -1.5342   14.1232 N   0  0  0  0  0  0  0  0  0  0  0  0
   20.6289   -7.3659   13.0671 C   0  0  2  0  0  0  0  0  0  0  0  0
   21.2702   -7.5835   14.2984 O   0  0  0  0  0  0  0  0  0  0  0  0
   22.6649  -11.0711   13.9189 C   0  0  1  0  0  0  0  0  0  0  0  0
   23.8994  -10.6606   13.3220 O   0  0  0  0  0  0  0  0  0  0  0  0
   21.0843  -14.8903   15.5877 C   0  0  1  0  0  0  0  0  0  0  0  0
   21.6982  -16.0566   15.0280 O   0  0  0  0  0  0  0  0  0  0  0  0
   18.5938   -2.5142   16.5863 C   0  0  2  0  0  0  0  0  0  0  0  0
   17.8680   -3.5449   17.2321 O   0  0  0  0  0  0  0  0  0  0  0  0
   22.1176   -2.6463   13.3179 C   0  0  2  0  0  0  0  0  0  0  0  0
   21.7743   -6.9629   12.1157 C   0  0  2  0  0  0  0  0  0  0  0  0
   21.8566   -5.5628   12.3300 O   0  0  0  0  0  0  0  0  0  0  0  0
   23.0041  -11.3969   15.4315 C   0  0  2  0  0  0  0  0  0  0  0  0
   21.7617  -11.8340   15.9845 O   0  0  0  0  0  0  0  0  0  0  0  0
   19.9107  -15.3111   16.4740 C   0  0  2  0  0  0  0  0  0  0  0  0
   18.8543  -15.7310   15.5951 O   0  0  0  0  0  0  0  0  0  0  0  0
   18.7339   -2.7811   15.0670 C   0  0  2  0  0  0  0  0  0  0  0  0
   19.3807   -1.6154   14.4808 O   0  0  0  0  0  0  0  0  0  0  0  0
   21.0061   -2.7353   12.2236 C   0  0  2  0  0  0  0  0  0  0  0  0
   20.1714   -3.9007   12.4719 O   0  0  0  0  0  0  0  0  0  0  0  0
   21.5517   -7.2347   10.6283 C   0  0  0  0  0  0  0  0  0  0  0  0
   22.8226   -7.1169    9.9723 O   0  0  0  0  0  0  0  0  0  0  0  0
   23.2929  -10.0589   16.0844 C   0  0  1  0  0  0  0  0  0  0  0  0
   22.7441   -8.7529   15.8051 O   0  0  0  0  0  0  0  0  0  0  0  0
   19.5165  -14.2024   17.4435 C   0  0  2  0  0  0  0  0  0  0  0  0
   20.4917  -13.2891   17.9696 O   0  0  0  0  0  0  0  0  0  0  0  0
   17.4210   -2.9124   14.3731 C   0  0  0  0  0  0  0  0  0  0  0  0
   17.6852   -3.1969   13.0206 O   0  0  0  0  0  0  0  0  0  0  0  0
   21.6348   -2.7368   10.7894 C   0  0  1  0  0  0  0  0  0  0  0  0
   20.5410   -2.6244    9.8406 O   0  0  0  0  0  0  0  0  0  0  0  0
   23.7617  -10.0994   17.5715 C   0  0  0  0  0  0  0  0  0  0  0  0
   22.6649  -10.3679   18.5252 N   0  0  0  0  0  0  0  0  0  0  0  0
   18.3827  -14.3456   18.4563 C   0  0  0  0  0  0  0  0  0  0  0  0
   18.9009  -14.8624   19.7106 O   0  0  0  0  0  0  0  0  0  0  0  0
  1  2  1  1  0  0  0
  1  8  1  0  0  0  0
  1 36  1  0  0  0  0
  3  4  1  6  0  0  0
  3 10  1  0  0  0  0
  3 47  1  0  0  0  0
  5 11  1  0  0  0  0
  5 30  1  0  0  0  0
  5 38  1  6  0  0  0
  6 21  1  1  0  0  0
  6 42  1  0  0  0  0
  7 15  1  0  0  0  0
  7 44  1  0  0  0  0
  7 32  1  6  0  0  0
  8  9  1  1  0  0  0
  8 17  1  0  0  0  0
 11 12  1  1  0  0  0
 11 20  1  0  0  0  0
 13  6  1  0  0  0  0
 13 14  1  1  0  0  0
 15 16  1  1  0  0  0
 15 24  1  0  0  0  0
 17 26  1  0  0  0  0
 18 10  1  0  0  0  0
 18 19  1  1  0  0  0
 20 21  1  1  0  0  0
 20 29  1  0  0  0  0
 22 13  1  0  0  0  0
 22 23  1  6  0  0  0
 24 25  1  1  0  0  0
 24 33  1  0  0  0  0
 26 27  1  1  0  0  0
 26 35  1  0  0  0  0
 28  2  1  1  0  0  0
 28 18  1  0  0  0  0
 29 30  1  0  0  0  0
 29 39  1  6  0  0  0
 31 22  1  0  0  0  0
 31 32  1  1  0  0  0
 31 41  1  0  0  0  0
 33 34  1  6  0  0  0
 33 43  1  0  0  0  0
 35 36  1  0  0  0  0
 35 45  1  6  0  0  0
 37 28  1  0  0  0  0
 37 38  1  1  0  0  0
 39 40  1  0  0  0  0
 41 42  1  0  0  0  0
 41 49  1  1  0  0  0
 43 44  1  0  0  0  0
 43 51  1  1  0  0  0
 45 46  1  0  0  0  0
 47 37  1  0  0  0  0
 47 48  1  6  0  0  0
 49 50  1  0  0  0  0
 51 52  1  0  0  0  0
M  END
>  <CHROM.1>
-160.32984064,-176.02147254,-53.76554994,-67.91182278,-172.12430592,66.72669578
-165.57646920,147.94879780,-177.98446204,-31.13209442,-75.90325469,90.87363526
21.12753580,-7.35419626,14.57646513,1.56850791,1.01973734,-0.29127739

>  <Name>
2esj_lig

>  <RI>
2.18877e+07

>  <Rbt.Current_Directory>
/home/itssahil/PROJECTS/Mol_Feturizer/New_Systems/rnas/2esj

>  <Rbt.Executable>
rbdock ($Id: //depot/dev/client3/rdock/2013.1/src/exe/rbdock.cxx#4 $)

>  <Rbt.Library>
libRbt.so (2013.1, Build901 2013/11/27)

>  <Rbt.Parameter_File>
/export/apps/rDock/src/rDock_2013.1_src/data/scripts/dock_solv.prm

>  <Rbt.Receptor>
prm/pocket_docking_7.prm

>  <SCORE>
-15.0902

>  <SCORE.INTER>
-11.3518

>  <SCORE.INTER.CONST>
1

>  <SCORE.INTER.POLAR>
-0.894301

>  <SCORE.INTER.ROT>
12

>  <SCORE.INTER.SOLV>
13.0147

>  <SCORE.INTER.VDW>
-20.5251

>  <SCORE.INTER.norm>
-0.218305

>  <SCORE.INTRA>
-3.73833

>  <SCORE.INTRA.DIHEDRAL>
-16.3172

>  <SCORE.INTRA.DIHEDRAL.0>
32.9766

>  <SCORE.INTRA.POLAR>
0

>  <SCORE.INTRA.POLAR.0>
0

>  <SCORE.INTRA.REPUL>
0

>  <SCORE.INTRA.REPUL.0>
0

>  <SCORE.INTRA.SOLV>
0.836691

>  <SCORE.INTRA.SOLV.lig_0>
-114.358

>  <SCORE.INTRA.VDW>
4.00193

>  <SCORE.INTRA.VDW.0>
-8.24257

>  <SCORE.INTRA.norm>
-0.0718909

>  <SCORE.RESTR>
0

>  <SCORE.RESTR.CAVITY>
0

>  <SCORE.RESTR.norm>
0

>  <SCORE.SYSTEM>
0

>  <SCORE.SYSTEM.CONST>
0

>  <SCORE.SYSTEM.DIHEDRAL>
0

>  <SCORE.SYSTEM.SOLV>
0

>  <SCORE.SYSTEM.norm>
0

>  <SCORE.heavy>
52

>  <SCORE.norm>
-0.290195

>  <RMSD>
9.650

$$$$
2esj_lig
 OpenBabel11021811423D
libRbt.so/2013.1/901 2013/11/27
 52 56  0  0  0  0  0  0  0  0999 V2000
   27.3149   -3.9986   17.0664 C   0  0  2  0  0  0  0  0  0  0  0  0
   26.8464   -4.2775   15.7331 O   0  0  0  0  0  0  0  0  0  0  0  0
   29.4814   -1.7395   13.5188 C   0  0  2  0  0  0  0  0  0  0  0  0
   30.2233   -1.0412   12.4562 N   0  0  0  0  0  0  0  0  0  0  0  0
   24.9630   -2.4338   13.5224 C   0  0  1  0  0  0  0  0  0  0  0  0
   22.2226   -5.0536   11.7616 C   0  0  1  0  0  0  0  0  0  0  0  0
   17.4234   -5.2386   13.9303 C   0  0  1  0  0  0  0  0  0  0  0  0
   26.5236   -4.9178   18.0431 C   0  0  2  0  0  0  0  0  0  0  0  0
   26.6584   -6.3337   17.7021 N   0  0  0  0  0  0  0  0  0  0  0  0
   29.6559   -3.3035   13.3734 C   0  0  0  0  0  0  0  0  0  0  0  0
   23.7723   -3.1727   14.1346 C   0  0  2  0  0  0  0  0  0  0  0  0
   24.0994   -4.5283   14.5099 O   0  0  0  0  0  0  0  0  0  0  0  0
   20.9336   -4.4017   11.0873 C   0  0  2  0  0  0  0  0  0  0  0  0
   20.4591   -3.2273   11.8661 N   0  0  0  0  0  0  0  0  0  0  0  0
   17.4318   -3.7934   14.4147 C   0  0  1  0  0  0  0  0  0  0  0  0
   16.0881   -3.4021   14.7608 O   0  0  0  0  0  0  0  0  0  0  0  0
   25.0130   -4.5229   18.0794 C   0  0  0  0  0  0  0  0  0  0  0  0
   28.9017   -4.0334   14.5567 C   0  0  2  0  0  0  0  0  0  0  0  0
   29.0369   -5.4888   14.4374 N   0  0  0  0  0  0  0  0  0  0  0  0
   22.7784   -3.0660   13.0144 C   0  0  2  0  0  0  0  0  0  0  0  0
   23.0872   -3.9807   11.9935 O   0  0  0  0  0  0  0  0  0  0  0  0
   19.8431   -5.5375   10.8513 C   0  0  1  0  0  0  0  0  0  0  0  0
   20.4531   -6.6259   10.1499 O   0  0  0  0  0  0  0  0  0  0  0  0
   18.3272   -3.5146   15.6159 C   0  0  1  0  0  0  0  0  0  0  0  0
   18.0284   -2.1893   16.0682 O   0  0  0  0  0  0  0  0  0  0  0  0
   24.8972   -3.0078   18.4211 C   0  0  2  0  0  0  0  0  0  0  0  0
   23.5473   -2.5978   18.5466 O   0  0  0  0  0  0  0  0  0  0  0  0
   27.4045   -3.6297   14.5747 C   0  0  2  0  0  0  0  0  0  0  0  0
   23.0189   -1.6872   12.3659 C   0  0  2  0  0  0  0  0  0  0  0  0
   24.4049   -1.4905   12.5972 O   0  0  0  0  0  0  0  0  0  0  0  0
   19.3306   -6.1413   12.2232 C   0  0  2  0  0  0  0  0  0  0  0  0
   18.7002   -5.0398   12.8788 O   0  0  0  0  0  0  0  0  0  0  0  0
   18.1345   -4.4996   16.7703 C   0  0  2  0  0  0  0  0  0  0  0  0
   19.2374   -4.3069   17.6711 O   0  0  0  0  0  0  0  0  0  0  0  0
   25.6383   -2.2025   17.3250 C   0  0  2  0  0  0  0  0  0  0  0  0
   27.0363   -2.6093   17.3600 O   0  0  0  0  0  0  0  0  0  0  0  0
   27.1584   -2.0870   14.5970 C   0  0  2  0  0  0  0  0  0  0  0  0
   25.7293   -1.8216   14.5359 O   0  0  0  0  0  0  0  0  0  0  0  0
   22.2366   -0.5127   12.9526 C   0  0  0  0  0  0  0  0  0  0  0  0
   22.5164   -0.4665   14.3594 O   0  0  0  0  0  0  0  0  0  0  0  0
   20.5786   -6.4375   13.0325 C   0  0  1  0  0  0  0  0  0  0  0  0
   21.8532   -5.7596   13.0531 O   0  0  0  0  0  0  0  0  0  0  0  0
   17.9797   -5.9298   16.2652 C   0  0  2  0  0  0  0  0  0  0  0  0
   17.3606   -6.2119   15.0007 O   0  0  0  0  0  0  0  0  0  0  0  0
   25.6337   -0.7330   17.5756 C   0  0  0  0  0  0  0  0  0  0  0  0
   24.2952   -0.3013   17.5294 O   0  0  0  0  0  0  0  0  0  0  0  0
   27.9541   -1.3790   13.4490 C   0  0  1  0  0  0  0  0  0  0  0  0
   27.8286    0.0526   13.6588 O   0  0  0  0  0  0  0  0  0  0  0  0
   20.3631   -7.1445   14.4060 C   0  0  0  0  0  0  0  0  0  0  0  0
   19.4202   -8.2809   14.3392 N   0  0  0  0  0  0  0  0  0  0  0  0
   17.7629   -7.1223   17.1939 C   0  0  0  0  0  0  0  0  0  0  0  0
   18.9845   -7.4102   17.9244 O   0  0  0  0  0  0  0  0  0  0  0  0
  1  2  1  6  0  0  0
  1  8  1  0  0  0  0
  1 36  1  0  0  0  0
  3  4  1  6  0  0  0
  3 10  1  0  0  0  0
  3 47  1  0  0  0  0
  5 11  1  0  0  0  0
  5 30  1  0  0  0  0
  5 38  1  1  0  0  0
  6 21  1  1  0  0  0
  6 42  1  0  0  0  0
  7 15  1  0  0  0  0
  7 44  1  0  0  0  0
  7 32  1  1  0  0  0
  8  9  1  6  0  0  0
  8 17  1  0  0  0  0
 11 12  1  6  0  0  0
 11 20  1  0  0  0  0
 13  6  1  0  0  0  0
 13 14  1  1  0  0  0
 15 16  1  1  0  0  0
 15 24  1  0  0  0  0
 17 26  1  0  0  0  0
 18 10  1  0  0  0  0
 18 19  1  6  0  0  0
 20 21  1  6  0  0  0
 20 29  1  0  0  0  0
 22 13  1  0  0  0  0
 22 23  1  6  0  0  0
 24 25  1  1  0  0  0
 24 33  1  0  0  0  0
 26 27  1  6  0  0  0
 26 35  1  0  0  0  0
 28  2  1  1  0  0  0
 28 18  1  0  0  0  0
 29 30  1  0  0  0  0
 29 39  1  1  0  0  0
 31 22  1  0  0  0  0
 31 32  1  1  0  0  0
 31 41  1  0  0  0  0
 33 34  1  1  0  0  0
 33 43  1  0  0  0  0
 35 36  1  0  0  0  0
 35 45  1  1  0  0  0
 37 28  1  0  0  0  0
 37 38  1  6  0  0  0
 39 40  1  0  0  0  0
 41 42  1  0  0  0  0
 41 49  1  1  0  0  0
 43 44  1  0  0  0  0
 43 51  1  1  0  0  0
 45 46  1  0  0  0  0
 47 37  1  0  0  0  0
 47 48  1  1  0  0  0
 49 50  1  0  0  0  0
 51 52  1  0  0  0  0
M  END
>  <CHROM.1>
-177.81841464,126.87714436,72.02757300,170.54943286,112.17111590,61.11098788
55.20024541,149.91775179,-63.61685624,-51.31452293,45.58709893,-71.31733718
23.00726251,-3.80325211,14.69860143,0.02934684,0.30532149,1.63726404

>  <Name>
2esj_lig

>  <RI>
1.01272e+07

>  <Rbt.Current_Directory>
/home/itssahil/PROJECTS/Mol_Feturizer/New_Systems/rnas/2esj

>  <Rbt.Executable>
rbdock ($Id: //depot/dev/client3/rdock/2013.1/src/exe/rbdock.cxx#4 $)

>  <Rbt.Library>
libRbt.so (2013.1, Build901 2013/11/27)

>  <Rbt.Parameter_File>
/export/apps/rDock/src/rDock_2013.1_src/data/scripts/dock_solv.prm

>  <Rbt.Receptor>
prm/pocket_docking_3.prm

>  <SCORE>
-1.73832

>  <SCORE.INTER>
-2.97193

>  <SCORE.INTER.CONST>
1

>  <SCORE.INTER.POLAR>
-1.08788

>  <SCORE.INTER.ROT>
12

>  <SCORE.INTER.SOLV>
13.1884

>  <SCORE.INTER.VDW>
-14.3512

>  <SCORE.INTER.norm>
-0.0571525

>  <SCORE.INTRA>
-0.412596

>  <SCORE.INTRA.DIHEDRAL>
-9.14352

>  <SCORE.INTRA.DIHEDRAL.0>
32.9766

>  <SCORE.INTRA.POLAR>
0

>  <SCORE.INTRA.POLAR.0>
0

>  <SCORE.INTRA.REPUL>
0

>  <SCORE.INTRA.REPUL.0>
0

>  <SCORE.INTRA.SOLV>
4.77262

>  <SCORE.INTRA.SOLV.lig_0>
-114.358

>  <SCORE.INTRA.VDW>
1.77285

>  <SCORE.INTRA.VDW.0>
-8.24257

>  <SCORE.INTRA.norm>
-0.00793454

>  <SCORE.RESTR>
1.6462

>  <SCORE.RESTR.CAVITY>
1.6462

>  <SCORE.RESTR.norm>
0.0316578

>  <SCORE.SYSTEM>
0

>  <SCORE.SYSTEM.CONST>
0

>  <SCORE.SYSTEM.DIHEDRAL>
0

>  <SCORE.SYSTEM.SOLV>
0

>  <SCORE.SYSTEM.norm>
0

>  <SCORE.heavy>
52

>  <SCORE.norm>
-0.0334292

>  <RMSD>
9.664

$$$$
2esj_lig
 OpenBabel11021811423D
libRbt.so/2013.1/901 2013/11/27
 52 56  0  0  0  0  0  0  0  0999 V2000
   26.2245   -1.1506   16.1118 C   0  0  2  0  0  0  0  0  0  0  0  0
   27.6382   -1.3731   16.2750 O   0  0  0  0  0  0  0  0  0  0  0  0
   30.0717   -4.5201   14.7058 C   0  0  2  0  0  0  0  0  0  0  0  0
   30.8136   -5.7744   14.4970 N   0  0  0  0  0  0  0  0  0  0  0  0
   25.5870   -4.1480   13.9008 C   0  0  1  0  0  0  0  0  0  0  0  0
   22.7489   -6.2941   11.9384 C   0  0  1  0  0  0  0  0  0  0  0  0
   18.2477   -5.6426   14.0584 C   0  0  1  0  0  0  0  0  0  0  0  0
   25.9843    0.3875   16.1526 C   0  0  2  0  0  0  0  0  0  0  0  0
   26.7688    1.0971   15.1426 N   0  0  0  0  0  0  0  0  0  0  0  0
   30.5178   -3.8371   16.0593 C   0  0  0  0  0  0  0  0  0  0  0  0
   24.1526   -4.5166   14.2816 C   0  0  2  0  0  0  0  0  0  0  0  0
   24.0371   -5.8829   14.7347 O   0  0  0  0  0  0  0  0  0  0  0  0
   21.5864   -5.6865   11.0325 C   0  0  2  0  0  0  0  0  0  0  0  0
   21.1548   -4.3564   11.5378 N   0  0  0  0  0  0  0  0  0  0  0  0
   17.3007   -4.6100   13.4579 C   0  0  1  0  0  0  0  0  0  0  0  0
   16.0008   -4.7496   14.0657 O   0  0  0  0  0  0  0  0  0  0  0  0
   26.2997    0.9633   17.5697 C   0  0  0  0  0  0  0  0  0  0  0  0
   29.7543   -2.4634   16.2369 C   0  0  2  0  0  0  0  0  0  0  0  0
   30.1410   -1.8147   17.4941 N   0  0  0  0  0  0  0  0  0  0  0  0
   23.4445   -4.2341   12.9882 C   0  0  2  0  0  0  0  0  0  0  0  0
   23.6837   -5.2627   12.0613 O   0  0  0  0  0  0  0  0  0  0  0  0
   20.4222   -6.7638   10.8942 C   0  0  1  0  0  0  0  0  0  0  0  0
   20.9894   -8.0052   10.4630 O   0  0  0  0  0  0  0  0  0  0  0  0
   17.7383   -3.1584   13.6113 C   0  0  1  0  0  0  0  0  0  0  0  0
   16.6348   -2.3388   13.2105 O   0  0  0  0  0  0  0  0  0  0  0  0
   25.4709    0.1768   18.6282 C   0  0  2  0  0  0  0  0  0  0  0  0
   25.6507    0.6994   19.9323 O   0  0  0  0  0  0  0  0  0  0  0  0
   28.2204   -2.6875   16.1941 C   0  0  2  0  0  0  0  0  0  0  0  0
   24.1540   -3.0083   12.3770 C   0  0  2  0  0  0  0  0  0  0  0  0
   25.4761   -3.1568   12.8700 O   0  0  0  0  0  0  0  0  0  0  0  0
   19.7417   -7.0629   12.2930 C   0  0  2  0  0  0  0  0  0  0  0  0
   19.1594   -5.8157   12.6749 O   0  0  0  0  0  0  0  0  0  0  0  0
   18.1544   -2.7871   15.0358 C   0  0  2  0  0  0  0  0  0  0  0  0
   18.8236   -1.5179   14.9570 O   0  0  0  0  0  0  0  0  0  0  0  0
   25.8739   -1.3168   18.5517 C   0  0  2  0  0  0  0  0  0  0  0  0
   25.5382   -1.7876   17.2151 O   0  0  0  0  0  0  0  0  0  0  0  0
   27.7228   -3.4667   14.9347 C   0  0  2  0  0  0  0  0  0  0  0  0
   26.2881   -3.6860   15.0340 O   0  0  0  0  0  0  0  0  0  0  0  0
   23.6143   -1.6370   12.7820 C   0  0  0  0  0  0  0  0  0  0  0  0
   22.2512   -1.5610   12.3395 O   0  0  0  0  0  0  0  0  0  0  0  0
   20.8840   -7.2937   13.2636 C   0  0  1  0  0  0  0  0  0  0  0  0
   22.2081   -6.7187   13.2913 O   0  0  0  0  0  0  0  0  0  0  0  0
   18.9808   -3.8927   15.6832 C   0  0  2  0  0  0  0  0  0  0  0  0
   18.7606   -5.2748   15.3618 O   0  0  0  0  0  0  0  0  0  0  0  0
   25.1048   -2.1787   19.4940 C   0  0  0  0  0  0  0  0  0  0  0  0
   25.4750   -1.8102   20.8006 O   0  0  0  0  0  0  0  0  0  0  0  0
   28.5263   -4.7979   14.7495 C   0  0  1  0  0  0  0  0  0  0  0  0
   28.1419   -5.3567   13.4652 O   0  0  0  0  0  0  0  0  0  0  0  0
   20.4888   -7.7154   14.7123 C   0  0  0  0  0  0  0  0  0  0  0  0
   20.9777   -9.0593   15.0860 N   0  0  0  0  0  0  0  0  0  0  0  0
   19.5243   -3.8013   17.1072 C   0  0  0  0  0  0  0  0  0  0  0  0
   20.3203   -2.5961   17.2576 O   0  0  0  0  0  0  0  0  0  0  0  0
  1  2  1  1  0  0  0
  1  8  1  0  0  0  0
  1 36  1  0  0  0  0
  3  4  1  1  0  0  0
  3 10  1  0  0  0  0
  3 47  1  0  0  0  0
  5 11  1  0  0  0  0
  5 30  1  0  0  0  0
  5 38  1  1  0  0  0
  6 21  1  1  0  0  0
  6 42  1  0  0  0  0
  7 15  1  0  0  0  0
  7 44  1  0  0  0  0
  7 32  1  6  0  0  0
  8  9  1  6  0  0  0
  8 17  1  0  0  0  0
 11 12  1  6  0  0  0
 11 20  1  0  0  0  0
 13  6  1  0  0  0  0
 13 14  1  1  0  0  0
 15 16  1  1  0  0  0
 15 24  1  0  0  0  0
 17 26  1  0  0  0  0
 18 10  1  0  0  0  0
 18 19  1  1  0  0  0
 20 21  1  6  0  0  0
 20 29  1  0  0  0  0
 22 13  1  0  0  0  0
 22 23  1  1  0  0  0
 24 25  1  1  0  0  0
 24 33  1  0  0  0  0
 26 27  1  1  0  0  0
 26 35  1  0  0  0  0
 28  2  1  6  0  0  0
 28 18  1  0  0  0  0
 29 30  1  0  0  0  0
 29 39  1  1  0  0  0
 31 22  1  0  0  0  0
 31 32  1  1  0  0  0
 31 41  1  0  0  0  0
 33 34  1  6  0  0  0
 33 43  1  0  0  0  0
 35 36  1  0  0  0  0
 35 45  1  1  0  0  0
 37 28  1  0  0  0  0
 37 38  1  1  0  0  0
 39 40  1  0  0  0  0
 41 42  1  0  0  0  0
 41 49  1  1  0  0  0
 43 44  1  0  0  0  0
 43 51  1  1  0  0  0
 45 46  1  0  0  0  0
 47 37  1  0  0  0  0
 47 48  1  6  0  0  0
 49 50  1  0  0  0  0
 51 52  1  0  0  0  0
M  END
>  <CHROM.1>
-175.70308573,171.14520153,79.61263505,-145.66665588,95.78983153,172.78718553
-61.53848925,176.58523221,-66.67341857,168.35468514,116.96734758,-55.42270631
23.48453355,-3.70966844,14.79219939,0.47300239,-0.02389840,0.75644890

>  <Name>
2esj_lig

>  <RI>
1.62275e+07

>  <Rbt.Current_Directory>
/home/itssahil/PROJECTS/Mol_Feturizer/New_Systems/rnas/2esj

>  <Rbt.Executable>
rbdock ($Id: //depot/dev/client3/rdock/2013.1/src/exe/rbdock.cxx#4 $)

>  <Rbt.Library>
libRbt.so (2013.1, Build901 2013/11/27)

>  <Rbt.Parameter_File>
/export/apps/rDock/src/rDock_2013.1_src/data/scripts/dock_solv.prm

>  <Rbt.Receptor>
prm/pocket_docking_5.prm

>  <SCORE>
-12.354

>  <SCORE.INTER>
-7.40798

>  <SCORE.INTER.CONST>
1

>  <SCORE.INTER.POLAR>
-0.979796

>  <SCORE.INTER.ROT>
12

>  <SCORE.INTER.SOLV>
8.99521

>  <SCORE.INTER.VDW>
-16.2711

>  <SCORE.INTER.norm>
-0.142461

>  <SCORE.INTRA>
-4.94601

>  <SCORE.INTRA.DIHEDRAL>
-15.4585

>  <SCORE.INTRA.DIHEDRAL.0>
32.9766

>  <SCORE.INTRA.POLAR>
0

>  <SCORE.INTRA.POLAR.0>
0

>  <SCORE.INTRA.REPUL>
0

>  <SCORE.INTRA.REPUL.0>
0

>  <SCORE.INTRA.SOLV>
-1.74308

>  <SCORE.INTRA.SOLV.lig_0>
-114.358

>  <SCORE.INTRA.VDW>
3.65476

>  <SCORE.INTRA.VDW.0>
-8.24257

>  <SCORE.INTRA.norm>
-0.0951156

>  <SCORE.RESTR>
0

>  <SCORE.RESTR.CAVITY>
0

>  <SCORE.RESTR.norm>
0

>  <SCORE.SYSTEM>
0

>  <SCORE.SYSTEM.CONST>
0

>  <SCORE.SYSTEM.DIHEDRAL>
0

>  <SCORE.SYSTEM.SOLV>
0

>  <SCORE.SYSTEM.norm>
0

>  <SCORE.heavy>
52

>  <SCORE.norm>
-0.237577

>  <RMSD>
9.664

$$$$
2esj_lig
 OpenBabel11021811423D
libRbt.so/2013.1/901 2013/11/27
 52 56  0  0  0  0  0  0  0  0999 V2000
   18.0501   -3.6375   11.8853 C   0  0  2  0  0  0  0  0  0  0  0  0
   17.9527   -3.3760   13.2984 O   0  0  0  0  0  0  0  0  0  0  0  0
   20.2811    0.1767   13.7930 C   0  0  2  0  0  0  0  0  0  0  0  0
   20.7940    1.4955   14.1993 N   0  0  0  0  0  0  0  0  0  0  0  0
   19.4448   -4.5101   15.4651 C   0  0  1  0  0  0  0  0  0  0  0  0
   20.8192   -8.1023   14.8783 C   0  0  1  0  0  0  0  0  0  0  0  0
   20.8941  -13.3409   15.1126 C   0  0  1  0  0  0  0  0  0  0  0  0
   17.6230   -5.1167   11.6518 C   0  0  2  0  0  0  0  0  0  0  0  0
   16.2825   -5.3936   12.1671 N   0  0  0  0  0  0  0  0  0  0  0  0
   18.8290    0.3158   13.1851 C   0  0  0  0  0  0  0  0  0  0  0  0
   20.5031   -5.3254   16.2093 C   0  0  2  0  0  0  0  0  0  0  0  0
   21.7168   -5.4824   15.4427 O   0  0  0  0  0  0  0  0  0  0  0  0
   20.2364   -9.3346   14.0520 C   0  0  2  0  0  0  0  0  0  0  0  0
   19.1330  -10.0012   14.7931 N   0  0  0  0  0  0  0  0  0  0  0  0
   19.7600  -13.5575   16.1078 C   0  0  1  0  0  0  0  0  0  0  0  0
   18.8614  -14.5594   15.5911 O   0  0  0  0  0  0  0  0  0  0  0  0
   18.6514   -6.1015   12.2934 C   0  0  0  0  0  0  0  0  0  0  0  0
   18.3191   -1.1008   12.7006 C   0  0  2  0  0  0  0  0  0  0  0  0
   16.9660   -1.0016   12.1437 N   0  0  0  0  0  0  0  0  0  0  0  0
   19.7508   -6.6039   16.4413 C   0  0  2  0  0  0  0  0  0  0  0  0
   19.6961   -7.3639   15.2608 O   0  0  0  0  0  0  0  0  0  0  0  0
   21.4386  -10.2905   13.6323 C   0  0  1  0  0  0  0  0  0  0  0  0
   22.4495   -9.5074   12.9893 O   0  0  0  0  0  0  0  0  0  0  0  0
   20.1926  -13.9887   17.5040 C   0  0  1  0  0  0  0  0  0  0  0  0
   19.0095  -14.3689   18.2153 O   0  0  0  0  0  0  0  0  0  0  0  0
   20.0722   -5.7715   11.7472 C   0  0  2  0  0  0  0  0  0  0  0  0
   21.0462   -6.6792   12.2305 O   0  0  0  0  0  0  0  0  0  0  0  0
   18.3478   -2.1161   13.8725 C   0  0  2  0  0  0  0  0  0  0  0  0
   18.2848   -6.1927   16.6890 C   0  0  2  0  0  0  0  0  0  0  0  0
   18.1777   -5.0055   15.9195 O   0  0  0  0  0  0  0  0  0  0  0  0
   22.1342  -10.9360   14.9007 C   0  0  2  0  0  0  0  0  0  0  0  0
   21.1098  -11.7340   15.4959 O   0  0  0  0  0  0  0  0  0  0  0  0
   21.1841  -15.1536   17.5100 C   0  0  2  0  0  0  0  0  0  0  0  0
   21.7264  -15.2325   18.8383 O   0  0  0  0  0  0  0  0  0  0  0  0
   20.4146   -4.3103   12.1299 C   0  0  2  0  0  0  0  0  0  0  0  0
   19.4289   -3.4523   11.4871 O   0  0  0  0  0  0  0  0  0  0  0  0
   19.7276   -2.2158   14.5986 C   0  0  2  0  0  0  0  0  0  0  0  0
   19.6209   -3.1345   15.7215 O   0  0  0  0  0  0  0  0  0  0  0  0
   17.8967   -5.8938   18.1367 C   0  0  0  0  0  0  0  0  0  0  0  0
   16.4644   -5.9350   18.2175 O   0  0  0  0  0  0  0  0  0  0  0  0
   22.3710   -9.7904   15.8659 C   0  0  1  0  0  0  0  0  0  0  0  0
   21.6029   -8.5875   16.0839 O   0  0  0  0  0  0  0  0  0  0  0  0
   22.2317  -15.0020   16.4128 C   0  0  2  0  0  0  0  0  0  0  0  0
   21.9195  -14.3621   15.1659 O   0  0  0  0  0  0  0  0  0  0  0  0
   21.7412   -3.8665   11.6144 C   0  0  0  0  0  0  0  0  0  0  0  0
   22.7250   -4.6323   12.2669 O   0  0  0  0  0  0  0  0  0  0  0  0
   20.2371   -0.7976   15.0244 C   0  0  1  0  0  0  0  0  0  0  0  0
   21.5967   -0.9573   15.5095 O   0  0  0  0  0  0  0  0  0  0  0  0
   23.1478  -10.1346   17.1739 C   0  0  0  0  0  0  0  0  0  0  0  0
   23.4783   -8.9471   17.9896 N   0  0  0  0  0  0  0  0  0  0  0  0
   23.3429  -16.0221   16.1753 C   0  0  0  0  0  0  0  0  0  0  0  0
   24.0495  -16.2835   17.4168 O   0  0  0  0  0  0  0  0  0  0  0  0
  1  2  1  1  0  0  0
  1  8  1  0  0  0  0
  1 36  1  0  0  0  0
  3  4  1  1  0  0  0
  3 10  1  0  0  0  0
  3 47  1  0  0  0  0
  5 11  1  0  0  0  0
  5 30  1  0  0  0  0
  5 38  1  1  0  0  0
  6 21  1  1  0  0  0
  6 42  1  0  0  0  0
  7 15  1  0  0  0  0
  7 44  1  0  0  0  0
  7 32  1  1  0  0  0
  8  9  1  1  0  0  0
  8 17  1  0  0  0  0
 11 12  1  6  0  0  0
 11 20  1  0  0  0  0
 13  6  1  0  0  0  0
 13 14  1  1  0  0  0
 15 16  1  6  0  0  0
 15 24  1  0  0  0  0
 17 26  1  0  0  0  0
 18 10  1  0  0  0  0
 18 19  1  1  0  0  0
 20 21  1  6  0  0  0
 20 29  1  0  0  0  0
 22 13  1  0  0  0  0
 22 23  1  1  0  0  0
 24 25  1  1  0  0  0
 24 33  1  0  0  0  0
 26 27  1  1  0  0  0
 26 35  1  0  0  0  0
 28  2  1  6  0  0  0
 28 18  1  0  0  0  0
 29 30  1  0  0  0  0
 29 39  1  1  0  0  0
 31 22  1  0  0  0  0
 31 32  1  1  0  0  0
 31 41  1  0  0  0  0
 33 34  1  1  0  0  0
 33 43  1  0  0  0  0
 35 36  1  0  0  0  0
 35 45  1  6  0  0  0
 37 28  1  0  0  0  0
 37 38  1  1  0  0  0
 39 40  1  0  0  0  0
 41 42  1  0  0  0  0
 41 49  1  1  0  0  0
 43 44  1  0  0  0  0
 43 51  1  6  0  0  0
 45 46  1  0  0  0  0
 47 37  1  0  0  0  0
 47 48  1  6  0  0  0
 49 50  1  0  0  0  0
 51 52  1  0  0  0  0
M  END
>  <CHROM.1>
176.49468128,127.02114044,151.58196728,177.21373970,78.40241862,20.86140470
-162.83386180,91.39610227,-65.65537443,69.06799105,173.30337042,-51.99419078
20.24323534,-7.42128491,14.89458873,-1.90243515,-0.98429064,2.60982376

>  <Name>
2esj_lig

>  <RI>
2.18877e+07

>  <Rbt.Current_Directory>
/home/itssahil/PROJECTS/Mol_Feturizer/New_Systems/rnas/2esj

>  <Rbt.Executable>
rbdock ($Id: //depot/dev/client3/rdock/2013.1/src/exe/rbdock.cxx#4 $)

>  <Rbt.Library>
libRbt.so (2013.1, Build901 2013/11/27)

>  <Rbt.Parameter_File>
/export/apps/rDock/src/rDock_2013.1_src/data/scripts/dock_solv.prm

>  <Rbt.Receptor>
prm/pocket_docking_7.prm

>  <SCORE>
-14.2536

>  <SCORE.INTER>
-13.0672

>  <SCORE.INTER.CONST>
1

>  <SCORE.INTER.POLAR>
-2.25864

>  <SCORE.INTER.ROT>
12

>  <SCORE.INTER.SOLV>
21.8974

>  <SCORE.INTER.VDW>
-20.0818

>  <SCORE.INTER.norm>
-0.251292

>  <SCORE.INTRA>
-1.20253

>  <SCORE.INTRA.DIHEDRAL>
-5.69798

>  <SCORE.INTRA.DIHEDRAL.0>
32.9766

>  <SCORE.INTRA.POLAR>
0

>  <SCORE.INTRA.POLAR.0>
0

>  <SCORE.INTRA.REPUL>
0

>  <SCORE.INTRA.REPUL.0>
0

>  <SCORE.INTRA.SOLV>
-0.922385

>  <SCORE.INTRA.SOLV.lig_0>
-114.358

>  <SCORE.INTRA.VDW>
2.10766

>  <SCORE.INTRA.VDW.0>
-8.24257

>  <SCORE.INTRA.norm>
-0.0231255

>  <SCORE.RESTR>
0.0161288

>  <SCORE.RESTR.CAVITY>
0.0161288

>  <SCORE.RESTR.norm>
0.000310169

>  <SCORE.SYSTEM>
0

>  <SCORE.SYSTEM.CONST>
0

>  <SCORE.SYSTEM.DIHEDRAL>
0

>  <SCORE.SYSTEM.SOLV>
0

>  <SCORE.SYSTEM.norm>
0

>  <SCORE.heavy>
52

>  <SCORE.norm>
-0.274107

>  <RMSD>
9.713

$$$$
2esj_lig
 OpenBabel11021811423D
libRbt.so/2013.1/901 2013/11/27
 52 56  0  0  0  0  0  0  0  0999 V2000
   27.8751   -2.9383   16.0163 C   0  0  2  0  0  0  0  0  0  0  0  0
   26.5117   -3.3780   16.1666 O   0  0  0  0  0  0  0  0  0  0  0  0
   25.1475   -2.8102   12.1535 C   0  0  2  0  0  0  0  0  0  0  0  0
   24.3771   -2.8187   10.8991 N   0  0  0  0  0  0  0  0  0  0  0  0
   23.4239   -1.9290   16.3066 C   0  0  1  0  0  0  0  0  0  0  0  0
   19.9726   -3.2342   18.2504 C   0  0  1  0  0  0  0  0  0  0  0  0
   18.5613   -7.4248   15.7274 C   0  0  1  0  0  0  0  0  0  0  0  0
   28.6023   -3.1955   17.3691 C   0  0  2  0  0  0  0  0  0  0  0  0
   28.5228   -4.5962   17.7825 N   0  0  0  0  0  0  0  0  0  0  0  0
   25.3997   -4.2882   12.6530 C   0  0  0  0  0  0  0  0  0  0  0  0
   22.7401   -0.9786   17.2903 C   0  0  2  0  0  0  0  0  0  0  0  0
   23.3505   -1.0079   18.5987 O   0  0  0  0  0  0  0  0  0  0  0  0
   20.2587   -4.6588   18.9058 C   0  0  2  0  0  0  0  0  0  0  0  0
   21.2473   -5.4273   18.1040 N   0  0  0  0  0  0  0  0  0  0  0  0
   19.4573   -8.6298   15.9893 C   0  0  1  0  0  0  0  0  0  0  0  0
   18.8414   -9.8081   15.4319 O   0  0  0  0  0  0  0  0  0  0  0  0
   28.0275   -2.2773   18.4941 C   0  0  0  0  0  0  0  0  0  0  0  0
   26.2783   -4.2609   13.9679 C   0  0  2  0  0  0  0  0  0  0  0  0
   26.5158   -5.6217   14.4605 N   0  0  0  0  0  0  0  0  0  0  0  0
   21.3361   -1.5093   17.2529 C   0  0  2  0  0  0  0  0  0  0  0  0
   21.2370   -2.6922   18.0047 O   0  0  0  0  0  0  0  0  0  0  0  0
   18.8722   -5.4010   19.1553 C   0  0  1  0  0  0  0  0  0  0  0  0
   18.0021   -4.5247   19.8790 O   0  0  0  0  0  0  0  0  0  0  0  0
   20.8695   -8.5258   15.4259 C   0  0  1  0  0  0  0  0  0  0  0  0
   21.4738   -9.8172   15.5568 O   0  0  0  0  0  0  0  0  0  0  0  0
   28.1017   -0.7954   18.0209 C   0  0  2  0  0  0  0  0  0  0  0  0
   27.6661    0.1012   19.0272 O   0  0  0  0  0  0  0  0  0  0  0  0
   25.5895   -3.4032   15.0611 C   0  0  2  0  0  0  0  0  0  0  0  0
   21.0966   -1.9690   15.8000 C   0  0  2  0  0  0  0  0  0  0  0  0
   22.4015   -2.3480   15.3919 O   0  0  0  0  0  0  0  0  0  0  0  0
   18.1310   -5.7155   17.7912 C   0  0  2  0  0  0  0  0  0  0  0  0
   19.0088   -6.6154   17.1130 O   0  0  0  0  0  0  0  0  0  0  0  0
   20.9180   -8.0895   13.9605 C   0  0  2  0  0  0  0  0  0  0  0  0
   22.2818   -7.7383   13.6752 O   0  0  0  0  0  0  0  0  0  0  0  0
   27.2610   -0.6536   16.7278 C   0  0  2  0  0  0  0  0  0  0  0  0
   27.8615   -1.5211   15.7240 O   0  0  0  0  0  0  0  0  0  0  0  0
   25.2024   -1.9633   14.5947 C   0  0  2  0  0  0  0  0  0  0  0  0
   24.4991   -1.2772   15.6676 O   0  0  0  0  0  0  0  0  0  0  0  0
   20.5499   -0.9180   14.8346 C   0  0  0  0  0  0  0  0  0  0  0  0
   21.6376   -0.0533   14.4756 O   0  0  0  0  0  0  0  0  0  0  0  0
   18.1739   -4.4259   16.9943 C   0  0  1  0  0  0  0  0  0  0  0  0
   19.1731   -3.3840   16.9691 O   0  0  0  0  0  0  0  0  0  0  0  0
   19.9116   -6.9809   13.6734 C   0  0  2  0  0  0  0  0  0  0  0  0
   18.6640   -6.9039   14.3801 O   0  0  0  0  0  0  0  0  0  0  0  0
   27.2982    0.7220   16.1544 C   0  0  0  0  0  0  0  0  0  0  0  0
   26.4971    0.7186   14.9974 O   0  0  0  0  0  0  0  0  0  0  0  0
   24.3768   -2.0113   13.2649 C   0  0  1  0  0  0  0  0  0  0  0  0
   24.2282   -0.6428   12.8018 O   0  0  0  0  0  0  0  0  0  0  0  0
   17.4142   -4.4265   15.6321 C   0  0  0  0  0  0  0  0  0  0  0  0
   18.2856   -4.1350   14.4743 N   0  0  0  0  0  0  0  0  0  0  0  0
   19.7314   -6.3568   12.2915 C   0  0  0  0  0  0  0  0  0  0  0  0
   19.7901   -7.3878   11.2705 O   0  0  0  0  0  0  0  0  0  0  0  0
  1  2  1  1  0  0  0
  1  8  1  0  0  0  0
  1 36  1  0  0  0  0
  3  4  1  6  0  0  0
  3 10  1  0  0  0  0
  3 47  1  0  0  0  0
  5 11  1  0  0  0  0
  5 30  1  0  0  0  0
  5 38  1  6  0  0  0
  6 21  1  6  0  0  0
  6 42  1  0  0  0  0
  7 15  1  0  0  0  0
  7 44  1  0  0  0  0
  7 32  1  1  0  0  0
  8  9  1  1  0  0  0
  8 17  1  0  0  0  0
 11 12  1  1  0  0  0
 11 20  1  0  0  0  0
 13  6  1  0  0  0  0
 13 14  1  6  0  0  0
 15 16  1  6  0  0  0
 15 24  1  0  0  0  0
 17 26  1  0  0  0  0
 18 10  1  0  0  0  0
 18 19  1  1  0  0  0
 20 21  1  1  0  0  0
 20 29  1  0  0  0  0
 22 13  1  0  0  0  0
 22 23  1  1  0  0  0
 24 25  1  6  0  0  0
 24 33  1  0  0  0  0
 26 27  1  1  0  0  0
 26 35  1  0  0  0  0
 28  2  1  1  0  0  0
 28 18  1  0  0  0  0
 29 30  1  0  0  0  0
 29 39  1  6  0  0  0
 31 22  1  0  0  0  0
 31 32  1  6  0  0  0
 31 41  1  0  0  0  0
 33 34  1  1  0  0  0
 33 43  1  0  0  0  0
 35 36  1  0  0  0  0
 35 45  1  6  0  0  0
 37 28  1  0  0  0  0
 37 38  1  1  0  0  0
 39 40  1  0  0  0  0
 41 42  1  0  0  0  0
 41 49  1  6  0  0  0
 43 44  1  0  0  0  0
 43 51  1  6  0  0  0
 45 46  1  0  0  0  0
 47 37  1  0  0  0  0
 47 48  1  6  0  0  0
 49 50  1  0  0  0  0
 51 52  1  0  0  0  0
M  END
>  <CHROM.1>
-173.89309013,-173.96473027,171.13671431,-150.61265387,170.91942814,55.13267633
76.73064121,170.23672969,-179.72231049,-49.60219700,-120.68179680,40.74666501
22.72780566,-3.83802640,15.77475607,-0.45623356,-0.41515565,-2.37282975

>  <Name>
2esj_lig

>  <RI>
1.01272e+07

>  <Rbt.Current_Directory>
/home/itssahil/PROJECTS/Mol_Feturizer/New_Systems/rnas/2esj

>  <Rbt.Executable>
rbdock ($Id: //depot/dev/client3/rdock/2013.1/src/exe/rbdock.cxx#4 $)

>  <Rbt.Library>
libRbt.so (2013.1, Build901 2013/11/27)

>  <Rbt.Parameter_File>
/export/apps/rDock/src/rDock_2013.1_src/data/scripts/dock_solv.prm

>  <Rbt.Receptor>
prm/pocket_docking_3.prm

>  <SCORE>
-11.067

>  <SCORE.INTER>
-4.62761

>  <SCORE.INTER.CONST>
1

>  <SCORE.INTER.POLAR>
-0.824621

>  <SCORE.INTER.ROT>
12

>  <SCORE.INTER.SOLV>
9.18338

>  <SCORE.INTER.VDW>
-14.9975

>  <SCORE.INTER.norm>
-0.0889925

>  <SCORE.INTRA>
-6.81293

>  <SCORE.INTRA.DIHEDRAL>
-20.8898

>  <SCORE.INTRA.DIHEDRAL.0>
32.9766

>  <SCORE.INTRA.POLAR>
0

>  <SCORE.INTRA.POLAR.0>
0

>  <SCORE.INTRA.REPUL>
0

>  <SCORE.INTRA.REPUL.0>
0

>  <SCORE.INTRA.SOLV>
3.56449

>  <SCORE.INTRA.SOLV.lig_0>
-114.358

>  <SCORE.INTRA.VDW>
1.84973

>  <SCORE.INTRA.VDW.0>
-8.24257

>  <SCORE.INTRA.norm>
-0.131018

>  <SCORE.RESTR>
0.373513

>  <SCORE.RESTR.CAVITY>
0.373513

>  <SCORE.RESTR.norm>
0.00718295

>  <SCORE.SYSTEM>
0

>  <SCORE.SYSTEM.CONST>
0

>  <SCORE.SYSTEM.DIHEDRAL>
0

>  <SCORE.SYSTEM.SOLV>
0

>  <SCORE.SYSTEM.norm>
0

>  <SCORE.heavy>
52

>  <SCORE.norm>
-0.212827

>  <RMSD>
9.723

$$$$
2esj_lig
 OpenBabel11021811423D
libRbt.so/2013.1/901 2013/11/27
 52 56  0  0  0  0  0  0  0  0999 V2000
   24.0701   -1.9734   14.2514 C   0  0  2  0  0  0  0  0  0  0  0  0
   25.1582   -2.1267   15.1828 O   0  0  0  0  0  0  0  0  0  0  0  0
   26.5163   -0.4326   18.8670 C   0  0  2  0  0  0  0  0  0  0  0  0
   26.9891    0.4740   19.9262 N   0  0  0  0  0  0  0  0  0  0  0  0
   22.1390   -1.5722   17.0470 C   0  0  1  0  0  0  0  0  0  0  0  0
   18.6198   -3.7826   17.3297 C   0  0  1  0  0  0  0  0  0  0  0  0
   19.7376   -7.8817   14.4816 C   0  0  1  0  0  0  0  0  0  0  0  0
   23.8773   -3.3385   13.5272 C   0  0  2  0  0  0  0  0  0  0  0  0
   23.6416   -4.4346   14.4664 N   0  0  0  0  0  0  0  0  0  0  0  0
   27.4785   -0.3634   17.6152 C   0  0  0  0  0  0  0  0  0  0  0  0
   20.8172   -0.8126   17.1670 C   0  0  2  0  0  0  0  0  0  0  0  0
   20.5391   -0.4025   18.5234 O   0  0  0  0  0  0  0  0  0  0  0  0
   19.1310   -5.1126   18.0446 C   0  0  2  0  0  0  0  0  0  0  0  0
   20.5410   -5.4088   17.6771 N   0  0  0  0  0  0  0  0  0  0  0  0
   20.6696   -8.9017   15.1255 C   0  0  1  0  0  0  0  0  0  0  0  0
   20.6189  -10.1306   14.3732 O   0  0  0  0  0  0  0  0  0  0  0  0
   25.1081   -3.6692   12.6245 C   0  0  0  0  0  0  0  0  0  0  0  0
   26.9888   -1.3863   16.5128 C   0  0  2  0  0  0  0  0  0  0  0  0
   27.8583   -1.3321   15.3331 N   0  0  0  0  0  0  0  0  0  0  0  0
   19.8626   -1.8365   16.6244 C   0  0  2  0  0  0  0  0  0  0  0  0
   19.6153   -2.8349   17.5817 O   0  0  0  0  0  0  0  0  0  0  0  0
   18.0979   -6.2877   17.7499 C   0  0  1  0  0  0  0  0  0  0  0  0
   16.7809   -5.8420   18.0900 O   0  0  0  0  0  0  0  0  0  0  0  0
   22.1286   -8.4747   15.2314 C   0  0  1  0  0  0  0  0  0  0  0  0
   22.8789   -9.6267   15.6316 O   0  0  0  0  0  0  0  0  0  0  0  0
   25.3522   -2.4785   11.6507 C   0  0  2  0  0  0  0  0  0  0  0  0
   26.4102   -2.7451   10.7476 O   0  0  0  0  0  0  0  0  0  0  0  0
   25.5194   -1.0904   16.1148 C   0  0  2  0  0  0  0  0  0  0  0  0
   20.6251   -2.5737   15.5043 C   0  0  2  0  0  0  0  0  0  0  0  0
   21.9676   -2.4862   15.9549 O   0  0  0  0  0  0  0  0  0  0  0  0
   18.0488   -6.6413   16.2066 C   0  0  2  0  0  0  0  0  0  0  0  0
   19.3646   -7.1127   15.9115 O   0  0  0  0  0  0  0  0  0  0  0  0
   22.7055   -7.9221   13.9269 C   0  0  2  0  0  0  0  0  0  0  0  0
   23.9503   -7.2854   14.2584 O   0  0  0  0  0  0  0  0  0  0  0  0
   25.6277   -1.2082   12.4930 C   0  0  2  0  0  0  0  0  0  0  0  0
   24.4380   -0.9532   13.2933 O   0  0  0  0  0  0  0  0  0  0  0  0
   24.5305   -1.0250   17.3226 C   0  0  2  0  0  0  0  0  0  0  0  0
   23.2031   -0.6688   16.8455 O   0  0  0  0  0  0  0  0  0  0  0  0
   20.5222   -1.9747   14.1021 C   0  0  0  0  0  0  0  0  0  0  0  0
   19.1399   -2.0095   13.7175 O   0  0  0  0  0  0  0  0  0  0  0  0
   17.9203   -5.3132   15.4855 C   0  0  1  0  0  0  0  0  0  0  0  0
   18.4335   -4.0114   15.8411 O   0  0  0  0  0  0  0  0  0  0  0  0
   21.7080   -7.0161   13.2137 C   0  0  2  0  0  0  0  0  0  0  0  0
   20.2935   -7.2450   13.3056 O   0  0  0  0  0  0  0  0  0  0  0  0
   25.8301    0.0122   11.6611 C   0  0  0  0  0  0  0  0  0  0  0  0
   26.1736    1.0636   12.5310 O   0  0  0  0  0  0  0  0  0  0  0  0
   25.0598   -0.0456   18.4239 C   0  0  1  0  0  0  0  0  0  0  0  0
   24.1935   -0.1909   19.5805 O   0  0  0  0  0  0  0  0  0  0  0  0
   17.7454   -5.3787   13.9370 C   0  0  0  0  0  0  0  0  0  0  0  0
   16.3443   -5.5840   13.5132 N   0  0  0  0  0  0  0  0  0  0  0  0
   22.0082   -6.3321   11.8819 C   0  0  0  0  0  0  0  0  0  0  0  0
   20.9991   -5.3258   11.6029 O   0  0  0  0  0  0  0  0  0  0  0  0
  1  2  1  1  0  0  0
  1  8  1  0  0  0  0
  1 36  1  0  0  0  0
  3  4  1  1  0  0  0
  3 10  1  0  0  0  0
  3 47  1  0  0  0  0
  5 11  1  0  0  0  0
  5 30  1  0  0  0  0
  5 38  1  6  0  0  0
  6 21  1  6  0  0  0
  6 42  1  0  0  0  0
  7 15  1  0  0  0  0
  7 44  1  0  0  0  0
  7 32  1  1  0  0  0
  8  9  1  1  0  0  0
  8 17  1  0  0  0  0
 11 12  1  1  0  0  0
 11 20  1  0  0  0  0
 13  6  1  0  0  0  0
 13 14  1  6  0  0  0
 15 16  1  6  0  0  0
 15 24  1  0  0  0  0
 17 26  1  0  0  0  0
 18 10  1  0  0  0  0
 18 19  1  6  0  0  0
 20 21  1  1  0  0  0
 20 29  1  0  0  0  0
 22 13  1  0  0  0  0
 22 23  1  6  0  0  0
 24 25  1  6  0  0  0
 24 33  1  0  0  0  0
 26 27  1  6  0  0  0
 26 35  1  0  0  0  0
 28  2  1  6  0  0  0
 28 18  1  0  0  0  0
 29 30  1  0  0  0  0
 29 39  1  6  0  0  0
 31 22  1  0  0  0  0
 31 32  1  6  0  0  0
 31 41  1  0  0  0  0
 33 34  1  1  0  0  0
 33 43  1  0  0  0  0
 35 36  1  0  0  0  0
 35 45  1  6  0  0  0
 37 28  1  0  0  0  0
 37 38  1  6  0  0  0
 39 40  1  0  0  0  0
 41 42  1  0  0  0  0
 41 49  1  6  0  0  0
 43 44  1  0  0  0  0
 43 51  1  6  0  0  0
 45 46  1  0  0  0  0
 47 37  1  0  0  0  0
 47 48  1  1  0  0  0
 49 50  1  0  0  0  0
 51 52  1  0  0  0  0
M  END
>  <CHROM.1>
-173.79148903,150.89246595,148.07469608,-140.81368593,171.77601068,-158.62816473
-61.74060164,167.98764904,-175.43627107,118.95992081,84.31215529,-167.84875050
22.25423331,-3.68033070,15.32489492,-0.56077062,-0.54997585,-2.37313607

>  <Name>
2esj_lig

>  <RI>
0

>  <Rbt.Current_Directory>
/home/itssahil/PROJECTS/Mol_Feturizer/New_Systems/rnas/2esj

>  <Rbt.Executable>
rbdock ($Id: //depot/dev/client3/rdock/2013.1/src/exe/rbdock.cxx#4 $)

>  <Rbt.Library>
libRbt.so (2013.1, Build901 2013/11/27)

>  <Rbt.Parameter_File>
/export/apps/rDock/src/rDock_2013.1_src/data/scripts/dock_solv.prm

>  <Rbt.Receptor>
prm/pocket_docking_4.prm

>  <SCORE>
-8.86018

>  <SCORE.INTER>
-8.30971

>  <SCORE.INTER.CONST>
1

>  <SCORE.INTER.POLAR>
-1.35524

>  <SCORE.INTER.ROT>
12

>  <SCORE.INTER.SOLV>
13.1305

>  <SCORE.INTER.VDW>
-16.9992

>  <SCORE.INTER.norm>
-0.159802

>  <SCORE.INTRA>
-0.639268

>  <SCORE.INTRA.DIHEDRAL>
-4.79422

>  <SCORE.INTRA.DIHEDRAL.0>
32.9766

>  <SCORE.INTRA.POLAR>
0

>  <SCORE.INTRA.POLAR.0>
0

>  <SCORE.INTRA.REPUL>
0

>  <SCORE.INTRA.REPUL.0>
0

>  <SCORE.INTRA.SOLV>
3.55896

>  <SCORE.INTRA.SOLV.lig_0>
-114.358

>  <SCORE.INTRA.VDW>
-0.021641

>  <SCORE.INTRA.VDW.0>
-8.24257

>  <SCORE.INTRA.norm>
-0.0122936

>  <SCORE.RESTR>
0.088792

>  <SCORE.RESTR.CAVITY>
0.088792

>  <SCORE.RESTR.norm>
0.00170754

>  <SCORE.SYSTEM>
0

>  <SCORE.SYSTEM.CONST>
0

>  <SCORE.SYSTEM.DIHEDRAL>
0

>  <SCORE.SYSTEM.SOLV>
0

>  <SCORE.SYSTEM.norm>
0

>  <SCORE.heavy>
52

>  <SCORE.norm>
-0.170388

>  <RMSD>
9.777

$$$$
2esj_lig
 OpenBabel11021811423D
libRbt.so/2013.1/901 2013/11/27
 52 56  0  0  0  0  0  0  0  0999 V2000
   21.8354   -2.6130   10.1551 C   0  0  2  0  0  0  0  0  0  0  0  0
   21.1590   -1.6161   10.9448 O   0  0  0  0  0  0  0  0  0  0  0  0
   21.2614   -0.5474   15.0843 C   0  0  2  0  0  0  0  0  0  0  0  0
   21.0769   -0.4937   16.5439 N   0  0  0  0  0  0  0  0  0  0  0  0
   22.5289   -4.3390   13.1252 C   0  0  1  0  0  0  0  0  0  0  0  0
   21.7423   -8.4123   13.9387 C   0  0  1  0  0  0  0  0  0  0  0  0
   18.5258   -9.3012   17.9476 C   0  0  1  0  0  0  0  0  0  0  0  0
   22.0020   -2.0382    8.7175 C   0  0  2  0  0  0  0  0  0  0  0  0
   22.7146   -0.7609    8.7113 N   0  0  0  0  0  0  0  0  0  0  0  0
   19.8600   -0.5673   14.3541 C   0  0  0  0  0  0  0  0  0  0  0  0
   23.2152   -5.4547   12.3359 C   0  0  2  0  0  0  0  0  0  0  0  0
   22.5320   -5.7548   11.0996 O   0  0  0  0  0  0  0  0  0  0  0  0
   20.2049   -8.7678   13.7124 C   0  0  2  0  0  0  0  0  0  0  0  0
   19.3258   -7.6697   14.1943 N   0  0  0  0  0  0  0  0  0  0  0  0
   17.4569   -8.2414   17.7073 C   0  0  1  0  0  0  0  0  0  0  0  0
   16.3260   -8.5073   18.5610 O   0  0  0  0  0  0  0  0  0  0  0  0
   20.6150   -1.8747    8.0185 C   0  0  0  0  0  0  0  0  0  0  0  0
   20.0783   -0.5651   12.7876 C   0  0  2  0  0  0  0  0  0  0  0  0
   18.7913   -0.5971   12.0852 N   0  0  0  0  0  0  0  0  0  0  0  0
   23.1801   -6.5657   13.3451 C   0  0  2  0  0  0  0  0  0  0  0  0
   21.8929   -7.1246   13.4174 O   0  0  0  0  0  0  0  0  0  0  0  0
   19.9058  -10.1969   14.3475 C   0  0  1  0  0  0  0  0  0  0  0  0
   20.8623  -11.1358   13.8451 O   0  0  0  0  0  0  0  0  0  0  0  0
   17.9002   -6.8034   17.9478 C   0  0  1  0  0  0  0  0  0  0  0  0
   16.7254   -5.9858   17.9072 O   0  0  0  0  0  0  0  0  0  0  0  0
   19.8673   -3.2404    8.0586 C   0  0  2  0  0  0  0  0  0  0  0  0
   18.6300   -3.1838    7.3717 O   0  0  0  0  0  0  0  0  0  0  0  0
   20.9561   -1.7706   12.3619 C   0  0  2  0  0  0  0  0  0  0  0  0
   23.3732   -5.8939   14.7202 C   0  0  2  0  0  0  0  0  0  0  0  0
   22.7967   -4.6151   14.5070 O   0  0  0  0  0  0  0  0  0  0  0  0
   20.0992  -10.1831   15.9197 C   0  0  2  0  0  0  0  0  0  0  0  0
   19.1099   -9.2652   16.3879 O   0  0  0  0  0  0  0  0  0  0  0  0
   18.6173   -6.5944   19.2827 C   0  0  2  0  0  0  0  0  0  0  0  0
   19.2371   -5.2993   19.2246 O   0  0  0  0  0  0  0  0  0  0  0  0
   19.6788   -3.6498    9.5405 C   0  0  2  0  0  0  0  0  0  0  0  0
   21.0064   -3.7985   10.1205 O   0  0  0  0  0  0  0  0  0  0  0  0
   22.3100   -1.8800   13.1339 C   0  0  2  0  0  0  0  0  0  0  0  0
   23.0145   -3.0809   12.7122 O   0  0  0  0  0  0  0  0  0  0  0  0
   24.8146   -5.7254   15.1994 C   0  0  0  0  0  0  0  0  0  0  0  0
   25.3442   -7.0362   15.4462 O   0  0  0  0  0  0  0  0  0  0  0  0
   21.4333   -9.5038   16.1627 C   0  0  1  0  0  0  0  0  0  0  0  0
   22.0921   -8.4593   15.4147 O   0  0  0  0  0  0  0  0  0  0  0  0
   19.5799   -7.7373   19.5854 C   0  0  2  0  0  0  0  0  0  0  0  0
   19.3106   -9.0768   19.1439 O   0  0  0  0  0  0  0  0  0  0  0  0
   19.0120   -4.9735    9.7009 C   0  0  0  0  0  0  0  0  0  0  0  0
   18.7035   -5.1279   11.0651 O   0  0  0  0  0  0  0  0  0  0  0  0
   22.0749   -1.8293   14.6813 C   0  0  1  0  0  0  0  0  0  0  0  0
   23.3803   -1.7398   15.3116 O   0  0  0  0  0  0  0  0  0  0  0  0
   21.9243   -9.4487   17.6422 C   0  0  0  0  0  0  0  0  0  0  0  0
   23.1042  -10.3006   17.9006 N   0  0  0  0  0  0  0  0  0  0  0  0
   20.4247   -7.8006   20.8558 C   0  0  0  0  0  0  0  0  0  0  0  0
   20.6474   -6.4610   21.3703 O   0  0  0  0  0  0  0  0  0  0  0  0
  1  2  1  1  0  0  0
  1  8  1  0  0  0  0
  1 36  1  0  0  0  0
  3  4  1  1  0  0  0
  3 10  1  0  0  0  0
  3 47  1  0  0  0  0
  5 11  1  0  0  0  0
  5 30  1  0  0  0  0
  5 38  1  6  0  0  0
  6 21  1  1  0  0  0
  6 42  1  0  0  0  0
  7 15  1  0  0  0  0
  7 44  1  0  0  0  0
  7 32  1  6  0  0  0
  8  9  1  1  0  0  0
  8 17  1  0  0  0  0
 11 12  1  6  0  0  0
 11 20  1  0  0  0  0
 13  6  1  0  0  0  0
 13 14  1  1  0  0  0
 15 16  1  1  0  0  0
 15 24  1  0  0  0  0
 17 26  1  0  0  0  0
 18 10  1  0  0  0  0
 18 19  1  6  0  0  0
 20 21  1  1  0  0  0
 20 29  1  0  0  0  0
 22 13  1  0  0  0  0
 22 23  1  6  0  0  0
 24 25  1  1  0  0  0
 24 33  1  0  0  0  0
 26 27  1  1  0  0  0
 26 35  1  0  0  0  0
 28  2  1  6  0  0  0
 28 18  1  0  0  0  0
 29 30  1  0  0  0  0
 29 39  1  6  0  0  0
 31 22  1  0  0  0  0
 31 32  1  1  0  0  0
 31 41  1  0  0  0  0
 33 34  1  6  0  0  0
 33 43  1  0  0  0  0
 35 36  1  0  0  0  0
 35 45  1  6  0  0  0
 37 28  1  0  0  0  0
 37 38  1  1  0  0  0
 39 40  1  0  0  0  0
 41 42  1  0  0  0  0
 41 49  1  1  0  0  0
 43 44  1  0  0  0  0
 43 51  1  1  0  0  0
 45 46  1  0  0  0  0
 47 37  1  0  0  0  0
 47 48  1  1  0  0  0
 49 50  1  0  0  0  0
 51 52  1  0  0  0  0
M  END
>  <CHROM.1>
-173.98008616,167.63435356,-173.79844153,-173.59894865,159.11197575,-174.44502927
-67.07478121,157.17407348,-170.53741778,-72.11223641,111.06551021,-25.57062201
20.80892050,-5.47748118,14.32412490,-0.60749714,-1.41724629,-3.07504628

>  <Name>
2esj_lig

>  <RI>
2.18877e+07

>  <Rbt.Current_Directory>
/home/itssahil/PROJECTS/Mol_Feturizer/New_Systems/rnas/2esj

>  <Rbt.Executable>
rbdock ($Id: //depot/dev/client3/rdock/2013.1/src/exe/rbdock.cxx#4 $)

>  <Rbt.Library>
libRbt.so (2013.1, Build901 2013/11/27)

>  <Rbt.Parameter_File>
/export/apps/rDock/src/rDock_2013.1_src/data/scripts/dock_solv.prm

>  <Rbt.Receptor>
prm/pocket_docking_7.prm

>  <SCORE>
-23.4202

>  <SCORE.INTER>
-12.6115

>  <SCORE.INTER.CONST>
1

>  <SCORE.INTER.POLAR>
-1.32564

>  <SCORE.INTER.ROT>
12

>  <SCORE.INTER.SOLV>
14.3105

>  <SCORE.INTER.VDW>
-20.359

>  <SCORE.INTER.norm>
-0.242529

>  <SCORE.INTRA>
-10.8087

>  <SCORE.INTRA.DIHEDRAL>
-20.0827

>  <SCORE.INTRA.DIHEDRAL.0>
32.9766

>  <SCORE.INTRA.POLAR>
0

>  <SCORE.INTRA.POLAR.0>
0

>  <SCORE.INTRA.REPUL>
0

>  <SCORE.INTRA.REPUL.0>
0

>  <SCORE.INTRA.SOLV>
-3.48319

>  <SCORE.INTRA.SOLV.lig_0>
-114.358

>  <SCORE.INTRA.VDW>
0.97429

>  <SCORE.INTRA.VDW.0>
-8.24257

>  <SCORE.INTRA.norm>
-0.207859

>  <SCORE.RESTR>
0

>  <SCORE.RESTR.CAVITY>
0

>  <SCORE.RESTR.norm>
0

>  <SCORE.SYSTEM>
0

>  <SCORE.SYSTEM.CONST>
0

>  <SCORE.SYSTEM.DIHEDRAL>
0

>  <SCORE.SYSTEM.SOLV>
0

>  <SCORE.SYSTEM.norm>
0

>  <SCORE.heavy>
52

>  <SCORE.norm>
-0.450388

>  <RMSD>
9.801

$$$$
2esj_lig
 OpenBabel11021811423D
libRbt.so/2013.1/901 2013/11/27
 52 56  0  0  0  0  0  0  0  0999 V2000
   25.7875   -0.9324   16.9038 C   0  0  2  0  0  0  0  0  0  0  0  0
   26.3485   -1.3384   15.6407 O   0  0  0  0  0  0  0  0  0  0  0  0
   24.6526   -2.3637   11.8512 C   0  0  2  0  0  0  0  0  0  0  0  0
   23.9947   -3.0490   10.7265 N   0  0  0  0  0  0  0  0  0  0  0  0
   22.8297   -2.3197   15.9462 C   0  0  1  0  0  0  0  0  0  0  0  0
   20.6182   -5.1852   18.0904 C   0  0  1  0  0  0  0  0  0  0  0  0
   21.7472   -9.9049   17.0281 C   0  0  1  0  0  0  0  0  0  0  0  0
   26.8725   -0.1047   17.6540 C   0  0  2  0  0  0  0  0  0  0  0  0
   27.3363    1.0393   16.8697 N   0  0  0  0  0  0  0  0  0  0  0  0
   25.8718   -3.2200   12.3784 C   0  0  0  0  0  0  0  0  0  0  0  0
   22.0503   -1.9097   17.1964 C   0  0  2  0  0  0  0  0  0  0  0  0
   22.8791   -1.8860   18.3787 O   0  0  0  0  0  0  0  0  0  0  0  0
   21.5491   -6.4172   18.4862 C   0  0  2  0  0  0  0  0  0  0  0  0
   22.5426   -6.7016   17.4171 N   0  0  0  0  0  0  0  0  0  0  0  0
   22.4096   -9.8766   15.6555 C   0  0  1  0  0  0  0  0  0  0  0  0
   23.7713  -10.3341   15.7772 O   0  0  0  0  0  0  0  0  0  0  0  0
   28.0865   -1.0047   18.0478 C   0  0  0  0  0  0  0  0  0  0  0  0
   26.6011   -2.4412   13.5459 C   0  0  2  0  0  0  0  0  0  0  0  0
   27.7301   -3.2216   14.0629 N   0  0  0  0  0  0  0  0  0  0  0  0
   20.9833   -2.9658   17.2126 C   0  0  2  0  0  0  0  0  0  0  0  0
   21.5032   -4.1836   17.6827 O   0  0  0  0  0  0  0  0  0  0  0  0
   20.6286   -7.6505   18.8944 C   0  0  1  0  0  0  0  0  0  0  0  0
   19.6846   -7.2172   19.8792 O   0  0  0  0  0  0  0  0  0  0  0  0
   21.7247  -10.7173   14.5847 C   0  0  1  0  0  0  0  0  0  0  0  0
   22.6022  -10.7594   13.4540 O   0  0  0  0  0  0  0  0  0  0  0  0
   27.5645   -2.2262   18.8609 C   0  0  2  0  0  0  0  0  0  0  0  0
   28.6247   -3.0468   19.3178 O   0  0  0  0  0  0  0  0  0  0  0  0
   25.6018   -2.1162   14.6864 C   0  0  2  0  0  0  0  0  0  0  0  0
   20.6467   -3.2493   15.7341 C   0  0  2  0  0  0  0  0  0  0  0  0
   21.8832   -2.9786   15.0933 O   0  0  0  0  0  0  0  0  0  0  0  0
   19.7678   -8.1613   17.6666 C   0  0  2  0  0  0  0  0  0  0  0  0
   20.7378   -8.6156   16.7216 O   0  0  0  0  0  0  0  0  0  0  0  0
   21.4056  -12.1448   15.0321 C   0  0  2  0  0  0  0  0  0  0  0  0
   20.5038  -12.6951   14.0581 O   0  0  0  0  0  0  0  0  0  0  0  0
   26.5739   -3.0172   17.9709 C   0  0  2  0  0  0  0  0  0  0  0  0
   25.4663   -2.1249   17.6578 O   0  0  0  0  0  0  0  0  0  0  0  0
   24.3116   -1.3727   14.2136 C   0  0  2  0  0  0  0  0  0  0  0  0
   23.4156   -1.1866   15.3445 O   0  0  0  0  0  0  0  0  0  0  0  0
   19.5524   -2.3861   15.1072 C   0  0  0  0  0  0  0  0  0  0  0  0
   20.0654   -1.0503   14.9969 O   0  0  0  0  0  0  0  0  0  0  0  0
   19.1514   -6.9188   17.0530 C   0  0  1  0  0  0  0  0  0  0  0  0
   19.6630   -5.5709   16.9759 O   0  0  0  0  0  0  0  0  0  0  0  0
   20.8799  -12.1782   16.4628 C   0  0  2  0  0  0  0  0  0  0  0  0
   21.3209  -11.2254   17.4425 O   0  0  0  0  0  0  0  0  0  0  0  0
   25.9705   -4.1893   18.6670 C   0  0  0  0  0  0  0  0  0  0  0  0
   25.1831   -4.8790   17.7265 O   0  0  0  0  0  0  0  0  0  0  0  0
   23.6340   -2.1338   13.0246 C   0  0  1  0  0  0  0  0  0  0  0  0
   22.5675   -1.2849   12.5232 O   0  0  0  0  0  0  0  0  0  0  0  0
   18.1588   -7.1479   15.8718 C   0  0  0  0  0  0  0  0  0  0  0  0
   17.3772   -5.9436   15.5206 N   0  0  0  0  0  0  0  0  0  0  0  0
   20.4893  -13.4701   17.1769 C   0  0  0  0  0  0  0  0  0  0  0  0
   19.6908  -13.1656   18.3510 O   0  0  0  0  0  0  0  0  0  0  0  0
  1  2  1  6  0  0  0
  1  8  1  0  0  0  0
  1 36  1  0  0  0  0
  3  4  1  6  0  0  0
  3 10  1  0  0  0  0
  3 47  1  0  0  0  0
  5 11  1  0  0  0  0
  5 30  1  0  0  0  0
  5 38  1  6  0  0  0
  6 21  1  6  0  0  0
  6 42  1  0  0  0  0
  7 15  1  0  0  0  0
  7 44  1  0  0  0  0
  7 32  1  6  0  0  0
  8  9  1  6  0  0  0
  8 17  1  0  0  0  0
 11 12  1  1  0  0  0
 11 20  1  0  0  0  0
 13  6  1  0  0  0  0
 13 14  1  6  0  0  0
 15 16  1  1  0  0  0
 15 24  1  0  0  0  0
 17 26  1  0  0  0  0
 18 10  1  0  0  0  0
 18 19  1  1  0  0  0
 20 21  1  6  0  0  0
 20 29  1  0  0  0  0
 22 13  1  0  0  0  0
 22 23  1  1  0  0  0
 24 25  1  6  0  0  0
 24 33  1  0  0  0  0
 26 27  1  6  0  0  0
 26 35  1  0  0  0  0
 28  2  1  1  0  0  0
 28 18  1  0  0  0  0
 29 30  1  0  0  0  0
 29 39  1  6  0  0  0
 31 22  1  0  0  0  0
 31 32  1  6  0  0  0
 31 41  1  0  0  0  0
 33 34  1  6  0  0  0
 33 43  1  0  0  0  0
 35 36  1  0  0  0  0
 35 45  1  1  0  0  0
 37 28  1  0  0  0  0
 37 38  1  1  0  0  0
 39 40  1  0  0  0  0
 41 42  1  0  0  0  0
 41 49  1  6  0  0  0
 43 44  1  0  0  0  0
 43 51  1  1  0  0  0
 45 46  1  0  0  0  0
 47 37  1  0  0  0  0
 47 48  1  6  0  0  0
 49 50  1  0  0  0  0
 51 52  1  0  0  0  0
M  END
>  <CHROM.1>
-179.48844378,174.00672370,177.46571666,177.13577589,164.02634817,-174.93800223
68.73051780,64.34005149,-175.28994408,-66.37953576,167.32265748,-164.07452276
22.88541953,-5.20740400,16.21722842,-1.05023310,0.27519834,2.92080804

>  <Name>
2esj_lig

>  <RI>
1.62275e+07

>  <Rbt.Current_Directory>
/home/itssahil/PROJECTS/Mol_Feturizer/New_Systems/rnas/2esj

>  <Rbt.Executable>
rbdock ($Id: //depot/dev/client3/rdock/2013.1/src/exe/rbdock.cxx#4 $)

>  <Rbt.Library>
libRbt.so (2013.1, Build901 2013/11/27)

>  <Rbt.Parameter_File>
/export/apps/rDock/src/rDock_2013.1_src/data/scripts/dock_solv.prm

>  <Rbt.Receptor>
prm/pocket_docking_5.prm

>  <SCORE>
-6.77376

>  <SCORE.INTER>
5.00941

>  <SCORE.INTER.CONST>
1

>  <SCORE.INTER.POLAR>
-0.694785

>  <SCORE.INTER.ROT>
12

>  <SCORE.INTER.SOLV>
9.34754

>  <SCORE.INTER.VDW>
-9.06029

>  <SCORE.INTER.norm>
0.0963347

>  <SCORE.INTRA>
-11.7832

>  <SCORE.INTRA.DIHEDRAL>
-25.3397

>  <SCORE.INTRA.DIHEDRAL.0>
32.9766

>  <SCORE.INTRA.POLAR>
0

>  <SCORE.INTRA.POLAR.0>
0

>  <SCORE.INTRA.REPUL>
0

>  <SCORE.INTRA.REPUL.0>
0

>  <SCORE.INTRA.SOLV>
-0.651786

>  <SCORE.INTRA.SOLV.lig_0>
-114.358

>  <SCORE.INTRA.VDW>
1.21256

>  <SCORE.INTRA.VDW.0>
-8.24257

>  <SCORE.INTRA.norm>
-0.226599

>  <SCORE.RESTR>
0

>  <SCORE.RESTR.CAVITY>
0

>  <SCORE.RESTR.norm>
0

>  <SCORE.SYSTEM>
0

>  <SCORE.SYSTEM.CONST>
0

>  <SCORE.SYSTEM.DIHEDRAL>
0

>  <SCORE.SYSTEM.SOLV>
0

>  <SCORE.SYSTEM.norm>
0

>  <SCORE.heavy>
52

>  <SCORE.norm>
-0.130265

>  <RMSD>
9.808

$$$$
2esj_lig
 OpenBabel11021811423D
libRbt.so/2013.1/901 2013/11/27
 52 56  0  0  0  0  0  0  0  0999 V2000
   20.4556   -5.0769   12.2548 C   0  0  2  0  0  0  0  0  0  0  0  0
   21.1086   -4.3167   11.2201 O   0  0  0  0  0  0  0  0  0  0  0  0
   23.8810   -1.0618   11.1381 C   0  0  2  0  0  0  0  0  0  0  0  0
   24.5258    0.2592   11.2202 N   0  0  0  0  0  0  0  0  0  0  0  0
   22.5918   -4.6887   14.2389 C   0  0  1  0  0  0  0  0  0  0  0  0
   24.2850   -8.2586   15.6322 C   0  0  1  0  0  0  0  0  0  0  0  0
   20.8405  -11.4639   17.1441 C   0  0  1  0  0  0  0  0  0  0  0  0
   19.8858   -6.3690   11.5983 C   0  0  2  0  0  0  0  0  0  0  0  0
   20.9213   -7.1477   10.9196 N   0  0  0  0  0  0  0  0  0  0  0  0
   22.6370   -1.0060   10.1650 C   0  0  0  0  0  0  0  0  0  0  0  0
   24.0729   -4.9650   13.9776 C   0  0  2  0  0  0  0  0  0  0  0  0
   24.3061   -5.5210   12.6654 O   0  0  0  0  0  0  0  0  0  0  0  0
   23.3517   -9.4738   15.1925 C   0  0  2  0  0  0  0  0  0  0  0  0
   21.9210   -9.0693   15.1737 N   0  0  0  0  0  0  0  0  0  0  0  0
   19.5989  -10.5903   17.2806 C   0  0  1  0  0  0  0  0  0  0  0  0
   18.6155  -11.0105   16.3137 O   0  0  0  0  0  0  0  0  0  0  0  0
   18.7385   -6.0254   10.5959 C   0  0  0  0  0  0  0  0  0  0  0  0
   21.9939   -2.4459   10.0436 C   0  0  2  0  0  0  0  0  0  0  0  0
   20.8272   -2.4188    9.1553 N   0  0  0  0  0  0  0  0  0  0  0  0
   24.3802   -5.9036   15.1084 C   0  0  2  0  0  0  0  0  0  0  0  0
   23.8783   -7.1869   14.8331 O   0  0  0  0  0  0  0  0  0  0  0  0
   23.6820  -10.7360   16.1051 C   0  0  1  0  0  0  0  0  0  0  0  0
   25.0940  -10.9692   16.0787 O   0  0  0  0  0  0  0  0  0  0  0  0
   18.9420  -10.6027   18.6556 C   0  0  1  0  0  0  0  0  0  0  0  0
   17.6838   -9.9309   18.5299 O   0  0  0  0  0  0  0  0  0  0  0  0
   17.6615   -5.1775   11.3355 C   0  0  2  0  0  0  0  0  0  0  0  0
   16.5509   -4.8948   10.5031 O   0  0  0  0  0  0  0  0  0  0  0  0
   21.5945   -2.9799   11.4437 C   0  0  2  0  0  0  0  0  0  0  0  0
   23.5319   -5.4192   16.3022 C   0  0  2  0  0  0  0  0  0  0  0  0
   22.4069   -4.8491   15.6523 O   0  0  0  0  0  0  0  0  0  0  0  0
   23.3178  -10.4638   17.6225 C   0  0  2  0  0  0  0  0  0  0  0  0
   21.9025  -10.2701   17.6154 O   0  0  0  0  0  0  0  0  0  0  0  0
   18.7128  -12.0072   19.2167 C   0  0  2  0  0  0  0  0  0  0  0  0
   18.3915  -11.8526   20.6087 O   0  0  0  0  0  0  0  0  0  0  0  0
   18.3320   -3.8804   11.8520 C   0  0  2  0  0  0  0  0  0  0  0  0
   19.3751   -4.2757   12.7882 O   0  0  0  0  0  0  0  0  0  0  0  0
   22.7514   -2.9504   12.4933 C   0  0  2  0  0  0  0  0  0  0  0  0
   22.2494   -3.3987   13.7830 O   0  0  0  0  0  0  0  0  0  0  0  0
   24.1733   -4.3733   17.2135 C   0  0  0  0  0  0  0  0  0  0  0  0
   25.3187   -4.9804   17.8292 O   0  0  0  0  0  0  0  0  0  0  0  0
   23.9132   -9.1080   17.9503 C   0  0  1  0  0  0  0  0  0  0  0  0
   24.1063   -7.9516   17.1076 O   0  0  0  0  0  0  0  0  0  0  0  0
   19.9043  -12.9190   18.9457 C   0  0  2  0  0  0  0  0  0  0  0  0
   20.7091  -12.7649   17.7666 O   0  0  0  0  0  0  0  0  0  0  0  0
   17.4006   -3.0077   12.6222 C   0  0  0  0  0  0  0  0  0  0  0  0
   18.0805   -1.8077   12.9015 O   0  0  0  0  0  0  0  0  0  0  0  0
   23.4067   -1.5297   12.5605 C   0  0  1  0  0  0  0  0  0  0  0  0
   24.5837   -1.6390   13.4044 O   0  0  0  0  0  0  0  0  0  0  0  0
   23.7885   -8.6353   19.4314 C   0  0  0  0  0  0  0  0  0  0  0  0
   22.4275   -8.1844   19.7906 N   0  0  0  0  0  0  0  0  0  0  0  0
   19.9507  -14.3813   19.3829 C   0  0  0  0  0  0  0  0  0  0  0  0
   21.3245  -14.7814   19.6304 O   0  0  0  0  0  0  0  0  0  0  0  0
  1  2  1  6  0  0  0
  1  8  1  0  0  0  0
  1 36  1  0  0  0  0
  3  4  1  1  0  0  0
  3 10  1  0  0  0  0
  3 47  1  0  0  0  0
  5 11  1  0  0  0  0
  5 30  1  0  0  0  0
  5 38  1  1  0  0  0
  6 21  1  6  0  0  0
  6 42  1  0  0  0  0
  7 15  1  0  0  0  0
  7 44  1  0  0  0  0
  7 32  1  1  0  0  0
  8  9  1  6  0  0  0
  8 17  1  0  0  0  0
 11 12  1  6  0  0  0
 11 20  1  0  0  0  0
 13  6  1  0  0  0  0
 13 14  1  1  0  0  0
 15 16  1  6  0  0  0
 15 24  1  0  0  0  0
 17 26  1  0  0  0  0
 18 10  1  0  0  0  0
 18 19  1  6  0  0  0
 20 21  1  6  0  0  0
 20 29  1  0  0  0  0
 22 13  1  0  0  0  0
 22 23  1  1  0  0  0
 24 25  1  6  0  0  0
 24 33  1  0  0  0  0
 26 27  1  6  0  0  0
 26 35  1  0  0  0  0
 28  2  1  6  0  0  0
 28 18  1  0  0  0  0
 29 30  1  0  0  0  0
 29 39  1  6  0  0  0
 31 22  1  0  0  0  0
 31 32  1  6  0  0  0
 31 41  1  0  0  0  0
 33 34  1  1  0  0  0
 33 43  1  0  0  0  0
 35 36  1  0  0  0  0
 35 45  1  1  0  0  0
 37 28  1  0  0  0  0
 37 38  1  1  0  0  0
 39 40  1  0  0  0  0
 41 42  1  0  0  0  0
 41 49  1  1  0  0  0
 43 44  1  0  0  0  0
 43 51  1  6  0  0  0
 45 46  1  0  0  0  0
 47 37  1  0  0  0  0
 47 48  1  1  0  0  0
 49 50  1  0  0  0  0
 51 52  1  0  0  0  0
M  END
>  <CHROM.1>
171.68582975,43.31249456,170.97245344,-176.36218343,167.53809705,-170.54873178
-64.01506453,62.36318172,-173.49056404,105.30682661,-75.00252935,-150.79146875
21.60253534,-6.84085034,14.90166958,1.51158952,-0.35827377,-0.67937961

>  <Name>
2esj_lig

>  <RI>
0

>  <Rbt.Current_Directory>
/home/itssahil/PROJECTS/Mol_Feturizer/New_Systems/rnas/2esj

>  <Rbt.Executable>
rbdock ($Id: //depot/dev/client3/rdock/2013.1/src/exe/rbdock.cxx#4 $)

>  <Rbt.Library>
libRbt.so (2013.1, Build901 2013/11/27)

>  <Rbt.Parameter_File>
/export/apps/rDock/src/rDock_2013.1_src/data/scripts/dock_solv.prm

>  <Rbt.Receptor>
prm/pocket_docking_6.prm

>  <SCORE>
-6.79202

>  <SCORE.INTER>
0.187508

>  <SCORE.INTER.CONST>
1

>  <SCORE.INTER.POLAR>
0

>  <SCORE.INTER.ROT>
12

>  <SCORE.INTER.SOLV>
7.79906

>  <SCORE.INTER.VDW>
-14.0747

>  <SCORE.INTER.norm>
0.00360592

>  <SCORE.INTRA>
-6.97952

>  <SCORE.INTRA.DIHEDRAL>
-17.3965

>  <SCORE.INTRA.DIHEDRAL.0>
32.9766

>  <SCORE.INTRA.POLAR>
0

>  <SCORE.INTRA.POLAR.0>
0

>  <SCORE.INTRA.REPUL>
0

>  <SCORE.INTRA.REPUL.0>
0

>  <SCORE.INTRA.SOLV>
-1.44832

>  <SCORE.INTRA.SOLV.lig_0>
-114.358

>  <SCORE.INTRA.VDW>
2.44287

>  <SCORE.INTRA.VDW.0>
-8.24257

>  <SCORE.INTRA.norm>
-0.134222

>  <SCORE.RESTR>
0

>  <SCORE.RESTR.CAVITY>
0

>  <SCORE.RESTR.norm>
0

>  <SCORE.SYSTEM>
0

>  <SCORE.SYSTEM.CONST>
0

>  <SCORE.SYSTEM.DIHEDRAL>
0

>  <SCORE.SYSTEM.SOLV>
0

>  <SCORE.SYSTEM.norm>
0

>  <SCORE.heavy>
52

>  <SCORE.norm>
-0.130616

>  <RMSD>
9.809

$$$$
2esj_lig
 OpenBabel11021811423D
libRbt.so/2013.1/901 2013/11/27
 52 56  0  0  0  0  0  0  0  0999 V2000
   28.2815   -2.3469   20.0164 C   0  0  2  0  0  0  0  0  0  0  0  0
   27.7996   -3.0407   18.8497 O   0  0  0  0  0  0  0  0  0  0  0  0
   30.4113   -1.4354   15.8681 C   0  0  2  0  0  0  0  0  0  0  0  0
   31.0837   -1.0860   14.6059 N   0  0  0  0  0  0  0  0  0  0  0  0
   25.9077   -1.3263   16.4265 C   0  0  1  0  0  0  0  0  0  0  0  0
   22.5532   -2.5165   14.1497 C   0  0  1  0  0  0  0  0  0  0  0  0
   22.8540   -6.7816   11.5795 C   0  0  1  0  0  0  0  0  0  0  0  0
   27.7959   -3.1386   21.2664 C   0  0  2  0  0  0  0  0  0  0  0  0
   28.2330   -4.5342   21.2417 N   0  0  0  0  0  0  0  0  0  0  0  0
   30.3582   -3.0048   16.0457 C   0  0  0  0  0  0  0  0  0  0  0  0
   24.5061   -0.8080   16.7507 C   0  0  2  0  0  0  0  0  0  0  0  0
   23.8585   -1.5813   17.7842 O   0  0  0  0  0  0  0  0  0  0  0  0
   22.3174   -4.0912   14.2279 C   0  0  2  0  0  0  0  0  0  0  0  0
   23.6091   -4.8271   14.2010 N   0  0  0  0  0  0  0  0  0  0  0  0
   21.7743   -6.8256   10.5044 C   0  0  1  0  0  0  0  0  0  0  0  0
   21.9046   -8.0485    9.7521 O   0  0  0  0  0  0  0  0  0  0  0  0
   26.2411   -3.0724   21.3986 C   0  0  0  0  0  0  0  0  0  0  0  0
   29.6864   -3.3590   17.4331 C   0  0  2  0  0  0  0  0  0  0  0  0
   29.6125   -4.8122   17.6168 N   0  0  0  0  0  0  0  0  0  0  0  0
   23.8556   -0.9149   15.4018 C   0  0  2  0  0  0  0  0  0  0  0  0
   23.5226   -2.2506   15.1204 O   0  0  0  0  0  0  0  0  0  0  0  0
   21.2780   -4.5150   13.0987 C   0  0  1  0  0  0  0  0  0  0  0  0
   20.1159   -3.6861   13.2049 O   0  0  0  0  0  0  0  0  0  0  0  0
   20.3417   -6.7386   11.0166 C   0  0  1  0  0  0  0  0  0  0  0  0
   19.4787   -7.0315    9.9123 O   0  0  0  0  0  0  0  0  0  0  0  0
   25.7995   -1.5789   21.3991 C   0  0  2  0  0  0  0  0  0  0  0  0
   24.4032   -1.4427   21.5941 O   0  0  0  0  0  0  0  0  0  0  0  0
   28.2718   -2.7303   17.5254 C   0  0  2  0  0  0  0  0  0  0  0  0
   24.9563   -0.5800   14.3741 C   0  0  2  0  0  0  0  0  0  0  0  0
   26.1274   -1.0217   15.0422 O   0  0  0  0  0  0  0  0  0  0  0  0
   21.8615   -4.2565   11.6490 C   0  0  2  0  0  0  0  0  0  0  0  0
   22.9951   -5.1217   11.5665 O   0  0  0  0  0  0  0  0  0  0  0  0
   20.0384   -7.7013   12.1661 C   0  0  2  0  0  0  0  0  0  0  0  0
   18.7848   -7.2895   12.7349 O   0  0  0  0  0  0  0  0  0  0  0  0
   26.2547   -0.9352   20.0658 C   0  0  2  0  0  0  0  0  0  0  0  0
   27.7079   -1.0184   20.0192 O   0  0  0  0  0  0  0  0  0  0  0  0
   28.2347   -1.1946   17.2406 C   0  0  2  0  0  0  0  0  0  0  0  0
   26.8579   -0.7261   17.2786 O   0  0  0  0  0  0  0  0  0  0  0  0
   25.1128    0.8934   13.9997 C   0  0  0  0  0  0  0  0  0  0  0  0
   23.9480    1.2760   13.2537 O   0  0  0  0  0  0  0  0  0  0  0  0
   22.4245   -2.8485   11.6786 C   0  0  1  0  0  0  0  0  0  0  0  0
   23.0267   -2.1132   12.7655 O   0  0  0  0  0  0  0  0  0  0  0  0
   21.1899   -7.7617   13.1636 C   0  0  2  0  0  0  0  0  0  0  0  0
   22.5519   -7.5898   12.7426 O   0  0  0  0  0  0  0  0  0  0  0  0
   25.9251    0.5159   19.9748 C   0  0  0  0  0  0  0  0  0  0  0  0
   24.5247    0.6260   19.8915 O   0  0  0  0  0  0  0  0  0  0  0  0
   28.9493   -0.8612   15.8877 C   0  0  1  0  0  0  0  0  0  0  0  0
   29.0421    0.5853   15.7958 O   0  0  0  0  0  0  0  0  0  0  0  0
   22.9770   -2.2937   10.3296 C   0  0  0  0  0  0  0  0  0  0  0  0
   22.0631   -1.3370    9.6707 N   0  0  0  0  0  0  0  0  0  0  0  0
   21.1695   -8.6481   14.4068 C   0  0  0  0  0  0  0  0  0  0  0  0
   21.1331  -10.0468   14.0178 O   0  0  0  0  0  0  0  0  0  0  0  0
  1  2  1  6  0  0  0
  1  8  1  0  0  0  0
  1 36  1  0  0  0  0
  3  4  1  6  0  0  0
  3 10  1  0  0  0  0
  3 47  1  0  0  0  0
  5 11  1  0  0  0  0
  5 30  1  0  0  0  0
  5 38  1  1  0  0  0
  6 21  1  1  0  0  0
  6 42  1  0  0  0  0
  7 15  1  0  0  0  0
  7 44  1  0  0  0  0
  7 32  1  1  0  0  0
  8  9  1  6  0  0  0
  8 17  1  0  0  0  0
 11 12  1  1  0  0  0
 11 20  1  0  0  0  0
 13  6  1  0  0  0  0
 13 14  1  6  0  0  0
 15 16  1  1  0  0  0
 15 24  1  0  0  0  0
 17 26  1  0  0  0  0
 18 10  1  0  0  0  0
 18 19  1  6  0  0  0
 20 21  1  6  0  0  0
 20 29  1  0  0  0  0
 22 13  1  0  0  0  0
 22 23  1  1  0  0  0
 24 25  1  6  0  0  0
 24 33  1  0  0  0  0
 26 27  1  6  0  0  0
 26 35  1  0  0  0  0
 28  2  1  1  0  0  0
 28 18  1  0  0  0  0
 29 30  1  0  0  0  0
 29 39  1  1  0  0  0
 31 22  1  0  0  0  0
 31 32  1  1  0  0  0
 31 41  1  0  0  0  0
 33 34  1  1  0  0  0
 33 43  1  0  0  0  0
 35 36  1  0  0  0  0
 35 45  1  1  0  0  0
 37 28  1  0  0  0  0
 37 38  1  6  0  0  0
 39 40  1  0  0  0  0
 41 42  1  0  0  0  0
 41 49  1  6  0  0  0
 43 44  1  0  0  0  0
 43 51  1  6  0  0  0
 45 46  1  0  0  0  0
 47 37  1  0  0  0  0
 47 48  1  1  0  0  0
 49 50  1  0  0  0  0
 51 52  1  0  0  0  0
M  END
>  <CHROM.1>
-168.01257846,173.02088624,-173.42701650,49.31185071,159.69911994,75.57930632
-68.76588959,65.98830941,-68.15717880,-56.56277959,103.09074563,64.25522709
24.63997561,-3.21369830,15.32764741,0.21427061,0.89779970,2.27159594

>  <Name>
2esj_lig

>  <RI>
0

>  <Rbt.Current_Directory>
/home/itssahil/PROJECTS/Mol_Feturizer/New_Systems/rnas/2esj

>  <Rbt.Executable>
rbdock ($Id: //depot/dev/client3/rdock/2013.1/src/exe/rbdock.cxx#4 $)

>  <Rbt.Library>
libRbt.so (2013.1, Build901 2013/11/27)

>  <Rbt.Parameter_File>
/export/apps/rDock/src/rDock_2013.1_src/data/scripts/dock_solv.prm

>  <Rbt.Receptor>
prm/pocket_docking_6.prm

>  <SCORE>
-15.2643

>  <SCORE.INTER>
-5.35013

>  <SCORE.INTER.CONST>
1

>  <SCORE.INTER.POLAR>
-0.815587

>  <SCORE.INTER.ROT>
12

>  <SCORE.INTER.SOLV>
9.24615

>  <SCORE.INTER.VDW>
-15.5302

>  <SCORE.INTER.norm>
-0.102887

>  <SCORE.INTRA>
-9.91416

>  <SCORE.INTRA.DIHEDRAL>
-22.4285

>  <SCORE.INTRA.DIHEDRAL.0>
32.9766

>  <SCORE.INTRA.POLAR>
0

>  <SCORE.INTRA.POLAR.0>
0

>  <SCORE.INTRA.REPUL>
0

>  <SCORE.INTRA.REPUL.0>
0

>  <SCORE.INTRA.SOLV>
-0.650821

>  <SCORE.INTRA.SOLV.lig_0>
-114.358

>  <SCORE.INTRA.VDW>
1.62548

>  <SCORE.INTRA.VDW.0>
-8.24257

>  <SCORE.INTRA.norm>
-0.190657

>  <SCORE.RESTR>
0

>  <SCORE.RESTR.CAVITY>
0

>  <SCORE.RESTR.norm>
0

>  <SCORE.SYSTEM>
0

>  <SCORE.SYSTEM.CONST>
0

>  <SCORE.SYSTEM.DIHEDRAL>
0

>  <SCORE.SYSTEM.SOLV>
0

>  <SCORE.SYSTEM.norm>
0

>  <SCORE.heavy>
52

>  <SCORE.norm>
-0.293544

>  <RMSD>
9.813

$$$$
2esj_lig
 OpenBabel11021811423D
libRbt.so/2013.1/901 2013/11/27
 52 56  0  0  0  0  0  0  0  0999 V2000
   24.0684   -4.2962   12.9959 C   0  0  2  0  0  0  0  0  0  0  0  0
   24.6315   -3.1656   13.6884 O   0  0  0  0  0  0  0  0  0  0  0  0
   28.6556   -4.4398   14.3747 C   0  0  2  0  0  0  0  0  0  0  0  0
   30.1167   -4.5072   14.5425 N   0  0  0  0  0  0  0  0  0  0  0  0
   24.6159   -3.0199   16.9213 C   0  0  1  0  0  0  0  0  0  0  0  0
   21.0102   -3.4837   19.0713 C   0  0  1  0  0  0  0  0  0  0  0  0
   17.9052   -7.2815   17.3663 C   0  0  1  0  0  0  0  0  0  0  0  0
   23.2605   -3.7478   11.7828 C   0  0  2  0  0  0  0  0  0  0  0  0
   24.0817   -2.9203   10.8996 N   0  0  0  0  0  0  0  0  0  0  0  0
   28.2928   -3.8491   12.9545 C   0  0  0  0  0  0  0  0  0  0  0  0
   24.2843   -2.1181   18.1109 C   0  0  2  0  0  0  0  0  0  0  0  0
   24.8763   -2.5893   19.3409 O   0  0  0  0  0  0  0  0  0  0  0  0
   20.9336   -4.8838   19.8296 C   0  0  2  0  0  0  0  0  0  0  0  0
   21.5035   -5.9751   18.9959 N   0  0  0  0  0  0  0  0  0  0  0  0
   17.0956   -7.9563   18.4676 C   0  0  1  0  0  0  0  0  0  0  0  0
   15.7518   -8.1822   17.9969 O   0  0  0  0  0  0  0  0  0  0  0  0
   22.0156   -2.9365   12.2633 C   0  0  0  0  0  0  0  0  0  0  0  0
   26.7220   -3.8397   12.7698 C   0  0  2  0  0  0  0  0  0  0  0  0
   26.3574   -3.2826   11.4630 N   0  0  0  0  0  0  0  0  0  0  0  0
   22.7842   -2.1743   18.0875 C   0  0  2  0  0  0  0  0  0  0  0  0
   22.3290   -3.3931   18.6183 O   0  0  0  0  0  0  0  0  0  0  0  0
   19.4386   -5.1240   20.3219 C   0  0  1  0  0  0  0  0  0  0  0  0
   19.0017   -3.9736   21.0529 O   0  0  0  0  0  0  0  0  0  0  0  0
   17.6509   -9.2866   18.9619 C   0  0  1  0  0  0  0  0  0  0  0  0
   16.6536   -9.8750   19.8042 O   0  0  0  0  0  0  0  0  0  0  0  0
   21.1710   -3.8301   13.2192 C   0  0  2  0  0  0  0  0  0  0  0  0
   19.9821   -3.1812   13.6334 O   0  0  0  0  0  0  0  0  0  0  0  0
   26.0481   -3.0311   13.9087 C   0  0  2  0  0  0  0  0  0  0  0  0
   22.3870   -2.2439   16.5986 C   0  0  2  0  0  0  0  0  0  0  0  0
   23.4981   -2.9171   16.0283 O   0  0  0  0  0  0  0  0  0  0  0  0
   18.4419   -5.2622   19.0984 C   0  0  2  0  0  0  0  0  0  0  0  0
   18.8855   -6.4348   18.4138 O   0  0  0  0  0  0  0  0  0  0  0  0
   18.0053  -10.2623   17.8383 C   0  0  2  0  0  0  0  0  0  0  0  0
   18.7894  -11.3115   18.4293 O   0  0  0  0  0  0  0  0  0  0  0  0
   22.0563   -4.2243   14.4275 C   0  0  2  0  0  0  0  0  0  0  0  0
   23.1827   -4.9873   13.9079 O   0  0  0  0  0  0  0  0  0  0  0  0
   26.4582   -3.4868   15.3457 C   0  0  2  0  0  0  0  0  0  0  0  0
   25.8310   -2.6174   16.3291 O   0  0  0  0  0  0  0  0  0  0  0  0
   22.1842   -0.9079   15.8847 C   0  0  0  0  0  0  0  0  0  0  0  0
   22.1447   -1.1727   14.4747 O   0  0  0  0  0  0  0  0  0  0  0  0
   18.7644   -4.1038   18.1740 C   0  0  1  0  0  0  0  0  0  0  0  0
   20.0225   -3.4426   17.9198 O   0  0  0  0  0  0  0  0  0  0  0  0
   18.6854   -9.5511   16.6738 C   0  0  2  0  0  0  0  0  0  0  0  0
   18.3634   -8.1926   16.3381 O   0  0  0  0  0  0  0  0  0  0  0  0
   21.3621   -5.1251   15.3915 C   0  0  0  0  0  0  0  0  0  0  0  0
   21.0047   -6.2939   14.6943 O   0  0  0  0  0  0  0  0  0  0  0  0
   28.0166   -3.5377   15.4906 C   0  0  1  0  0  0  0  0  0  0  0  0
   28.3090   -4.1505   16.7745 O   0  0  0  0  0  0  0  0  0  0  0  0
   17.8483   -3.9393   16.9224 C   0  0  0  0  0  0  0  0  0  0  0  0
   18.1817   -2.7552   16.1031 N   0  0  0  0  0  0  0  0  0  0  0  0
   19.1415  -10.2736   15.4082 C   0  0  0  0  0  0  0  0  0  0  0  0
   20.5452  -10.6288   15.5188 O   0  0  0  0  0  0  0  0  0  0  0  0
  1  2  1  1  0  0  0
  1  8  1  0  0  0  0
  1 36  1  0  0  0  0
  3  4  1  1  0  0  0
  3 10  1  0  0  0  0
  3 47  1  0  0  0  0
  5 11  1  0  0  0  0
  5 30  1  0  0  0  0
  5 38  1  6  0  0  0
  6 21  1  6  0  0  0
  6 42  1  0  0  0  0
  7 15  1  0  0  0  0
  7 44  1  0  0  0  0
  7 32  1  1  0  0  0
  8  9  1  1  0  0  0
  8 17  1  0  0  0  0
 11 12  1  1  0  0  0
 11 20  1  0  0  0  0
 13  6  1  0  0  0  0
 13 14  1  6  0  0  0
 15 16  1  6  0  0  0
 15 24  1  0  0  0  0
 17 26  1  0  0  0  0
 18 10  1  0  0  0  0
 18 19  1  6  0  0  0
 20 21  1  1  0  0  0
 20 29  1  0  0  0  0
 22 13  1  0  0  0  0
 22 23  1  1  0  0  0
 24 25  1  1  0  0  0
 24 33  1  0  0  0  0
 26 27  1  1  0  0  0
 26 35  1  0  0  0  0
 28  2  1  1  0  0  0
 28 18  1  0  0  0  0
 29 30  1  0  0  0  0
 29 39  1  6  0  0  0
 31 22  1  0  0  0  0
 31 32  1  6  0  0  0
 31 41  1  0  0  0  0
 33 34  1  1  0  0  0
 33 43  1  0  0  0  0
 35 36  1  0  0  0  0
 35 45  1  1  0  0  0
 37 28  1  0  0  0  0
 37 38  1  1  0  0  0
 39 40  1  0  0  0  0
 41 42  1  0  0  0  0
 41 49  1  6  0  0  0
 43 44  1  0  0  0  0
 43 51  1  6  0  0  0
 45 46  1  0  0  0  0
 47 37  1  0  0  0  0
 47 48  1  1  0  0  0
 49 50  1  0  0  0  0
 51 52  1  0  0  0  0
M  END
>  <CHROM.1>
-122.72863264,168.52567690,-170.04199811,-76.78227297,160.14601519,25.96932381
166.32701414,159.84985895,60.07299073,95.65486264,177.30590889,-95.29489230
21.95157761,-4.91231140,16.24387489,-0.07030241,-0.64731223,-2.38966503

>  <Name>
2esj_lig

>  <RI>
0

>  <Rbt.Current_Directory>
/home/itssahil/PROJECTS/Mol_Feturizer/New_Systems/rnas/2esj

>  <Rbt.Executable>
rbdock ($Id: //depot/dev/client3/rdock/2013.1/src/exe/rbdock.cxx#4 $)

>  <Rbt.Library>
libRbt.so (2013.1, Build901 2013/11/27)

>  <Rbt.Parameter_File>
/export/apps/rDock/src/rDock_2013.1_src/data/scripts/dock_solv.prm

>  <Rbt.Receptor>
prm/pocket_docking_2.prm

>  <SCORE>
14.6159

>  <SCORE.INTER>
-0.0227585

>  <SCORE.INTER.CONST>
1

>  <SCORE.INTER.POLAR>
-0.17891

>  <SCORE.INTER.ROT>
12

>  <SCORE.INTER.SOLV>
12.5015

>  <SCORE.INTER.VDW>
-15.186

>  <SCORE.INTER.norm>
-0.000437663

>  <SCORE.INTRA>
6.29538

>  <SCORE.INTRA.DIHEDRAL>
-4.58763

>  <SCORE.INTRA.DIHEDRAL.0>
32.9766

>  <SCORE.INTRA.POLAR>
0

>  <SCORE.INTRA.POLAR.0>
0

>  <SCORE.INTRA.REPUL>
0.31919

>  <SCORE.INTRA.REPUL.0>
0

>  <SCORE.INTRA.SOLV>
5.21978

>  <SCORE.INTRA.SOLV.lig_0>
-114.358

>  <SCORE.INTRA.VDW>
4.38336

>  <SCORE.INTRA.VDW.0>
-8.24257

>  <SCORE.INTRA.norm>
0.121065

>  <SCORE.RESTR>
8.34329

>  <SCORE.RESTR.CAVITY>
8.34329

>  <SCORE.RESTR.norm>
0.160448

>  <SCORE.SYSTEM>
0

>  <SCORE.SYSTEM.CONST>
0

>  <SCORE.SYSTEM.DIHEDRAL>
0

>  <SCORE.SYSTEM.SOLV>
0

>  <SCORE.SYSTEM.norm>
0

>  <SCORE.heavy>
52

>  <SCORE.norm>
0.281075

>  <RMSD>
9.820

$$$$
2esj_lig
 OpenBabel11021811423D
libRbt.so/2013.1/901 2013/11/27
 52 56  0  0  0  0  0  0  0  0999 V2000
   21.2728   -4.5304   13.1606 C   0  0  2  0  0  0  0  0  0  0  0  0
   20.2528   -4.2115   12.1948 O   0  0  0  0  0  0  0  0  0  0  0  0
   16.0100   -3.6806   12.2599 C   0  0  2  0  0  0  0  0  0  0  0  0
   14.5533   -3.8785   12.3395 N   0  0  0  0  0  0  0  0  0  0  0  0
   18.9365   -5.4819   15.2176 C   0  0  1  0  0  0  0  0  0  0  0  0
   20.8668   -8.5909   16.1551 C   0  0  1  0  0  0  0  0  0  0  0  0
   21.3766  -13.5903   15.8819 C   0  0  1  0  0  0  0  0  0  0  0  0
   22.5753   -3.7954   12.7267 C   0  0  2  0  0  0  0  0  0  0  0  0
   22.3790   -2.3519   12.5965 N   0  0  0  0  0  0  0  0  0  0  0  0
   16.6287   -4.6023   11.1351 C   0  0  0  0  0  0  0  0  0  0  0  0
   20.0456   -5.7012   16.2474 C   0  0  2  0  0  0  0  0  0  0  0  0
   21.3175   -5.9985   15.6317 O   0  0  0  0  0  0  0  0  0  0  0  0
   20.6419   -9.8489   15.2022 C   0  0  2  0  0  0  0  0  0  0  0  0
   19.5357  -10.7073   15.7023 N   0  0  0  0  0  0  0  0  0  0  0  0
   20.1087  -13.9913   16.6271 C   0  0  1  0  0  0  0  0  0  0  0  0
   19.2581  -14.7470   15.7418 O   0  0  0  0  0  0  0  0  0  0  0  0
   23.1241   -4.3788   11.3859 C   0  0  0  0  0  0  0  0  0  0  0  0
   18.1832   -4.3327   11.0243 C   0  0  2  0  0  0  0  0  0  0  0  0
   18.7849   -5.1867    9.9950 N   0  0  0  0  0  0  0  0  0  0  0  0
   19.4637   -6.8362   17.0393 C   0  0  2  0  0  0  0  0  0  0  0  0
   19.5930   -8.0451   16.3348 O   0  0  0  0  0  0  0  0  0  0  0  0
   22.0326  -10.5961   14.9956 C   0  0  1  0  0  0  0  0  0  0  0  0
   23.0132   -9.6411   14.5769 O   0  0  0  0  0  0  0  0  0  0  0  0
   20.3286  -14.8183   17.8880 C   0  0  1  0  0  0  0  0  0  0  0  0
   19.0462  -15.2947   18.3109 O   0  0  0  0  0  0  0  0  0  0  0  0
   23.3022   -5.9181   11.5426 C   0  0  2  0  0  0  0  0  0  0  0  0
   23.8715   -6.5029   10.3850 O   0  0  0  0  0  0  0  0  0  0  0  0
   18.8724   -4.5693   12.3932 C   0  0  2  0  0  0  0  0  0  0  0  0
   17.9417   -6.5878   17.0783 C   0  0  2  0  0  0  0  0  0  0  0  0
   17.7228   -5.9070   15.8528 O   0  0  0  0  0  0  0  0  0  0  0  0
   22.5723  -11.2006   16.3567 C   0  0  2  0  0  0  0  0  0  0  0  0
   21.5898  -12.1696   16.7254 O   0  0  0  0  0  0  0  0  0  0  0  0
   21.2707  -16.0070   17.6893 C   0  0  2  0  0  0  0  0  0  0  0  0
   21.6202  -16.4852   18.9984 O   0  0  0  0  0  0  0  0  0  0  0  0
   21.9220   -6.5375   11.8746 C   0  0  2  0  0  0  0  0  0  0  0  0
   21.4822   -5.9621   13.1381 O   0  0  0  0  0  0  0  0  0  0  0  0
   18.2314   -3.7769   13.5774 C   0  0  2  0  0  0  0  0  0  0  0  0
   18.9032   -4.1296   14.8186 O   0  0  0  0  0  0  0  0  0  0  0  0
   17.4207   -5.7320   18.2324 C   0  0  0  0  0  0  0  0  0  0  0  0
   15.9879   -5.8122   18.2175 O   0  0  0  0  0  0  0  0  0  0  0  0
   22.4489  -10.0860   17.3778 C   0  0  1  0  0  0  0  0  0  0  0  0
   21.4791   -9.0208   17.4755 O   0  0  0  0  0  0  0  0  0  0  0  0
   22.4651  -15.6344   16.8181 C   0  0  2  0  0  0  0  0  0  0  0  0
   22.3505  -14.6566   15.7728 O   0  0  0  0  0  0  0  0  0  0  0  0
   21.9802   -8.0109   12.0946 C   0  0  0  0  0  0  0  0  0  0  0  0
   20.6612   -8.4606   12.2902 O   0  0  0  0  0  0  0  0  0  0  0  0
   16.6853   -4.0184   13.6373 C   0  0  1  0  0  0  0  0  0  0  0  0
   16.1459   -3.1047   14.6291 O   0  0  0  0  0  0  0  0  0  0  0  0
   23.0141  -10.3831   18.8008 C   0  0  0  0  0  0  0  0  0  0  0  0
   22.2874   -9.6803   19.8791 N   0  0  0  0  0  0  0  0  0  0  0  0
   23.5643  -16.6258   16.4433 C   0  0  0  0  0  0  0  0  0  0  0  0
   23.0461  -17.6115   15.5112 O   0  0  0  0  0  0  0  0  0  0  0  0
  1  2  1  6  0  0  0
  1  8  1  0  0  0  0
  1 36  1  0  0  0  0
  3  4  1  1  0  0  0
  3 10  1  0  0  0  0
  3 47  1  0  0  0  0
  5 11  1  0  0  0  0
  5 30  1  0  0  0  0
  5 38  1  1  0  0  0
  6 21  1  1  0  0  0
  6 42  1  0  0  0  0
  7 15  1  0  0  0  0
  7 44  1  0  0  0  0
  7 32  1  1  0  0  0
  8  9  1  6  0  0  0
  8 17  1  0  0  0  0
 11 12  1  6  0  0  0
 11 20  1  0  0  0  0
 13  6  1  0  0  0  0
 13 14  1  1  0  0  0
 15 16  1  6  0  0  0
 15 24  1  0  0  0  0
 17 26  1  0  0  0  0
 18 10  1  0  0  0  0
 18 19  1  6  0  0  0
 20 21  1  6  0  0  0
 20 29  1  0  0  0  0
 22 13  1  0  0  0  0
 22 23  1  1  0  0  0
 24 25  1  6  0  0  0
 24 33  1  0  0  0  0
 26 27  1  6  0  0  0
 26 35  1  0  0  0  0
 28  2  1  6  0  0  0
 28 18  1  0  0  0  0
 29 30  1  0  0  0  0
 29 39  1  1  0  0  0
 31 22  1  0  0  0  0
 31 32  1  1  0  0  0
 31 41  1  0  0  0  0
 33 34  1  1  0  0  0
 33 43  1  0  0  0  0
 35 36  1  0  0  0  0
 35 45  1  1  0  0  0
 37 28  1  0  0  0  0
 37 38  1  1  0  0  0
 39 40  1  0  0  0  0
 41 42  1  0  0  0  0
 41 49  1  1  0  0  0
 43 44  1  0  0  0  0
 43 51  1  6  0  0  0
 45 46  1  0  0  0  0
 47 37  1  0  0  0  0
 47 48  1  1  0  0  0
 49 50  1  0  0  0  0
 51 52  1  0  0  0  0
M  END
>  <CHROM.1>
-170.92466264,161.15809977,-174.30002878,-171.50754284,68.85915189,-168.03451383
-170.33787961,69.59777198,-175.85813279,-57.44704855,-148.92171408,70.35087622
20.35295538,-8.49822089,14.98253798,-1.87137829,-0.64414492,2.57882741

>  <Name>
2esj_lig

>  <RI>
2.18877e+07

>  <Rbt.Current_Directory>
/home/itssahil/PROJECTS/Mol_Feturizer/New_Systems/rnas/2esj

>  <Rbt.Executable>
rbdock ($Id: //depot/dev/client3/rdock/2013.1/src/exe/rbdock.cxx#4 $)

>  <Rbt.Library>
libRbt.so (2013.1, Build901 2013/11/27)

>  <Rbt.Parameter_File>
/export/apps/rDock/src/rDock_2013.1_src/data/scripts/dock_solv.prm

>  <Rbt.Receptor>
prm/pocket_docking_7.prm

>  <SCORE>
-29.304

>  <SCORE.INTER>
-18.5554

>  <SCORE.INTER.CONST>
1

>  <SCORE.INTER.POLAR>
-3.45851

>  <SCORE.INTER.ROT>
12

>  <SCORE.INTER.SOLV>
16.537

>  <SCORE.INTER.VDW>
-17.9543

>  <SCORE.INTER.norm>
-0.356835

>  <SCORE.INTRA>
-10.7486

>  <SCORE.INTRA.DIHEDRAL>
-23.3425

>  <SCORE.INTRA.DIHEDRAL.0>
32.9766

>  <SCORE.INTRA.POLAR>
0

>  <SCORE.INTRA.POLAR.0>
0

>  <SCORE.INTRA.REPUL>
0

>  <SCORE.INTRA.REPUL.0>
0

>  <SCORE.INTRA.SOLV>
-1.69901

>  <SCORE.INTRA.SOLV.lig_0>
-114.358

>  <SCORE.INTRA.VDW>
1.77217

>  <SCORE.INTRA.VDW.0>
-8.24257

>  <SCORE.INTRA.norm>
-0.206704

>  <SCORE.RESTR>
0

>  <SCORE.RESTR.CAVITY>
0

>  <SCORE.RESTR.norm>
0

>  <SCORE.SYSTEM>
0

>  <SCORE.SYSTEM.CONST>
0

>  <SCORE.SYSTEM.DIHEDRAL>
0

>  <SCORE.SYSTEM.SOLV>
0

>  <SCORE.SYSTEM.norm>
0

>  <SCORE.heavy>
52

>  <SCORE.norm>
-0.563539

>  <RMSD>
9.832

$$$$
2esj_lig
 OpenBabel11021811423D
libRbt.so/2013.1/901 2013/11/27
 52 56  0  0  0  0  0  0  0  0999 V2000
   21.0676   -2.9917    9.6662 C   0  0  2  0  0  0  0  0  0  0  0  0
   20.3609   -1.9734   10.4001 O   0  0  0  0  0  0  0  0  0  0  0  0
   23.4761   -0.4493   12.9021 C   0  0  2  0  0  0  0  0  0  0  0  0
   24.3478    0.4021   13.7284 N   0  0  0  0  0  0  0  0  0  0  0  0
   19.5453   -2.6832   14.2190 C   0  0  1  0  0  0  0  0  0  0  0  0
   18.7012   -4.1641   17.8919 C   0  0  1  0  0  0  0  0  0  0  0  0
   20.3281   -8.0893   20.9288 C   0  0  1  0  0  0  0  0  0  0  0  0
   20.0121   -3.8097    8.8650 C   0  0  2  0  0  0  0  0  0  0  0  0
   19.2068   -2.9627    7.9857 N   0  0  0  0  0  0  0  0  0  0  0  0
   23.3047    0.1757   11.4608 C   0  0  0  0  0  0  0  0  0  0  0  0
   18.6554   -2.1556   15.3452 C   0  0  2  0  0  0  0  0  0  0  0  0
   19.4184   -1.5585   16.4160 O   0  0  0  0  0  0  0  0  0  0  0  0
   20.0730   -4.7996   18.3975 C   0  0  2  0  0  0  0  0  0  0  0  0
   20.3268   -6.1115   17.7453 N   0  0  0  0  0  0  0  0  0  0  0  0
   21.6073   -7.5130   20.3331 C   0  0  1  0  0  0  0  0  0  0  0  0
   22.6672   -7.6074   21.3059 O   0  0  0  0  0  0  0  0  0  0  0  0
   19.0801   -4.6114    9.8281 C   0  0  0  0  0  0  0  0  0  0  0  0
   22.4148   -0.7815   10.5701 C   0  0  2  0  0  0  0  0  0  0  0  0
   22.2289   -0.2171    9.2294 N   0  0  0  0  0  0  0  0  0  0  0  0
   17.9291   -3.4115   15.7316 C   0  0  2  0  0  0  0  0  0  0  0  0
   18.7609   -4.2451   16.4981 O   0  0  0  0  0  0  0  0  0  0  0  0
   20.0736   -4.8285   19.9895 C   0  0  1  0  0  0  0  0  0  0  0  0
   19.7544   -3.5208   20.4760 O   0  0  0  0  0  0  0  0  0  0  0  0
   22.0860   -8.1804   19.0494 C   0  0  1  0  0  0  0  0  0  0  0  0
   23.3984   -7.6780   18.7750 O   0  0  0  0  0  0  0  0  0  0  0  0
   19.9612   -5.4865   10.7681 C   0  0  2  0  0  0  0  0  0  0  0  0
   19.1750   -6.3010   11.6194 O   0  0  0  0  0  0  0  0  0  0  0  0
   21.0418   -1.0290   11.2472 C   0  0  2  0  0  0  0  0  0  0  0  0
   17.7178   -4.1977   14.4213 C   0  0  2  0  0  0  0  0  0  0  0  0
   18.8414   -3.7974   13.6530 O   0  0  0  0  0  0  0  0  0  0  0  0
   18.9434   -5.7858   20.5510 C   0  0  2  0  0  0  0  0  0  0  0  0
   19.3118   -7.0816   20.0761 O   0  0  0  0  0  0  0  0  0  0  0  0
   22.1342   -9.7072   19.1293 C   0  0  2  0  0  0  0  0  0  0  0  0
   22.2918  -10.1901   17.7852 O   0  0  0  0  0  0  0  0  0  0  0  0
   20.8924   -4.5490   11.5762 C   0  0  2  0  0  0  0  0  0  0  0  0
   21.7385   -3.8497   10.6190 O   0  0  0  0  0  0  0  0  0  0  0  0
   21.1381   -1.5358   12.7220 C   0  0  2  0  0  0  0  0  0  0  0  0
   19.8010   -1.6612   13.2813 O   0  0  0  0  0  0  0  0  0  0  0  0
   16.4383   -3.8929   13.6431 C   0  0  0  0  0  0  0  0  0  0  0  0
   15.4572   -4.8683   14.0250 O   0  0  0  0  0  0  0  0  0  0  0  0
   17.6813   -5.4180   19.7947 C   0  0  1  0  0  0  0  0  0  0  0  0
   17.5169   -4.9361   18.4437 O   0  0  0  0  0  0  0  0  0  0  0  0
   20.9182  -10.2677   19.8586 C   0  0  2  0  0  0  0  0  0  0  0  0
   20.2799   -9.5366   20.9168 O   0  0  0  0  0  0  0  0  0  0  0  0
   21.8207   -5.2853   12.4809 C   0  0  0  0  0  0  0  0  0  0  0  0
   22.5748   -4.3265   13.1825 O   0  0  0  0  0  0  0  0  0  0  0  0
   22.0639   -0.6023   13.5727 C   0  0  1  0  0  0  0  0  0  0  0  0
   22.2545   -1.2448   14.8612 O   0  0  0  0  0  0  0  0  0  0  0  0
   16.3737   -6.1482   20.2305 C   0  0  0  0  0  0  0  0  0  0  0  0
   15.5470   -6.6002   19.0917 N   0  0  0  0  0  0  0  0  0  0  0  0
   20.7047  -11.7609   20.0964 C   0  0  0  0  0  0  0  0  0  0  0  0
   19.2848  -12.0489   20.1960 O   0  0  0  0  0  0  0  0  0  0  0  0
  1  2  1  1  0  0  0
  1  8  1  0  0  0  0
  1 36  1  0  0  0  0
  3  4  1  1  0  0  0
  3 10  1  0  0  0  0
  3 47  1  0  0  0  0
  5 11  1  0  0  0  0
  5 30  1  0  0  0  0
  5 38  1  6  0  0  0
  6 21  1  6  0  0  0
  6 42  1  0  0  0  0
  7 15  1  0  0  0  0
  7 44  1  0  0  0  0
  7 32  1  6  0  0  0
  8  9  1  1  0  0  0
  8 17  1  0  0  0  0
 11 12  1  1  0  0  0
 11 20  1  0  0  0  0
 13  6  1  0  0  0  0
 13 14  1  6  0  0  0
 15 16  1  1  0  0  0
 15 24  1  0  0  0  0
 17 26  1  0  0  0  0
 18 10  1  0  0  0  0
 18 19  1  6  0  0  0
 20 21  1  1  0  0  0
 20 29  1  0  0  0  0
 22 13  1  0  0  0  0
 22 23  1  1  0  0  0
 24 25  1  1  0  0  0
 24 33  1  0  0  0  0
 26 27  1  1  0  0  0
 26 35  1  0  0  0  0
 28  2  1  6  0  0  0
 28 18  1  0  0  0  0
 29 30  1  0  0  0  0
 29 39  1  6  0  0  0
 31 22  1  0  0  0  0
 31 32  1  6  0  0  0
 31 41  1  0  0  0  0
 33 34  1  6  0  0  0
 33 43  1  0  0  0  0
 35 36  1  0  0  0  0
 35 45  1  1  0  0  0
 37 28  1  0  0  0  0
 37 38  1  1  0  0  0
 39 40  1  0  0  0  0
 41 42  1  0  0  0  0
 41 49  1  6  0  0  0
 43 44  1  0  0  0  0
 43 51  1  1  0  0  0
 45 46  1  0  0  0  0
 47 37  1  0  0  0  0
 47 48  1  1  0  0  0
 49 50  1  0  0  0  0
 51 52  1  0  0  0  0
M  END
>  <CHROM.1>
-179.71540232,139.15075930,-160.02431989,-87.19189790,94.14747791,32.88795897
-95.35779878,88.58177645,-178.15032881,146.75181994,-136.76889054,-152.58316058
20.19906324,-4.76724989,15.52694017,-1.47548495,-0.45258703,2.21444401

>  <Name>
2esj_lig

>  <RI>
0

>  <Rbt.Current_Directory>
/home/itssahil/PROJECTS/Mol_Feturizer/New_Systems/rnas/2esj

>  <Rbt.Executable>
rbdock ($Id: //depot/dev/client3/rdock/2013.1/src/exe/rbdock.cxx#4 $)

>  <Rbt.Library>
libRbt.so (2013.1, Build901 2013/11/27)

>  <Rbt.Parameter_File>
/export/apps/rDock/src/rDock_2013.1_src/data/scripts/dock_solv.prm

>  <Rbt.Receptor>
prm/pocket_docking_8.prm

>  <SCORE>
-15.9093

>  <SCORE.INTER>
-17.3137

>  <SCORE.INTER.CONST>
1

>  <SCORE.INTER.POLAR>
-1.95959

>  <SCORE.INTER.ROT>
12

>  <SCORE.INTER.SOLV>
16.1894

>  <SCORE.INTER.VDW>
-22.007

>  <SCORE.INTER.norm>
-0.332955

>  <SCORE.INTRA>
1.40439

>  <SCORE.INTRA.DIHEDRAL>
1.10175

>  <SCORE.INTRA.DIHEDRAL.0>
32.9766

>  <SCORE.INTRA.POLAR>
0

>  <SCORE.INTRA.POLAR.0>
0

>  <SCORE.INTRA.REPUL>
0

>  <SCORE.INTRA.REPUL.0>
0

>  <SCORE.INTRA.SOLV>
0.0944766

>  <SCORE.INTRA.SOLV.lig_0>
-114.358

>  <SCORE.INTRA.VDW>
0.806275

>  <SCORE.INTRA.VDW.0>
-8.24257

>  <SCORE.INTRA.norm>
0.0270074

>  <SCORE.RESTR>
0

>  <SCORE.RESTR.CAVITY>
0

>  <SCORE.RESTR.norm>
0

>  <SCORE.SYSTEM>
0

>  <SCORE.SYSTEM.CONST>
0

>  <SCORE.SYSTEM.DIHEDRAL>
0

>  <SCORE.SYSTEM.SOLV>
0

>  <SCORE.SYSTEM.norm>
0

>  <SCORE.heavy>
52

>  <SCORE.norm>
-0.305948

>  <RMSD>
9.834

$$$$
2esj_lig
 OpenBabel11021811423D
libRbt.so/2013.1/901 2013/11/27
 52 56  0  0  0  0  0  0  0  0999 V2000
   25.7952   -2.2627   17.0005 C   0  0  2  0  0  0  0  0  0  0  0  0
   26.4732   -1.6690   15.8768 O   0  0  0  0  0  0  0  0  0  0  0  0
   25.4133    0.1326   12.1460 C   0  0  2  0  0  0  0  0  0  0  0  0
   24.9214    0.3977   10.7840 N   0  0  0  0  0  0  0  0  0  0  0  0
   23.0732   -2.1651   15.3057 C   0  0  1  0  0  0  0  0  0  0  0  0
   20.7778   -5.6056   14.8658 C   0  0  1  0  0  0  0  0  0  0  0  0
   22.7195  -10.0437   15.5676 C   0  0  1  0  0  0  0  0  0  0  0  0
   26.7387   -2.1435   18.2336 C   0  0  2  0  0  0  0  0  0  0  0  0
   27.1285   -0.7593   18.5003 N   0  0  0  0  0  0  0  0  0  0  0  0
   26.4591   -1.0521   12.1312 C   0  0  0  0  0  0  0  0  0  0  0  0
   21.7099   -2.2091   15.9970 C   0  0  2  0  0  0  0  0  0  0  0  0
   21.8101   -2.5803   17.3890 O   0  0  0  0  0  0  0  0  0  0  0  0
   20.9793   -6.8054   15.8959 C   0  0  2  0  0  0  0  0  0  0  0  0
   22.4055   -6.9315   16.2972 N   0  0  0  0  0  0  0  0  0  0  0  0
   22.2752  -11.2166   14.7013 C   0  0  1  0  0  0  0  0  0  0  0  0
   23.0390  -12.3858   15.0592 O   0  0  0  0  0  0  0  0  0  0  0  0
   28.0133   -3.0266   18.0474 C   0  0  0  0  0  0  0  0  0  0  0  0
   27.0198   -1.2827   13.5920 C   0  0  2  0  0  0  0  0  0  0  0  0
   27.9839   -2.3877   13.6084 N   0  0  0  0  0  0  0  0  0  0  0  0
   21.0004   -3.2171   15.1398 C   0  0  2  0  0  0  0  0  0  0  0  0
   21.4322   -4.5178   15.4500 O   0  0  0  0  0  0  0  0  0  0  0  0
   20.3332   -8.1258   15.2844 C   0  0  1  0  0  0  0  0  0  0  0  0
   18.9882   -7.8411   14.8861 O   0  0  0  0  0  0  0  0  0  0  0  0
   20.7967  -11.5730   14.7966 C   0  0  1  0  0  0  0  0  0  0  0  0
   20.6169  -12.8197   14.1156 O   0  0  0  0  0  0  0  0  0  0  0  0
   27.5720   -4.4887   17.7419 C   0  0  2  0  0  0  0  0  0  0  0  0
   28.6816   -5.3628   17.6373 O   0  0  0  0  0  0  0  0  0  0  0  0
   25.8577   -1.5652   14.5793 C   0  0  2  0  0  0  0  0  0  0  0  0
   21.5132   -2.9861   13.7034 C   0  0  2  0  0  0  0  0  0  0  0  0
   22.8277   -2.5041   13.9337 O   0  0  0  0  0  0  0  0  0  0  0  0
   21.0861   -8.5818   13.9674 C   0  0  2  0  0  0  0  0  0  0  0  0
   22.4099   -8.8891   14.4073 O   0  0  0  0  0  0  0  0  0  0  0  0
   20.2847  -11.7013   16.2324 C   0  0  2  0  0  0  0  0  0  0  0  0
   18.8497  -11.7236   16.1628 O   0  0  0  0  0  0  0  0  0  0  0  0
   26.7269   -4.4820   16.4439 C   0  0  2  0  0  0  0  0  0  0  0  0
   25.5539   -3.6565   16.6956 O   0  0  0  0  0  0  0  0  0  0  0  0
   24.7249   -0.4894   14.5582 C   0  0  2  0  0  0  0  0  0  0  0  0
   23.6566   -0.8904   15.4606 O   0  0  0  0  0  0  0  0  0  0  0  0
   20.7427   -1.9707   12.8603 C   0  0  0  0  0  0  0  0  0  0  0  0
   19.4051   -2.4661   12.7024 O   0  0  0  0  0  0  0  0  0  0  0  0
   21.2186   -7.3326   13.1175 C   0  0  1  0  0  0  0  0  0  0  0  0
   21.3743   -5.9531   13.5143 O   0  0  0  0  0  0  0  0  0  0  0  0
   20.8523  -10.6061   17.1285 C   0  0  2  0  0  0  0  0  0  0  0  0
   22.1620  -10.0621   16.9040 O   0  0  0  0  0  0  0  0  0  0  0  0
   26.2071   -5.8304   16.0778 C   0  0  0  0  0  0  0  0  0  0  0  0
   25.5580   -5.7093   14.8352 O   0  0  0  0  0  0  0  0  0  0  0  0
   24.2200   -0.2404   13.0970 C   0  0  1  0  0  0  0  0  0  0  0  0
   23.3190    0.8979   13.1418 O   0  0  0  0  0  0  0  0  0  0  0  0
   21.8406   -7.5210   11.6996 C   0  0  0  0  0  0  0  0  0  0  0  0
   21.1277   -6.7734   10.6424 N   0  0  0  0  0  0  0  0  0  0  0  0
   20.5222  -10.4916   18.6149 C   0  0  0  0  0  0  0  0  0  0  0  0
   20.7138  -11.7756   19.2657 O   0  0  0  0  0  0  0  0  0  0  0  0
  1  2  1  6  0  0  0
  1  8  1  0  0  0  0
  1 36  1  0  0  0  0
  3  4  1  6  0  0  0
  3 10  1  0  0  0  0
  3 47  1  0  0  0  0
  5 11  1  0  0  0  0
  5 30  1  0  0  0  0
  5 38  1  6  0  0  0
  6 21  1  1  0  0  0
  6 42  1  0  0  0  0
  7 15  1  0  0  0  0
  7 44  1  0  0  0  0
  7 32  1  6  0  0  0
  8  9  1  6  0  0  0
  8 17  1  0  0  0  0
 11 12  1  1  0  0  0
 11 20  1  0  0  0  0
 13  6  1  0  0  0  0
 13 14  1  6  0  0  0
 15 16  1  1  0  0  0
 15 24  1  0  0  0  0
 17 26  1  0  0  0  0
 18 10  1  0  0  0  0
 18 19  1  6  0  0  0
 20 21  1  1  0  0  0
 20 29  1  0  0  0  0
 22 13  1  0  0  0  0
 22 23  1  6  0  0  0
 24 25  1  6  0  0  0
 24 33  1  0  0  0  0
 26 27  1  6  0  0  0
 26 35  1  0  0  0  0
 28  2  1  1  0  0  0
 28 18  1  0  0  0  0
 29 30  1  0  0  0  0
 29 39  1  1  0  0  0
 31 22  1  0  0  0  0
 31 32  1  1  0  0  0
 31 41  1  0  0  0  0
 33 34  1  6  0  0  0
 33 43  1  0  0  0  0
 35 36  1  0  0  0  0
 35 45  1  1  0  0  0
 37 28  1  0  0  0  0
 37 38  1  1  0  0  0
 39 40  1  0  0  0  0
 41 42  1  0  0  0  0
 41 49  1  6  0  0  0
 43 44  1  0  0  0  0
 43 51  1  1  0  0  0
 45 46  1  0  0  0  0
 47 37  1  0  0  0  0
 47 48  1  1  0  0  0
 49 50  1  0  0  0  0
 51 52  1  0  0  0  0
M  END
>  <CHROM.1>
-177.63097374,-160.90029578,-153.07455773,67.33725835,172.77216221,-163.49443302
-62.56146629,58.84748340,-175.20454880,-54.14179164,136.74461233,49.75478006
23.18217560,-5.33613849,15.12399737,-1.01810358,0.59463069,2.70502382

>  <Name>
2esj_lig

>  <RI>
0

>  <Rbt.Current_Directory>
/home/itssahil/PROJECTS/Mol_Feturizer/New_Systems/rnas/2esj

>  <Rbt.Executable>
rbdock ($Id: //depot/dev/client3/rdock/2013.1/src/exe/rbdock.cxx#4 $)

>  <Rbt.Library>
libRbt.so (2013.1, Build901 2013/11/27)

>  <Rbt.Parameter_File>
/export/apps/rDock/src/rDock_2013.1_src/data/scripts/dock_solv.prm

>  <Rbt.Receptor>
prm/pocket_docking_4.prm

>  <SCORE>
-9.46055

>  <SCORE.INTER>
0.550453

>  <SCORE.INTER.CONST>
1

>  <SCORE.INTER.POLAR>
-1.19364

>  <SCORE.INTER.ROT>
12

>  <SCORE.INTER.SOLV>
9.69387

>  <SCORE.INTER.VDW>
-10.4855

>  <SCORE.INTER.norm>
0.0105856

>  <SCORE.INTRA>
-10.011

>  <SCORE.INTRA.DIHEDRAL>
-20.8449

>  <SCORE.INTRA.DIHEDRAL.0>
32.9766

>  <SCORE.INTRA.POLAR>
0

>  <SCORE.INTRA.POLAR.0>
0

>  <SCORE.INTRA.REPUL>
0.0104225

>  <SCORE.INTRA.REPUL.0>
0

>  <SCORE.INTRA.SOLV>
-1.60821

>  <SCORE.INTRA.SOLV.lig_0>
-114.358

>  <SCORE.INTRA.VDW>
1.16344

>  <SCORE.INTRA.VDW.0>
-8.24257

>  <SCORE.INTRA.norm>
-0.192519

>  <SCORE.RESTR>
0

>  <SCORE.RESTR.CAVITY>
0

>  <SCORE.RESTR.norm>
0

>  <SCORE.SYSTEM>
0

>  <SCORE.SYSTEM.CONST>
0

>  <SCORE.SYSTEM.DIHEDRAL>
0

>  <SCORE.SYSTEM.SOLV>
0

>  <SCORE.SYSTEM.norm>
0

>  <SCORE.heavy>
52

>  <SCORE.norm>
-0.181934

>  <RMSD>
9.849

$$$$
2esj_lig
 OpenBabel11021811423D
libRbt.so/2013.1/901 2013/11/27
 52 56  0  0  0  0  0  0  0  0999 V2000
   25.2344   -2.6592   19.4704 C   0  0  2  0  0  0  0  0  0  0  0  0
   24.6751   -3.9262   19.0746 O   0  0  0  0  0  0  0  0  0  0  0  0
   20.7572   -2.6569   17.9227 C   0  0  2  0  0  0  0  0  0  0  0  0
   19.3662   -2.5939   17.4446 N   0  0  0  0  0  0  0  0  0  0  0  0
   22.2056   -5.7751   20.8598 C   0  0  1  0  0  0  0  0  0  0  0  0
   21.3522   -9.8554   21.2704 C   0  0  1  0  0  0  0  0  0  0  0  0
   19.7790  -11.5152   16.8894 C   0  0  1  0  0  0  0  0  0  0  0  0
   26.7830   -2.7733   19.3531 C   0  0  2  0  0  0  0  0  0  0  0  0
   27.2090   -3.1622   18.0090 N   0  0  0  0  0  0  0  0  0  0  0  0
   21.6894   -3.2942   16.8171 C   0  0  0  0  0  0  0  0  0  0  0  0
   22.4385   -6.4539   22.2101 C   0  0  2  0  0  0  0  0  0  0  0  0
   23.8130   -6.8572   22.3938 O   0  0  0  0  0  0  0  0  0  0  0  0
   22.3492  -10.8067   20.4689 C   0  0  2  0  0  0  0  0  0  0  0  0
   22.7709  -10.1809   19.1876 N   0  0  0  0  0  0  0  0  0  0  0  0
   20.8487  -11.6626   15.8135 C   0  0  1  0  0  0  0  0  0  0  0  0
   20.2481  -12.2029   14.6194 O   0  0  0  0  0  0  0  0  0  0  0  0
   27.3483   -3.7836   20.4014 C   0  0  0  0  0  0  0  0  0  0  0  0
   23.1873   -3.2991   17.3250 C   0  0  2  0  0  0  0  0  0  0  0  0
   24.0726   -3.8988   16.3212 N   0  0  0  0  0  0  0  0  0  0  0  0
   21.4687   -7.5960   22.1136 C   0  0  2  0  0  0  0  0  0  0  0  0
   21.9800   -8.6070   21.2824 O   0  0  0  0  0  0  0  0  0  0  0  0
   21.6873  -12.2479   20.3279 C   0  0  1  0  0  0  0  0  0  0  0  0
   21.2747  -12.6962   21.6231 O   0  0  0  0  0  0  0  0  0  0  0  0
   21.5731  -10.3763   15.4351 C   0  0  1  0  0  0  0  0  0  0  0  0
   22.3537  -10.6576   14.2682 O   0  0  0  0  0  0  0  0  0  0  0  0
   26.8622   -3.3618   21.8196 C   0  0  2  0  0  0  0  0  0  0  0  0
   27.4030   -4.1932   22.8307 O   0  0  0  0  0  0  0  0  0  0  0  0
   23.3001   -4.0628   18.6700 C   0  0  2  0  0  0  0  0  0  0  0  0
   20.2523   -7.0528   21.3358 C   0  0  2  0  0  0  0  0  0  0  0  0
   20.8500   -6.0749   20.4994 O   0  0  0  0  0  0  0  0  0  0  0  0
   20.3702  -12.1961   19.4493 C   0  0  2  0  0  0  0  0  0  0  0  0
   20.8233  -11.7796   18.1602 O   0  0  0  0  0  0  0  0  0  0  0  0
   20.6354   -9.2025   15.1470 C   0  0  2  0  0  0  0  0  0  0  0  0
   21.4475   -8.0175   15.1191 O   0  0  0  0  0  0  0  0  0  0  0  0
   25.3135   -3.3838   21.8309 C   0  0  2  0  0  0  0  0  0  0  0  0
   24.8598   -2.4117   20.8460 O   0  0  0  0  0  0  0  0  0  0  0  0
   22.3167   -3.5602   19.7751 C   0  0  2  0  0  0  0  0  0  0  0  0
   22.4535   -4.3905   20.9619 O   0  0  0  0  0  0  0  0  0  0  0  0
   19.1482   -6.4007   22.1673 C   0  0  0  0  0  0  0  0  0  0  0  0
   18.1111   -5.9912   21.2637 O   0  0  0  0  0  0  0  0  0  0  0  0
   19.5607  -11.0340   19.9920 C   0  0  1  0  0  0  0  0  0  0  0  0
   20.0013   -9.7920   20.5818 O   0  0  0  0  0  0  0  0  0  0  0  0
   19.4829   -9.1498   16.1436 C   0  0  2  0  0  0  0  0  0  0  0  0
   18.9398  -10.3471   16.7209 O   0  0  0  0  0  0  0  0  0  0  0  0
   24.7322   -2.9484   23.1329 C   0  0  0  0  0  0  0  0  0  0  0  0
   23.3354   -3.0907   23.0399 O   0  0  0  0  0  0  0  0  0  0  0  0
   20.8475   -3.5151   19.2352 C   0  0  1  0  0  0  0  0  0  0  0  0
   20.0377   -2.8601   20.2474 O   0  0  0  0  0  0  0  0  0  0  0  0
   18.1486  -10.8196   19.3653 C   0  0  0  0  0  0  0  0  0  0  0  0
   17.1396  -11.7856   19.8485 N   0  0  0  0  0  0  0  0  0  0  0  0
   18.3858   -8.0889   16.0930 C   0  0  0  0  0  0  0  0  0  0  0  0
   17.6796   -8.0452   17.3612 O   0  0  0  0  0  0  0  0  0  0  0  0
  1  2  1  1  0  0  0
  1  8  1  0  0  0  0
  1 36  1  0  0  0  0
  3  4  1  6  0  0  0
  3 10  1  0  0  0  0
  3 47  1  0  0  0  0
  5 11  1  0  0  0  0
  5 30  1  0  0  0  0
  5 38  1  1  0  0  0
  6 21  1  6  0  0  0
  6 42  1  0  0  0  0
  7 15  1  0  0  0  0
  7 44  1  0  0  0  0
  7 32  1  1  0  0  0
  8  9  1  6  0  0  0
  8 17  1  0  0  0  0
 11 12  1  6  0  0  0
 11 20  1  0  0  0  0
 13  6  1  0  0  0  0
 13 14  1  6  0  0  0
 15 16  1  6  0  0  0
 15 24  1  0  0  0  0
 17 26  1  0  0  0  0
 18 10  1  0  0  0  0
 18 19  1  6  0  0  0
 20 21  1  6  0  0  0
 20 29  1  0  0  0  0
 22 13  1  0  0  0  0
 22 23  1  1  0  0  0
 24 25  1  6  0  0  0
 24 33  1  0  0  0  0
 26 27  1  1  0  0  0
 26 35  1  0  0  0  0
 28  2  1  1  0  0  0
 28 18  1  0  0  0  0
 29 30  1  0  0  0  0
 29 39  1  1  0  0  0
 31 22  1  0  0  0  0
 31 32  1  6  0  0  0
 31 41  1  0  0  0  0
 33 34  1  1  0  0  0
 33 43  1  0  0  0  0
 35 36  1  0  0  0  0
 35 45  1  1  0  0  0
 37 28  1  0  0  0  0
 37 38  1  1  0  0  0
 39 40  1  0  0  0  0
 41 42  1  0  0  0  0
 41 49  1  6  0  0  0
 43 44  1  0  0  0  0
 43 51  1  6  0  0  0
 45 46  1  0  0  0  0
 47 37  1  0  0  0  0
 47 48  1  1  0  0  0
 49 50  1  0  0  0  0
 51 52  1  0  0  0  0
M  END
>  <CHROM.1>
-160.53580081,178.68828789,-169.02067722,-159.24245059,167.70278406,67.81659473
-178.93501626,-177.40827305,-176.47812849,-59.49971104,76.21975131,-162.99308975
21.88484356,-6.99441117,19.29081753,0.07351672,-1.04625183,-1.13959071

>  <Name>
2esj_lig

>  <RI>
2.18877e+07

>  <Rbt.Current_Directory>
/home/itssahil/PROJECTS/Mol_Feturizer/New_Systems/rnas/2esj

>  <Rbt.Executable>
rbdock ($Id: //depot/dev/client3/rdock/2013.1/src/exe/rbdock.cxx#4 $)

>  <Rbt.Library>
libRbt.so (2013.1, Build901 2013/11/27)

>  <Rbt.Parameter_File>
/export/apps/rDock/src/rDock_2013.1_src/data/scripts/dock_solv.prm

>  <Rbt.Receptor>
prm/pocket_docking_7.prm

>  <SCORE>
-10.2848

>  <SCORE.INTER>
-0.703566

>  <SCORE.INTER.CONST>
1

>  <SCORE.INTER.POLAR>
0

>  <SCORE.INTER.ROT>
12

>  <SCORE.INTER.SOLV>
14.9417

>  <SCORE.INTER.VDW>
-17.0496

>  <SCORE.INTER.norm>
-0.0135301

>  <SCORE.INTRA>
-9.58125

>  <SCORE.INTRA.DIHEDRAL>
-22.3002

>  <SCORE.INTRA.DIHEDRAL.0>
32.9766

>  <SCORE.INTRA.POLAR>
0

>  <SCORE.INTRA.POLAR.0>
0

>  <SCORE.INTRA.REPUL>
0

>  <SCORE.INTRA.REPUL.0>
0

>  <SCORE.INTRA.SOLV>
-0.86136

>  <SCORE.INTRA.SOLV.lig_0>
-114.358

>  <SCORE.INTRA.VDW>
1.9995

>  <SCORE.INTRA.VDW.0>
-8.24257

>  <SCORE.INTRA.norm>
-0.184255

>  <SCORE.RESTR>
0

>  <SCORE.RESTR.CAVITY>
0

>  <SCORE.RESTR.norm>
0

>  <SCORE.SYSTEM>
0

>  <SCORE.SYSTEM.CONST>
0

>  <SCORE.SYSTEM.DIHEDRAL>
0

>  <SCORE.SYSTEM.SOLV>
0

>  <SCORE.SYSTEM.norm>
0

>  <SCORE.heavy>
52

>  <SCORE.norm>
-0.197785

>  <RMSD>
9.862

$$$$
2esj_lig
 OpenBabel11021811423D
libRbt.so/2013.1/901 2013/11/27
 52 56  0  0  0  0  0  0  0  0999 V2000
   21.7164   -2.1436   13.3266 C   0  0  2  0  0  0  0  0  0  0  0  0
   21.7220   -3.5463   13.6542 O   0  0  0  0  0  0  0  0  0  0  0  0
   17.5189   -4.1743   14.1308 C   0  0  2  0  0  0  0  0  0  0  0  0
   16.1824   -4.7573   14.3337 N   0  0  0  0  0  0  0  0  0  0  0  0
   20.6024   -5.0958   17.1071 C   0  0  1  0  0  0  0  0  0  0  0  0
   20.7330   -8.3702   19.5617 C   0  0  1  0  0  0  0  0  0  0  0  0
   21.6069  -13.5468   19.3932 C   0  0  1  0  0  0  0  0  0  0  0  0
   23.1726   -1.7459   12.9439 C   0  0  2  0  0  0  0  0  0  0  0  0
   23.6990   -2.5603   11.8489 N   0  0  0  0  0  0  0  0  0  0  0  0
   18.2436   -4.8734   12.9128 C   0  0  0  0  0  0  0  0  0  0  0  0
   21.9948   -5.4983   17.5946 C   0  0  2  0  0  0  0  0  0  0  0  0
   22.7162   -6.2787   16.6168 O   0  0  0  0  0  0  0  0  0  0  0  0
   22.0704   -9.0352   20.1188 C   0  0  2  0  0  0  0  0  0  0  0  0
   22.8949   -9.5864   19.0110 N   0  0  0  0  0  0  0  0  0  0  0  0
   22.8434  -13.5644   18.5019 C   0  0  1  0  0  0  0  0  0  0  0  0
   23.4673  -14.8615   18.5832 O   0  0  0  0  0  0  0  0  0  0  0  0
   24.1206   -1.8446   14.1811 C   0  0  0  0  0  0  0  0  0  0  0  0
   19.6519   -4.1945   12.6731 C   0  0  2  0  0  0  0  0  0  0  0  0
   20.3520   -4.8349   11.5548 N   0  0  0  0  0  0  0  0  0  0  0  0
   21.6406   -6.2510   18.8444 C   0  0  2  0  0  0  0  0  0  0  0  0
   21.1542   -7.5305   18.5272 O   0  0  0  0  0  0  0  0  0  0  0  0
   21.6922  -10.0793   21.2598 C   0  0  1  0  0  0  0  0  0  0  0  0
   20.8499   -9.4316   22.2188 O   0  0  0  0  0  0  0  0  0  0  0  0
   22.5903  -13.2554   17.0312 C   0  0  1  0  0  0  0  0  0  0  0  0
   23.7998  -13.5479   16.3229 O   0  0  0  0  0  0  0  0  0  0  0  0
   23.5270   -0.9890   15.3392 C   0  0  2  0  0  0  0  0  0  0  0  0
   24.3785   -0.9713   16.4709 O   0  0  0  0  0  0  0  0  0  0  0  0
   20.5129   -4.2652   13.9611 C   0  0  2  0  0  0  0  0  0  0  0  0
   20.4183   -5.5247   19.4430 C   0  0  2  0  0  0  0  0  0  0  0  0
   19.7864   -5.0064   18.2833 O   0  0  0  0  0  0  0  0  0  0  0  0
   20.8416  -11.2844   20.6823 C   0  0  2  0  0  0  0  0  0  0  0  0
   21.7219  -11.9254   19.7579 O   0  0  0  0  0  0  0  0  0  0  0  0
   21.4392  -14.0577   16.4218 C   0  0  2  0  0  0  0  0  0  0  0  0
   21.1249  -13.4439   15.1612 O   0  0  0  0  0  0  0  0  0  0  0  0
   22.1251   -1.5471   15.6889 C   0  0  2  0  0  0  0  0  0  0  0  0
   21.2955   -1.4088   14.5000 O   0  0  0  0  0  0  0  0  0  0  0  0
   19.8069   -3.6979   15.2341 C   0  0  2  0  0  0  0  0  0  0  0  0
   20.6692   -3.8824   16.3912 O   0  0  0  0  0  0  0  0  0  0  0  0
   20.7134   -4.3806   20.4123 C   0  0  0  0  0  0  0  0  0  0  0  0
   21.6150   -4.8813   21.4104 O   0  0  0  0  0  0  0  0  0  0  0  0
   19.7538  -10.6503   19.8367 C   0  0  1  0  0  0  0  0  0  0  0  0
   19.7741   -9.4338   19.0593 O   0  0  0  0  0  0  0  0  0  0  0  0
   20.2589  -14.1595   17.3815 C   0  0  2  0  0  0  0  0  0  0  0  0
   20.4540  -14.1954   18.8036 O   0  0  0  0  0  0  0  0  0  0  0  0
   21.4374   -0.7708   16.7599 C   0  0  0  0  0  0  0  0  0  0  0  0
   22.1703   -0.9500   17.9476 O   0  0  0  0  0  0  0  0  0  0  0  0
   18.3942   -4.3464   15.4237 C   0  0  1  0  0  0  0  0  0  0  0  0
   17.7343   -3.6312   16.5018 O   0  0  0  0  0  0  0  0  0  0  0  0
   18.6971  -11.6205   19.2244 C   0  0  0  0  0  0  0  0  0  0  0  0
   17.3156  -11.3387   19.6682 N   0  0  0  0  0  0  0  0  0  0  0  0
   18.9735  -14.9116   17.0441 C   0  0  0  0  0  0  0  0  0  0  0  0
   18.6851  -14.7892   15.6262 O   0  0  0  0  0  0  0  0  0  0  0  0
  1  2  1  1  0  0  0
  1  8  1  0  0  0  0
  1 36  1  0  0  0  0
  3  4  1  1  0  0  0
  3 10  1  0  0  0  0
  3 47  1  0  0  0  0
  5 11  1  0  0  0  0
  5 30  1  0  0  0  0
  5 38  1  1  0  0  0
  6 21  1  6  0  0  0
  6 42  1  0  0  0  0
  7 15  1  0  0  0  0
  7 44  1  0  0  0  0
  7 32  1  6  0  0  0
  8  9  1  6  0  0  0
  8 17  1  0  0  0  0
 11 12  1  6  0  0  0
 11 20  1  0  0  0  0
 13  6  1  0  0  0  0
 13 14  1  6  0  0  0
 15 16  1  6  0  0  0
 15 24  1  0  0  0  0
 17 26  1  0  0  0  0
 18 10  1  0  0  0  0
 18 19  1  6  0  0  0
 20 21  1  6  0  0  0
 20 29  1  0  0  0  0
 22 13  1  0  0  0  0
 22 23  1  1  0  0  0
 24 25  1  6  0  0  0
 24 33  1  0  0  0  0
 26 27  1  1  0  0  0
 26 35  1  0  0  0  0
 28  2  1  6  0  0  0
 28 18  1  0  0  0  0
 29 30  1  0  0  0  0
 29 39  1  1  0  0  0
 31 22  1  0  0  0  0
 31 32  1  6  0  0  0
 31 41  1  0  0  0  0
 33 34  1  6  0  0  0
 33 43  1  0  0  0  0
 35 36  1  0  0  0  0
 35 45  1  1  0  0  0
 37 28  1  0  0  0  0
 37 38  1  1  0  0  0
 39 40  1  0  0  0  0
 41 42  1  0  0  0  0
 41 49  1  6  0  0  0
 43 44  1  0  0  0  0
 43 51  1  6  0  0  0
 45 46  1  0  0  0  0
 47 37  1  0  0  0  0
 47 48  1  1  0  0  0
 49 50  1  0  0  0  0
 51 52  1  0  0  0  0
M  END
>  <CHROM.1>
-175.41136909,143.43361289,-82.27239696,-175.60746626,-178.12296174,62.48927886
-51.93327541,152.42311122,-66.31761063,-87.25665651,119.60804738,-34.04364374
20.98579603,-7.30523586,17.03817006,1.38090578,-1.37670507,-0.50769820

>  <Name>
2esj_lig

>  <RI>
2.18877e+07

>  <Rbt.Current_Directory>
/home/itssahil/PROJECTS/Mol_Feturizer/New_Systems/rnas/2esj

>  <Rbt.Executable>
rbdock ($Id: //depot/dev/client3/rdock/2013.1/src/exe/rbdock.cxx#4 $)

>  <Rbt.Library>
libRbt.so (2013.1, Build901 2013/11/27)

>  <Rbt.Parameter_File>
/export/apps/rDock/src/rDock_2013.1_src/data/scripts/dock_solv.prm

>  <Rbt.Receptor>
prm/pocket_docking_7.prm

>  <SCORE>
-16.0913

>  <SCORE.INTER>
-10.8865

>  <SCORE.INTER.CONST>
1

>  <SCORE.INTER.POLAR>
-2.75322

>  <SCORE.INTER.ROT>
12

>  <SCORE.INTER.SOLV>
16.2542

>  <SCORE.INTER.VDW>
-15.0983

>  <SCORE.INTER.norm>
-0.209355

>  <SCORE.INTRA>
-5.20489

>  <SCORE.INTRA.DIHEDRAL>
-13.4026

>  <SCORE.INTRA.DIHEDRAL.0>
32.9766

>  <SCORE.INTRA.POLAR>
0

>  <SCORE.INTRA.POLAR.0>
0

>  <SCORE.INTRA.REPUL>
0

>  <SCORE.INTRA.REPUL.0>
0

>  <SCORE.INTRA.SOLV>
-2.85126

>  <SCORE.INTRA.SOLV.lig_0>
-114.358

>  <SCORE.INTRA.VDW>
2.92206

>  <SCORE.INTRA.VDW.0>
-8.24257

>  <SCORE.INTRA.norm>
-0.100094

>  <SCORE.RESTR>
0

>  <SCORE.RESTR.CAVITY>
0

>  <SCORE.RESTR.norm>
0

>  <SCORE.SYSTEM>
0

>  <SCORE.SYSTEM.CONST>
0

>  <SCORE.SYSTEM.DIHEDRAL>
0

>  <SCORE.SYSTEM.SOLV>
0

>  <SCORE.SYSTEM.norm>
0

>  <SCORE.heavy>
52

>  <SCORE.norm>
-0.309449

>  <RMSD>
9.870

$$$$
2esj_lig
 OpenBabel11021811423D
libRbt.so/2013.1/901 2013/11/27
 52 56  0  0  0  0  0  0  0  0999 V2000
   18.0397   -1.8829    9.8491 C   0  0  2  0  0  0  0  0  0  0  0  0
   17.8806   -3.2315   10.3295 O   0  0  0  0  0  0  0  0  0  0  0  0
   17.7623   -2.4665   14.5353 C   0  0  2  0  0  0  0  0  0  0  0  0
   17.6308   -2.5770   15.9974 N   0  0  0  0  0  0  0  0  0  0  0  0
   20.6316   -5.1550   12.7054 C   0  0  1  0  0  0  0  0  0  0  0  0
   20.6397   -8.9520   14.5773 C   0  0  1  0  0  0  0  0  0  0  0  0
   21.1046   -9.5516   19.5101 C   0  0  1  0  0  0  0  0  0  0  0  0
   17.6739   -1.8783    8.3355 C   0  0  2  0  0  0  0  0  0  0  0  0
   16.3257   -2.3897    8.0904 N   0  0  0  0  0  0  0  0  0  0  0  0
   16.4327   -2.9437   13.8268 C   0  0  0  0  0  0  0  0  0  0  0  0
   19.7009   -6.3423   12.4553 C   0  0  2  0  0  0  0  0  0  0  0  0
   18.5658   -6.3496   13.3479 O   0  0  0  0  0  0  0  0  0  0  0  0
   19.9502   -8.6585   15.9843 C   0  0  2  0  0  0  0  0  0  0  0  0
   20.7272   -7.6572   16.7619 N   0  0  0  0  0  0  0  0  0  0  0  0
   22.3059   -8.7218   19.9481 C   0  0  1  0  0  0  0  0  0  0  0  0
   21.8685   -7.7078   20.8749 O   0  0  0  0  0  0  0  0  0  0  0  0
   18.7117   -2.7023    7.5089 C   0  0  0  0  0  0  0  0  0  0  0  0
   16.5713   -2.7621   12.2617 C   0  0  2  0  0  0  0  0  0  0  0  0
   15.3538   -3.2111   11.5784 N   0  0  0  0  0  0  0  0  0  0  0  0
   20.6534   -7.4848   12.6599 C   0  0  2  0  0  0  0  0  0  0  0  0
   20.8882   -7.6905   14.0299 O   0  0  0  0  0  0  0  0  0  0  0  0
   19.6942  -10.0402   16.7329 C   0  0  1  0  0  0  0  0  0  0  0  0
   18.9968  -10.9233   15.8483 O   0  0  0  0  0  0  0  0  0  0  0  0
   23.4338   -9.5066   20.6070 C   0  0  1  0  0  0  0  0  0  0  0  0
   24.3490   -8.5522   21.1563 O   0  0  0  0  0  0  0  0  0  0  0  0
   20.1393   -2.1544    7.8047 C   0  0  2  0  0  0  0  0  0  0  0  0
   21.1259   -2.8081    7.0266 O   0  0  0  0  0  0  0  0  0  0  0  0
   17.8049   -3.5396   11.7339 C   0  0  2  0  0  0  0  0  0  0  0  0
   22.0142   -7.0031   12.1159 C   0  0  2  0  0  0  0  0  0  0  0  0
   21.9455   -5.6049   12.3465 O   0  0  0  0  0  0  0  0  0  0  0  0
   21.0563  -10.7685   17.0846 C   0  0  2  0  0  0  0  0  0  0  0  0
   21.7075   -9.8778   17.9917 O   0  0  0  0  0  0  0  0  0  0  0  0
   22.9626  -10.4520   21.7134 C   0  0  2  0  0  0  0  0  0  0  0  0
   24.0625  -11.3280   22.0095 O   0  0  0  0  0  0  0  0  0  0  0  0
   20.4156   -2.3065    9.3211 C   0  0  2  0  0  0  0  0  0  0  0  0
   19.4250   -1.5031   10.0241 O   0  0  0  0  0  0  0  0  0  0  0  0
   19.1383   -3.2026   12.4752 C   0  0  2  0  0  0  0  0  0  0  0  0
   20.2089   -4.0386   11.9543 O   0  0  0  0  0  0  0  0  0  0  0  0
   22.2841   -7.2587   10.6335 C   0  0  0  0  0  0  0  0  0  0  0  0
   23.6475   -6.8942   10.3732 O   0  0  0  0  0  0  0  0  0  0  0  0
   21.8817  -10.7307   15.8128 C   0  0  1  0  0  0  0  0  0  0  0  0
   21.9230   -9.7404   14.7630 O   0  0  0  0  0  0  0  0  0  0  0  0
   21.6755  -11.1707   21.3244 C   0  0  2  0  0  0  0  0  0  0  0  0
   20.6958  -10.5438   20.4825 O   0  0  0  0  0  0  0  0  0  0  0  0
   21.7440   -1.7675    9.7301 C   0  0  0  0  0  0  0  0  0  0  0  0
   21.8685   -1.9607   11.1184 O   0  0  0  0  0  0  0  0  0  0  0  0
   18.9643   -3.3398   14.0254 C   0  0  1  0  0  0  0  0  0  0  0  0
   20.1753   -2.8260   14.6408 O   0  0  0  0  0  0  0  0  0  0  0  0
   23.2491  -11.4802   15.8509 C   0  0  0  0  0  0  0  0  0  0  0  0
   23.1115  -12.9518   15.8501 N   0  0  0  0  0  0  0  0  0  0  0  0
   20.9690  -12.1681   22.2397 C   0  0  0  0  0  0  0  0  0  0  0  0
   20.6872  -11.5497   23.5230 O   0  0  0  0  0  0  0  0  0  0  0  0
  1  2  1  6  0  0  0
  1  8  1  0  0  0  0
  1 36  1  0  0  0  0
  3  4  1  1  0  0  0
  3 10  1  0  0  0  0
  3 47  1  0  0  0  0
  5 11  1  0  0  0  0
  5 30  1  0  0  0  0
  5 38  1  6  0  0  0
  6 21  1  1  0  0  0
  6 42  1  0  0  0  0
  7 15  1  0  0  0  0
  7 44  1  0  0  0  0
  7 32  1  6  0  0  0
  8  9  1  1  0  0  0
  8 17  1  0  0  0  0
 11 12  1  1  0  0  0
 11 20  1  0  0  0  0
 13  6  1  0  0  0  0
 13 14  1  1  0  0  0
 15 16  1  1  0  0  0
 15 24  1  0  0  0  0
 17 26  1  0  0  0  0
 18 10  1  0  0  0  0
 18 19  1  6  0  0  0
 20 21  1  1  0  0  0
 20 29  1  0  0  0  0
 22 13  1  0  0  0  0
 22 23  1  6  0  0  0
 24 25  1  1  0  0  0
 24 33  1  0  0  0  0
 26 27  1  6  0  0  0
 26 35  1  0  0  0  0
 28  2  1  6  0  0  0
 28 18  1  0  0  0  0
 29 30  1  0  0  0  0
 29 39  1  6  0  0  0
 31 22  1  0  0  0  0
 31 32  1  1  0  0  0
 31 41  1  0  0  0  0
 33 34  1  6  0  0  0
 33 43  1  0  0  0  0
 35 36  1  0  0  0  0
 35 45  1  6  0  0  0
 37 28  1  0  0  0  0
 37 38  1  6  0  0  0
 39 40  1  0  0  0  0
 41 42  1  0  0  0  0
 41 49  1  1  0  0  0
 43 44  1  0  0  0  0
 43 51  1  1  0  0  0
 45 46  1  0  0  0  0
 47 37  1  0  0  0  0
 47 48  1  1  0  0  0
 49 50  1  0  0  0  0
 51 52  1  0  0  0  0
M  END
>  <CHROM.1>
-163.98708281,82.27009661,-138.88463535,173.92456667,123.96392523,59.88331197
-172.90178227,66.14863399,179.79179693,-102.30502170,72.18752114,55.28293739
20.44066171,-6.52417549,14.51905226,1.92174999,0.84496841,-1.17506571

>  <Name>
2esj_lig

>  <RI>
0

>  <Rbt.Current_Directory>
/home/itssahil/PROJECTS/Mol_Feturizer/New_Systems/rnas/2esj

>  <Rbt.Executable>
rbdock ($Id: //depot/dev/client3/rdock/2013.1/src/exe/rbdock.cxx#4 $)

>  <Rbt.Library>
libRbt.so (2013.1, Build901 2013/11/27)

>  <Rbt.Parameter_File>
/export/apps/rDock/src/rDock_2013.1_src/data/scripts/dock_solv.prm

>  <Rbt.Receptor>
prm/pocket_docking_8.prm

>  <SCORE>
-12.8198

>  <SCORE.INTER>
-10.9037

>  <SCORE.INTER.CONST>
1

>  <SCORE.INTER.POLAR>
-1.96948

>  <SCORE.INTER.ROT>
12

>  <SCORE.INTER.SOLV>
20.2285

>  <SCORE.INTER.VDW>
-19.047

>  <SCORE.INTER.norm>
-0.209687

>  <SCORE.INTRA>
-1.91615

>  <SCORE.INTRA.DIHEDRAL>
-5.95698

>  <SCORE.INTRA.DIHEDRAL.0>
32.9766

>  <SCORE.INTRA.POLAR>
0

>  <SCORE.INTRA.POLAR.0>
0

>  <SCORE.INTRA.REPUL>
0

>  <SCORE.INTRA.REPUL.0>
0

>  <SCORE.INTRA.SOLV>
-1.8846

>  <SCORE.INTRA.SOLV.lig_0>
-114.358

>  <SCORE.INTRA.VDW>
2.00464

>  <SCORE.INTRA.VDW.0>
-8.24257

>  <SCORE.INTRA.norm>
-0.036849

>  <SCORE.RESTR>
0

>  <SCORE.RESTR.CAVITY>
0

>  <SCORE.RESTR.norm>
0

>  <SCORE.SYSTEM>
0

>  <SCORE.SYSTEM.CONST>
0

>  <SCORE.SYSTEM.DIHEDRAL>
0

>  <SCORE.SYSTEM.SOLV>
0

>  <SCORE.SYSTEM.norm>
0

>  <SCORE.heavy>
52

>  <SCORE.norm>
-0.246536

>  <RMSD>
9.875

$$$$
2esj_lig
 OpenBabel11021811423D
libRbt.so/2013.1/901 2013/11/27
 52 56  0  0  0  0  0  0  0  0999 V2000
   19.5710   -0.9321   10.7488 C   0  0  2  0  0  0  0  0  0  0  0  0
   19.3834   -2.3456   10.9523 O   0  0  0  0  0  0  0  0  0  0  0  0
   15.2581   -2.3523   12.0791 C   0  0  2  0  0  0  0  0  0  0  0  0
   13.8727   -2.7323   12.4011 N   0  0  0  0  0  0  0  0  0  0  0  0
   18.6323   -4.5808   13.9108 C   0  0  1  0  0  0  0  0  0  0  0  0
   20.2520   -8.1658   14.4507 C   0  0  1  0  0  0  0  0  0  0  0  0
   20.4283  -12.7274   16.9460 C   0  0  1  0  0  0  0  0  0  0  0  0
   20.9547   -0.7372   10.0613 C   0  0  2  0  0  0  0  0  0  0  0  0
   21.0618   -1.4878    8.8106 N   0  0  0  0  0  0  0  0  0  0  0  0
   15.6329   -2.8283   10.6195 C   0  0  0  0  0  0  0  0  0  0  0  0
   19.8317   -5.0405   14.7405 C   0  0  2  0  0  0  0  0  0  0  0  0
   20.9774   -5.3606   13.9217 O   0  0  0  0  0  0  0  0  0  0  0  0
   19.6735   -9.4941   13.7858 C   0  0  2  0  0  0  0  0  0  0  0  0
   18.4683   -9.9744   14.5122 N   0  0  0  0  0  0  0  0  0  0  0  0
   18.9771  -13.1921   16.9057 C   0  0  1  0  0  0  0  0  0  0  0  0
   18.9094  -14.5704   17.3229 O   0  0  0  0  0  0  0  0  0  0  0  0
   22.1167   -1.1413   11.0233 C   0  0  0  0  0  0  0  0  0  0  0  0
   17.1025   -2.3598   10.2700 C   0  0  2  0  0  0  0  0  0  0  0  0
   17.4805   -2.8014    8.9235 N   0  0  0  0  0  0  0  0  0  0  0  0
   19.2355   -6.2192   15.4542 C   0  0  2  0  0  0  0  0  0  0  0  0
   19.1456   -7.3237   14.5903 O   0  0  0  0  0  0  0  0  0  0  0  0
   20.8487  -10.5602   13.6536 C   0  0  1  0  0  0  0  0  0  0  0  0
   21.9601   -9.9443   12.9947 O   0  0  0  0  0  0  0  0  0  0  0  0
   18.0125  -12.3905   17.7713 C   0  0  1  0  0  0  0  0  0  0  0  0
   16.7711  -13.1037   17.7939 O   0  0  0  0  0  0  0  0  0  0  0  0
   21.9671   -0.3469   12.3546 C   0  0  2  0  0  0  0  0  0  0  0  0
   23.0355   -0.6084   13.2469 O   0  0  0  0  0  0  0  0  0  0  0  0
   18.1075   -2.9033   11.3187 C   0  0  2  0  0  0  0  0  0  0  0  0
   17.7658   -5.8441   15.7351 C   0  0  2  0  0  0  0  0  0  0  0  0
   17.4692   -4.9811   14.6486 O   0  0  0  0  0  0  0  0  0  0  0  0
   21.3845  -11.0096   15.0750 C   0  0  2  0  0  0  0  0  0  0  0  0
   20.2632  -11.6478   15.6881 O   0  0  0  0  0  0  0  0  0  0  0  0
   18.5014  -12.1785   19.2052 C   0  0  2  0  0  0  0  0  0  0  0  0
   17.6624  -11.1670   19.7864 O   0  0  0  0  0  0  0  0  0  0  0  0
   20.5977   -0.7037   12.9842 C   0  0  2  0  0  0  0  0  0  0  0  0
   19.5671   -0.2863   12.0437 O   0  0  0  0  0  0  0  0  0  0  0  0
   17.7310   -2.5699   12.7979 C   0  0  2  0  0  0  0  0  0  0  0  0
   18.6941   -3.1882   13.6959 O   0  0  0  0  0  0  0  0  0  0  0  0
   17.4881   -5.1161   17.0498 C   0  0  0  0  0  0  0  0  0  0  0  0
   17.9735   -5.9466   18.1148 O   0  0  0  0  0  0  0  0  0  0  0  0
   21.6011   -9.7275   15.8557 C   0  0  1  0  0  0  0  0  0  0  0  0
   20.8908   -8.4721   15.7927 O   0  0  0  0  0  0  0  0  0  0  0  0
   19.9913  -11.8573   19.2463 C   0  0  2  0  0  0  0  0  0  0  0  0
   20.8993  -12.4016   18.2762 O   0  0  0  0  0  0  0  0  0  0  0  0
   20.3238    0.0392   14.2473 C   0  0  0  0  0  0  0  0  0  0  0  0
   21.1730   -0.4864   15.2386 O   0  0  0  0  0  0  0  0  0  0  0  0
   16.2562   -2.9958   13.1072 C   0  0  1  0  0  0  0  0  0  0  0  0
   15.9271   -2.4795   14.4241 O   0  0  0  0  0  0  0  0  0  0  0  0
   22.2323   -9.8773   17.2741 C   0  0  0  0  0  0  0  0  0  0  0  0
   22.7266   -8.6017   17.8338 N   0  0  0  0  0  0  0  0  0  0  0  0
   20.7541  -11.6076   20.5454 C   0  0  0  0  0  0  0  0  0  0  0  0
   20.1578  -10.4957   21.2644 O   0  0  0  0  0  0  0  0  0  0  0  0
  1  2  1  1  0  0  0
  1  8  1  0  0  0  0
  1 36  1  0  0  0  0
  3  4  1  1  0  0  0
  3 10  1  0  0  0  0
  3 47  1  0  0  0  0
  5 11  1  0  0  0  0
  5 30  1  0  0  0  0
  5 38  1  1  0  0  0
  6 21  1  1  0  0  0
  6 42  1  0  0  0  0
  7 15  1  0  0  0  0
  7 44  1  0  0  0  0
  7 32  1  6  0  0  0
  8  9  1  6  0  0  0
  8 17  1  0  0  0  0
 11 12  1  6  0  0  0
 11 20  1  0  0  0  0
 13  6  1  0  0  0  0
 13 14  1  1  0  0  0
 15 16  1  1  0  0  0
 15 24  1  0  0  0  0
 17 26  1  0  0  0  0
 18 10  1  0  0  0  0
 18 19  1  6  0  0  0
 20 21  1  6  0  0  0
 20 29  1  0  0  0  0
 22 13  1  0  0  0  0
 22 23  1  6  0  0  0
 24 25  1  1  0  0  0
 24 33  1  0  0  0  0
 26 27  1  1  0  0  0
 26 35  1  0  0  0  0
 28  2  1  6  0  0  0
 28 18  1  0  0  0  0
 29 30  1  0  0  0  0
 29 39  1  1  0  0  0
 31 22  1  0  0  0  0
 31 32  1  1  0  0  0
 31 41  1  0  0  0  0
 33 34  1  6  0  0  0
 33 43  1  0  0  0  0
 35 36  1  0  0  0  0
 35 45  1  1  0  0  0
 37 28  1  0  0  0  0
 37 38  1  1  0  0  0
 39 40  1  0  0  0  0
 41 42  1  0  0  0  0
 41 49  1  1  0  0  0
 43 44  1  0  0  0  0
 43 51  1  1  0  0  0
 45 46  1  0  0  0  0
 47 37  1  0  0  0  0
 47 48  1  1  0  0  0
 49 50  1  0  0  0  0
 51 52  1  0  0  0  0
M  END
>  <CHROM.1>
-167.35324297,172.93305772,163.42553764,-169.59683062,85.90439274,52.53236783
-57.22503859,158.80037690,-71.48470373,-74.67374654,165.44627195,-58.39493405
19.35064662,-6.36720340,14.69887441,-1.62224442,0.03417406,2.61401830

>  <Name>
2esj_lig

>  <RI>
0

>  <Rbt.Current_Directory>
/home/itssahil/PROJECTS/Mol_Feturizer/New_Systems/rnas/2esj

>  <Rbt.Executable>
rbdock ($Id: //depot/dev/client3/rdock/2013.1/src/exe/rbdock.cxx#4 $)

>  <Rbt.Library>
libRbt.so (2013.1, Build901 2013/11/27)

>  <Rbt.Parameter_File>
/export/apps/rDock/src/rDock_2013.1_src/data/scripts/dock_solv.prm

>  <Rbt.Receptor>
prm/pocket_docking_8.prm

>  <SCORE>
-17.5363

>  <SCORE.INTER>
-9.68351

>  <SCORE.INTER.CONST>
1

>  <SCORE.INTER.POLAR>
-1.61009

>  <SCORE.INTER.ROT>
12

>  <SCORE.INTER.SOLV>
17.5257

>  <SCORE.INTER.VDW>
-18.5306

>  <SCORE.INTER.norm>
-0.186221

>  <SCORE.INTRA>
-7.85275

>  <SCORE.INTRA.DIHEDRAL>
-18.6382

>  <SCORE.INTRA.DIHEDRAL.0>
32.9766

>  <SCORE.INTRA.POLAR>
0

>  <SCORE.INTRA.POLAR.0>
0

>  <SCORE.INTRA.REPUL>
0

>  <SCORE.INTRA.REPUL.0>
0

>  <SCORE.INTRA.SOLV>
-1.86719

>  <SCORE.INTRA.SOLV.lig_0>
-114.358

>  <SCORE.INTRA.VDW>
2.39994

>  <SCORE.INTRA.VDW.0>
-8.24257

>  <SCORE.INTRA.norm>
-0.151014

>  <SCORE.RESTR>
0

>  <SCORE.RESTR.CAVITY>
0

>  <SCORE.RESTR.norm>
0

>  <SCORE.SYSTEM>
0

>  <SCORE.SYSTEM.CONST>
0

>  <SCORE.SYSTEM.DIHEDRAL>
0

>  <SCORE.SYSTEM.SOLV>
0

>  <SCORE.SYSTEM.norm>
0

>  <SCORE.heavy>
52

>  <SCORE.norm>
-0.337236

>  <RMSD>
9.898

$$$$
2esj_lig
 OpenBabel11021811423D
libRbt.so/2013.1/901 2013/11/27
 52 56  0  0  0  0  0  0  0  0999 V2000
   26.7223   -4.2502   16.3786 C   0  0  2  0  0  0  0  0  0  0  0  0
   25.5510   -3.4668   16.0801 O   0  0  0  0  0  0  0  0  0  0  0  0
   24.8058    0.1951   14.0009 C   0  0  2  0  0  0  0  0  0  0  0  0
   24.7421    1.2766   13.0041 N   0  0  0  0  0  0  0  0  0  0  0  0
   22.8190   -4.2918   15.0857 C   0  0  1  0  0  0  0  0  0  0  0  0
   21.0377   -4.9855   18.4221 C   0  0  1  0  0  0  0  0  0  0  0  0
   20.8873   -7.8274   22.7818 C   0  0  1  0  0  0  0  0  0  0  0  0
   26.9034   -5.2806   15.2252 C   0  0  2  0  0  0  0  0  0  0  0  0
   26.9974   -4.6350   13.9161 N   0  0  0  0  0  0  0  0  0  0  0  0
   26.3076   -0.2187   14.2669 C   0  0  0  0  0  0  0  0  0  0  0  0
   21.5313   -3.7214   15.6816 C   0  0  2  0  0  0  0  0  0  0  0  0
   21.7824   -2.8619   16.8145 O   0  0  0  0  0  0  0  0  0  0  0  0
   22.0422   -5.6783   19.4478 C   0  0  2  0  0  0  0  0  0  0  0  0
   22.0170   -7.1581   19.3038 N   0  0  0  0  0  0  0  0  0  0  0  0
   22.3641   -7.5919   22.4866 C   0  0  1  0  0  0  0  0  0  0  0  0
   23.0906   -7.5243   23.7300 O   0  0  0  0  0  0  0  0  0  0  0  0
   25.7394   -6.3219   15.2203 C   0  0  0  0  0  0  0  0  0  0  0  0
   26.3593   -1.3389   15.3823 C   0  0  2  0  0  0  0  0  0  0  0  0
   27.7433   -1.7510   15.6387 N   0  0  0  0  0  0  0  0  0  0  0  0
   20.8009   -4.9889   16.0193 C   0  0  2  0  0  0  0  0  0  0  0  0
   21.3308   -5.5665   17.1855 O   0  0  0  0  0  0  0  0  0  0  0  0
   21.7363   -5.1399   20.9146 C   0  0  1  0  0  0  0  0  0  0  0  0
   21.7301   -3.7088   20.8901 O   0  0  0  0  0  0  0  0  0  0  0  0
   23.0290   -8.6463   21.6099 C   0  0  1  0  0  0  0  0  0  0  0  0
   24.4381   -8.3936   21.6386 O   0  0  0  0  0  0  0  0  0  0  0  0
   25.6451   -6.9776   16.6299 C   0  0  2  0  0  0  0  0  0  0  0  0
   24.6565   -7.9909   16.6742 O   0  0  0  0  0  0  0  0  0  0  0  0
   25.5010   -2.5604   14.9625 C   0  0  2  0  0  0  0  0  0  0  0  0
   21.1627   -5.9945   14.9069 C   0  0  2  0  0  0  0  0  0  0  0  0
   22.4644   -5.5686   14.5367 O   0  0  0  0  0  0  0  0  0  0  0  0
   20.2906   -5.5697   21.3988 C   0  0  2  0  0  0  0  0  0  0  0  0
   20.3443   -6.9964   21.4439 O   0  0  0  0  0  0  0  0  0  0  0  0
   22.7622  -10.0827   22.0635 C   0  0  2  0  0  0  0  0  0  0  0  0
   23.1748  -10.9426   20.9887 O   0  0  0  0  0  0  0  0  0  0  0  0
   25.3664   -5.8630   17.6686 C   0  0  2  0  0  0  0  0  0  0  0  0
   26.4943   -4.9426   17.6287 O   0  0  0  0  0  0  0  0  0  0  0  0
   24.0316   -2.2045   14.5686 C   0  0  2  0  0  0  0  0  0  0  0  0
   23.3434   -3.4058   14.1218 O   0  0  0  0  0  0  0  0  0  0  0  0
   20.2615   -5.9980   13.6726 C   0  0  0  0  0  0  0  0  0  0  0  0
   20.7276   -7.0376   12.7999 O   0  0  0  0  0  0  0  0  0  0  0  0
   19.3572   -5.2329   20.2519 C   0  0  1  0  0  0  0  0  0  0  0  0
   19.5974   -5.2385   18.8282 O   0  0  0  0  0  0  0  0  0  0  0  0
   21.3130  -10.2722   22.4973 C   0  0  2  0  0  0  0  0  0  0  0  0
   20.5690   -9.2034   23.1021 O   0  0  0  0  0  0  0  0  0  0  0  0
   25.3029   -6.3714   19.0686 C   0  0  0  0  0  0  0  0  0  0  0  0
   26.5483   -6.9572   19.3616 O   0  0  0  0  0  0  0  0  0  0  0  0
   24.0027   -1.0590   13.5012 C   0  0  1  0  0  0  0  0  0  0  0  0
   22.6161   -0.6588   13.3380 O   0  0  0  0  0  0  0  0  0  0  0  0
   17.8354   -5.4625   20.5056 C   0  0  0  0  0  0  0  0  0  0  0  0
   17.3492   -6.7684   20.0127 N   0  0  0  0  0  0  0  0  0  0  0  0
   20.7635  -11.6021   23.0082 C   0  0  0  0  0  0  0  0  0  0  0  0
   20.6646  -12.5511   21.9134 O   0  0  0  0  0  0  0  0  0  0  0  0
  1  2  1  6  0  0  0
  1  8  1  0  0  0  0
  1 36  1  0  0  0  0
  3  4  1  6  0  0  0
  3 10  1  0  0  0  0
  3 47  1  0  0  0  0
  5 11  1  0  0  0  0
  5 30  1  0  0  0  0
  5 38  1  6  0  0  0
  6 21  1  6  0  0  0
  6 42  1  0  0  0  0
  7 15  1  0  0  0  0
  7 44  1  0  0  0  0
  7 32  1  6  0  0  0
  8  9  1  6  0  0  0
  8 17  1  0  0  0  0
 11 12  1  1  0  0  0
 11 20  1  0  0  0  0
 13  6  1  0  0  0  0
 13 14  1  1  0  0  0
 15 16  1  1  0  0  0
 15 24  1  0  0  0  0
 17 26  1  0  0  0  0
 18 10  1  0  0  0  0
 18 19  1  6  0  0  0
 20 21  1  1  0  0  0
 20 29  1  0  0  0  0
 22 13  1  0  0  0  0
 22 23  1  6  0  0  0
 24 25  1  1  0  0  0
 24 33  1  0  0  0  0
 26 27  1  6  0  0  0
 26 35  1  0  0  0  0
 28  2  1  1  0  0  0
 28 18  1  0  0  0  0
 29 30  1  0  0  0  0
 29 39  1  6  0  0  0
 31 22  1  0  0  0  0
 31 32  1  6  0  0  0
 31 41  1  0  0  0  0
 33 34  1  6  0  0  0
 33 43  1  0  0  0  0
 35 36  1  0  0  0  0
 35 45  1  1  0  0  0
 37 28  1  0  0  0  0
 37 38  1  6  0  0  0
 39 40  1  0  0  0  0
 41 42  1  0  0  0  0
 41 49  1  6  0  0  0
 43 44  1  0  0  0  0
 43 51  1  1  0  0  0
 45 46  1  0  0  0  0
 47 37  1  0  0  0  0
 47 48  1  1  0  0  0
 49 50  1  0  0  0  0
 51 52  1  0  0  0  0
M  END
>  <CHROM.1>
-67.09896552,76.14621459,-167.66755012,-78.43994081,74.45792776,-74.41340846
-177.26501598,86.58613451,60.15734733,81.08474953,-95.72327458,-71.12917693
22.95946689,-5.57347178,17.91939790,-1.23159630,-0.10911576,2.32228939

>  <Name>
2esj_lig

>  <RI>
0

>  <Rbt.Current_Directory>
/home/itssahil/PROJECTS/Mol_Feturizer/New_Systems/rnas/2esj

>  <Rbt.Executable>
rbdock ($Id: //depot/dev/client3/rdock/2013.1/src/exe/rbdock.cxx#4 $)

>  <Rbt.Library>
libRbt.so (2013.1, Build901 2013/11/27)

>  <Rbt.Parameter_File>
/export/apps/rDock/src/rDock_2013.1_src/data/scripts/dock_solv.prm

>  <Rbt.Receptor>
prm/pocket_docking_8.prm

>  <SCORE>
-9.49823

>  <SCORE.INTER>
-4.54396

>  <SCORE.INTER.CONST>
1

>  <SCORE.INTER.POLAR>
-0.796414

>  <SCORE.INTER.ROT>
12

>  <SCORE.INTER.SOLV>
10.756

>  <SCORE.INTER.VDW>
-15.5599

>  <SCORE.INTER.norm>
-0.0873838

>  <SCORE.INTRA>
-4.95427

>  <SCORE.INTRA.DIHEDRAL>
-17.233

>  <SCORE.INTRA.DIHEDRAL.0>
32.9766

>  <SCORE.INTRA.POLAR>
0

>  <SCORE.INTRA.POLAR.0>
0

>  <SCORE.INTRA.REPUL>
0

>  <SCORE.INTRA.REPUL.0>
0

>  <SCORE.INTRA.SOLV>
5.24921

>  <SCORE.INTRA.SOLV.lig_0>
-114.358

>  <SCORE.INTRA.VDW>
1.03765

>  <SCORE.INTRA.VDW.0>
-8.24257

>  <SCORE.INTRA.norm>
-0.0952744

>  <SCORE.RESTR>
0

>  <SCORE.RESTR.CAVITY>
0

>  <SCORE.RESTR.norm>
0

>  <SCORE.SYSTEM>
0

>  <SCORE.SYSTEM.CONST>
0

>  <SCORE.SYSTEM.DIHEDRAL>
0

>  <SCORE.SYSTEM.SOLV>
0

>  <SCORE.SYSTEM.norm>
0

>  <SCORE.heavy>
52

>  <SCORE.norm>
-0.182658

>  <RMSD>
9.915

$$$$
2esj_lig
 OpenBabel11021811423D
libRbt.so/2013.1/901 2013/11/27
 52 56  0  0  0  0  0  0  0  0999 V2000
   26.0388   -0.0982   17.7289 C   0  0  2  0  0  0  0  0  0  0  0  0
   27.2487   -0.8715   17.6161 O   0  0  0  0  0  0  0  0  0  0  0  0
   28.8399   -3.8350   14.9752 C   0  0  2  0  0  0  0  0  0  0  0  0
   29.0995   -5.0658   14.2103 N   0  0  0  0  0  0  0  0  0  0  0  0
   24.7198   -1.9538   15.5035 C   0  0  1  0  0  0  0  0  0  0  0  0
   20.7856   -3.1785   15.4369 C   0  0  1  0  0  0  0  0  0  0  0  0
   17.1004   -5.2362   18.5783 C   0  0  1  0  0  0  0  0  0  0  0  0
   26.3410    1.1114   18.6620 C   0  0  2  0  0  0  0  0  0  0  0  0
   27.4611    1.9176   18.1776 N   0  0  0  0  0  0  0  0  0  0  0  0
   28.8372   -4.1422   16.5254 C   0  0  0  0  0  0  0  0  0  0  0  0
   23.7882   -2.2749   14.3341 C   0  0  2  0  0  0  0  0  0  0  0  0
   22.8916   -1.1848   14.0291 O   0  0  0  0  0  0  0  0  0  0  0  0
   20.0389   -2.3354   16.5651 C   0  0  2  0  0  0  0  0  0  0  0  0
   20.4337   -2.7931   17.9236 N   0  0  0  0  0  0  0  0  0  0  0  0
   17.7698   -5.0263   19.9316 C   0  0  1  0  0  0  0  0  0  0  0  0
   16.7901   -5.1947   20.9757 O   0  0  0  0  0  0  0  0  0  0  0  0
   26.6247    0.6323   20.1211 C   0  0  0  0  0  0  0  0  0  0  0  0
   28.6161   -2.7996   17.3317 C   0  0  2  0  0  0  0  0  0  0  0  0
   28.5959   -3.0595   18.7749 N   0  0  0  0  0  0  0  0  0  0  0  0
   23.1064   -3.5060   14.8570 C   0  0  2  0  0  0  0  0  0  0  0  0
   22.1323   -3.1622   15.8095 O   0  0  0  0  0  0  0  0  0  0  0  0
   18.4733   -2.3579   16.2761 C   0  0  1  0  0  0  0  0  0  0  0  0
   18.2472   -1.9576   14.9206 O   0  0  0  0  0  0  0  0  0  0  0  0
   18.9401   -5.9557   20.2301 C   0  0  1  0  0  0  0  0  0  0  0  0
   19.2808   -5.7779   21.6094 O   0  0  0  0  0  0  0  0  0  0  0  0
   25.4300   -0.2420   20.6048 C   0  0  2  0  0  0  0  0  0  0  0  0
   25.5862   -0.6480   21.9527 O   0  0  0  0  0  0  0  0  0  0  0  0
   27.2984   -2.1127   16.8880 C   0  0  2  0  0  0  0  0  0  0  0  0
   24.1732   -4.2663   15.6716 C   0  0  2  0  0  0  0  0  0  0  0  0
   24.9939   -3.2087   16.1417 O   0  0  0  0  0  0  0  0  0  0  0  0
   17.8837   -3.8231   16.3975 C   0  0  2  0  0  0  0  0  0  0  0  0
   18.0951   -4.1753   17.7656 O   0  0  0  0  0  0  0  0  0  0  0  0
   18.6371   -7.4322   19.9691 C   0  0  2  0  0  0  0  0  0  0  0  0
   19.8953   -8.1258   19.9893 O   0  0  0  0  0  0  0  0  0  0  0  0
   25.2993   -1.4580   19.6544 C   0  0  2  0  0  0  0  0  0  0  0  0
   25.0212   -0.9383   18.3226 O   0  0  0  0  0  0  0  0  0  0  0  0
   27.1827   -1.8869   15.3464 C   0  0  2  0  0  0  0  0  0  0  0  0
   25.8840   -1.3095   15.0357 O   0  0  0  0  0  0  0  0  0  0  0  0
   25.0318   -5.2687   14.9011 C   0  0  0  0  0  0  0  0  0  0  0  0
   25.9411   -5.8676   15.8361 O   0  0  0  0  0  0  0  0  0  0  0  0
   18.8201   -4.7094   15.5989 C   0  0  1  0  0  0  0  0  0  0  0  0
   20.2421   -4.5942   15.3771 O   0  0  0  0  0  0  0  0  0  0  0  0
   17.8377   -7.6204   18.6845 C   0  0  2  0  0  0  0  0  0  0  0  0
   16.9003   -6.6292   18.2367 O   0  0  0  0  0  0  0  0  0  0  0  0
   24.1508   -2.3454   19.9951 C   0  0  0  0  0  0  0  0  0  0  0  0
   24.2915   -3.5255   19.2416 O   0  0  0  0  0  0  0  0  0  0  0  0
   27.4549   -3.2171   14.5662 C   0  0  1  0  0  0  0  0  0  0  0  0
   27.5210   -2.8815   13.1547 O   0  0  0  0  0  0  0  0  0  0  0  0
   18.4104   -6.2084   15.4645 C   0  0  0  0  0  0  0  0  0  0  0  0
   18.5610   -6.7368   14.0924 N   0  0  0  0  0  0  0  0  0  0  0  0
   17.3842   -8.9878   18.1784 C   0  0  0  0  0  0  0  0  0  0  0  0
   16.6276   -9.6728   19.2114 O   0  0  0  0  0  0  0  0  0  0  0  0
  1  2  1  1  0  0  0
  1  8  1  0  0  0  0
  1 36  1  0  0  0  0
  3  4  1  6  0  0  0
  3 10  1  0  0  0  0
  3 47  1  0  0  0  0
  5 11  1  0  0  0  0
  5 30  1  0  0  0  0
  5 38  1  6  0  0  0
  6 21  1  1  0  0  0
  6 42  1  0  0  0  0
  7 15  1  0  0  0  0
  7 44  1  0  0  0  0
  7 32  1  6  0  0  0
  8  9  1  6  0  0  0
  8 17  1  0  0  0  0
 11 12  1  1  0  0  0
 11 20  1  0  0  0  0
 13  6  1  0  0  0  0
 13 14  1  1  0  0  0
 15 16  1  1  0  0  0
 15 24  1  0  0  0  0
 17 26  1  0  0  0  0
 18 10  1  0  0  0  0
 18 19  1  1  0  0  0
 20 21  1  1  0  0  0
 20 29  1  0  0  0  0
 22 13  1  0  0  0  0
 22 23  1  6  0  0  0
 24 25  1  1  0  0  0
 24 33  1  0  0  0  0
 26 27  1  1  0  0  0
 26 35  1  0  0  0  0
 28  2  1  1  0  0  0
 28 18  1  0  0  0  0
 29 30  1  0  0  0  0
 29 39  1  6  0  0  0
 31 22  1  0  0  0  0
 31 32  1  1  0  0  0
 31 41  1  0  0  0  0
 33 34  1  6  0  0  0
 33 43  1  0  0  0  0
 35 36  1  0  0  0  0
 35 45  1  1  0  0  0
 37 28  1  0  0  0  0
 37 38  1  1  0  0  0
 39 40  1  0  0  0  0
 41 42  1  0  0  0  0
 41 49  1  1  0  0  0
 43 44  1  0  0  0  0
 43 51  1  1  0  0  0
 45 46  1  0  0  0  0
 47 37  1  0  0  0  0
 47 48  1  6  0  0  0
 49 50  1  0  0  0  0
 51 52  1  0  0  0  0
M  END
>  <CHROM.1>
176.07022141,-123.78669588,-163.24404407,-173.99466989,103.02553129,-164.69593548
-179.49321091,151.13671530,-168.82301453,-53.17050558,135.28258809,54.79405564
22.78726683,-3.60208268,17.27389635,0.01973635,0.46357790,1.21116332

>  <Name>
2esj_lig

>  <RI>
0

>  <Rbt.Current_Directory>
/home/itssahil/PROJECTS/Mol_Feturizer/New_Systems/rnas/2esj

>  <Rbt.Executable>
rbdock ($Id: //depot/dev/client3/rdock/2013.1/src/exe/rbdock.cxx#4 $)

>  <Rbt.Library>
libRbt.so (2013.1, Build901 2013/11/27)

>  <Rbt.Parameter_File>
/export/apps/rDock/src/rDock_2013.1_src/data/scripts/dock_solv.prm

>  <Rbt.Receptor>
prm/pocket_docking_6.prm

>  <SCORE>
-14.0007

>  <SCORE.INTER>
-9.59426

>  <SCORE.INTER.CONST>
1

>  <SCORE.INTER.POLAR>
-1.70403

>  <SCORE.INTER.ROT>
12

>  <SCORE.INTER.SOLV>
13.7532

>  <SCORE.INTER.VDW>
-16.9005

>  <SCORE.INTER.norm>
-0.184505

>  <SCORE.INTRA>
-4.40644

>  <SCORE.INTRA.DIHEDRAL>
-8.45485

>  <SCORE.INTRA.DIHEDRAL.0>
32.9766

>  <SCORE.INTRA.POLAR>
0

>  <SCORE.INTRA.POLAR.0>
0

>  <SCORE.INTRA.REPUL>
0

>  <SCORE.INTRA.REPUL.0>
0

>  <SCORE.INTRA.SOLV>
-1.53269

>  <SCORE.INTRA.SOLV.lig_0>
-114.358

>  <SCORE.INTRA.VDW>
0.587333

>  <SCORE.INTRA.VDW.0>
-8.24257

>  <SCORE.INTRA.norm>
-0.0847392

>  <SCORE.RESTR>
0

>  <SCORE.RESTR.CAVITY>
0

>  <SCORE.RESTR.norm>
0

>  <SCORE.SYSTEM>
0

>  <SCORE.SYSTEM.CONST>
0

>  <SCORE.SYSTEM.DIHEDRAL>
0

>  <SCORE.SYSTEM.SOLV>
0

>  <SCORE.SYSTEM.norm>
0

>  <SCORE.heavy>
52

>  <SCORE.norm>
-0.269244

>  <RMSD>
9.954

$$$$
2esj_lig
 OpenBabel11021811423D
libRbt.so/2013.1/901 2013/11/27
 52 56  0  0  0  0  0  0  0  0999 V2000
   28.1133   -4.4888   14.4590 C   0  0  2  0  0  0  0  0  0  0  0  0
   28.4064   -4.8391   15.8251 O   0  0  0  0  0  0  0  0  0  0  0  0
   26.3595   -7.4255   18.5470 C   0  0  2  0  0  0  0  0  0  0  0  0
   25.4495   -7.9975   19.5531 N   0  0  0  0  0  0  0  0  0  0  0  0
   24.5763   -5.3131   15.1342 C   0  0  1  0  0  0  0  0  0  0  0  0
   20.8659   -3.4303   14.9163 C   0  0  1  0  0  0  0  0  0  0  0  0
   18.0214   -4.6720   19.1942 C   0  0  1  0  0  0  0  0  0  0  0  0
   29.4717   -4.2730   13.7287 C   0  0  2  0  0  0  0  0  0  0  0  0
   30.3399   -5.4467   13.8170 N   0  0  0  0  0  0  0  0  0  0  0  0
   27.1062   -6.1636   19.1365 C   0  0  0  0  0  0  0  0  0  0  0  0
   24.2401   -4.5225   13.8692 C   0  0  2  0  0  0  0  0  0  0  0  0
   24.7920   -3.1882   13.8909 O   0  0  0  0  0  0  0  0  0  0  0  0
   20.6682   -2.4569   16.1632 C   0  0  2  0  0  0  0  0  0  0  0  0
   21.3816   -2.9721   17.3618 N   0  0  0  0  0  0  0  0  0  0  0  0
   19.1495   -4.6751   20.2192 C   0  0  1  0  0  0  0  0  0  0  0  0
   18.5860   -4.5980   21.5440 O   0  0  0  0  0  0  0  0  0  0  0  0
   30.2146   -3.0204   14.2925 C   0  0  0  0  0  0  0  0  0  0  0  0
   28.1217   -5.5991   18.0633 C   0  0  2  0  0  0  0  0  0  0  0  0
   28.8191   -4.4175   18.5813 N   0  0  0  0  0  0  0  0  0  0  0  0
   22.7400   -4.5698   13.9070 C   0  0  2  0  0  0  0  0  0  0  0  0
   22.2427   -3.6618   14.8571 O   0  0  0  0  0  0  0  0  0  0  0  0
   19.1121   -2.1904   16.3694 C   0  0  1  0  0  0  0  0  0  0  0  0
   18.5472   -1.7628   15.1257 O   0  0  0  0  0  0  0  0  0  0  0  0
   20.0708   -5.8880   20.1697 C   0  0  1  0  0  0  0  0  0  0  0  0
   20.9033   -5.8351   21.3335 O   0  0  0  0  0  0  0  0  0  0  0  0
   29.2624   -1.7908   14.2091 C   0  0  2  0  0  0  0  0  0  0  0  0
   29.9010   -0.6002   14.6343 O   0  0  0  0  0  0  0  0  0  0  0  0
   27.3800   -5.2542   16.7457 C   0  0  2  0  0  0  0  0  0  0  0  0
   22.3752   -5.9526   14.4854 C   0  0  2  0  0  0  0  0  0  0  0  0
   23.4820   -6.2191   15.3321 O   0  0  0  0  0  0  0  0  0  0  0  0
   18.3440   -3.5201   16.7579 C   0  0  2  0  0  0  0  0  0  0  0  0
   18.9075   -3.8976   18.0150 O   0  0  0  0  0  0  0  0  0  0  0  0
   19.3285   -7.2251   20.1378 C   0  0  2  0  0  0  0  0  0  0  0  0
   20.2927   -8.2286   19.7800 O   0  0  0  0  0  0  0  0  0  0  0  0
   27.9997   -2.0935   15.0535 C   0  0  2  0  0  0  0  0  0  0  0  0
   27.3533   -3.2574   14.4632 O   0  0  0  0  0  0  0  0  0  0  0  0
   26.5219   -6.4256   16.1693 C   0  0  2  0  0  0  0  0  0  0  0  0
   25.8142   -5.9716   14.9821 O   0  0  0  0  0  0  0  0  0  0  0  0
   22.2220   -7.0927   13.4792 C   0  0  0  0  0  0  0  0  0  0  0  0
   21.1220   -6.7643   12.6179 O   0  0  0  0  0  0  0  0  0  0  0  0
   18.8143   -4.5692   15.7688 C   0  0  1  0  0  0  0  0  0  0  0  0
   20.0929   -4.7210   15.1155 O   0  0  0  0  0  0  0  0  0  0  0  0
   18.1126   -7.1680   19.2199 C   0  0  2  0  0  0  0  0  0  0  0  0
   17.3652   -5.9544   19.0455 O   0  0  0  0  0  0  0  0  0  0  0  0
   26.9897   -0.9979   15.0082 C   0  0  0  0  0  0  0  0  0  0  0  0
   27.5482    0.1178   15.6588 O   0  0  0  0  0  0  0  0  0  0  0  0
   25.5604   -7.0024   17.2625 C   0  0  1  0  0  0  0  0  0  0  0  0
   24.9491   -8.1981   16.7094 O   0  0  0  0  0  0  0  0  0  0  0  0
   18.1283   -5.9670   15.8615 C   0  0  0  0  0  0  0  0  0  0  0  0
   18.4699   -6.8637   14.7372 N   0  0  0  0  0  0  0  0  0  0  0  0
   17.1773   -8.3551   19.0013 C   0  0  0  0  0  0  0  0  0  0  0  0
   16.0408   -7.9487   18.1940 O   0  0  0  0  0  0  0  0  0  0  0  0
  1  2  1  1  0  0  0
  1  8  1  0  0  0  0
  1 36  1  0  0  0  0
  3  4  1  1  0  0  0
  3 10  1  0  0  0  0
  3 47  1  0  0  0  0
  5 11  1  0  0  0  0
  5 30  1  0  0  0  0
  5 38  1  6  0  0  0
  6 21  1  1  0  0  0
  6 42  1  0  0  0  0
  7 15  1  0  0  0  0
  7 44  1  0  0  0  0
  7 32  1  6  0  0  0
  8  9  1  1  0  0  0
  8 17  1  0  0  0  0
 11 12  1  1  0  0  0
 11 20  1  0  0  0  0
 13  6  1  0  0  0  0
 13 14  1  1  0  0  0
 15 16  1  1  0  0  0
 15 24  1  0  0  0  0
 17 26  1  0  0  0  0
 18 10  1  0  0  0  0
 18 19  1  1  0  0  0
 20 21  1  1  0  0  0
 20 29  1  0  0  0  0
 22 13  1  0  0  0  0
 22 23  1  6  0  0  0
 24 25  1  1  0  0  0
 24 33  1  0  0  0  0
 26 27  1  1  0  0  0
 26 35  1  0  0  0  0
 28  2  1  6  0  0  0
 28 18  1  0  0  0  0
 29 30  1  0  0  0  0
 29 39  1  6  0  0  0
 31 22  1  0  0  0  0
 31 32  1  1  0  0  0
 31 41  1  0  0  0  0
 33 34  1  6  0  0  0
 33 43  1  0  0  0  0
 35 36  1  0  0  0  0
 35 45  1  6  0  0  0
 37 28  1  0  0  0  0
 37 38  1  6  0  0  0
 39 40  1  0  0  0  0
 41 42  1  0  0  0  0
 41 49  1  1  0  0  0
 43 44  1  0  0  0  0
 43 51  1  1  0  0  0
 45 46  1  0  0  0  0
 47 37  1  0  0  0  0
 47 48  1  6  0  0  0
 49 50  1  0  0  0  0
 51 52  1  0  0  0  0
M  END
>  <CHROM.1>
-172.89544251,160.97561718,175.58988998,-176.45700715,171.60301143,177.29681225
-63.33268463,147.44846214,-66.92190148,-85.14245601,170.52645945,173.85325856
23.19514775,-4.90578334,16.50839397,-0.35817258,-0.03634207,2.27556450

>  <Name>
2esj_lig

>  <RI>
1.62275e+07

>  <Rbt.Current_Directory>
/home/itssahil/PROJECTS/Mol_Feturizer/New_Systems/rnas/2esj

>  <Rbt.Executable>
rbdock ($Id: //depot/dev/client3/rdock/2013.1/src/exe/rbdock.cxx#4 $)

>  <Rbt.Library>
libRbt.so (2013.1, Build901 2013/11/27)

>  <Rbt.Parameter_File>
/export/apps/rDock/src/rDock_2013.1_src/data/scripts/dock_solv.prm

>  <Rbt.Receptor>
prm/pocket_docking_5.prm

>  <SCORE>
-16.2071

>  <SCORE.INTER>
-8.9795

>  <SCORE.INTER.CONST>
1

>  <SCORE.INTER.POLAR>
-1.32611

>  <SCORE.INTER.ROT>
12

>  <SCORE.INTER.SOLV>
12.3902

>  <SCORE.INTER.VDW>
-17.296

>  <SCORE.INTER.norm>
-0.172683

>  <SCORE.INTRA>
-7.22762

>  <SCORE.INTRA.DIHEDRAL>
-18.7397

>  <SCORE.INTRA.DIHEDRAL.0>
32.9766

>  <SCORE.INTRA.POLAR>
0

>  <SCORE.INTRA.POLAR.0>
0

>  <SCORE.INTRA.REPUL>
0

>  <SCORE.INTRA.REPUL.0>
0

>  <SCORE.INTRA.SOLV>
-1.27364

>  <SCORE.INTRA.SOLV.lig_0>
-114.358

>  <SCORE.INTRA.VDW>
2.77906

>  <SCORE.INTRA.VDW.0>
-8.24257

>  <SCORE.INTRA.norm>
-0.138993

>  <SCORE.RESTR>
0

>  <SCORE.RESTR.CAVITY>
0

>  <SCORE.RESTR.norm>
0

>  <SCORE.SYSTEM>
0

>  <SCORE.SYSTEM.CONST>
0

>  <SCORE.SYSTEM.DIHEDRAL>
0

>  <SCORE.SYSTEM.SOLV>
0

>  <SCORE.SYSTEM.norm>
0

>  <SCORE.heavy>
52

>  <SCORE.norm>
-0.311675

>  <RMSD>
9.989

$$$$
2esj_lig
 OpenBabel11021811423D
libRbt.so/2013.1/901 2013/11/27
 52 56  0  0  0  0  0  0  0  0999 V2000
   26.4677   -2.6381   14.1902 C   0  0  2  0  0  0  0  0  0  0  0  0
   25.6891   -2.7884   12.9877 O   0  0  0  0  0  0  0  0  0  0  0  0
   21.7541   -1.6084   11.7999 C   0  0  2  0  0  0  0  0  0  0  0  0
   20.2975   -1.4957   11.6183 N   0  0  0  0  0  0  0  0  0  0  0  0
   23.6769   -2.0769   15.8596 C   0  0  1  0  0  0  0  0  0  0  0  0
   22.3549   -4.2333   19.1674 C   0  0  1  0  0  0  0  0  0  0  0  0
   20.8162   -8.9002   17.8414 C   0  0  1  0  0  0  0  0  0  0  0  0
   27.9688   -2.6133   13.7766 C   0  0  2  0  0  0  0  0  0  0  0  0
   28.2575   -1.5597   12.8040 N   0  0  0  0  0  0  0  0  0  0  0  0
   22.2444   -3.0609   11.4160 C   0  0  0  0  0  0  0  0  0  0  0  0
   24.0103   -1.5377   17.2512 C   0  0  2  0  0  0  0  0  0  0  0  0
   25.3397   -1.9045   17.6798 O   0  0  0  0  0  0  0  0  0  0  0  0
   23.2283   -5.4875   19.6205 C   0  0  2  0  0  0  0  0  0  0  0  0
   23.8257   -6.1754   18.4454 N   0  0  0  0  0  0  0  0  0  0  0  0
   20.3202   -9.7319   19.0185 C   0  0  1  0  0  0  0  0  0  0  0  0
   19.0117  -10.2538   18.7116 O   0  0  0  0  0  0  0  0  0  0  0  0
   28.4124   -3.9977   13.2058 C   0  0  0  0  0  0  0  0  0  0  0  0
   23.8172   -3.1449   11.5604 C   0  0  2  0  0  0  0  0  0  0  0  0
   24.2973   -4.4889   11.2225 N   0  0  0  0  0  0  0  0  0  0  0  0
   22.9084   -2.1615   18.0579 C   0  0  2  0  0  0  0  0  0  0  0  0
   23.1785   -3.5205   18.2920 O   0  0  0  0  0  0  0  0  0  0  0  0
   22.3471   -6.4161   20.5673 C   0  0  1  0  0  0  0  0  0  0  0  0
   21.7872   -5.6133   21.6116 O   0  0  0  0  0  0  0  0  0  0  0  0
   21.2134  -10.9026   19.4108 C   0  0  1  0  0  0  0  0  0  0  0  0
   20.4844  -11.6934   20.3560 O   0  0  0  0  0  0  0  0  0  0  0  0
   28.0736   -5.1038   14.2486 C   0  0  2  0  0  0  0  0  0  0  0  0
   28.5207   -6.3799   13.8269 O   0  0  0  0  0  0  0  0  0  0  0  0
   24.2495   -2.7631   13.0000 C   0  0  2  0  0  0  0  0  0  0  0  0
   21.6699   -2.1799   17.1385 C   0  0  2  0  0  0  0  0  0  0  0  0
   22.2590   -2.2932   15.8528 O   0  0  0  0  0  0  0  0  0  0  0  0
   21.1134   -7.0321   19.7877 C   0  0  2  0  0  0  0  0  0  0  0  0
   21.7076   -7.8507   18.7791 O   0  0  0  0  0  0  0  0  0  0  0  0
   21.6321  -11.7813   18.2307 C   0  0  2  0  0  0  0  0  0  0  0  0
   22.6964  -12.6264   18.6972 O   0  0  0  0  0  0  0  0  0  0  0  0
   26.5448   -5.0883   14.4967 C   0  0  2  0  0  0  0  0  0  0  0  0
   26.2080   -3.7799   15.0404 O   0  0  0  0  0  0  0  0  0  0  0  0
   23.6970   -1.3861   13.4895 C   0  0  2  0  0  0  0  0  0  0  0  0
   24.0982   -1.1643   14.8702 O   0  0  0  0  0  0  0  0  0  0  0  0
   20.7745   -0.9420   17.1774 C   0  0  0  0  0  0  0  0  0  0  0  0
   20.1755   -0.8824   18.4802 O   0  0  0  0  0  0  0  0  0  0  0  0
   20.4753   -5.8722   19.0478 C   0  0  1  0  0  0  0  0  0  0  0  0
   21.0781   -4.6874   18.4843 O   0  0  0  0  0  0  0  0  0  0  0  0
   21.9870  -10.9431   17.0076 C   0  0  2  0  0  0  0  0  0  0  0  0
   21.3328   -9.6922   16.7445 O   0  0  0  0  0  0  0  0  0  0  0  0
   26.1087   -6.0808   15.5200 C   0  0  0  0  0  0  0  0  0  0  0  0
   26.0603   -7.3397   14.8930 O   0  0  0  0  0  0  0  0  0  0  0  0
   22.1458   -1.3054   13.2905 C   0  0  1  0  0  0  0  0  0  0  0  0
   21.7455    0.0596   13.5833 O   0  0  0  0  0  0  0  0  0  0  0  0
   19.1594   -6.1846   18.2709 C   0  0  0  0  0  0  0  0  0  0  0  0
   18.5984   -5.0098   17.5710 N   0  0  0  0  0  0  0  0  0  0  0  0
   22.4301  -11.5531   15.6797 C   0  0  0  0  0  0  0  0  0  0  0  0
   23.2742  -12.7095   15.9226 O   0  0  0  0  0  0  0  0  0  0  0  0
  1  2  1  6  0  0  0
  1  8  1  0  0  0  0
  1 36  1  0  0  0  0
  3  4  1  1  0  0  0
  3 10  1  0  0  0  0
  3 47  1  0  0  0  0
  5 11  1  0  0  0  0
  5 30  1  0  0  0  0
  5 38  1  6  0  0  0
  6 21  1  6  0  0  0
  6 42  1  0  0  0  0
  7 15  1  0  0  0  0
  7 44  1  0  0  0  0
  7 32  1  1  0  0  0
  8  9  1  6  0  0  0
  8 17  1  0  0  0  0
 11 12  1  1  0  0  0
 11 20  1  0  0  0  0
 13  6  1  0  0  0  0
 13 14  1  6  0  0  0
 15 16  1  6  0  0  0
 15 24  1  0  0  0  0
 17 26  1  0  0  0  0
 18 10  1  0  0  0  0
 18 19  1  1  0  0  0
 20 21  1  6  0  0  0
 20 29  1  0  0  0  0
 22 13  1  0  0  0  0
 22 23  1  1  0  0  0
 24 25  1  1  0  0  0
 24 33  1  0  0  0  0
 26 27  1  6  0  0  0
 26 35  1  0  0  0  0
 28  2  1  6  0  0  0
 28 18  1  0  0  0  0
 29 30  1  0  0  0  0
 29 39  1  6  0  0  0
 31 22  1  0  0  0  0
 31 32  1  6  0  0  0
 31 41  1  0  0  0  0
 33 34  1  1  0  0  0
 33 43  1  0  0  0  0
 35 36  1  0  0  0  0
 35 45  1  1  0  0  0
 37 28  1  0  0  0  0
 37 38  1  1  0  0  0
 39 40  1  0  0  0  0
 41 42  1  0  0  0  0
 41 49  1  6  0  0  0
 43 44  1  0  0  0  0
 43 51  1  6  0  0  0
 45 46  1  0  0  0  0
 47 37  1  0  0  0  0
 47 48  1  6  0  0  0
 49 50  1  0  0  0  0
 51 52  1  0  0  0  0
M  END
>  <CHROM.1>
-175.96201731,-170.75511375,-158.98431014,-60.63693820,171.99230086,-172.62172772
-66.47729702,170.35286439,-79.23270467,-60.42747191,-179.77857816,-37.74491796
23.10149049,-5.24055111,16.28883795,-1.09732511,-0.70883186,2.89054822

>  <Name>
2esj_lig

>  <RI>
2.18877e+07

>  <Rbt.Current_Directory>
/home/itssahil/PROJECTS/Mol_Feturizer/New_Systems/rnas/2esj

>  <Rbt.Executable>
rbdock ($Id: //depot/dev/client3/rdock/2013.1/src/exe/rbdock.cxx#4 $)

>  <Rbt.Library>
libRbt.so (2013.1, Build901 2013/11/27)

>  <Rbt.Parameter_File>
/export/apps/rDock/src/rDock_2013.1_src/data/scripts/dock_solv.prm

>  <Rbt.Receptor>
prm/pocket_docking_7.prm

>  <SCORE>
-14.5866

>  <SCORE.INTER>
-4.71176

>  <SCORE.INTER.CONST>
1

>  <SCORE.INTER.POLAR>
-0.783739

>  <SCORE.INTER.ROT>
12

>  <SCORE.INTER.SOLV>
11.3057

>  <SCORE.INTER.VDW>
-15.8973

>  <SCORE.INTER.norm>
-0.0906108

>  <SCORE.INTRA>
-9.87483

>  <SCORE.INTRA.DIHEDRAL>
-22.4922

>  <SCORE.INTRA.DIHEDRAL.0>
32.9766

>  <SCORE.INTRA.POLAR>
0

>  <SCORE.INTRA.POLAR.0>
0

>  <SCORE.INTRA.REPUL>
0

>  <SCORE.INTRA.REPUL.0>
0

>  <SCORE.INTRA.SOLV>
-3.02344

>  <SCORE.INTRA.SOLV.lig_0>
-114.358

>  <SCORE.INTRA.VDW>
2.88297

>  <SCORE.INTRA.VDW.0>
-8.24257

>  <SCORE.INTRA.norm>
-0.1899

>  <SCORE.RESTR>
0

>  <SCORE.RESTR.CAVITY>
0

>  <SCORE.RESTR.norm>
0

>  <SCORE.SYSTEM>
0

>  <SCORE.SYSTEM.CONST>
0

>  <SCORE.SYSTEM.DIHEDRAL>
0

>  <SCORE.SYSTEM.SOLV>
0

>  <SCORE.SYSTEM.norm>
0

>  <SCORE.heavy>
52

>  <SCORE.norm>
-0.280511

>  <RMSD>
9.989

$$$$
2esj_lig
 OpenBabel11021811423D
libRbt.so/2013.1/901 2013/11/27
 52 56  0  0  0  0  0  0  0  0999 V2000
   25.2786   -4.3386   12.3089 C   0  0  2  0  0  0  0  0  0  0  0  0
   25.2354   -4.1108   13.7306 O   0  0  0  0  0  0  0  0  0  0  0  0
   28.3066   -3.5015   16.6434 C   0  0  2  0  0  0  0  0  0  0  0  0
   29.4383   -2.9826   17.4291 N   0  0  0  0  0  0  0  0  0  0  0  0
   23.5168   -2.5683   15.3456 C   0  0  1  0  0  0  0  0  0  0  0  0
   20.1537   -5.0039   14.5006 C   0  0  1  0  0  0  0  0  0  0  0  0
   18.2213   -6.9436   18.6275 C   0  0  1  0  0  0  0  0  0  0  0  0
   25.0410   -2.9688   11.6073 C   0  0  2  0  0  0  0  0  0  0  0  0
   26.0094   -1.9565   12.0277 N   0  0  0  0  0  0  0  0  0  0  0  0
   28.7391   -3.7260   15.1400 C   0  0  0  0  0  0  0  0  0  0  0  0
   23.0737   -3.8509   16.0507 C   0  0  2  0  0  0  0  0  0  0  0  0
   23.5999   -5.0372   15.4173 O   0  0  0  0  0  0  0  0  0  0  0  0
   18.8158   -4.3327   15.0490 C   0  0  2  0  0  0  0  0  0  0  0  0
   19.0343   -3.7199   16.3861 N   0  0  0  0  0  0  0  0  0  0  0  0
   16.9531   -7.7810   18.5098 C   0  0  1  0  0  0  0  0  0  0  0  0
   17.1983   -9.0914   19.0587 O   0  0  0  0  0  0  0  0  0  0  0  0
   23.5896   -2.4541   11.8669 C   0  0  0  0  0  0  0  0  0  0  0  0
   27.5292   -4.3387   14.3261 C   0  0  2  0  0  0  0  0  0  0  0  0
   27.9006   -4.5443   12.9223 N   0  0  0  0  0  0  0  0  0  0  0  0
   21.5815   -3.7129   15.9581 C   0  0  2  0  0  0  0  0  0  0  0  0
   21.1379   -4.0250   14.6619 O   0  0  0  0  0  0  0  0  0  0  0  0
   17.6369   -5.4008   14.9831 C   0  0  1  0  0  0  0  0  0  0  0  0
   17.5843   -5.9509   13.6627 O   0  0  0  0  0  0  0  0  0  0  0  0
   15.7247   -7.2032   19.2021 C   0  0  1  0  0  0  0  0  0  0  0  0
   14.7152   -8.2185   19.1903 O   0  0  0  0  0  0  0  0  0  0  0  0
   22.5795   -3.5575   11.4335 C   0  0  2  0  0  0  0  0  0  0  0  0
   21.2373   -3.1260   11.5703 O   0  0  0  0  0  0  0  0  0  0  0  0
   26.2870   -3.4158   14.4265 C   0  0  2  0  0  0  0  0  0  0  0  0
   21.2868   -2.2055   16.1007 C   0  0  2  0  0  0  0  0  0  0  0  0
   22.4577   -1.6229   15.5504 O   0  0  0  0  0  0  0  0  0  0  0  0
   17.9109   -6.6251   15.9502 C   0  0  2  0  0  0  0  0  0  0  0  0
   17.9228   -6.0463   17.2560 O   0  0  0  0  0  0  0  0  0  0  0  0
   15.9809   -6.7598   20.6436 C   0  0  2  0  0  0  0  0  0  0  0  0
   14.8502   -5.9683   21.0434 O   0  0  0  0  0  0  0  0  0  0  0  0
   22.8577   -4.8300   12.2716 C   0  0  2  0  0  0  0  0  0  0  0  0
   24.2158   -5.2596   11.9680 O   0  0  0  0  0  0  0  0  0  0  0  0
   25.8752   -3.0546   15.8897 C   0  0  2  0  0  0  0  0  0  0  0  0
   24.7527   -2.1296   15.8647 O   0  0  0  0  0  0  0  0  0  0  0  0
   21.0822   -1.6831   17.5223 C   0  0  0  0  0  0  0  0  0  0  0  0
   22.3758   -1.5785   18.1349 O   0  0  0  0  0  0  0  0  0  0  0  0
   19.3416   -7.0495   15.6792 C   0  0  1  0  0  0  0  0  0  0  0  0
   20.4844   -6.2599   15.2856 O   0  0  0  0  0  0  0  0  0  0  0  0
   17.3232   -6.0498   20.7802 C   0  0  2  0  0  0  0  0  0  0  0  0
   18.4423   -6.4035   19.9530 O   0  0  0  0  0  0  0  0  0  0  0  0
   21.9755   -5.9749   11.9065 C   0  0  0  0  0  0  0  0  0  0  0  0
   22.5257   -6.5836   10.7633 O   0  0  0  0  0  0  0  0  0  0  0  0
   27.0994   -2.4977   16.6918 C   0  0  1  0  0  0  0  0  0  0  0  0
   26.6843   -2.3733   18.0779 O   0  0  0  0  0  0  0  0  0  0  0  0
   19.8436   -8.3186   16.4344 C   0  0  0  0  0  0  0  0  0  0  0  0
   20.9970   -8.9721   15.7807 N   0  0  0  0  0  0  0  0  0  0  0  0
   17.8472   -5.5071   22.1078 C   0  0  0  0  0  0  0  0  0  0  0  0
   18.4639   -4.2083   21.9036 O   0  0  0  0  0  0  0  0  0  0  0  0
  1  2  1  1  0  0  0
  1  8  1  0  0  0  0
  1 36  1  0  0  0  0
  3  4  1  1  0  0  0
  3 10  1  0  0  0  0
  3 47  1  0  0  0  0
  5 11  1  0  0  0  0
  5 30  1  0  0  0  0
  5 38  1  1  0  0  0
  6 21  1  1  0  0  0
  6 42  1  0  0  0  0
  7 15  1  0  0  0  0
  7 44  1  0  0  0  0
  7 32  1  6  0  0  0
  8  9  1  1  0  0  0
  8 17  1  0  0  0  0
 11 12  1  6  0  0  0
 11 20  1  0  0  0  0
 13  6  1  0  0  0  0
 13 14  1  1  0  0  0
 15 16  1  1  0  0  0
 15 24  1  0  0  0  0
 17 26  1  0  0  0  0
 18 10  1  0  0  0  0
 18 19  1  6  0  0  0
 20 21  1  6  0  0  0
 20 29  1  0  0  0  0
 22 13  1  0  0  0  0
 22 23  1  6  0  0  0
 24 25  1  1  0  0  0
 24 33  1  0  0  0  0
 26 27  1  1  0  0  0
 26 35  1  0  0  0  0
 28  2  1  1  0  0  0
 28 18  1  0  0  0  0
 29 30  1  0  0  0  0
 29 39  1  1  0  0  0
 31 22  1  0  0  0  0
 31 32  1  1  0  0  0
 31 41  1  0  0  0  0
 33 34  1  6  0  0  0
 33 43  1  0  0  0  0
 35 36  1  0  0  0  0
 35 45  1  6  0  0  0
 37 28  1  0  0  0  0
 37 38  1  6  0  0  0
 39 40  1  0  0  0  0
 41 42  1  0  0  0  0
 41 49  1  1  0  0  0
 43 44  1  0  0  0  0
 43 51  1  1  0  0  0
 45 46  1  0  0  0  0
 47 37  1  0  0  0  0
 47 48  1  1  0  0  0
 49 50  1  0  0  0  0
 51 52  1  0  0  0  0
M  END
>  <CHROM.1>
-71.57220374,53.79377723,71.37090365,-65.80672202,125.26003291,-66.64299861
76.74439502,-178.21711208,81.38394087,65.05748478,158.01288692,-138.66999962
21.66208297,-4.73612940,15.89938463,0.42520742,-0.42237049,-1.72805158

>  <Name>
2esj_lig

>  <RI>
0

>  <Rbt.Current_Directory>
/home/itssahil/PROJECTS/Mol_Feturizer/New_Systems/rnas/2esj

>  <Rbt.Executable>
rbdock ($Id: //depot/dev/client3/rdock/2013.1/src/exe/rbdock.cxx#4 $)

>  <Rbt.Library>
libRbt.so (2013.1, Build901 2013/11/27)

>  <Rbt.Parameter_File>
/export/apps/rDock/src/rDock_2013.1_src/data/scripts/dock_solv.prm

>  <Rbt.Receptor>
prm/pocket_docking_2.prm

>  <SCORE>
-1.57568

>  <SCORE.INTER>
-6.73434

>  <SCORE.INTER.CONST>
1

>  <SCORE.INTER.POLAR>
-0.29218

>  <SCORE.INTER.ROT>
12

>  <SCORE.INTER.SOLV>
13.6481

>  <SCORE.INTER.VDW>
-19.665

>  <SCORE.INTER.norm>
-0.129507

>  <SCORE.INTRA>
-0.208879

>  <SCORE.INTRA.DIHEDRAL>
-15.3646

>  <SCORE.INTRA.DIHEDRAL.0>
32.9766

>  <SCORE.INTRA.POLAR>
0

>  <SCORE.INTRA.POLAR.0>
0

>  <SCORE.INTRA.REPUL>
0.0194371

>  <SCORE.INTRA.REPUL.0>
0

>  <SCORE.INTRA.SOLV>
5.345

>  <SCORE.INTRA.SOLV.lig_0>
-114.358

>  <SCORE.INTRA.VDW>
4.70375

>  <SCORE.INTRA.VDW.0>
-8.24257

>  <SCORE.INTRA.norm>
-0.00401691

>  <SCORE.RESTR>
5.36754

>  <SCORE.RESTR.CAVITY>
5.36754

>  <SCORE.RESTR.norm>
0.103222

>  <SCORE.SYSTEM>
0

>  <SCORE.SYSTEM.CONST>
0

>  <SCORE.SYSTEM.DIHEDRAL>
0

>  <SCORE.SYSTEM.SOLV>
0

>  <SCORE.SYSTEM.norm>
0

>  <SCORE.heavy>
52

>  <SCORE.norm>
-0.0303015

>  <RMSD>
10.007

$$$$
2esj_lig
 OpenBabel11021811423D
libRbt.so/2013.1/901 2013/11/27
 52 56  0  0  0  0  0  0  0  0999 V2000
   27.5603   -3.9323   15.4493 C   0  0  2  0  0  0  0  0  0  0  0  0
   26.9358   -2.7113   15.8896 O   0  0  0  0  0  0  0  0  0  0  0  0
   28.3931    1.3029   16.1135 C   0  0  2  0  0  0  0  0  0  0  0  0
   28.9157    2.6450   15.8082 N   0  0  0  0  0  0  0  0  0  0  0  0
   24.2023   -1.4636   15.8532 C   0  0  1  0  0  0  0  0  0  0  0  0
   21.3554   -3.8014   17.5997 C   0  0  1  0  0  0  0  0  0  0  0  0
   21.8787   -8.3100   15.5130 C   0  0  1  0  0  0  0  0  0  0  0  0
   26.4511   -5.0220   15.3644 C   0  0  2  0  0  0  0  0  0  0  0  0
   25.3507   -4.6243   14.4867 N   0  0  0  0  0  0  0  0  0  0  0  0
   29.3526    0.1933   15.5258 C   0  0  0  0  0  0  0  0  0  0  0  0
   23.6192   -0.9068   17.1526 C   0  0  2  0  0  0  0  0  0  0  0  0
   24.4637   -1.1726   18.2934 O   0  0  0  0  0  0  0  0  0  0  0  0
   21.7710   -5.0061   18.5574 C   0  0  2  0  0  0  0  0  0  0  0  0
   23.1078   -5.5439   18.1906 N   0  0  0  0  0  0  0  0  0  0  0  0
   21.4313   -9.6316   16.1268 C   0  0  1  0  0  0  0  0  0  0  0  0
   20.8426  -10.4552   15.1004 O   0  0  0  0  0  0  0  0  0  0  0  0
   25.8987   -5.3667   16.7839 C   0  0  0  0  0  0  0  0  0  0  0  0
   28.8070   -1.2395   15.9143 C   0  0  2  0  0  0  0  0  0  0  0  0
   29.6735   -2.2893   15.3685 N   0  0  0  0  0  0  0  0  0  0  0  0
   22.2968   -1.6169   17.1858 C   0  0  2  0  0  0  0  0  0  0  0  0
   22.4651   -2.9522   17.5897 O   0  0  0  0  0  0  0  0  0  0  0  0
   20.5959   -6.0802   18.5768 C   0  0  1  0  0  0  0  0  0  0  0  0
   19.3656   -5.4146   18.8799 O   0  0  0  0  0  0  0  0  0  0  0  0
   22.5309  -10.4396   16.8053 C   0  0  1  0  0  0  0  0  0  0  0  0
   21.9855  -11.7293   17.1042 O   0  0  0  0  0  0  0  0  0  0  0  0
   27.0905   -5.7639   17.7046 C   0  0  2  0  0  0  0  0  0  0  0  0
   26.6519   -6.1645   18.9904 O   0  0  0  0  0  0  0  0  0  0  0  0
   27.3530   -1.4208   15.4061 C   0  0  2  0  0  0  0  0  0  0  0  0
   21.8386   -1.7260   15.7168 C   0  0  2  0  0  0  0  0  0  0  0  0
   23.0763   -1.7880   15.0260 O   0  0  0  0  0  0  0  0  0  0  0  0
   20.3905   -6.7386   17.1508 C   0  0  2  0  0  0  0  0  0  0  0  0
   21.6202   -7.4197   16.8972 O   0  0  0  0  0  0  0  0  0  0  0  0
   23.7893  -10.6068   15.9517 C   0  0  2  0  0  0  0  0  0  0  0  0
   24.8209  -11.0996   16.8221 O   0  0  0  0  0  0  0  0  0  0  0  0
   28.0670   -4.5642   17.7833 C   0  0  2  0  0  0  0  0  0  0  0  0
   28.5513   -4.3114   16.4333 O   0  0  0  0  0  0  0  0  0  0  0  0
   26.3735   -0.2886   15.8530 C   0  0  2  0  0  0  0  0  0  0  0  0
   25.0642   -0.5169   15.2615 O   0  0  0  0  0  0  0  0  0  0  0  0
   21.0133   -0.5606   15.1726 C   0  0  0  0  0  0  0  0  0  0  0  0
   20.6298   -0.8923   13.8300 O   0  0  0  0  0  0  0  0  0  0  0  0
   20.3535   -5.5843   16.1677 C   0  0  1  0  0  0  0  0  0  0  0  0
   21.0319   -4.3104   16.2071 O   0  0  0  0  0  0  0  0  0  0  0  0
   24.1467   -9.3158   15.2236 C   0  0  2  0  0  0  0  0  0  0  0  0
   23.1315   -8.3967   14.7918 O   0  0  0  0  0  0  0  0  0  0  0  0
   29.2776   -4.8489   18.6053 C   0  0  0  0  0  0  0  0  0  0  0  0
   29.9716   -5.9032   17.9833 O   0  0  0  0  0  0  0  0  0  0  0  0
   26.9565    1.1223   15.5044 C   0  0  1  0  0  0  0  0  0  0  0  0
   26.0884    2.1101   16.1209 O   0  0  0  0  0  0  0  0  0  0  0  0
   20.0544   -5.9487   14.6809 C   0  0  0  0  0  0  0  0  0  0  0  0
   18.6881   -6.4710   14.4684 N   0  0  0  0  0  0  0  0  0  0  0  0
   25.3495   -9.1909   14.2911 C   0  0  0  0  0  0  0  0  0  0  0  0
   24.9529   -9.4934   12.9273 O   0  0  0  0  0  0  0  0  0  0  0  0
  1  2  1  1  0  0  0
  1  8  1  0  0  0  0
  1 36  1  0  0  0  0
  3  4  1  6  0  0  0
  3 10  1  0  0  0  0
  3 47  1  0  0  0  0
  5 11  1  0  0  0  0
  5 30  1  0  0  0  0
  5 38  1  6  0  0  0
  6 21  1  6  0  0  0
  6 42  1  0  0  0  0
  7 15  1  0  0  0  0
  7 44  1  0  0  0  0
  7 32  1  1  0  0  0
  8  9  1  6  0  0  0
  8 17  1  0  0  0  0
 11 12  1  1  0  0  0
 11 20  1  0  0  0  0
 13  6  1  0  0  0  0
 13 14  1  6  0  0  0
 15 16  1  6  0  0  0
 15 24  1  0  0  0  0
 17 26  1  0  0  0  0
 18 10  1  0  0  0  0
 18 19  1  6  0  0  0
 20 21  1  6  0  0  0
 20 29  1  0  0  0  0
 22 13  1  0  0  0  0
 22 23  1  6  0  0  0
 24 25  1  6  0  0  0
 24 33  1  0  0  0  0
 26 27  1  1  0  0  0
 26 35  1  0  0  0  0
 28  2  1  1  0  0  0
 28 18  1  0  0  0  0
 29 30  1  0  0  0  0
 29 39  1  6  0  0  0
 31 22  1  0  0  0  0
 31 32  1  6  0  0  0
 31 41  1  0  0  0  0
 33 34  1  1  0  0  0
 33 43  1  0  0  0  0
 35 36  1  0  0  0  0
 35 45  1  1  0  0  0
 37 28  1  0  0  0  0
 37 38  1  6  0  0  0
 39 40  1  0  0  0  0
 41 42  1  0  0  0  0
 41 49  1  6  0  0  0
 43 44  1  0  0  0  0
 43 51  1  6  0  0  0
 45 46  1  0  0  0  0
 47 37  1  0  0  0  0
 47 48  1  1  0  0  0
 49 50  1  0  0  0  0
 51 52  1  0  0  0  0
M  END
>  <CHROM.1>
-144.21593176,73.96953590,-160.64367132,-93.04022149,-175.95653157,-64.70490564
-176.80475214,178.41242448,62.19700927,79.84576489,66.35996339,91.59205833
24.32433733,-4.56585469,16.27054828,-1.01804948,0.02894631,3.11702173

>  <Name>
2esj_lig

>  <RI>
0

>  <Rbt.Current_Directory>
/home/itssahil/PROJECTS/Mol_Feturizer/New_Systems/rnas/2esj

>  <Rbt.Executable>
rbdock ($Id: //depot/dev/client3/rdock/2013.1/src/exe/rbdock.cxx#4 $)

>  <Rbt.Library>
libRbt.so (2013.1, Build901 2013/11/27)

>  <Rbt.Parameter_File>
/export/apps/rDock/src/rDock_2013.1_src/data/scripts/dock_solv.prm

>  <Rbt.Receptor>
prm/pocket_docking_8.prm

>  <SCORE>
-5.30042

>  <SCORE.INTER>
-2.69235

>  <SCORE.INTER.CONST>
1

>  <SCORE.INTER.POLAR>
-0.824621

>  <SCORE.INTER.ROT>
12

>  <SCORE.INTER.SOLV>
7.7048

>  <SCORE.INTER.VDW>
-13.2144

>  <SCORE.INTER.norm>
-0.051776

>  <SCORE.INTRA>
-2.60807

>  <SCORE.INTRA.DIHEDRAL>
-13.6028

>  <SCORE.INTRA.DIHEDRAL.0>
32.9766

>  <SCORE.INTRA.POLAR>
0

>  <SCORE.INTRA.POLAR.0>
0

>  <SCORE.INTRA.REPUL>
0

>  <SCORE.INTRA.REPUL.0>
0

>  <SCORE.INTRA.SOLV>
1.22932

>  <SCORE.INTRA.SOLV.lig_0>
-114.358

>  <SCORE.INTRA.VDW>
3.57865

>  <SCORE.INTRA.VDW.0>
-8.24257

>  <SCORE.INTRA.norm>
-0.0501552

>  <SCORE.RESTR>
0

>  <SCORE.RESTR.CAVITY>
0

>  <SCORE.RESTR.norm>
0

>  <SCORE.SYSTEM>
0

>  <SCORE.SYSTEM.CONST>
0

>  <SCORE.SYSTEM.DIHEDRAL>
0

>  <SCORE.SYSTEM.SOLV>
0

>  <SCORE.SYSTEM.norm>
0

>  <SCORE.heavy>
52

>  <SCORE.norm>
-0.101931

>  <RMSD>
10.016

$$$$
2esj_lig
 OpenBabel11021811423D
libRbt.so/2013.1/901 2013/11/27
 52 56  0  0  0  0  0  0  0  0999 V2000
   20.8425   -5.2515   11.0820 C   0  0  2  0  0  0  0  0  0  0  0  0
   20.0918   -4.4765   12.0363 O   0  0  0  0  0  0  0  0  0  0  0  0
   15.8738   -3.8368   12.3310 C   0  0  2  0  0  0  0  0  0  0  0  0
   14.4226   -3.9901   12.5259 N   0  0  0  0  0  0  0  0  0  0  0  0
   19.1325   -5.4430   15.1397 C   0  0  1  0  0  0  0  0  0  0  0  0
   21.3397   -8.5188   16.5010 C   0  0  1  0  0  0  0  0  0  0  0  0
   21.2713  -13.4044   17.5332 C   0  0  1  0  0  0  0  0  0  0  0  0
   21.0392   -6.6739   11.6846 C   0  0  2  0  0  0  0  0  0  0  0  0
   19.7676   -7.3111   12.0257 N   0  0  0  0  0  0  0  0  0  0  0  0
   16.3971   -4.8767   11.2622 C   0  0  0  0  0  0  0  0  0  0  0  0
   20.2619   -5.5058   16.1688 C   0  0  2  0  0  0  0  0  0  0  0  0
   21.5605   -5.6467   15.5530 O   0  0  0  0  0  0  0  0  0  0  0  0
   21.4998   -9.5262   15.2760 C   0  0  2  0  0  0  0  0  0  0  0  0
   20.2717  -10.3441   15.0925 N   0  0  0  0  0  0  0  0  0  0  0  0
   22.5500  -14.2115   17.3407 C   0  0  1  0  0  0  0  0  0  0  0  0
   22.8598  -14.9072   18.5648 O   0  0  0  0  0  0  0  0  0  0  0  0
   21.9613   -6.6230   12.9440 C   0  0  0  0  0  0  0  0  0  0  0  0
   17.9450   -4.6575   11.0229 C   0  0  2  0  0  0  0  0  0  0  0  0
   18.4592   -5.6205   10.0436 N   0  0  0  0  0  0  0  0  0  0  0  0
   19.8304   -6.6953   16.9768 C   0  0  2  0  0  0  0  0  0  0  0  0
   20.1118   -7.8869   16.2874 O   0  0  0  0  0  0  0  0  0  0  0  0
   22.8421  -10.3613   15.4654 C   0  0  1  0  0  0  0  0  0  0  0  0
   23.9240   -9.4525   15.6944 O   0  0  0  0  0  0  0  0  0  0  0  0
   22.5093  -15.2369   16.2141 C   0  0  1  0  0  0  0  0  0  0  0  0
   23.6837  -16.0468   16.3360 O   0  0  0  0  0  0  0  0  0  0  0  0
   23.2975   -5.9204   12.5612 C   0  0  2  0  0  0  0  0  0  0  0  0
   24.2144   -5.9086   13.6406 O   0  0  0  0  0  0  0  0  0  0  0  0
   18.7218   -4.7795   12.3596 C   0  0  2  0  0  0  0  0  0  0  0  0
   18.2893   -6.6423   17.0172 C   0  0  2  0  0  0  0  0  0  0  0  0
   17.9837   -6.0110   15.7839 O   0  0  0  0  0  0  0  0  0  0  0  0
   22.7732  -11.2832   16.7517 C   0  0  2  0  0  0  0  0  0  0  0  0
   21.7096  -12.1955   16.4742 O   0  0  0  0  0  0  0  0  0  0  0  0
   21.2702  -16.1336   16.2410 C   0  0  2  0  0  0  0  0  0  0  0  0
   21.2182  -16.8109   14.9748 O   0  0  0  0  0  0  0  0  0  0  0  0
   22.9723   -4.4868   12.0733 C   0  0  2  0  0  0  0  0  0  0  0  0
   22.1271   -4.6124   10.8940 O   0  0  0  0  0  0  0  0  0  0  0  0
   18.1779   -3.8621   13.5013 C   0  0  2  0  0  0  0  0  0  0  0  0
   18.9266   -4.1112   14.7236 O   0  0  0  0  0  0  0  0  0  0  0  0
   17.6651   -5.8450   18.1619 C   0  0  0  0  0  0  0  0  0  0  0  0
   16.2468   -6.0589   18.1148 O   0  0  0  0  0  0  0  0  0  0  0  0
   22.2648  -10.3917   17.8683 C   0  0  1  0  0  0  0  0  0  0  0  0
   21.3566   -9.2704   17.8193 O   0  0  0  0  0  0  0  0  0  0  0  0
   20.0131  -15.3403   16.5800 C   0  0  2  0  0  0  0  0  0  0  0  0
   20.0628  -14.1979   17.4485 O   0  0  0  0  0  0  0  0  0  0  0  0
   24.1797   -3.7315   11.6324 C   0  0  0  0  0  0  0  0  0  0  0  0
   24.7677   -4.4543   10.5779 O   0  0  0  0  0  0  0  0  0  0  0  0
   16.6354   -4.0583   13.6868 C   0  0  1  0  0  0  0  0  0  0  0  0
   16.1819   -3.0411   14.6190 O   0  0  0  0  0  0  0  0  0  0  0  0
   22.1992  -11.0299   19.2900 C   0  0  0  0  0  0  0  0  0  0  0  0
   21.7044  -10.1007   20.3277 N   0  0  0  0  0  0  0  0  0  0  0  0
   18.6296  -15.9775   16.6873 C   0  0  0  0  0  0  0  0  0  0  0  0
   18.0509  -16.1316   15.3643 O   0  0  0  0  0  0  0  0  0  0  0  0
  1  2  1  1  0  0  0
  1  8  1  0  0  0  0
  1 36  1  0  0  0  0
  3  4  1  1  0  0  0
  3 10  1  0  0  0  0
  3 47  1  0  0  0  0
  5 11  1  0  0  0  0
  5 30  1  0  0  0  0
  5 38  1  1  0  0  0
  6 21  1  6  0  0  0
  6 42  1  0  0  0  0
  7 15  1  0  0  0  0
  7 44  1  0  0  0  0
  7 32  1  6  0  0  0
  8  9  1  1  0  0  0
  8 17  1  0  0  0  0
 11 12  1  6  0  0  0
 11 20  1  0  0  0  0
 13  6  1  0  0  0  0
 13 14  1  1  0  0  0
 15 16  1  1  0  0  0
 15 24  1  0  0  0  0
 17 26  1  0  0  0  0
 18 10  1  0  0  0  0
 18 19  1  6  0  0  0
 20 21  1  6  0  0  0
 20 29  1  0  0  0  0
 22 13  1  0  0  0  0
 22 23  1  1  0  0  0
 24 25  1  1  0  0  0
 24 33  1  0  0  0  0
 26 27  1  1  0  0  0
 26 35  1  0  0  0  0
 28  2  1  6  0  0  0
 28 18  1  0  0  0  0
 29 30  1  0  0  0  0
 29 39  1  1  0  0  0
 31 22  1  0  0  0  0
 31 32  1  6  0  0  0
 31 41  1  0  0  0  0
 33 34  1  6  0  0  0
 33 43  1  0  0  0  0
 35 36  1  0  0  0  0
 35 45  1  6  0  0  0
 37 28  1  0  0  0  0
 37 38  1  1  0  0  0
 39 40  1  0  0  0  0
 41 42  1  0  0  0  0
 41 49  1  1  0  0  0
 43 44  1  0  0  0  0
 43 51  1  1  0  0  0
 45 46  1  0  0  0  0
 47 37  1  0  0  0  0
 47 48  1  1  0  0  0
 49 50  1  0  0  0  0
 51 52  1  0  0  0  0
M  END
>  <CHROM.1>
-66.75321817,163.02821489,-163.04634743,-68.63448581,91.28459330,-59.91601372
-172.91794032,178.53575989,59.55870588,-47.99098085,179.57856874,-81.57548721
20.44259315,-8.46766751,14.94769079,-1.79759228,-0.38056370,2.65258335

>  <Name>
2esj_lig

>  <RI>
2.18877e+07

>  <Rbt.Current_Directory>
/home/itssahil/PROJECTS/Mol_Feturizer/New_Systems/rnas/2esj

>  <Rbt.Executable>
rbdock ($Id: //depot/dev/client3/rdock/2013.1/src/exe/rbdock.cxx#4 $)

>  <Rbt.Library>
libRbt.so (2013.1, Build901 2013/11/27)

>  <Rbt.Parameter_File>
/export/apps/rDock/src/rDock_2013.1_src/data/scripts/dock_solv.prm

>  <Rbt.Receptor>
prm/pocket_docking_7.prm

>  <SCORE>
-20.0487

>  <SCORE.INTER>
-15.3744

>  <SCORE.INTER.CONST>
1

>  <SCORE.INTER.POLAR>
-2.76835

>  <SCORE.INTER.ROT>
12

>  <SCORE.INTER.SOLV>
17.4865

>  <SCORE.INTER.VDW>
-18.4506

>  <SCORE.INTER.norm>
-0.295661

>  <SCORE.INTRA>
-4.6743

>  <SCORE.INTRA.DIHEDRAL>
-19.7932

>  <SCORE.INTRA.DIHEDRAL.0>
32.9766

>  <SCORE.INTRA.POLAR>
0

>  <SCORE.INTRA.POLAR.0>
0

>  <SCORE.INTRA.REPUL>
0

>  <SCORE.INTRA.REPUL.0>
0

>  <SCORE.INTRA.SOLV>
2.41995

>  <SCORE.INTRA.SOLV.lig_0>
-114.358

>  <SCORE.INTRA.VDW>
4.01232

>  <SCORE.INTRA.VDW.0>
-8.24257

>  <SCORE.INTRA.norm>
-0.0898904

>  <SCORE.RESTR>
0

>  <SCORE.RESTR.CAVITY>
0

>  <SCORE.RESTR.norm>
0

>  <SCORE.SYSTEM>
0

>  <SCORE.SYSTEM.CONST>
0

>  <SCORE.SYSTEM.DIHEDRAL>
0

>  <SCORE.SYSTEM.SOLV>
0

>  <SCORE.SYSTEM.norm>
0

>  <SCORE.heavy>
52

>  <SCORE.norm>
-0.385551

>  <RMSD>
10.026

$$$$
2esj_lig
 OpenBabel11021811423D
libRbt.so/2013.1/901 2013/11/27
 52 56  0  0  0  0  0  0  0  0999 V2000
   24.8581   -1.7783   17.6688 C   0  0  2  0  0  0  0  0  0  0  0  0
   25.7590   -0.9094   16.9559 O   0  0  0  0  0  0  0  0  0  0  0  0
   25.6999    0.9070   13.0849 C   0  0  2  0  0  0  0  0  0  0  0  0
   25.7754    1.1769   11.6396 N   0  0  0  0  0  0  0  0  0  0  0  0
   23.5725   -2.6840   14.9064 C   0  0  1  0  0  0  0  0  0  0  0  0
   23.0727   -6.4180   15.5554 C   0  0  1  0  0  0  0  0  0  0  0  0
   22.6806  -11.6992   14.8059 C   0  0  1  0  0  0  0  0  0  0  0  0
   25.1250   -1.5834   19.1906 C   0  0  2  0  0  0  0  0  0  0  0  0
   24.9789   -0.1880   19.6037 N   0  0  0  0  0  0  0  0  0  0  0  0
   27.0635    0.2976   13.6016 C   0  0  0  0  0  0  0  0  0  0  0  0
   22.3128   -3.4939   15.2162 C   0  0  2  0  0  0  0  0  0  0  0  0
   22.3003   -3.9961   16.5700 O   0  0  0  0  0  0  0  0  0  0  0  0
   24.1635   -7.5723   15.4179 C   0  0  2  0  0  0  0  0  0  0  0  0
   24.2478   -8.0641   14.0172 N   0  0  0  0  0  0  0  0  0  0  0  0
   21.1764  -11.8773   14.9765 C   0  0  1  0  0  0  0  0  0  0  0  0
   20.7438  -13.0157   14.2050 O   0  0  0  0  0  0  0  0  0  0  0  0
   26.5449   -2.1054   19.5786 C   0  0  0  0  0  0  0  0  0  0  0  0
   26.9840    0.0700   15.1647 C   0  0  2  0  0  0  0  0  0  0  0  0
   28.2341   -0.5084   15.6682 N   0  0  0  0  0  0  0  0  0  0  0  0
   22.4072   -4.5606   14.1638 C   0  0  2  0  0  0  0  0  0  0  0  0
   23.3659   -5.5230   14.5231 O   0  0  0  0  0  0  0  0  0  0  0  0
   23.8690   -8.6945   16.5083 C   0  0  1  0  0  0  0  0  0  0  0  0
   23.7512   -8.0725   17.7921 O   0  0  0  0  0  0  0  0  0  0  0  0
   20.7027  -12.0740   16.4115 C   0  0  1  0  0  0  0  0  0  0  0  0
   19.3241  -12.4565   16.3537 O   0  0  0  0  0  0  0  0  0  0  0  0
   26.6835   -3.5835   19.1080 C   0  0  2  0  0  0  0  0  0  0  0  0
   27.9237   -4.1461   19.4974 O   0  0  0  0  0  0  0  0  0  0  0  0
   25.7839   -0.8467   15.5177 C   0  0  2  0  0  0  0  0  0  0  0  0
   23.0129   -3.8759   12.9212 C   0  0  2  0  0  0  0  0  0  0  0  0
   23.8203   -2.8660   13.5054 O   0  0  0  0  0  0  0  0  0  0  0  0
   22.4789   -9.4067   16.2445 C   0  0  2  0  0  0  0  0  0  0  0  0
   22.6443  -10.0424   14.9761 O   0  0  0  0  0  0  0  0  0  0  0  0
   21.4913  -13.1350   17.1811 C   0  0  2  0  0  0  0  0  0  0  0  0
   21.1494  -12.9837   18.5685 O   0  0  0  0  0  0  0  0  0  0  0  0
   26.4955   -3.6257   17.5711 C   0  0  2  0  0  0  0  0  0  0  0  0
   25.1515   -3.1427   17.2862 O   0  0  0  0  0  0  0  0  0  0  0  0
   24.4174   -0.3646   14.9336 C   0  0  2  0  0  0  0  0  0  0  0  0
   23.3809   -1.3320   15.2593 O   0  0  0  0  0  0  0  0  0  0  0  0
   22.0248   -3.2337   11.9481 C   0  0  0  0  0  0  0  0  0  0  0  0
   22.7821   -2.7023   10.8509 O   0  0  0  0  0  0  0  0  0  0  0  0
   21.4822   -8.2873   16.0126 C   0  0  1  0  0  0  0  0  0  0  0  0
   21.6716   -6.9850   15.4188 O   0  0  0  0  0  0  0  0  0  0  0  0
   22.9849  -13.0427   16.8896 C   0  0  2  0  0  0  0  0  0  0  0  0
   23.4702  -12.6091   15.6096 O   0  0  0  0  0  0  0  0  0  0  0  0
   26.5610   -5.0061   17.0119 C   0  0  0  0  0  0  0  0  0  0  0  0
   25.5246   -5.7510   17.6045 O   0  0  0  0  0  0  0  0  0  0  0  0
   24.5323   -0.0969   13.3949 C   0  0  1  0  0  0  0  0  0  0  0  0
   23.2904    0.5269   12.9734 O   0  0  0  0  0  0  0  0  0  0  0  0
   19.9927   -8.7119   15.8282 C   0  0  0  0  0  0  0  0  0  0  0  0
   19.0912   -8.1505   16.8561 N   0  0  0  0  0  0  0  0  0  0  0  0
   24.0147  -13.9835   17.5110 C   0  0  0  0  0  0  0  0  0  0  0  0
   23.6944  -15.3598   17.1762 O   0  0  0  0  0  0  0  0  0  0  0  0
  1  2  1  6  0  0  0
  1  8  1  0  0  0  0
  1 36  1  0  0  0  0
  3  4  1  6  0  0  0
  3 10  1  0  0  0  0
  3 47  1  0  0  0  0
  5 11  1  0  0  0  0
  5 30  1  0  0  0  0
  5 38  1  6  0  0  0
  6 21  1  6  0  0  0
  6 42  1  0  0  0  0
  7 15  1  0  0  0  0
  7 44  1  0  0  0  0
  7 32  1  1  0  0  0
  8  9  1  6  0  0  0
  8 17  1  0  0  0  0
 11 12  1  1  0  0  0
 11 20  1  0  0  0  0
 13  6  1  0  0  0  0
 13 14  1  6  0  0  0
 15 16  1  6  0  0  0
 15 24  1  0  0  0  0
 17 26  1  0  0  0  0
 18 10  1  0  0  0  0
 18 19  1  6  0  0  0
 20 21  1  1  0  0  0
 20 29  1  0  0  0  0
 22 13  1  0  0  0  0
 22 23  1  1  0  0  0
 24 25  1  6  0  0  0
 24 33  1  0  0  0  0
 26 27  1  6  0  0  0
 26 35  1  0  0  0  0
 28  2  1  1  0  0  0
 28 18  1  0  0  0  0
 29 30  1  0  0  0  0
 29 39  1  6  0  0  0
 31 22  1  0  0  0  0
 31 32  1  6  0  0  0
 31 41  1  0  0  0  0
 33 34  1  1  0  0  0
 33 43  1  0  0  0  0
 35 36  1  0  0  0  0
 35 45  1  1  0  0  0
 37 28  1  0  0  0  0
 37 38  1  6  0  0  0
 39 40  1  0  0  0  0
 41 42  1  0  0  0  0
 41 49  1  6  0  0  0
 43 44  1  0  0  0  0
 43 51  1  6  0  0  0
 45 46  1  0  0  0  0
 47 37  1  0  0  0  0
 47 48  1  1  0  0  0
 49 50  1  0  0  0  0
 51 52  1  0  0  0  0
M  END
>  <CHROM.1>
179.57461375,-174.48608378,164.93854651,75.80746260,72.55907461,-173.73232545
-177.94388705,112.49050138,60.54141139,-54.12758743,118.98641206,58.15941586
23.71572221,-5.77693677,15.79581275,-1.07922245,0.91199287,2.64313533

>  <Name>
2esj_lig

>  <RI>
0

>  <Rbt.Current_Directory>
/home/itssahil/PROJECTS/Mol_Feturizer/New_Systems/rnas/2esj

>  <Rbt.Executable>
rbdock ($Id: //depot/dev/client3/rdock/2013.1/src/exe/rbdock.cxx#4 $)

>  <Rbt.Library>
libRbt.so (2013.1, Build901 2013/11/27)

>  <Rbt.Parameter_File>
/export/apps/rDock/src/rDock_2013.1_src/data/scripts/dock_solv.prm

>  <Rbt.Receptor>
prm/pocket_docking_6.prm

>  <SCORE>
-10.5272

>  <SCORE.INTER>
-1.31391

>  <SCORE.INTER.CONST>
1

>  <SCORE.INTER.POLAR>
-1.00992

>  <SCORE.INTER.ROT>
12

>  <SCORE.INTER.SOLV>
7.61452

>  <SCORE.INTER.VDW>
-11.6477

>  <SCORE.INTER.norm>
-0.0252674

>  <SCORE.INTRA>
-9.21329

>  <SCORE.INTRA.DIHEDRAL>
-17.7778

>  <SCORE.INTRA.DIHEDRAL.0>
32.9766

>  <SCORE.INTRA.POLAR>
0

>  <SCORE.INTRA.POLAR.0>
0

>  <SCORE.INTRA.REPUL>
0

>  <SCORE.INTRA.REPUL.0>
0

>  <SCORE.INTRA.SOLV>
-2.40101

>  <SCORE.INTRA.SOLV.lig_0>
-114.358

>  <SCORE.INTRA.VDW>
0.876135

>  <SCORE.INTRA.VDW.0>
-8.24257

>  <SCORE.INTRA.norm>
-0.177179

>  <SCORE.RESTR>
0

>  <SCORE.RESTR.CAVITY>
0

>  <SCORE.RESTR.norm>
0

>  <SCORE.SYSTEM>
0

>  <SCORE.SYSTEM.CONST>
0

>  <SCORE.SYSTEM.DIHEDRAL>
0

>  <SCORE.SYSTEM.SOLV>
0

>  <SCORE.SYSTEM.norm>
0

>  <SCORE.heavy>
52

>  <SCORE.norm>
-0.202446

>  <RMSD>
10.061

$$$$
2esj_lig
 OpenBabel11021811423D
libRbt.so/2013.1/901 2013/11/27
 52 56  0  0  0  0  0  0  0  0999 V2000
   25.2145   -2.0356   14.1346 C   0  0  2  0  0  0  0  0  0  0  0  0
   24.7225   -2.7397   12.9783 O   0  0  0  0  0  0  0  0  0  0  0  0
   22.2781   -6.2187   12.5207 C   0  0  2  0  0  0  0  0  0  0  0  0
   21.7693   -7.5974   12.4323 N   0  0  0  0  0  0  0  0  0  0  0  0
   22.9548   -4.2614   16.5363 C   0  0  1  0  0  0  0  0  0  0  0  0
   20.4081   -4.2279   19.5776 C   0  0  1  0  0  0  0  0  0  0  0  0
   17.7550   -8.3408   18.6520 C   0  0  1  0  0  0  0  0  0  0  0  0
   25.6383   -0.6108   13.6704 C   0  0  2  0  0  0  0  0  0  0  0  0
   24.5433    0.1074   13.0190 N   0  0  0  0  0  0  0  0  0  0  0  0
   23.4721   -6.0081   11.5071 C   0  0  0  0  0  0  0  0  0  0  0  0
   23.4761   -3.4207   17.7025 C   0  0  2  0  0  0  0  0  0  0  0  0
   24.4294   -4.1385   18.5158 O   0  0  0  0  0  0  0  0  0  0  0  0
   20.3756   -5.3422   20.7171 C   0  0  2  0  0  0  0  0  0  0  0  0
   21.0189   -6.5999   20.2533 N   0  0  0  0  0  0  0  0  0  0  0  0
   18.1303   -9.6364   19.3621 C   0  0  1  0  0  0  0  0  0  0  0  0
   17.1311  -10.6370   19.0812 O   0  0  0  0  0  0  0  0  0  0  0  0
   26.8704   -0.6800   12.7133 C   0  0  0  0  0  0  0  0  0  0  0  0
   23.9658   -4.5070   11.5739 C   0  0  2  0  0  0  0  0  0  0  0  0
   25.0843   -4.2880   10.6509 N   0  0  0  0  0  0  0  0  0  0  0  0
   22.1886   -3.0963   18.4034 C   0  0  2  0  0  0  0  0  0  0  0  0
   21.7334   -4.2061   19.1352 O   0  0  0  0  0  0  0  0  0  0  0  0
   18.8802   -5.5043   21.2392 C   0  0  1  0  0  0  0  0  0  0  0  0
   18.3699   -4.2136   21.5891 O   0  0  0  0  0  0  0  0  0  0  0  0
   19.4910  -10.2126   18.9892 C   0  0  1  0  0  0  0  0  0  0  0  0
   19.5663  -11.5237   19.5595 O   0  0  0  0  0  0  0  0  0  0  0  0
   28.0127   -1.4685   13.4199 C   0  0  2  0  0  0  0  0  0  0  0  0
   29.1918   -1.5033   12.6358 O   0  0  0  0  0  0  0  0  0  0  0  0
   24.3801   -4.1376   13.0219 C   0  0  2  0  0  0  0  0  0  0  0  0
   21.1337   -2.9242   17.2912 C   0  0  2  0  0  0  0  0  0  0  0  0
   21.6207   -3.7981   16.2852 O   0  0  0  0  0  0  0  0  0  0  0  0
   17.9257   -6.0513   20.0995 C   0  0  2  0  0  0  0  0  0  0  0  0
   18.4424   -7.3491   19.8006 O   0  0  0  0  0  0  0  0  0  0  0  0
   19.7306  -10.3013   17.4810 C   0  0  2  0  0  0  0  0  0  0  0  0
   21.1327  -10.5554   17.2960 O   0  0  0  0  0  0  0  0  0  0  0  0
   27.4970   -2.8939   13.7380 C   0  0  2  0  0  0  0  0  0  0  0  0
   26.3644   -2.7524   14.6425 O   0  0  0  0  0  0  0  0  0  0  0  0
   23.2847   -4.4341   14.0958 C   0  0  2  0  0  0  0  0  0  0  0  0
   23.8039   -4.1229   15.4187 O   0  0  0  0  0  0  0  0  0  0  0  0
   20.9802   -1.5192   16.7097 C   0  0  0  0  0  0  0  0  0  0  0  0
   19.8582   -1.5418   15.8151 O   0  0  0  0  0  0  0  0  0  0  0  0
   18.2196   -5.2038   18.8766 C   0  0  1  0  0  0  0  0  0  0  0  0
   19.4521   -4.5822   18.4534 O   0  0  0  0  0  0  0  0  0  0  0  0
   19.2175   -9.0603   16.7592 C   0  0  2  0  0  0  0  0  0  0  0  0
   18.0739   -8.3368   17.2394 O   0  0  0  0  0  0  0  0  0  0  0  0
   28.4970   -3.7291   14.4625 C   0  0  0  0  0  0  0  0  0  0  0  0
   28.0033   -5.0465   14.4934 O   0  0  0  0  0  0  0  0  0  0  0  0
   22.7744   -5.9099   13.9787 C   0  0  1  0  0  0  0  0  0  0  0  0
   21.6354   -6.0427   14.8700 O   0  0  0  0  0  0  0  0  0  0  0  0
   17.3322   -5.4664   17.6210 C   0  0  0  0  0  0  0  0  0  0  0  0
   17.7818   -4.7301   16.4208 N   0  0  0  0  0  0  0  0  0  0  0  0
   19.3133   -8.8772   15.2462 C   0  0  0  0  0  0  0  0  0  0  0  0
   18.8148   -7.5654   14.8731 O   0  0  0  0  0  0  0  0  0  0  0  0
  1  2  1  6  0  0  0
  1  8  1  0  0  0  0
  1 36  1  0  0  0  0
  3  4  1  1  0  0  0
  3 10  1  0  0  0  0
  3 47  1  0  0  0  0
  5 11  1  0  0  0  0
  5 30  1  0  0  0  0
  5 38  1  6  0  0  0
  6 21  1  6  0  0  0
  6 42  1  0  0  0  0
  7 15  1  0  0  0  0
  7 44  1  0  0  0  0
  7 32  1  1  0  0  0
  8  9  1  6  0  0  0
  8 17  1  0  0  0  0
 11 12  1  1  0  0  0
 11 20  1  0  0  0  0
 13  6  1  0  0  0  0
 13 14  1  6  0  0  0
 15 16  1  6  0  0  0
 15 24  1  0  0  0  0
 17 26  1  0  0  0  0
 18 10  1  0  0  0  0
 18 19  1  6  0  0  0
 20 21  1  1  0  0  0
 20 29  1  0  0  0  0
 22 13  1  0  0  0  0
 22 23  1  6  0  0  0
 24 25  1  6  0  0  0
 24 33  1  0  0  0  0
 26 27  1  6  0  0  0
 26 35  1  0  0  0  0
 28  2  1  6  0  0  0
 28 18  1  0  0  0  0
 29 30  1  0  0  0  0
 29 39  1  6  0  0  0
 31 22  1  0  0  0  0
 31 32  1  6  0  0  0
 31 41  1  0  0  0  0
 33 34  1  1  0  0  0
 33 43  1  0  0  0  0
 35 36  1  0  0  0  0
 35 45  1  1  0  0  0
 37 28  1  0  0  0  0
 37 38  1  1  0  0  0
 39 40  1  0  0  0  0
 41 42  1  0  0  0  0
 41 49  1  6  0  0  0
 43 44  1  0  0  0  0
 43 51  1  6  0  0  0
 45 46  1  0  0  0  0
 47 37  1  0  0  0  0
 47 48  1  1  0  0  0
 49 50  1  0  0  0  0
 51 52  1  0  0  0  0
M  END
>  <CHROM.1>
173.16191926,-158.80997249,-162.56459183,-148.73046410,-164.10260355,-177.40738768
-173.46507583,179.55670536,-170.40714493,177.17930992,-172.76381114,-176.56334112
21.95550552,-5.20803766,16.27690006,0.11873650,0.79292826,0.59753591

>  <Name>
2esj_lig

>  <RI>
1.01272e+07

>  <Rbt.Current_Directory>
/home/itssahil/PROJECTS/Mol_Feturizer/New_Systems/rnas/2esj

>  <Rbt.Executable>
rbdock ($Id: //depot/dev/client3/rdock/2013.1/src/exe/rbdock.cxx#4 $)

>  <Rbt.Library>
libRbt.so (2013.1, Build901 2013/11/27)

>  <Rbt.Parameter_File>
/export/apps/rDock/src/rDock_2013.1_src/data/scripts/dock_solv.prm

>  <Rbt.Receptor>
prm/pocket_docking_3.prm

>  <SCORE>
-6.53531

>  <SCORE.INTER>
-1.81238

>  <SCORE.INTER.CONST>
1

>  <SCORE.INTER.POLAR>
-0.0624075

>  <SCORE.INTER.ROT>
12

>  <SCORE.INTER.SOLV>
14.207

>  <SCORE.INTER.VDW>
-17.3359

>  <SCORE.INTER.norm>
-0.0348535

>  <SCORE.INTRA>
-5.02976

>  <SCORE.INTRA.DIHEDRAL>
-18.816

>  <SCORE.INTRA.DIHEDRAL.0>
32.9766

>  <SCORE.INTRA.POLAR>
0

>  <SCORE.INTRA.POLAR.0>
0

>  <SCORE.INTRA.REPUL>
0

>  <SCORE.INTRA.REPUL.0>
0

>  <SCORE.INTRA.SOLV>
-0.280018

>  <SCORE.INTRA.SOLV.lig_0>
-114.358

>  <SCORE.INTRA.VDW>
4.51827

>  <SCORE.INTRA.VDW.0>
-8.24257

>  <SCORE.INTRA.norm>
-0.0967261

>  <SCORE.RESTR>
0.30683

>  <SCORE.RESTR.CAVITY>
0.30683

>  <SCORE.RESTR.norm>
0.00590057

>  <SCORE.SYSTEM>
0

>  <SCORE.SYSTEM.CONST>
0

>  <SCORE.SYSTEM.DIHEDRAL>
0

>  <SCORE.SYSTEM.SOLV>
0

>  <SCORE.SYSTEM.norm>
0

>  <SCORE.heavy>
52

>  <SCORE.norm>
-0.125679

>  <RMSD>
10.075

$$$$
2esj_lig
 OpenBabel11021811423D
libRbt.so/2013.1/901 2013/11/27
 52 56  0  0  0  0  0  0  0  0999 V2000
   26.1696   -4.3313   13.8828 C   0  0  2  0  0  0  0  0  0  0  0  0
   25.8744   -3.5114   15.0298 O   0  0  0  0  0  0  0  0  0  0  0  0
   28.4962   -1.0743   17.3696 C   0  0  2  0  0  0  0  0  0  0  0  0
   29.4040   -0.0218   17.8548 N   0  0  0  0  0  0  0  0  0  0  0  0
   23.6806   -1.9772   16.1853 C   0  0  1  0  0  0  0  0  0  0  0  0
   20.2663   -4.1570   15.7351 C   0  0  1  0  0  0  0  0  0  0  0  0
   17.5143   -6.8684   18.4954 C   0  0  1  0  0  0  0  0  0  0  0  0
   25.9342   -3.4620   12.6124 C   0  0  2  0  0  0  0  0  0  0  0  0
   26.7305   -2.2353   12.6260 N   0  0  0  0  0  0  0  0  0  0  0  0
   29.0646   -1.7217   16.0447 C   0  0  0  0  0  0  0  0  0  0  0  0
   22.4468   -1.3900   16.8718 C   0  0  2  0  0  0  0  0  0  0  0  0
   22.3997   -1.7024   18.2809 O   0  0  0  0  0  0  0  0  0  0  0  0
   18.8410   -3.5272   16.0712 C   0  0  2  0  0  0  0  0  0  0  0  0
   18.6741   -3.3337   17.5360 N   0  0  0  0  0  0  0  0  0  0  0  0
   16.2839   -6.4749   19.3046 C   0  0  1  0  0  0  0  0  0  0  0  0
   15.7312   -7.6512   19.9284 O   0  0  0  0  0  0  0  0  0  0  0  0
   24.4213   -3.1103   12.4503 C   0  0  0  0  0  0  0  0  0  0  0  0
   28.1075   -2.8888   15.5719 C   0  0  2  0  0  0  0  0  0  0  0  0
   28.6060   -3.4983   14.3346 N   0  0  0  0  0  0  0  0  0  0  0  0
   21.3540   -2.0265   16.0625 C   0  0  2  0  0  0  0  0  0  0  0  0
   21.1812   -3.3692   16.4388 O   0  0  0  0  0  0  0  0  0  0  0  0
   17.7103   -4.4063   15.3756 C   0  0  1  0  0  0  0  0  0  0  0  0
   18.0324   -4.5618   13.9897 O   0  0  0  0  0  0  0  0  0  0  0  0
   16.5252   -5.4350   20.3922 C   0  0  1  0  0  0  0  0  0  0  0  0
   15.3361   -5.3699   21.1871 O   0  0  0  0  0  0  0  0  0  0  0  0
   23.5939   -4.4298   12.4622 C   0  0  2  0  0  0  0  0  0  0  0  0
   22.2157   -4.1892   12.2414 O   0  0  0  0  0  0  0  0  0  0  0  0
   26.6650   -2.3568   15.3689 C   0  0  2  0  0  0  0  0  0  0  0  0
   21.8910   -2.1094   14.6187 C   0  0  2  0  0  0  0  0  0  0  0  0
   23.2878   -2.2388   14.8308 O   0  0  0  0  0  0  0  0  0  0  0  0
   17.6660   -5.8717   15.9756 C   0  0  2  0  0  0  0  0  0  0  0  0
   17.3098   -5.6804   17.3456 O   0  0  0  0  0  0  0  0  0  0  0  0
   17.7205   -5.7510   21.2930 C   0  0  2  0  0  0  0  0  0  0  0  0
   18.0056   -4.5577   22.0410 O   0  0  0  0  0  0  0  0  0  0  0  0
   23.8386   -5.1467   13.8132 C   0  0  2  0  0  0  0  0  0  0  0  0
   25.2596   -5.4564   13.8875 O   0  0  0  0  0  0  0  0  0  0  0  0
   26.0837   -1.5973   16.6043 C   0  0  2  0  0  0  0  0  0  0  0  0
   24.7638   -1.0789   16.2795 O   0  0  0  0  0  0  0  0  0  0  0  0
   21.6252   -0.9001   13.7228 C   0  0  0  0  0  0  0  0  0  0  0  0
   21.9227   -1.2880   12.3735 O   0  0  0  0  0  0  0  0  0  0  0  0
   19.1045   -6.3519   15.9915 C   0  0  1  0  0  0  0  0  0  0  0  0
   20.3285   -5.6083   16.1743 O   0  0  0  0  0  0  0  0  0  0  0  0
   18.9010   -6.2844   20.4892 C   0  0  2  0  0  0  0  0  0  0  0  0
   18.7029   -7.0635   19.2994 O   0  0  0  0  0  0  0  0  0  0  0  0
   23.1292   -6.4537   13.9181 C   0  0  0  0  0  0  0  0  0  0  0  0
   21.7502   -6.1952   13.8092 O   0  0  0  0  0  0  0  0  0  0  0  0
   27.0698   -0.4805   17.0866 C   0  0  1  0  0  0  0  0  0  0  0  0
   26.5513    0.0386   18.3399 O   0  0  0  0  0  0  0  0  0  0  0  0
   19.3390   -7.8254   16.4461 C   0  0  0  0  0  0  0  0  0  0  0  0
   20.7015   -8.0695   16.9645 N   0  0  0  0  0  0  0  0  0  0  0  0
   20.2267   -6.6931   21.1274 C   0  0  0  0  0  0  0  0  0  0  0  0
   21.1560   -5.5776   21.0975 O   0  0  0  0  0  0  0  0  0  0  0  0
  1  2  1  1  0  0  0
  1  8  1  0  0  0  0
  1 36  1  0  0  0  0
  3  4  1  6  0  0  0
  3 10  1  0  0  0  0
  3 47  1  0  0  0  0
  5 11  1  0  0  0  0
  5 30  1  0  0  0  0
  5 38  1  6  0  0  0
  6 21  1  1  0  0  0
  6 42  1  0  0  0  0
  7 15  1  0  0  0  0
  7 44  1  0  0  0  0
  7 32  1  6  0  0  0
  8  9  1  1  0  0  0
  8 17  1  0  0  0  0
 11 12  1  1  0  0  0
 11 20  1  0  0  0  0
 13  6  1  0  0  0  0
 13 14  1  1  0  0  0
 15 16  1  1  0  0  0
 15 24  1  0  0  0  0
 17 26  1  0  0  0  0
 18 10  1  0  0  0  0
 18 19  1  6  0  0  0
 20 21  1  1  0  0  0
 20 29  1  0  0  0  0
 22 13  1  0  0  0  0
 22 23  1  6  0  0  0
 24 25  1  1  0  0  0
 24 33  1  0  0  0  0
 26 27  1  1  0  0  0
 26 35  1  0  0  0  0
 28  2  1  1  0  0  0
 28 18  1  0  0  0  0
 29 30  1  0  0  0  0
 29 39  1  6  0  0  0
 31 22  1  0  0  0  0
 31 32  1  1  0  0  0
 31 41  1  0  0  0  0
 33 34  1  6  0  0  0
 33 43  1  0  0  0  0
 35 36  1  0  0  0  0
 35 45  1  6  0  0  0
 37 28  1  0  0  0  0
 37 38  1  6  0  0  0
 39 40  1  0  0  0  0
 41 42  1  0  0  0  0
 41 49  1  1  0  0  0
 43 44  1  0  0  0  0
 43 51  1  1  0  0  0
 45 46  1  0  0  0  0
 47 37  1  0  0  0  0
 47 48  1  1  0  0  0
 49 50  1  0  0  0  0
 51 52  1  0  0  0  0
M  END
>  <CHROM.1>
-65.69916833,137.10039525,-66.63647738,-146.35458435,-175.82505473,-58.77598593
-167.18976661,-163.76911699,-61.04399025,73.16817486,-156.48351040,-93.73683325
22.02472260,-4.00029385,16.42728976,0.32987182,-0.46235209,-1.72421136

>  <Name>
2esj_lig

>  <RI>
1.01272e+07

>  <Rbt.Current_Directory>
/home/itssahil/PROJECTS/Mol_Feturizer/New_Systems/rnas/2esj

>  <Rbt.Executable>
rbdock ($Id: //depot/dev/client3/rdock/2013.1/src/exe/rbdock.cxx#4 $)

>  <Rbt.Library>
libRbt.so (2013.1, Build901 2013/11/27)

>  <Rbt.Parameter_File>
/export/apps/rDock/src/rDock_2013.1_src/data/scripts/dock_solv.prm

>  <Rbt.Receptor>
prm/pocket_docking_3.prm

>  <SCORE>
-4.86085

>  <SCORE.INTER>
-5.29837

>  <SCORE.INTER.CONST>
1

>  <SCORE.INTER.POLAR>
-0.019987

>  <SCORE.INTER.ROT>
12

>  <SCORE.INTER.SOLV>
9.92731

>  <SCORE.INTER.VDW>
-18.3747

>  <SCORE.INTER.norm>
-0.101892

>  <SCORE.INTRA>
0.418625

>  <SCORE.INTRA.DIHEDRAL>
-14.1292

>  <SCORE.INTRA.DIHEDRAL.0>
32.9766

>  <SCORE.INTRA.POLAR>
0

>  <SCORE.INTRA.POLAR.0>
0

>  <SCORE.INTRA.REPUL>
0.0354097

>  <SCORE.INTRA.REPUL.0>
0

>  <SCORE.INTRA.SOLV>
7.41643

>  <SCORE.INTRA.SOLV.lig_0>
-114.358

>  <SCORE.INTRA.VDW>
3.59796

>  <SCORE.INTRA.VDW.0>
-8.24257

>  <SCORE.INTRA.norm>
0.00805047

>  <SCORE.RESTR>
0.0188993

>  <SCORE.RESTR.CAVITY>
0.0188993

>  <SCORE.RESTR.norm>
0.000363448

>  <SCORE.SYSTEM>
0

>  <SCORE.SYSTEM.CONST>
0

>  <SCORE.SYSTEM.DIHEDRAL>
0

>  <SCORE.SYSTEM.SOLV>
0

>  <SCORE.SYSTEM.norm>
0

>  <SCORE.heavy>
52

>  <SCORE.norm>
-0.0934779

>  <RMSD>
10.094

$$$$
2esj_lig
 OpenBabel11021811423D
libRbt.so/2013.1/901 2013/11/27
 52 56  0  0  0  0  0  0  0  0999 V2000
   23.7212   -4.7481   13.8442 C   0  0  2  0  0  0  0  0  0  0  0  0
   25.1606   -4.7526   13.8990 O   0  0  0  0  0  0  0  0  0  0  0  0
   27.8199   -2.9319   16.7098 C   0  0  2  0  0  0  0  0  0  0  0  0
   28.7003   -2.0045   17.4395 N   0  0  0  0  0  0  0  0  0  0  0  0
   23.1039   -3.3159   16.9084 C   0  0  1  0  0  0  0  0  0  0  0  0
   20.1063   -3.8821   19.7577 C   0  0  1  0  0  0  0  0  0  0  0  0
   18.0377   -8.0114   18.0516 C   0  0  1  0  0  0  0  0  0  0  0  0
   23.2926   -5.7182   12.7039 C   0  0  2  0  0  0  0  0  0  0  0  0
   23.8275   -7.0661   12.8939 N   0  0  0  0  0  0  0  0  0  0  0  0
   28.3112   -3.0950   15.2167 C   0  0  0  0  0  0  0  0  0  0  0  0
   22.5182   -2.0880   17.6068 C   0  0  2  0  0  0  0  0  0  0  0  0
   23.3283   -1.6481   18.7184 O   0  0  0  0  0  0  0  0  0  0  0  0
   20.5140   -5.2345   20.4966 C   0  0  2  0  0  0  0  0  0  0  0  0
   21.2238   -6.1564   19.5708 N   0  0  0  0  0  0  0  0  0  0  0  0
   17.9583   -9.3987   18.6784 C   0  0  1  0  0  0  0  0  0  0  0  0
   16.7959  -10.0826   18.1691 O   0  0  0  0  0  0  0  0  0  0  0  0
   23.7289   -5.1664   11.3095 C   0  0  0  0  0  0  0  0  0  0  0  0
   27.3899   -4.1389   14.4664 C   0  0  2  0  0  0  0  0  0  0  0  0
   27.8168   -4.2988   13.0725 N   0  0  0  0  0  0  0  0  0  0  0  0
   21.1676   -2.6140   17.9985 C   0  0  2  0  0  0  0  0  0  0  0  0
   21.2734   -3.4578   19.1171 O   0  0  0  0  0  0  0  0  0  0  0  0
   19.2242   -5.8487   21.1997 C   0  0  1  0  0  0  0  0  0  0  0  0
   18.6106   -4.8371   22.0053 O   0  0  0  0  0  0  0  0  0  0  0  0
   19.1708  -10.2908   18.4408 C   0  0  1  0  0  0  0  0  0  0  0  0
   18.8228  -11.6059   18.8874 O   0  0  0  0  0  0  0  0  0  0  0  0
   23.1674   -3.7235   11.1413 C   0  0  2  0  0  0  0  0  0  0  0  0
   23.4615   -3.1895    9.8628 O   0  0  0  0  0  0  0  0  0  0  0  0
   25.9056   -3.6938   14.5290 C   0  0  2  0  0  0  0  0  0  0  0  0
   20.7347   -3.5582   16.8581 C   0  0  2  0  0  0  0  0  0  0  0  0
   21.9824   -4.0416   16.3862 O   0  0  0  0  0  0  0  0  0  0  0  0
   18.1317   -6.2736   20.1342 C   0  0  2  0  0  0  0  0  0  0  0  0
   18.7643   -7.3036   19.3731 O   0  0  0  0  0  0  0  0  0  0  0  0
   19.6134  -10.3528   16.9778 C   0  0  2  0  0  0  0  0  0  0  0  0
   20.9173  -10.9565   16.9621 O   0  0  0  0  0  0  0  0  0  0  0  0
   23.7449   -2.8401   12.2750 C   0  0  2  0  0  0  0  0  0  0  0  0
   23.2865   -3.4023   13.5378 O   0  0  0  0  0  0  0  0  0  0  0  0
   25.3871   -3.3981   15.9729 C   0  0  2  0  0  0  0  0  0  0  0  0
   24.0152   -2.9184   15.9081 O   0  0  0  0  0  0  0  0  0  0  0  0
   19.9685   -2.9205   15.6997 C   0  0  0  0  0  0  0  0  0  0  0  0
   18.6740   -2.5446   16.1925 O   0  0  0  0  0  0  0  0  0  0  0  0
   17.9980   -5.0934   19.1910 C   0  0  1  0  0  0  0  0  0  0  0  0
   18.9855   -4.1301   18.7650 O   0  0  0  0  0  0  0  0  0  0  0  0
   19.5493   -8.9811   16.3155 C   0  0  2  0  0  0  0  0  0  0  0  0
   18.5645   -8.0105   16.7026 O   0  0  0  0  0  0  0  0  0  0  0  0
   23.2352   -1.4396   12.2419 C   0  0  0  0  0  0  0  0  0  0  0  0
   23.5669   -0.8408   13.4714 O   0  0  0  0  0  0  0  0  0  0  0  0
   26.3411   -2.4023   16.7147 C   0  0  1  0  0  0  0  0  0  0  0  0
   25.9011   -2.3349   18.0971 O   0  0  0  0  0  0  0  0  0  0  0  0
   16.8982   -5.2058   18.0907 C   0  0  0  0  0  0  0  0  0  0  0  0
   15.7587   -6.0604   18.4857 N   0  0  0  0  0  0  0  0  0  0  0  0
   19.9238   -8.7432   14.8544 C   0  0  0  0  0  0  0  0  0  0  0  0
   19.0331   -9.4925   13.9860 O   0  0  0  0  0  0  0  0  0  0  0  0
  1  2  1  6  0  0  0
  1  8  1  0  0  0  0
  1 36  1  0  0  0  0
  3  4  1  1  0  0  0
  3 10  1  0  0  0  0
  3 47  1  0  0  0  0
  5 11  1  0  0  0  0
  5 30  1  0  0  0  0
  5 38  1  6  0  0  0
  6 21  1  6  0  0  0
  6 42  1  0  0  0  0
  7 15  1  0  0  0  0
  7 44  1  0  0  0  0
  7 32  1  1  0  0  0
  8  9  1  1  0  0  0
  8 17  1  0  0  0  0
 11 12  1  1  0  0  0
 11 20  1  0  0  0  0
 13  6  1  0  0  0  0
 13 14  1  6  0  0  0
 15 16  1  6  0  0  0
 15 24  1  0  0  0  0
 17 26  1  0  0  0  0
 18 10  1  0  0  0  0
 18 19  1  6  0  0  0
 20 21  1  1  0  0  0
 20 29  1  0  0  0  0
 22 13  1  0  0  0  0
 22 23  1  1  0  0  0
 24 25  1  6  0  0  0
 24 33  1  0  0  0  0
 26 27  1  6  0  0  0
 26 35  1  0  0  0  0
 28  2  1  1  0  0  0
 28 18  1  0  0  0  0
 29 30  1  0  0  0  0
 29 39  1  6  0  0  0
 31 22  1  0  0  0  0
 31 32  1  6  0  0  0
 31 41  1  0  0  0  0
 33 34  1  1  0  0  0
 33 43  1  0  0  0  0
 35 36  1  0  0  0  0
 35 45  1  6  0  0  0
 37 28  1  0  0  0  0
 37 38  1  6  0  0  0
 39 40  1  0  0  0  0
 41 42  1  0  0  0  0
 41 49  1  6  0  0  0
 43 44  1  0  0  0  0
 43 51  1  6  0  0  0
 45 46  1  0  0  0  0
 47 37  1  0  0  0  0
 47 48  1  1  0  0  0
 49 50  1  0  0  0  0
 51 52  1  0  0  0  0
M  END
>  <CHROM.1>
160.39291428,122.27729747,156.16552156,-116.05237960,170.27569912,175.64192877
-69.76168566,-176.01776421,166.25917756,142.56689892,28.20218753,62.40593329
21.79450969,-5.12804125,16.45802329,0.05054917,-0.74215470,-2.23097409

>  <Name>
2esj_lig

>  <RI>
0

>  <Rbt.Current_Directory>
/home/itssahil/PROJECTS/Mol_Feturizer/New_Systems/rnas/2esj

>  <Rbt.Executable>
rbdock ($Id: //depot/dev/client3/rdock/2013.1/src/exe/rbdock.cxx#4 $)

>  <Rbt.Library>
libRbt.so (2013.1, Build901 2013/11/27)

>  <Rbt.Parameter_File>
/export/apps/rDock/src/rDock_2013.1_src/data/scripts/dock_solv.prm

>  <Rbt.Receptor>
prm/pocket_docking_2.prm

>  <SCORE>
11.915

>  <SCORE.INTER>
3.6354

>  <SCORE.INTER.CONST>
1

>  <SCORE.INTER.POLAR>
-0.586508

>  <SCORE.INTER.ROT>
12

>  <SCORE.INTER.SOLV>
18.1178

>  <SCORE.INTER.VDW>
-13.2607

>  <SCORE.INTER.norm>
0.0699114

>  <SCORE.INTRA>
1.46983

>  <SCORE.INTRA.DIHEDRAL>
-2.74237

>  <SCORE.INTRA.DIHEDRAL.0>
32.9766

>  <SCORE.INTRA.POLAR>
0

>  <SCORE.INTRA.POLAR.0>
0

>  <SCORE.INTRA.REPUL>
0.0151388

>  <SCORE.INTRA.REPUL.0>
0

>  <SCORE.INTRA.SOLV>
-0.149411

>  <SCORE.INTRA.SOLV.lig_0>
-114.358

>  <SCORE.INTRA.VDW>
2.84003

>  <SCORE.INTRA.VDW.0>
-8.24257

>  <SCORE.INTRA.norm>
0.028266

>  <SCORE.RESTR>
6.80973

>  <SCORE.RESTR.CAVITY>
6.80973

>  <SCORE.RESTR.norm>
0.130956

>  <SCORE.SYSTEM>
0

>  <SCORE.SYSTEM.CONST>
0

>  <SCORE.SYSTEM.DIHEDRAL>
0

>  <SCORE.SYSTEM.SOLV>
0

>  <SCORE.SYSTEM.norm>
0

>  <SCORE.heavy>
52

>  <SCORE.norm>
0.229134

>  <RMSD>
10.105

$$$$
2esj_lig
 OpenBabel11021811423D
libRbt.so/2013.1/901 2013/11/27
 52 56  0  0  0  0  0  0  0  0999 V2000
   19.1029    0.2249    9.7184 C   0  0  2  0  0  0  0  0  0  0  0  0
   20.0384   -0.6991   10.3067 O   0  0  0  0  0  0  0  0  0  0  0  0
   23.8575   -2.2601    9.1816 C   0  0  2  0  0  0  0  0  0  0  0  0
   25.2599   -2.4238    8.7648 N   0  0  0  0  0  0  0  0  0  0  0  0
   21.5293   -1.3905   13.4088 C   0  0  1  0  0  0  0  0  0  0  0  0
   20.0178   -4.5581   15.1136 C   0  0  1  0  0  0  0  0  0  0  0  0
   17.8500   -7.2395   19.0163 C   0  0  1  0  0  0  0  0  0  0  0  0
   17.9469    0.4356   10.7403 C   0  0  2  0  0  0  0  0  0  0  0  0
   18.4336    0.9034   12.0378 N   0  0  0  0  0  0  0  0  0  0  0  0
   23.0699   -1.3851    8.1273 C   0  0  0  0  0  0  0  0  0  0  0  0
   22.0636   -2.8155   13.5580 C   0  0  2  0  0  0  0  0  0  0  0  0
   21.3491   -3.7607   12.7325 O   0  0  0  0  0  0  0  0  0  0  0  0
   18.4620   -4.4369   15.4395 C   0  0  2  0  0  0  0  0  0  0  0  0
   18.2406   -3.7662   16.7480 N   0  0  0  0  0  0  0  0  0  0  0  0
   17.4882   -6.0611   19.9129 C   0  0  1  0  0  0  0  0  0  0  0  0
   16.6351   -6.5221   20.9797 O   0  0  0  0  0  0  0  0  0  0  0  0
   17.1209   -0.8768   10.9257 C   0  0  0  0  0  0  0  0  0  0  0  0
   21.5532   -1.2700    8.5610 C   0  0  2  0  0  0  0  0  0  0  0  0
   20.8019   -0.4502    7.6049 N   0  0  0  0  0  0  0  0  0  0  0  0
   21.8803   -3.0238   15.0335 C   0  0  2  0  0  0  0  0  0  0  0  0
   20.5304   -3.2764   15.3309 O   0  0  0  0  0  0  0  0  0  0  0  0
   17.7907   -5.8736   15.2978 C   0  0  1  0  0  0  0  0  0  0  0  0
   18.1383   -6.4230   14.0226 O   0  0  0  0  0  0  0  0  0  0  0  0
   18.6710   -5.3315   20.5382 C   0  0  1  0  0  0  0  0  0  0  0  0
   18.1427   -4.4280   21.5153 O   0  0  0  0  0  0  0  0  0  0  0  0
   16.6344   -1.3665    9.5296 C   0  0  2  0  0  0  0  0  0  0  0  0
   15.8112   -2.5147    9.6316 O   0  0  0  0  0  0  0  0  0  0  0  0
   21.4423   -0.6735    9.9882 C   0  0  2  0  0  0  0  0  0  0  0  0
   22.1579   -1.6562   15.6911 C   0  0  2  0  0  0  0  0  0  0  0  0
   21.7557   -0.7529   14.6735 O   0  0  0  0  0  0  0  0  0  0  0  0
   18.3601   -6.8868   16.3740 C   0  0  2  0  0  0  0  0  0  0  0  0
   17.9666   -6.3266   17.6277 O   0  0  0  0  0  0  0  0  0  0  0  0
   19.6867   -6.2614   21.2044 C   0  0  2  0  0  0  0  0  0  0  0  0
   20.8645   -5.4786   21.4584 O   0  0  0  0  0  0  0  0  0  0  0  0
   17.8780   -1.6331    8.6456 C   0  0  2  0  0  0  0  0  0  0  0  0
   18.5870   -0.3689    8.5039 O   0  0  0  0  0  0  0  0  0  0  0  0
   22.2953   -1.4218   11.0621 C   0  0  2  0  0  0  0  0  0  0  0  0
   22.1775   -0.7370   12.3402 O   0  0  0  0  0  0  0  0  0  0  0  0
   23.6080   -1.3687   16.0784 C   0  0  0  0  0  0  0  0  0  0  0  0
   23.5866   -0.4720   17.1988 O   0  0  0  0  0  0  0  0  0  0  0  0
   19.8686   -6.7402   16.3174 C   0  0  1  0  0  0  0  0  0  0  0  0
   20.6773   -5.5819   16.0190 O   0  0  0  0  0  0  0  0  0  0  0  0
   19.9331   -7.5118   20.3677 C   0  0  2  0  0  0  0  0  0  0  0  0
   18.8953   -8.0838   19.5567 O   0  0  0  0  0  0  0  0  0  0  0  0
   17.5298   -2.0639    7.2615 C   0  0  0  0  0  0  0  0  0  0  0  0
   18.7314   -2.3924    6.6071 O   0  0  0  0  0  0  0  0  0  0  0  0
   23.7812   -1.5690   10.5901 C   0  0  1  0  0  0  0  0  0  0  0  0
   24.4511   -2.4357   11.5438 O   0  0  0  0  0  0  0  0  0  0  0  0
   20.6942   -7.7115   17.2161 C   0  0  0  0  0  0  0  0  0  0  0  0
   22.0873   -7.8940   16.7570 N   0  0  0  0  0  0  0  0  0  0  0  0
   20.8918   -8.6222   20.7914 C   0  0  0  0  0  0  0  0  0  0  0  0
   20.6459   -8.9882   22.1750 O   0  0  0  0  0  0  0  0  0  0  0  0
  1  2  1  1  0  0  0
  1  8  1  0  0  0  0
  1 36  1  0  0  0  0
  3  4  1  6  0  0  0
  3 10  1  0  0  0  0
  3 47  1  0  0  0  0
  5 11  1  0  0  0  0
  5 30  1  0  0  0  0
  5 38  1  6  0  0  0
  6 21  1  1  0  0  0
  6 42  1  0  0  0  0
  7 15  1  0  0  0  0
  7 44  1  0  0  0  0
  7 32  1  6  0  0  0
  8  9  1  1  0  0  0
  8 17  1  0  0  0  0
 11 12  1  6  0  0  0
 11 20  1  0  0  0  0
 13  6  1  0  0  0  0
 13 14  1  1  0  0  0
 15 16  1  1  0  0  0
 15 24  1  0  0  0  0
 17 26  1  0  0  0  0
 18 10  1  0  0  0  0
 18 19  1  6  0  0  0
 20 21  1  6  0  0  0
 20 29  1  0  0  0  0
 22 13  1  0  0  0  0
 22 23  1  6  0  0  0
 24 25  1  1  0  0  0
 24 33  1  0  0  0  0
 26 27  1  1  0  0  0
 26 35  1  0  0  0  0
 28  2  1  1  0  0  0
 28 18  1  0  0  0  0
 29 30  1  0  0  0  0
 29 39  1  6  0  0  0
 31 22  1  0  0  0  0
 31 32  1  1  0  0  0
 31 41  1  0  0  0  0
 33 34  1  6  0  0  0
 33 43  1  0  0  0  0
 35 36  1  0  0  0  0
 35 45  1  6  0  0  0
 37 28  1  0  0  0  0
 37 38  1  1  0  0  0
 39 40  1  0  0  0  0
 41 42  1  0  0  0  0
 41 49  1  1  0  0  0
 43 44  1  0  0  0  0
 43 51  1  1  0  0  0
 45 46  1  0  0  0  0
 47 37  1  0  0  0  0
 47 48  1  1  0  0  0
 49 50  1  0  0  0  0
 51 52  1  0  0  0  0
M  END
>  <CHROM.1>
-151.02104555,48.07426045,-175.42868511,177.05521698,79.41448251,-74.05740773
-151.43139943,158.18579485,-174.57587563,113.57887733,157.69384945,47.73541700
20.12871470,-3.56033129,14.27322895,1.48161742,-0.22999724,-1.10153810

>  <Name>
2esj_lig

>  <RI>
0

>  <Rbt.Current_Directory>
/home/itssahil/PROJECTS/Mol_Feturizer/New_Systems/rnas/2esj

>  <Rbt.Executable>
rbdock ($Id: //depot/dev/client3/rdock/2013.1/src/exe/rbdock.cxx#4 $)

>  <Rbt.Library>
libRbt.so (2013.1, Build901 2013/11/27)

>  <Rbt.Parameter_File>
/export/apps/rDock/src/rDock_2013.1_src/data/scripts/dock_solv.prm

>  <Rbt.Receptor>
prm/pocket_docking_8.prm

>  <SCORE>
-11.7816

>  <SCORE.INTER>
-10.6691

>  <SCORE.INTER.CONST>
1

>  <SCORE.INTER.POLAR>
-0.82054

>  <SCORE.INTER.ROT>
12

>  <SCORE.INTER.SOLV>
15.9906

>  <SCORE.INTER.VDW>
-21.3078

>  <SCORE.INTER.norm>
-0.205175

>  <SCORE.INTRA>
-1.11249

>  <SCORE.INTRA.DIHEDRAL>
-9.55232

>  <SCORE.INTRA.DIHEDRAL.0>
32.9766

>  <SCORE.INTRA.POLAR>
0

>  <SCORE.INTRA.POLAR.0>
0

>  <SCORE.INTRA.REPUL>
0

>  <SCORE.INTRA.REPUL.0>
0

>  <SCORE.INTRA.SOLV>
0.732344

>  <SCORE.INTRA.SOLV.lig_0>
-114.358

>  <SCORE.INTRA.VDW>
3.2975

>  <SCORE.INTRA.VDW.0>
-8.24257

>  <SCORE.INTRA.norm>
-0.021394

>  <SCORE.RESTR>
0

>  <SCORE.RESTR.CAVITY>
0

>  <SCORE.RESTR.norm>
0

>  <SCORE.SYSTEM>
0

>  <SCORE.SYSTEM.CONST>
0

>  <SCORE.SYSTEM.DIHEDRAL>
0

>  <SCORE.SYSTEM.SOLV>
0

>  <SCORE.SYSTEM.norm>
0

>  <SCORE.heavy>
52

>  <SCORE.norm>
-0.226569

>  <RMSD>
10.138

$$$$
2esj_lig
 OpenBabel11021811423D
libRbt.so/2013.1/901 2013/11/27
 52 56  0  0  0  0  0  0  0  0999 V2000
   24.4652   -0.0030   13.7093 C   0  0  2  0  0  0  0  0  0  0  0  0
   24.2670   -0.7308   14.9364 O   0  0  0  0  0  0  0  0  0  0  0  0
   26.3022   -0.8620   18.6952 C   0  0  2  0  0  0  0  0  0  0  0  0
   26.9353   -0.5281   19.9817 N   0  0  0  0  0  0  0  0  0  0  0  0
   21.7297   -1.7004   17.7205 C   0  0  1  0  0  0  0  0  0  0  0  0
   18.8750   -4.5553   18.1879 C   0  0  1  0  0  0  0  0  0  0  0  0
   20.6765   -8.3916   21.0219 C   0  0  1  0  0  0  0  0  0  0  0  0
   23.1264   -0.0497   12.9153 C   0  0  2  0  0  0  0  0  0  0  0  0
   22.0049    0.4809   13.6897 N   0  0  0  0  0  0  0  0  0  0  0  0
   26.9428   -0.0078   17.5301 C   0  0  0  0  0  0  0  0  0  0  0  0
   20.2937   -1.1876   17.6036 C   0  0  2  0  0  0  0  0  0  0  0  0
   19.8241   -0.5817   18.8274 O   0  0  0  0  0  0  0  0  0  0  0  0
   18.1677   -4.8867   19.5775 C   0  0  2  0  0  0  0  0  0  0  0  0
   19.0805   -4.6165   20.7198 N   0  0  0  0  0  0  0  0  0  0  0  0
   20.6120   -8.0541   22.5069 C   0  0  1  0  0  0  0  0  0  0  0  0
   20.9345   -9.2310   23.2745 O   0  0  0  0  0  0  0  0  0  0  0  0
   22.8063   -1.5051   12.4478 C   0  0  0  0  0  0  0  0  0  0  0  0
   26.2923   -0.4222   16.1493 C   0  0  2  0  0  0  0  0  0  0  0  0
   26.8607    0.3667   15.0514 N   0  0  0  0  0  0  0  0  0  0  0  0
   19.5800   -2.4544   17.2295 C   0  0  2  0  0  0  0  0  0  0  0  0
   19.4150   -3.2775   18.3563 O   0  0  0  0  0  0  0  0  0  0  0  0
   17.5821   -6.3661   19.5197 C   0  0  1  0  0  0  0  0  0  0  0  0
   16.7787   -6.5000   18.3427 O   0  0  0  0  0  0  0  0  0  0  0  0
   21.5353   -6.9295   22.9597 C   0  0  1  0  0  0  0  0  0  0  0  0
   21.5155   -6.9158   24.3913 O   0  0  0  0  0  0  0  0  0  0  0  0
   24.0232   -2.0553   11.6465 C   0  0  2  0  0  0  0  0  0  0  0  0
   23.7697   -3.3475   11.1251 O   0  0  0  0  0  0  0  0  0  0  0  0
   24.7526   -0.2444   16.2016 C   0  0  2  0  0  0  0  0  0  0  0  0
   20.5577   -3.2411   16.3323 C   0  0  2  0  0  0  0  0  0  0  0  0
   21.8179   -2.8235   16.8327 O   0  0  0  0  0  0  0  0  0  0  0  0
   18.7375   -7.4405   19.3781 C   0  0  2  0  0  0  0  0  0  0  0  0
   19.4960   -7.3021   20.5806 O   0  0  0  0  0  0  0  0  0  0  0  0
   22.9778   -7.0828   22.4741 C   0  0  2  0  0  0  0  0  0  0  0  0
   23.6310   -5.8238   22.7039 O   0  0  0  0  0  0  0  0  0  0  0  0
   25.2624   -2.0482   12.5758 C   0  0  2  0  0  0  0  0  0  0  0  0
   25.5094   -0.6646   12.9570 O   0  0  0  0  0  0  0  0  0  0  0  0
   24.0658   -0.9675   17.4042 C   0  0  2  0  0  0  0  0  0  0  0  0
   22.6411   -0.6732   17.3992 O   0  0  0  0  0  0  0  0  0  0  0  0
   20.4881   -2.9532   14.8330 C   0  0  0  0  0  0  0  0  0  0  0  0
   21.3843   -3.8615   14.1763 O   0  0  0  0  0  0  0  0  0  0  0  0
   19.6368   -6.9315   18.2680 C   0  0  1  0  0  0  0  0  0  0  0  0
   19.9524   -5.5779   17.8771 O   0  0  0  0  0  0  0  0  0  0  0  0
   23.0330   -7.5634   21.0282 C   0  0  2  0  0  0  0  0  0  0  0  0
   22.0233   -8.4316   20.4911 O   0  0  0  0  0  0  0  0  0  0  0  0
   26.5052   -2.5132   11.8962 C   0  0  0  0  0  0  0  0  0  0  0  0
   27.5251   -2.5552   12.8648 O   0  0  0  0  0  0  0  0  0  0  0  0
   24.7577   -0.5821   18.7551 C   0  0  1  0  0  0  0  0  0  0  0  0
   24.1941   -1.4363   19.7856 O   0  0  0  0  0  0  0  0  0  0  0  0
   20.8142   -7.8638   17.8467 C   0  0  0  0  0  0  0  0  0  0  0  0
   20.9131   -8.0597   16.3850 N   0  0  0  0  0  0  0  0  0  0  0  0
   24.3421   -7.8146   20.2834 C   0  0  0  0  0  0  0  0  0  0  0  0
   24.0767   -8.0226   18.8709 O   0  0  0  0  0  0  0  0  0  0  0  0
  1  2  1  1  0  0  0
  1  8  1  0  0  0  0
  1 36  1  0  0  0  0
  3  4  1  1  0  0  0
  3 10  1  0  0  0  0
  3 47  1  0  0  0  0
  5 11  1  0  0  0  0
  5 30  1  0  0  0  0
  5 38  1  6  0  0  0
  6 21  1  1  0  0  0
  6 42  1  0  0  0  0
  7 15  1  0  0  0  0
  7 44  1  0  0  0  0
  7 32  1  6  0  0  0
  8  9  1  1  0  0  0
  8 17  1  0  0  0  0
 11 12  1  1  0  0  0
 11 20  1  0  0  0  0
 13  6  1  0  0  0  0
 13 14  1  1  0  0  0
 15 16  1  1  0  0  0
 15 24  1  0  0  0  0
 17 26  1  0  0  0  0
 18 10  1  0  0  0  0
 18 19  1  6  0  0  0
 20 21  1  1  0  0  0
 20 29  1  0  0  0  0
 22 13  1  0  0  0  0
 22 23  1  6  0  0  0
 24 25  1  1  0  0  0
 24 33  1  0  0  0  0
 26 27  1  1  0  0  0
 26 35  1  0  0  0  0
 28  2  1  6  0  0  0
 28 18  1  0  0  0  0
 29 30  1  0  0  0  0
 29 39  1  6  0  0  0
 31 22  1  0  0  0  0
 31 32  1  1  0  0  0
 31 41  1  0  0  0  0
 33 34  1  6  0  0  0
 33 43  1  0  0  0  0
 35 36  1  0  0  0  0
 35 45  1  6  0  0  0
 37 28  1  0  0  0  0
 37 38  1  1  0  0  0
 39 40  1  0  0  0  0
 41 42  1  0  0  0  0
 41 49  1  1  0  0  0
 43 44  1  0  0  0  0
 43 51  1  1  0  0  0
 45 46  1  0  0  0  0
 47 37  1  0  0  0  0
 47 48  1  1  0  0  0
 49 50  1  0  0  0  0
 51 52  1  0  0  0  0
M  END
>  <CHROM.1>
-136.72853939,-177.91135738,-152.30283174,-157.00753578,-174.45994423,-72.24587572
-175.06843518,169.55816905,-175.68192126,140.32839634,131.29695283,-169.56128196
22.37441990,-3.81435932,17.63021736,1.08606636,-0.48501127,-1.07243014

>  <Name>
2esj_lig

>  <RI>
0

>  <Rbt.Current_Directory>
/home/itssahil/PROJECTS/Mol_Feturizer/New_Systems/rnas/2esj

>  <Rbt.Executable>
rbdock ($Id: //depot/dev/client3/rdock/2013.1/src/exe/rbdock.cxx#4 $)

>  <Rbt.Library>
libRbt.so (2013.1, Build901 2013/11/27)

>  <Rbt.Parameter_File>
/export/apps/rDock/src/rDock_2013.1_src/data/scripts/dock_solv.prm

>  <Rbt.Receptor>
prm/pocket_docking_8.prm

>  <SCORE>
-17.7266

>  <SCORE.INTER>
-14.8639

>  <SCORE.INTER.CONST>
1

>  <SCORE.INTER.POLAR>
-1.62885

>  <SCORE.INTER.ROT>
12

>  <SCORE.INTER.SOLV>
15.0666

>  <SCORE.INTER.VDW>
-21.1019

>  <SCORE.INTER.norm>
-0.285843

>  <SCORE.INTRA>
-2.86276

>  <SCORE.INTRA.DIHEDRAL>
-9.3287

>  <SCORE.INTRA.DIHEDRAL.0>
32.9766

>  <SCORE.INTRA.POLAR>
0

>  <SCORE.INTRA.POLAR.0>
0

>  <SCORE.INTRA.REPUL>
0

>  <SCORE.INTRA.REPUL.0>
0

>  <SCORE.INTRA.SOLV>
-0.850493

>  <SCORE.INTRA.SOLV.lig_0>
-114.358

>  <SCORE.INTRA.VDW>
2.22684

>  <SCORE.INTRA.VDW.0>
-8.24257

>  <SCORE.INTRA.norm>
-0.055053

>  <SCORE.RESTR>
0

>  <SCORE.RESTR.CAVITY>
0

>  <SCORE.RESTR.norm>
0

>  <SCORE.SYSTEM>
0

>  <SCORE.SYSTEM.CONST>
0

>  <SCORE.SYSTEM.DIHEDRAL>
0

>  <SCORE.SYSTEM.SOLV>
0

>  <SCORE.SYSTEM.norm>
0

>  <SCORE.heavy>
52

>  <SCORE.norm>
-0.340896

>  <RMSD>
10.145

$$$$
2esj_lig
 OpenBabel11021811423D
libRbt.so/2013.1/901 2013/11/27
 52 56  0  0  0  0  0  0  0  0999 V2000
   25.1885   -2.2349   12.9605 C   0  0  2  0  0  0  0  0  0  0  0  0
   24.0958   -1.5052   13.5507 O   0  0  0  0  0  0  0  0  0  0  0  0
   25.8280   -0.2478   17.2530 C   0  0  2  0  0  0  0  0  0  0  0  0
   26.1941    0.4890   18.4738 N   0  0  0  0  0  0  0  0  0  0  0  0
   22.1856   -3.2511   16.1240 C   0  0  1  0  0  0  0  0  0  0  0  0
   22.6749   -6.7912   17.6260 C   0  0  1  0  0  0  0  0  0  0  0  0
   22.1226  -11.9990   17.6871 C   0  0  1  0  0  0  0  0  0  0  0  0
   24.6463   -2.9360   11.6800 C   0  0  2  0  0  0  0  0  0  0  0  0
   24.0521   -1.9870   10.7390 N   0  0  0  0  0  0  0  0  0  0  0  0
   26.0611    0.6544   15.9766 C   0  0  0  0  0  0  0  0  0  0  0  0
   22.3444   -3.7258   17.5689 C   0  0  2  0  0  0  0  0  0  0  0  0
   23.6845   -4.1820   17.8544 O   0  0  0  0  0  0  0  0  0  0  0  0
   22.8943   -8.0230   16.6382 C   0  0  2  0  0  0  0  0  0  0  0  0
   21.5935   -8.5784   16.1792 N   0  0  0  0  0  0  0  0  0  0  0  0
   22.9049  -11.7353   16.4057 C   0  0  1  0  0  0  0  0  0  0  0  0
   23.7417  -12.8737   16.1189 O   0  0  0  0  0  0  0  0  0  0  0  0
   23.6049   -4.0403   12.0478 C   0  0  0  0  0  0  0  0  0  0  0  0
   25.7191   -0.1732   14.6728 C   0  0  2  0  0  0  0  0  0  0  0  0
   25.9144    0.6469   13.4727 N   0  0  0  0  0  0  0  0  0  0  0  0
   21.3020   -4.8051   17.6189 C   0  0  2  0  0  0  0  0  0  0  0  0
   21.7610   -5.9631   16.9688 O   0  0  0  0  0  0  0  0  0  0  0  0
   23.8676   -9.0749   17.3318 C   0  0  1  0  0  0  0  0  0  0  0  0
   25.0442   -8.3925   17.7777 O   0  0  0  0  0  0  0  0  0  0  0  0
   22.0567  -11.4521   15.1717 C   0  0  1  0  0  0  0  0  0  0  0  0
   22.9354  -11.4671   14.0413 O   0  0  0  0  0  0  0  0  0  0  0  0
   24.2530   -5.0234   13.0672 C   0  0  2  0  0  0  0  0  0  0  0  0
   23.3869   -6.0977   13.3864 O   0  0  0  0  0  0  0  0  0  0  0  0
   24.2626   -0.7023   14.7342 C   0  0  2  0  0  0  0  0  0  0  0  0
   20.1412   -4.3131   16.7301 C   0  0  2  0  0  0  0  0  0  0  0  0
   20.8206   -3.5166   15.7724 O   0  0  0  0  0  0  0  0  0  0  0  0
   23.2124   -9.6997   18.6316 C   0  0  2  0  0  0  0  0  0  0  0  0
   22.0650  -10.3986   18.1462 O   0  0  0  0  0  0  0  0  0  0  0  0
   20.9308  -12.4641   14.9520 C   0  0  2  0  0  0  0  0  0  0  0  0
   20.0508  -11.9009   13.9656 O   0  0  0  0  0  0  0  0  0  0  0  0
   24.6564   -4.2215   14.3294 C   0  0  2  0  0  0  0  0  0  0  0  0
   25.6356   -3.2263   13.9151 O   0  0  0  0  0  0  0  0  0  0  0  0
   23.9280   -1.5046   16.0324 C   0  0  2  0  0  0  0  0  0  0  0  0
   22.5241   -1.8859   16.0200 O   0  0  0  0  0  0  0  0  0  0  0  0
   19.0667   -3.4712   17.4174 C   0  0  0  0  0  0  0  0  0  0  0  0
   18.0439   -3.2002   16.4478 O   0  0  0  0  0  0  0  0  0  0  0  0
   22.6697   -8.5249   19.4225 C   0  0  1  0  0  0  0  0  0  0  0  0
   22.1348   -7.2651   18.9627 O   0  0  0  0  0  0  0  0  0  0  0  0
   20.2477  -12.8343   16.2637 C   0  0  2  0  0  0  0  0  0  0  0  0
   20.9742  -12.8615   17.5020 O   0  0  0  0  0  0  0  0  0  0  0  0
   25.3343   -5.0573   15.3611 C   0  0  0  0  0  0  0  0  0  0  0  0
   25.8498   -4.1857   16.3382 O   0  0  0  0  0  0  0  0  0  0  0  0
   24.3212   -0.6879   17.3093 C   0  0  1  0  0  0  0  0  0  0  0  0
   24.1620   -1.5718   18.4506 O   0  0  0  0  0  0  0  0  0  0  0  0
   22.0546   -8.8528   20.8178 C   0  0  0  0  0  0  0  0  0  0  0  0
   21.7127   -7.6497   21.6054 N   0  0  0  0  0  0  0  0  0  0  0  0
   19.0948  -13.8318   16.3500 C   0  0  0  0  0  0  0  0  0  0  0  0
   18.2379  -13.5030   17.4754 O   0  0  0  0  0  0  0  0  0  0  0  0
  1  2  1  1  0  0  0
  1  8  1  0  0  0  0
  1 36  1  0  0  0  0
  3  4  1  1  0  0  0
  3 10  1  0  0  0  0
  3 47  1  0  0  0  0
  5 11  1  0  0  0  0
  5 30  1  0  0  0  0
  5 38  1  1  0  0  0
  6 21  1  6  0  0  0
  6 42  1  0  0  0  0
  7 15  1  0  0  0  0
  7 44  1  0  0  0  0
  7 32  1  6  0  0  0
  8  9  1  6  0  0  0
  8 17  1  0  0  0  0
 11 12  1  6  0  0  0
 11 20  1  0  0  0  0
 13  6  1  0  0  0  0
 13 14  1  1  0  0  0
 15 16  1  6  0  0  0
 15 24  1  0  0  0  0
 17 26  1  0  0  0  0
 18 10  1  0  0  0  0
 18 19  1  6  0  0  0
 20 21  1  6  0  0  0
 20 29  1  0  0  0  0
 22 13  1  0  0  0  0
 22 23  1  1  0  0  0
 24 25  1  6  0  0  0
 24 33  1  0  0  0  0
 26 27  1  1  0  0  0
 26 35  1  0  0  0  0
 28  2  1  6  0  0  0
 28 18  1  0  0  0  0
 29 30  1  0  0  0  0
 29 39  1  1  0  0  0
 31 22  1  0  0  0  0
 31 32  1  6  0  0  0
 31 41  1  0  0  0  0
 33 34  1  6  0  0  0
 33 43  1  0  0  0  0
 35 36  1  0  0  0  0
 35 45  1  1  0  0  0
 37 28  1  0  0  0  0
 37 38  1  1  0  0  0
 39 40  1  0  0  0  0
 41 42  1  0  0  0  0
 41 49  1  6  0  0  0
 43 44  1  0  0  0  0
 43 51  1  6  0  0  0
 45 46  1  0  0  0  0
 47 37  1  0  0  0  0
 47 48  1  1  0  0  0
 49 50  1  0  0  0  0
 51 52  1  0  0  0  0
M  END
>  <CHROM.1>
-177.97332923,76.31622829,176.78535842,-72.30643889,77.16214477,31.32940618
-176.00720153,90.45363933,170.04696007,122.89704970,172.29033072,-151.14481827
22.89968824,-6.04694363,16.18624229,-0.61900834,-1.19766653,-2.38955210

>  <Name>
2esj_lig

>  <RI>
0

>  <Rbt.Current_Directory>
/home/itssahil/PROJECTS/Mol_Feturizer/New_Systems/rnas/2esj

>  <Rbt.Executable>
rbdock ($Id: //depot/dev/client3/rdock/2013.1/src/exe/rbdock.cxx#4 $)

>  <Rbt.Library>
libRbt.so (2013.1, Build901 2013/11/27)

>  <Rbt.Parameter_File>
/export/apps/rDock/src/rDock_2013.1_src/data/scripts/dock_solv.prm

>  <Rbt.Receptor>
prm/pocket_docking_6.prm

>  <SCORE>
-5.06392

>  <SCORE.INTER>
-2.13885

>  <SCORE.INTER.CONST>
1

>  <SCORE.INTER.POLAR>
-0.402512

>  <SCORE.INTER.ROT>
12

>  <SCORE.INTER.SOLV>
7.64271

>  <SCORE.INTER.VDW>
-14.2318

>  <SCORE.INTER.norm>
-0.0411318

>  <SCORE.INTRA>
-2.92507

>  <SCORE.INTRA.DIHEDRAL>
-9.52167

>  <SCORE.INTRA.DIHEDRAL.0>
32.9766

>  <SCORE.INTRA.POLAR>
0

>  <SCORE.INTRA.POLAR.0>
0

>  <SCORE.INTRA.REPUL>
0

>  <SCORE.INTRA.REPUL.0>
0

>  <SCORE.INTRA.SOLV>
0.821449

>  <SCORE.INTRA.SOLV.lig_0>
-114.358

>  <SCORE.INTRA.VDW>
1.42504

>  <SCORE.INTRA.VDW.0>
-8.24257

>  <SCORE.INTRA.norm>
-0.0562514

>  <SCORE.RESTR>
0

>  <SCORE.RESTR.CAVITY>
0

>  <SCORE.RESTR.norm>
0

>  <SCORE.SYSTEM>
0

>  <SCORE.SYSTEM.CONST>
0

>  <SCORE.SYSTEM.DIHEDRAL>
0

>  <SCORE.SYSTEM.SOLV>
0

>  <SCORE.SYSTEM.norm>
0

>  <SCORE.heavy>
52

>  <SCORE.norm>
-0.0973832

>  <RMSD>
10.159

$$$$
2esj_lig
 OpenBabel11021811423D
libRbt.so/2013.1/901 2013/11/27
 52 56  0  0  0  0  0  0  0  0999 V2000
   25.1682   -0.7958   15.9767 C   0  0  2  0  0  0  0  0  0  0  0  0
   24.6940   -2.0166   15.3769 O   0  0  0  0  0  0  0  0  0  0  0  0
   20.8336   -0.7172   14.0739 C   0  0  2  0  0  0  0  0  0  0  0  0
   19.4887   -0.6268   13.4820 N   0  0  0  0  0  0  0  0  0  0  0  0
   21.8352   -4.1513   16.6912 C   0  0  1  0  0  0  0  0  0  0  0  0
   19.8542   -7.6497   15.6358 C   0  0  1  0  0  0  0  0  0  0  0  0
   21.4885  -12.1389   17.3226 C   0  0  1  0  0  0  0  0  0  0  0  0
   26.7243   -0.8218   15.9246 C   0  0  2  0  0  0  0  0  0  0  0  0
   27.2296   -0.9931   14.5628 N   0  0  0  0  0  0  0  0  0  0  0  0
   21.8904   -1.1328   12.9749 C   0  0  0  0  0  0  0  0  0  0  0  0
   20.3068   -4.1210   16.6510 C   0  0  2  0  0  0  0  0  0  0  0  0
   19.7181   -4.3031   17.9570 O   0  0  0  0  0  0  0  0  0  0  0  0
   19.6124   -8.7413   16.7720 C   0  0  2  0  0  0  0  0  0  0  0  0
   20.7421   -8.7661   17.7385 N   0  0  0  0  0  0  0  0  0  0  0  0
   21.9119  -13.2026   16.3162 C   0  0  1  0  0  0  0  0  0  0  0  0
   22.6540  -14.2324   16.9997 O   0  0  0  0  0  0  0  0  0  0  0  0
   27.2941   -1.9460   16.8468 C   0  0  0  0  0  0  0  0  0  0  0  0
   23.3362   -1.1668   13.6154 C   0  0  2  0  0  0  0  0  0  0  0  0
   24.3354   -1.5636   12.6180 N   0  0  0  0  0  0  0  0  0  0  0  0
   20.0357   -5.2427   15.6907 C   0  0  2  0  0  0  0  0  0  0  0  0
   20.2017   -6.4852   16.3256 O   0  0  0  0  0  0  0  0  0  0  0  0
   19.2846  -10.1394   16.0844 C   0  0  1  0  0  0  0  0  0  0  0  0
   18.2268   -9.9529   15.1383 O   0  0  0  0  0  0  0  0  0  0  0  0
   20.7722  -13.8698   15.5558 C   0  0  1  0  0  0  0  0  0  0  0  0
   21.3297  -14.9829   14.8484 O   0  0  0  0  0  0  0  0  0  0  0  0
   26.7237   -1.7554   18.2835 C   0  0  2  0  0  0  0  0  0  0  0  0
   27.2615   -2.6986   19.1931 O   0  0  0  0  0  0  0  0  0  0  0  0
   23.3685   -2.1344   14.8270 C   0  0  2  0  0  0  0  0  0  0  0  0
   21.1776   -5.1974   14.6545 C   0  0  2  0  0  0  0  0  0  0  0  0
   22.2501   -4.6723   15.4208 O   0  0  0  0  0  0  0  0  0  0  0  0
   20.5194  -10.6777   15.2509 C   0  0  2  0  0  0  0  0  0  0  0  0
   21.5406  -10.8840   16.2281 O   0  0  0  0  0  0  0  0  0  0  0  0
   19.6345  -14.3585   16.4541 C   0  0  2  0  0  0  0  0  0  0  0  0
   18.5261  -14.6657   15.5929 O   0  0  0  0  0  0  0  0  0  0  0  0
   25.1793   -1.8488   18.2115 C   0  0  2  0  0  0  0  0  0  0  0  0
   24.7200   -0.7664   17.3522 O   0  0  0  0  0  0  0  0  0  0  0  0
   22.2676   -1.8533   15.8994 C   0  0  2  0  0  0  0  0  0  0  0  0
   22.3412   -2.8599   16.9471 O   0  0  0  0  0  0  0  0  0  0  0  0
   20.9507   -4.3126   13.4292 C   0  0  0  0  0  0  0  0  0  0  0  0
   19.7761   -4.7942   12.7599 O   0  0  0  0  0  0  0  0  0  0  0  0
   20.9894   -9.5056   14.4110 C   0  0  1  0  0  0  0  0  0  0  0  0
   20.9608   -8.0903   14.6954 O   0  0  0  0  0  0  0  0  0  0  0  0
   19.3154  -13.3491   17.5513 C   0  0  2  0  0  0  0  0  0  0  0  0
   20.3369  -12.5133   18.1168 O   0  0  0  0  0  0  0  0  0  0  0  0
   24.5186   -1.6324   19.5303 C   0  0  0  0  0  0  0  0  0  0  0  0
   24.8274   -2.7386   20.3434 O   0  0  0  0  0  0  0  0  0  0  0  0
   20.8512   -1.7735   15.2364 C   0  0  1  0  0  0  0  0  0  0  0  0
   19.9235   -1.3207   16.2581 O   0  0  0  0  0  0  0  0  0  0  0  0
   22.1463   -9.7927   13.4050 C   0  0  0  0  0  0  0  0  0  0  0  0
   22.8469   -8.5723   12.9530 N   0  0  0  0  0  0  0  0  0  0  0  0
   18.2304  -13.5756   18.6017 C   0  0  0  0  0  0  0  0  0  0  0  0
   16.9622  -13.8553   17.9520 O   0  0  0  0  0  0  0  0  0  0  0  0
  1  2  1  1  0  0  0
  1  8  1  0  0  0  0
  1 36  1  0  0  0  0
  3  4  1  6  0  0  0
  3 10  1  0  0  0  0
  3 47  1  0  0  0  0
  5 11  1  0  0  0  0
  5 30  1  0  0  0  0
  5 38  1  6  0  0  0
  6 21  1  1  0  0  0
  6 42  1  0  0  0  0
  7 15  1  0  0  0  0
  7 44  1  0  0  0  0
  7 32  1  6  0  0  0
  8  9  1  6  0  0  0
  8 17  1  0  0  0  0
 11 12  1  1  0  0  0
 11 20  1  0  0  0  0
 13  6  1  0  0  0  0
 13 14  1  6  0  0  0
 15 16  1  1  0  0  0
 15 24  1  0  0  0  0
 17 26  1  0  0  0  0
 18 10  1  0  0  0  0
 18 19  1  6  0  0  0
 20 21  1  1  0  0  0
 20 29  1  0  0  0  0
 22 13  1  0  0  0  0
 22 23  1  6  0  0  0
 24 25  1  1  0  0  0
 24 33  1  0  0  0  0
 26 27  1  1  0  0  0
 26 35  1  0  0  0  0
 28  2  1  1  0  0  0
 28 18  1  0  0  0  0
 29 30  1  0  0  0  0
 29 39  1  6  0  0  0
 31 22  1  0  0  0  0
 31 32  1  1  0  0  0
 31 41  1  0  0  0  0
 33 34  1  6  0  0  0
 33 43  1  0  0  0  0
 35 36  1  0  0  0  0
 35 45  1  1  0  0  0
 37 28  1  0  0  0  0
 37 38  1  1  0  0  0
 39 40  1  0  0  0  0
 41 42  1  0  0  0  0
 41 49  1  1  0  0  0
 43 44  1  0  0  0  0
 43 51  1  1  0  0  0
 45 46  1  0  0  0  0
 47 37  1  0  0  0  0
 47 48  1  1  0  0  0
 49 50  1  0  0  0  0
 51 52  1  0  0  0  0
M  END
>  <CHROM.1>
-157.41315411,-72.23647158,-158.26044219,76.46602890,173.19003628,65.52905732
-59.23057396,72.49451875,-68.91058585,-76.06179825,-161.12946399,-54.90668134
21.85023497,-6.39351861,16.00288104,-1.14849160,0.59574751,2.86317180

>  <Name>
2esj_lig

>  <RI>
0

>  <Rbt.Current_Directory>
/home/itssahil/PROJECTS/Mol_Feturizer/New_Systems/rnas/2esj

>  <Rbt.Executable>
rbdock ($Id: //depot/dev/client3/rdock/2013.1/src/exe/rbdock.cxx#4 $)

>  <Rbt.Library>
libRbt.so (2013.1, Build901 2013/11/27)

>  <Rbt.Parameter_File>
/export/apps/rDock/src/rDock_2013.1_src/data/scripts/dock_solv.prm

>  <Rbt.Receptor>
prm/pocket_docking_4.prm

>  <SCORE>
-7.71605

>  <SCORE.INTER>
-1.55507

>  <SCORE.INTER.CONST>
1

>  <SCORE.INTER.POLAR>
-0.957699

>  <SCORE.INTER.ROT>
12

>  <SCORE.INTER.SOLV>
9.85179

>  <SCORE.INTER.VDW>
-12.7283

>  <SCORE.INTER.norm>
-0.0299051

>  <SCORE.INTRA>
-6.51301

>  <SCORE.INTRA.DIHEDRAL>
-19.057

>  <SCORE.INTRA.DIHEDRAL.0>
32.9766

>  <SCORE.INTRA.POLAR>
0

>  <SCORE.INTRA.POLAR.0>
0

>  <SCORE.INTRA.REPUL>
0

>  <SCORE.INTRA.REPUL.0>
0

>  <SCORE.INTRA.SOLV>
0.654188

>  <SCORE.INTRA.SOLV.lig_0>
-114.358

>  <SCORE.INTRA.VDW>
2.68842

>  <SCORE.INTRA.VDW.0>
-8.24257

>  <SCORE.INTRA.norm>
-0.12525

>  <SCORE.RESTR>
0.352032

>  <SCORE.RESTR.CAVITY>
0.352032

>  <SCORE.RESTR.norm>
0.00676985

>  <SCORE.SYSTEM>
0

>  <SCORE.SYSTEM.CONST>
0

>  <SCORE.SYSTEM.DIHEDRAL>
0

>  <SCORE.SYSTEM.SOLV>
0

>  <SCORE.SYSTEM.norm>
0

>  <SCORE.heavy>
52

>  <SCORE.norm>
-0.148386

>  <RMSD>
10.161

$$$$
2esj_lig
 OpenBabel11021811423D
libRbt.so/2013.1/901 2013/11/27
 52 56  0  0  0  0  0  0  0  0999 V2000
   22.2768    0.1739   13.0822 C   0  0  2  0  0  0  0  0  0  0  0  0
   22.8235   -0.9764   13.7551 O   0  0  0  0  0  0  0  0  0  0  0  0
   25.3790   -1.8902   17.0600 C   0  0  2  0  0  0  0  0  0  0  0  0
   26.0758   -1.9056   18.3568 N   0  0  0  0  0  0  0  0  0  0  0  0
   21.2134   -3.8240   15.9498 C   0  0  1  0  0  0  0  0  0  0  0  0
   19.4338   -7.4882   15.4201 C   0  0  1  0  0  0  0  0  0  0  0  0
   21.6191  -11.6332   17.3953 C   0  0  1  0  0  0  0  0  0  0  0  0
   20.8350    0.3946   13.6277 C   0  0  2  0  0  0  0  0  0  0  0  0
   20.8114    0.5503   15.0818 N   0  0  0  0  0  0  0  0  0  0  0  0
   25.5226   -0.4726   16.3765 C   0  0  0  0  0  0  0  0  0  0  0  0
   19.6888   -3.8508   16.0651 C   0  0  2  0  0  0  0  0  0  0  0  0
   19.2413   -3.9088   17.4368 O   0  0  0  0  0  0  0  0  0  0  0  0
   19.3376   -8.5012   16.6472 C   0  0  2  0  0  0  0  0  0  0  0  0
   20.4798   -8.3189   17.5817 N   0  0  0  0  0  0  0  0  0  0  0  0
   22.2178  -12.6744   16.4568 C   0  0  1  0  0  0  0  0  0  0  0  0
   23.1043  -13.5314   17.2038 O   0  0  0  0  0  0  0  0  0  0  0  0
   19.8937   -0.7776   13.2048 C   0  0  0  0  0  0  0  0  0  0  0  0
   24.8193   -0.4933   14.9599 C   0  0  2  0  0  0  0  0  0  0  0  0
   24.9266    0.8166   14.3092 N   0  0  0  0  0  0  0  0  0  0  0  0
   19.3749   -5.0797   15.2617 C   0  0  2  0  0  0  0  0  0  0  0  0
   19.6591   -6.2386   16.0037 O   0  0  0  0  0  0  0  0  0  0  0  0
   19.1584   -9.9797   16.0843 C   0  0  1  0  0  0  0  0  0  0  0  0
   18.0697   -9.9921   15.1551 O   0  0  0  0  0  0  0  0  0  0  0  0
   21.2073  -13.5576   15.7348 C   0  0  1  0  0  0  0  0  0  0  0  0
   21.9423  -14.6086   15.0980 O   0  0  0  0  0  0  0  0  0  0  0  0
   19.9543   -0.9380   11.6568 C   0  0  2  0  0  0  0  0  0  0  0  0
   19.0623   -1.9369   11.1955 O   0  0  0  0  0  0  0  0  0  0  0  0
   23.3311   -0.9063   15.1006 C   0  0  2  0  0  0  0  0  0  0  0  0
   20.4052   -5.1090   14.1140 C   0  0  2  0  0  0  0  0  0  0  0  0
   21.5234   -4.4665   14.7054 O   0  0  0  0  0  0  0  0  0  0  0  0
   20.4313  -10.4446   15.2641 C   0  0  2  0  0  0  0  0  0  0  0  0
   21.4864  -10.4532   16.2269 O   0  0  0  0  0  0  0  0  0  0  0  0
   20.1497  -14.1658   16.6576 C   0  0  2  0  0  0  0  0  0  0  0  0
   19.1146  -14.6952   15.8132 O   0  0  0  0  0  0  0  0  0  0  0  0
   21.4174   -1.2506   11.2558 C   0  0  2  0  0  0  0  0  0  0  0  0
   22.2304   -0.1136   11.6647 O   0  0  0  0  0  0  0  0  0  0  0  0
   23.1094   -2.2447   15.8756 C   0  0  2  0  0  0  0  0  0  0  0  0
   21.6832   -2.4957   16.0143 O   0  0  0  0  0  0  0  0  0  0  0  0
   20.0179   -4.3722   12.8323 C   0  0  0  0  0  0  0  0  0  0  0  0
   21.0844   -4.5550   11.8895 O   0  0  0  0  0  0  0  0  0  0  0  0
   20.7504   -9.3016   14.3196 C   0  0  1  0  0  0  0  0  0  0  0  0
   20.5664   -7.8796   14.4890 O   0  0  0  0  0  0  0  0  0  0  0  0
   19.6615  -13.1563   17.6905 C   0  0  2  0  0  0  0  0  0  0  0  0
   20.5311  -12.1373   18.2074 O   0  0  0  0  0  0  0  0  0  0  0  0
   21.6050   -1.3785    9.7824 C   0  0  0  0  0  0  0  0  0  0  0  0
   22.9430   -1.7521    9.5583 O   0  0  0  0  0  0  0  0  0  0  0  0
   23.8557   -2.2218   17.2521 C   0  0  1  0  0  0  0  0  0  0  0  0
   23.7624   -3.5580   17.8136 O   0  0  0  0  0  0  0  0  0  0  0  0
   21.9144   -9.5410   13.3093 C   0  0  0  0  0  0  0  0  0  0  0  0
   22.0462   -8.4678   12.3015 N   0  0  0  0  0  0  0  0  0  0  0  0
   18.6127  -13.4888   18.7493 C   0  0  0  0  0  0  0  0  0  0  0  0
   18.9776  -14.7121   19.4415 O   0  0  0  0  0  0  0  0  0  0  0  0
  1  2  1  1  0  0  0
  1  8  1  0  0  0  0
  1 36  1  0  0  0  0
  3  4  1  1  0  0  0
  3 10  1  0  0  0  0
  3 47  1  0  0  0  0
  5 11  1  0  0  0  0
  5 30  1  0  0  0  0
  5 38  1  6  0  0  0
  6 21  1  1  0  0  0
  6 42  1  0  0  0  0
  7 15  1  0  0  0  0
  7 44  1  0  0  0  0
  7 32  1  6  0  0  0
  8  9  1  1  0  0  0
  8 17  1  0  0  0  0
 11 12  1  1  0  0  0
 11 20  1  0  0  0  0
 13  6  1  0  0  0  0
 13 14  1  6  0  0  0
 15 16  1  1  0  0  0
 15 24  1  0  0  0  0
 17 26  1  0  0  0  0
 18 10  1  0  0  0  0
 18 19  1  1  0  0  0
 20 21  1  1  0  0  0
 20 29  1  0  0  0  0
 22 13  1  0  0  0  0
 22 23  1  6  0  0  0
 24 25  1  1  0  0  0
 24 33  1  0  0  0  0
 26 27  1  1  0  0  0
 26 35  1  0  0  0  0
 28  2  1  6  0  0  0
 28 18  1  0  0  0  0
 29 30  1  0  0  0  0
 29 39  1  6  0  0  0
 31 22  1  0  0  0  0
 31 32  1  1  0  0  0
 31 41  1  0  0  0  0
 33 34  1  6  0  0  0
 33 43  1  0  0  0  0
 35 36  1  0  0  0  0
 35 45  1  6  0  0  0
 37 28  1  0  0  0  0
 37 38  1  1  0  0  0
 39 40  1  0  0  0  0
 41 42  1  0  0  0  0
 41 49  1  1  0  0  0
 43 44  1  0  0  0  0
 43 51  1  1  0  0  0
 45 46  1  0  0  0  0
 47 37  1  0  0  0  0
 47 48  1  6  0  0  0
 49 50  1  0  0  0  0
 51 52  1  0  0  0  0
M  END
>  <CHROM.1>
-78.00918433,-177.85073958,-159.90571352,78.66113277,-179.84223554,-87.72176051
-178.29835524,74.16302719,-175.95602574,144.28754658,171.96266644,50.45241702
21.31816541,-6.08193514,15.11632087,1.26907907,-0.97375406,-0.50246681

>  <Name>
2esj_lig

>  <RI>
0

>  <Rbt.Current_Directory>
/home/itssahil/PROJECTS/Mol_Feturizer/New_Systems/rnas/2esj

>  <Rbt.Executable>
rbdock ($Id: //depot/dev/client3/rdock/2013.1/src/exe/rbdock.cxx#4 $)

>  <Rbt.Library>
libRbt.so (2013.1, Build901 2013/11/27)

>  <Rbt.Parameter_File>
/export/apps/rDock/src/rDock_2013.1_src/data/scripts/dock_solv.prm

>  <Rbt.Receptor>
prm/pocket_docking_6.prm

>  <SCORE>
-10.7504

>  <SCORE.INTER>
-4.32395

>  <SCORE.INTER.CONST>
1

>  <SCORE.INTER.POLAR>
-1.2582

>  <SCORE.INTER.ROT>
12

>  <SCORE.INTER.SOLV>
14.0524

>  <SCORE.INTER.VDW>
-14.9728

>  <SCORE.INTER.norm>
-0.0831529

>  <SCORE.INTRA>
-6.4264

>  <SCORE.INTRA.DIHEDRAL>
-14.2575

>  <SCORE.INTRA.DIHEDRAL.0>
32.9766

>  <SCORE.INTRA.POLAR>
0

>  <SCORE.INTRA.POLAR.0>
0

>  <SCORE.INTRA.REPUL>
0

>  <SCORE.INTRA.REPUL.0>
0

>  <SCORE.INTRA.SOLV>
0.227418

>  <SCORE.INTRA.SOLV.lig_0>
-114.358

>  <SCORE.INTRA.VDW>
0.588626

>  <SCORE.INTRA.VDW.0>
-8.24257

>  <SCORE.INTRA.norm>
-0.123585

>  <SCORE.RESTR>
0

>  <SCORE.RESTR.CAVITY>
0

>  <SCORE.RESTR.norm>
0

>  <SCORE.SYSTEM>
0

>  <SCORE.SYSTEM.CONST>
0

>  <SCORE.SYSTEM.DIHEDRAL>
0

>  <SCORE.SYSTEM.SOLV>
0

>  <SCORE.SYSTEM.norm>
0

>  <SCORE.heavy>
52

>  <SCORE.norm>
-0.206738

>  <RMSD>
10.181

$$$$
2esj_lig
 OpenBabel11021811423D
libRbt.so/2013.1/901 2013/11/27
 52 56  0  0  0  0  0  0  0  0999 V2000
   22.7432    0.2613   13.3669 C   0  0  2  0  0  0  0  0  0  0  0  0
   23.3395   -0.8781   14.0159 O   0  0  0  0  0  0  0  0  0  0  0  0
   25.2289   -2.0738   17.6612 C   0  0  2  0  0  0  0  0  0  0  0  0
   25.6784   -2.1895   19.0584 N   0  0  0  0  0  0  0  0  0  0  0  0
   21.2723   -3.8001   15.8622 C   0  0  1  0  0  0  0  0  0  0  0  0
   19.4381   -7.4311   15.2841 C   0  0  1  0  0  0  0  0  0  0  0  0
   21.6340  -11.5130   17.3112 C   0  0  1  0  0  0  0  0  0  0  0  0
   21.2028    0.1656   13.5742 C   0  0  2  0  0  0  0  0  0  0  0  0
   20.8384    0.0904   14.9887 N   0  0  0  0  0  0  0  0  0  0  0  0
   25.5304   -0.6254   17.1057 C   0  0  0  0  0  0  0  0  0  0  0  0
   19.7432   -3.7884   15.8751 C   0  0  2  0  0  0  0  0  0  0  0  0
   19.2038   -3.8076   17.2145 O   0  0  0  0  0  0  0  0  0  0  0  0
   19.3569   -8.4355   16.5193 C   0  0  2  0  0  0  0  0  0  0  0  0
   20.5035   -8.2380   17.4451 N   0  0  0  0  0  0  0  0  0  0  0  0
   22.2413  -12.5879   16.4172 C   0  0  1  0  0  0  0  0  0  0  0  0
   23.1175  -13.4191   17.2045 O   0  0  0  0  0  0  0  0  0  0  0  0
   20.6126   -1.0612   12.8088 C   0  0  0  0  0  0  0  0  0  0  0  0
   25.0954   -0.5387   15.5875 C   0  0  2  0  0  0  0  0  0  0  0  0
   25.3524    0.8018   15.0508 N   0  0  0  0  0  0  0  0  0  0  0  0
   19.4530   -5.0257   15.0758 C   0  0  2  0  0  0  0  0  0  0  0  0
   19.6580   -6.1756   15.8569 O   0  0  0  0  0  0  0  0  0  0  0  0
   19.1848   -9.9194   15.9685 C   0  0  1  0  0  0  0  0  0  0  0  0
   18.0905   -9.9466   15.0463 O   0  0  0  0  0  0  0  0  0  0  0  0
   21.2375  -13.4947   15.7155 C   0  0  1  0  0  0  0  0  0  0  0  0
   21.9776  -14.5688   15.1251 O   0  0  0  0  0  0  0  0  0  0  0  0
   21.0336   -0.9703   11.3121 C   0  0  2  0  0  0  0  0  0  0  0  0
   20.4663   -2.0143   10.5411 O   0  0  0  0  0  0  0  0  0  0  0  0
   23.5963   -0.9042   15.4325 C   0  0  2  0  0  0  0  0  0  0  0  0
   20.5566   -5.1029   14.0008 C   0  0  2  0  0  0  0  0  0  0  0  0
   21.6485   -4.4751   14.6538 O   0  0  0  0  0  0  0  0  0  0  0  0
   20.4559  -10.3813   15.1438 C   0  0  2  0  0  0  0  0  0  0  0  0
   21.5171  -10.3751   16.0999 O   0  0  0  0  0  0  0  0  0  0  0  0
   20.1681  -14.0680   16.6471 C   0  0  2  0  0  0  0  0  0  0  0  0
   19.1417  -14.6255   15.8103 O   0  0  0  0  0  0  0  0  0  0  0  0
   22.5807   -0.9831   11.2389 C   0  0  2  0  0  0  0  0  0  0  0  0
   23.0575    0.1913   11.9562 O   0  0  0  0  0  0  0  0  0  0  0  0
   23.2035   -2.2760   16.0687 C   0  0  2  0  0  0  0  0  0  0  0  0
   21.7698   -2.4822   15.9331 O   0  0  0  0  0  0  0  0  0  0  0  0
   20.2744   -4.3836   12.6822 C   0  0  0  0  0  0  0  0  0  0  0  0
   19.1227   -5.0022   12.0901 O   0  0  0  0  0  0  0  0  0  0  0  0
   20.7609   -9.2432   14.1889 C   0  0  1  0  0  0  0  0  0  0  0  0
   20.5677   -7.8213   14.3488 O   0  0  0  0  0  0  0  0  0  0  0  0
   19.6701  -13.0215   17.6378 C   0  0  2  0  0  0  0  0  0  0  0  0
   20.5358  -11.9861   18.1280 O   0  0  0  0  0  0  0  0  0  0  0  0
   23.1011   -0.8519    9.8480 C   0  0  0  0  0  0  0  0  0  0  0  0
   22.6350   -1.9602    9.1169 O   0  0  0  0  0  0  0  0  0  0  0  0
   23.6881   -2.3599   17.5555 C   0  0  1  0  0  0  0  0  0  0  0  0
   23.4602   -3.7219   18.0054 O   0  0  0  0  0  0  0  0  0  0  0  0
   21.9202   -9.4817   13.1730 C   0  0  0  0  0  0  0  0  0  0  0  0
   22.2511   -8.2862   12.3694 N   0  0  0  0  0  0  0  0  0  0  0  0
   18.6085  -13.3144   18.6956 C   0  0  0  0  0  0  0  0  0  0  0  0
   18.0012  -12.0743   19.1450 O   0  0  0  0  0  0  0  0  0  0  0  0
  1  2  1  1  0  0  0
  1  8  1  0  0  0  0
  1 36  1  0  0  0  0
  3  4  1  1  0  0  0
  3 10  1  0  0  0  0
  3 47  1  0  0  0  0
  5 11  1  0  0  0  0
  5 30  1  0  0  0  0
  5 38  1  6  0  0  0
  6 21  1  1  0  0  0
  6 42  1  0  0  0  0
  7 15  1  0  0  0  0
  7 44  1  0  0  0  0
  7 32  1  6  0  0  0
  8  9  1  1  0  0  0
  8 17  1  0  0  0  0
 11 12  1  1  0  0  0
 11 20  1  0  0  0  0
 13  6  1  0  0  0  0
 13 14  1  6  0  0  0
 15 16  1  1  0  0  0
 15 24  1  0  0  0  0
 17 26  1  0  0  0  0
 18 10  1  0  0  0  0
 18 19  1  1  0  0  0
 20 21  1  1  0  0  0
 20 29  1  0  0  0  0
 22 13  1  0  0  0  0
 22 23  1  6  0  0  0
 24 25  1  1  0  0  0
 24 33  1  0  0  0  0
 26 27  1  6  0  0  0
 26 35  1  0  0  0  0
 28  2  1  6  0  0  0
 28 18  1  0  0  0  0
 29 30  1  0  0  0  0
 29 39  1  6  0  0  0
 31 22  1  0  0  0  0
 31 32  1  1  0  0  0
 31 41  1  0  0  0  0
 33 34  1  6  0  0  0
 33 43  1  0  0  0  0
 35 36  1  0  0  0  0
 35 45  1  6  0  0  0
 37 28  1  0  0  0  0
 37 38  1  1  0  0  0
 39 40  1  0  0  0  0
 41 42  1  0  0  0  0
 41 49  1  1  0  0  0
 43 44  1  0  0  0  0
 43 51  1  1  0  0  0
 45 46  1  0  0  0  0
 47 37  1  0  0  0  0
 47 48  1  6  0  0  0
 49 50  1  0  0  0  0
 51 52  1  0  0  0  0
M  END
>  <CHROM.1>
-81.77543467,173.89929224,-164.46376057,80.12879161,-179.98617022,-98.24740968
-62.11548061,71.83588961,-61.60509674,151.81382319,-174.16294418,-159.45732092
21.42854285,-6.01209231,15.12087443,1.12180610,-1.07274209,-0.64037324

>  <Name>
2esj_lig

>  <RI>
1.62275e+07

>  <Rbt.Current_Directory>
/home/itssahil/PROJECTS/Mol_Feturizer/New_Systems/rnas/2esj

>  <Rbt.Executable>
rbdock ($Id: //depot/dev/client3/rdock/2013.1/src/exe/rbdock.cxx#4 $)

>  <Rbt.Library>
libRbt.so (2013.1, Build901 2013/11/27)

>  <Rbt.Parameter_File>
/export/apps/rDock/src/rDock_2013.1_src/data/scripts/dock_solv.prm

>  <Rbt.Receptor>
prm/pocket_docking_5.prm

>  <SCORE>
-9.20852

>  <SCORE.INTER>
-4.31027

>  <SCORE.INTER.CONST>
1

>  <SCORE.INTER.POLAR>
-1.15935

>  <SCORE.INTER.ROT>
12

>  <SCORE.INTER.SOLV>
13.5367

>  <SCORE.INTER.VDW>
-15.1212

>  <SCORE.INTER.norm>
-0.0828898

>  <SCORE.INTRA>
-4.89825

>  <SCORE.INTRA.DIHEDRAL>
-13.3418

>  <SCORE.INTRA.DIHEDRAL.0>
32.9766

>  <SCORE.INTRA.POLAR>
0

>  <SCORE.INTRA.POLAR.0>
0

>  <SCORE.INTRA.REPUL>
0

>  <SCORE.INTRA.REPUL.0>
0

>  <SCORE.INTRA.SOLV>
0.730237

>  <SCORE.INTRA.SOLV.lig_0>
-114.358

>  <SCORE.INTRA.VDW>
1.40755

>  <SCORE.INTRA.VDW.0>
-8.24257

>  <SCORE.INTRA.norm>
-0.0941972

>  <SCORE.RESTR>
0

>  <SCORE.RESTR.CAVITY>
0

>  <SCORE.RESTR.norm>
0

>  <SCORE.SYSTEM>
0

>  <SCORE.SYSTEM.CONST>
0

>  <SCORE.SYSTEM.DIHEDRAL>
0

>  <SCORE.SYSTEM.SOLV>
0

>  <SCORE.SYSTEM.norm>
0

>  <SCORE.heavy>
52

>  <SCORE.norm>
-0.177087

>  <RMSD>
10.182

$$$$
2esj_lig
 OpenBabel11021811423D
libRbt.so/2013.1/901 2013/11/27
 52 56  0  0  0  0  0  0  0  0999 V2000
   25.6125   -1.1820   17.1148 C   0  0  2  0  0  0  0  0  0  0  0  0
   25.2550   -0.2537   16.0729 O   0  0  0  0  0  0  0  0  0  0  0  0
   24.6090   -0.6225   11.8617 C   0  0  2  0  0  0  0  0  0  0  0  0
   24.7715   -0.7600   10.4050 N   0  0  0  0  0  0  0  0  0  0  0  0
   24.7583   -4.1650   14.7983 C   0  0  1  0  0  0  0  0  0  0  0  0
   23.0018   -7.9227   15.1774 C   0  0  1  0  0  0  0  0  0  0  0  0
   17.9332   -6.8080   15.7207 C   0  0  1  0  0  0  0  0  0  0  0  0
   25.2148   -0.5360   18.4747 C   0  0  2  0  0  0  0  0  0  0  0  0
   23.7973   -0.1791   18.5244 N   0  0  0  0  0  0  0  0  0  0  0  0
   25.4041    0.6385   12.3862 C   0  0  0  0  0  0  0  0  0  0  0  0
   25.5489   -5.2624   15.5118 C   0  0  2  0  0  0  0  0  0  0  0  0
   26.4964   -5.9146   14.6387 O   0  0  0  0  0  0  0  0  0  0  0  0
   22.0106   -7.9077   13.9290 C   0  0  2  0  0  0  0  0  0  0  0  0
   21.5367   -6.5284   13.6392 N   0  0  0  0  0  0  0  0  0  0  0  0
   17.8474   -5.5566   14.8546 C   0  0  1  0  0  0  0  0  0  0  0  0
   16.4613   -5.2245   14.6382 O   0  0  0  0  0  0  0  0  0  0  0  0
   26.0893    0.7239   18.7701 C   0  0  0  0  0  0  0  0  0  0  0  0
   25.1697    0.8038   13.9416 C   0  0  2  0  0  0  0  0  0  0  0  0
   25.9089    1.9610   14.4567 N   0  0  0  0  0  0  0  0  0  0  0  0
   24.4294   -6.1476   15.9778 C   0  0  2  0  0  0  0  0  0  0  0  0
   23.9299   -6.9127   14.9103 O   0  0  0  0  0  0  0  0  0  0  0  0
   20.8573   -8.9783   14.1716 C   0  0  1  0  0  0  0  0  0  0  0  0
   21.4556  -10.2362   14.5010 O   0  0  0  0  0  0  0  0  0  0  0  0
   18.5437   -4.3246   15.4200 C   0  0  1  0  0  0  0  0  0  0  0  0
   18.1611   -3.2108   14.6056 O   0  0  0  0  0  0  0  0  0  0  0  0
   27.5922    0.3235   18.6885 C   0  0  2  0  0  0  0  0  0  0  0  0
   28.4441    1.4046   19.0225 O   0  0  0  0  0  0  0  0  0  0  0  0
   25.5929   -0.4854   14.6926 C   0  0  2  0  0  0  0  0  0  0  0  0
   23.2645   -5.2022   16.3368 C   0  0  2  0  0  0  0  0  0  0  0  0
   23.4801   -4.1180   15.4475 O   0  0  0  0  0  0  0  0  0  0  0  0
   19.9589   -8.5885   15.4167 C   0  0  2  0  0  0  0  0  0  0  0  0
   19.3536   -7.3507   15.0401 O   0  0  0  0  0  0  0  0  0  0  0  0
   18.1893   -4.0312   16.8789 C   0  0  2  0  0  0  0  0  0  0  0  0
   19.1379   -3.0607   17.3512 O   0  0  0  0  0  0  0  0  0  0  0  0
   27.8784   -0.2086   17.2623 C   0  0  2  0  0  0  0  0  0  0  0  0
   27.0442   -1.3858   17.0642 O   0  0  0  0  0  0  0  0  0  0  0  0
   24.9326   -1.7908   14.1442 C   0  0  2  0  0  0  0  0  0  0  0  0
   25.4547   -2.9404   14.8669 O   0  0  0  0  0  0  0  0  0  0  0  0
   23.2293   -4.6796   17.7725 C   0  0  0  0  0  0  0  0  0  0  0  0
   21.9675   -4.0227   17.9627 O   0  0  0  0  0  0  0  0  0  0  0  0
   20.9289   -8.2456   16.5310 C   0  0  1  0  0  0  0  0  0  0  0  0
   22.2455   -7.6565   16.4660 O   0  0  0  0  0  0  0  0  0  0  0  0
   18.1333   -5.3090   17.7087 C   0  0  2  0  0  0  0  0  0  0  0  0
   17.7198   -6.5568   17.1309 O   0  0  0  0  0  0  0  0  0  0  0  0
   29.2848   -0.6689   17.0815 C   0  0  0  0  0  0  0  0  0  0  0  0
   30.1112    0.4688   17.1347 O   0  0  0  0  0  0  0  0  0  0  0  0
   25.1331   -1.9087   12.5956 C   0  0  1  0  0  0  0  0  0  0  0  0
   24.3321   -3.0324   12.1429 O   0  0  0  0  0  0  0  0  0  0  0  0
   20.3014   -7.9213   17.9216 C   0  0  0  0  0  0  0  0  0  0  0  0
   21.0483   -8.5092   19.0535 N   0  0  0  0  0  0  0  0  0  0  0  0
   17.7925   -5.3214   19.1971 C   0  0  0  0  0  0  0  0  0  0  0  0
   18.7230   -4.4777   19.9258 O   0  0  0  0  0  0  0  0  0  0  0  0
  1  2  1  6  0  0  0
  1  8  1  0  0  0  0
  1 36  1  0  0  0  0
  3  4  1  6  0  0  0
  3 10  1  0  0  0  0
  3 47  1  0  0  0  0
  5 11  1  0  0  0  0
  5 30  1  0  0  0  0
  5 38  1  1  0  0  0
  6 21  1  6  0  0  0
  6 42  1  0  0  0  0
  7 15  1  0  0  0  0
  7 44  1  0  0  0  0
  7 32  1  1  0  0  0
  8  9  1  6  0  0  0
  8 17  1  0  0  0  0
 11 12  1  6  0  0  0
 11 20  1  0  0  0  0
 13  6  1  0  0  0  0
 13 14  1  1  0  0  0
 15 16  1  1  0  0  0
 15 24  1  0  0  0  0
 17 26  1  0  0  0  0
 18 10  1  0  0  0  0
 18 19  1  1  0  0  0
 20 21  1  6  0  0  0
 20 29  1  0  0  0  0
 22 13  1  0  0  0  0
 22 23  1  1  0  0  0
 24 25  1  6  0  0  0
 24 33  1  0  0  0  0
 26 27  1  6  0  0  0
 26 35  1  0  0  0  0
 28  2  1  1  0  0  0
 28 18  1  0  0  0  0
 29 30  1  0  0  0  0
 29 39  1  1  0  0  0
 31 22  1  0  0  0  0
 31 32  1  6  0  0  0
 31 41  1  0  0  0  0
 33 34  1  1  0  0  0
 33 43  1  0  0  0  0
 35 36  1  0  0  0  0
 35 45  1  1  0  0  0
 37 28  1  0  0  0  0
 37 38  1  1  0  0  0
 39 40  1  0  0  0  0
 41 42  1  0  0  0  0
 41 49  1  1  0  0  0
 43 44  1  0  0  0  0
 43 51  1  1  0  0  0
 45 46  1  0  0  0  0
 47 37  1  0  0  0  0
 47 48  1  6  0  0  0
 49 50  1  0  0  0  0
 51 52  1  0  0  0  0
M  END
>  <CHROM.1>
174.39827874,174.47855702,144.29472764,-177.31650029,171.79651480,-174.04613124
-170.13018734,156.93169656,-68.50507733,163.20737972,138.89361391,-57.46734470
22.99269850,-3.84852976,15.89124736,0.46446583,0.58832690,0.81852590

>  <Name>
2esj_lig

>  <RI>
0

>  <Rbt.Current_Directory>
/home/itssahil/PROJECTS/Mol_Feturizer/New_Systems/rnas/2esj

>  <Rbt.Executable>
rbdock ($Id: //depot/dev/client3/rdock/2013.1/src/exe/rbdock.cxx#4 $)

>  <Rbt.Library>
libRbt.so (2013.1, Build901 2013/11/27)

>  <Rbt.Parameter_File>
/export/apps/rDock/src/rDock_2013.1_src/data/scripts/dock_solv.prm

>  <Rbt.Receptor>
prm/pocket_docking_4.prm

>  <SCORE>
-11.234

>  <SCORE.INTER>
-2.91054

>  <SCORE.INTER.CONST>
1

>  <SCORE.INTER.POLAR>
-0.979796

>  <SCORE.INTER.ROT>
12

>  <SCORE.INTER.SOLV>
10.9128

>  <SCORE.INTER.VDW>
-13.912

>  <SCORE.INTER.norm>
-0.0559718

>  <SCORE.INTRA>
-8.40788

>  <SCORE.INTRA.DIHEDRAL>
-18.0782

>  <SCORE.INTRA.DIHEDRAL.0>
32.9766

>  <SCORE.INTRA.POLAR>
0

>  <SCORE.INTRA.POLAR.0>
0

>  <SCORE.INTRA.REPUL>
0

>  <SCORE.INTRA.REPUL.0>
0

>  <SCORE.INTRA.SOLV>
-1.8751

>  <SCORE.INTRA.SOLV.lig_0>
-114.358

>  <SCORE.INTRA.VDW>
1.56877

>  <SCORE.INTRA.VDW.0>
-8.24257

>  <SCORE.INTRA.norm>
-0.16169

>  <SCORE.RESTR>
0.0843769

>  <SCORE.RESTR.CAVITY>
0.0843769

>  <SCORE.RESTR.norm>
0.00162263

>  <SCORE.SYSTEM>
0

>  <SCORE.SYSTEM.CONST>
0

>  <SCORE.SYSTEM.DIHEDRAL>
0

>  <SCORE.SYSTEM.SOLV>
0

>  <SCORE.SYSTEM.norm>
0

>  <SCORE.heavy>
52

>  <SCORE.norm>
-0.216039

>  <RMSD>
10.190

$$$$
2esj_lig
 OpenBabel11021811423D
libRbt.so/2013.1/901 2013/11/27
 52 56  0  0  0  0  0  0  0  0999 V2000
   26.6368   -3.7235   17.5423 C   0  0  2  0  0  0  0  0  0  0  0  0
   26.3391   -3.7598   16.1334 O   0  0  0  0  0  0  0  0  0  0  0  0
   29.0254   -2.3260   13.1307 C   0  0  2  0  0  0  0  0  0  0  0  0
   30.0995   -2.1853   12.1338 N   0  0  0  0  0  0  0  0  0  0  0  0
   24.5969   -4.5879   13.9644 C   0  0  1  0  0  0  0  0  0  0  0  0
   20.9259   -3.2290   15.5482 C   0  0  1  0  0  0  0  0  0  0  0  0
   18.0758   -5.3842   18.9451 C   0  0  1  0  0  0  0  0  0  0  0  0
   25.3800   -4.2439   18.3004 C   0  0  2  0  0  0  0  0  0  0  0  0
   24.9827   -5.5810   17.8606 N   0  0  0  0  0  0  0  0  0  0  0  0
   29.6272   -2.7447   14.5307 C   0  0  0  0  0  0  0  0  0  0  0  0
   23.8606   -3.2749   13.6957 C   0  0  2  0  0  0  0  0  0  0  0  0
   24.1765   -2.2571   14.6702 O   0  0  0  0  0  0  0  0  0  0  0  0
   20.8086   -3.6460   17.0824 C   0  0  2  0  0  0  0  0  0  0  0  0
   20.8482   -5.1241   17.2391 N   0  0  0  0  0  0  0  0  0  0  0  0
   18.4992   -6.8087   18.6059 C   0  0  1  0  0  0  0  0  0  0  0  0
   19.2286   -7.3636   19.7188 O   0  0  0  0  0  0  0  0  0  0  0  0
   24.1822   -3.2549   18.1382 C   0  0  0  0  0  0  0  0  0  0  0  0
   28.4666   -2.8329   15.6017 C   0  0  2  0  0  0  0  0  0  0  0  0
   28.9974   -3.2336   16.9088 N   0  0  0  0  0  0  0  0  0  0  0  0
   22.4358   -3.7464   13.7366 C   0  0  2  0  0  0  0  0  0  0  0  0
   22.0220   -3.9481   15.0642 O   0  0  0  0  0  0  0  0  0  0  0  0
   19.5312   -2.9364   17.7147 C   0  0  1  0  0  0  0  0  0  0  0  0
   19.5944   -1.5343   17.4339 O   0  0  0  0  0  0  0  0  0  0  0  0
   17.3605   -7.7631   18.2669 C   0  0  1  0  0  0  0  0  0  0  0  0
   17.9153   -9.0820   18.2129 O   0  0  0  0  0  0  0  0  0  0  0  0
   24.6370   -1.8355   18.5904 C   0  0  2  0  0  0  0  0  0  0  0  0
   23.5734   -0.9014   18.5420 O   0  0  0  0  0  0  0  0  0  0  0  0
   27.3736   -3.8287   15.1343 C   0  0  2  0  0  0  0  0  0  0  0  0
   22.4421   -5.1639   13.1280 C   0  0  2  0  0  0  0  0  0  0  0  0
   23.7389   -5.6261   13.4711 O   0  0  0  0  0  0  0  0  0  0  0  0
   18.1920   -3.4512   17.0434 C   0  0  2  0  0  0  0  0  0  0  0  0
   18.1452   -4.8406   17.3719 O   0  0  0  0  0  0  0  0  0  0  0  0
   16.2126   -7.7370   19.2776 C   0  0  2  0  0  0  0  0  0  0  0  0
   15.1085   -8.4293   18.6723 O   0  0  0  0  0  0  0  0  0  0  0  0
   25.8234   -1.3958   17.6970 C   0  0  2  0  0  0  0  0  0  0  0  0
   26.9029   -2.3497   17.9110 O   0  0  0  0  0  0  0  0  0  0  0  0
   26.8180   -3.5426   13.7023 C   0  0  2  0  0  0  0  0  0  0  0  0
   25.8601   -4.5748   13.3372 O   0  0  0  0  0  0  0  0  0  0  0  0
   22.2565   -5.2558   11.6138 C   0  0  0  0  0  0  0  0  0  0  0  0
   22.4143   -6.6328   11.2416 O   0  0  0  0  0  0  0  0  0  0  0  0
   18.4348   -3.3938   15.5475 C   0  0  1  0  0  0  0  0  0  0  0  0
   19.6546   -3.5809   14.7980 O   0  0  0  0  0  0  0  0  0  0  0  0
   15.8924   -6.3147   19.7237 C   0  0  2  0  0  0  0  0  0  0  0  0
   16.9156   -5.3109   19.8087 O   0  0  0  0  0  0  0  0  0  0  0  0
   26.3752   -0.0628   18.0726 C   0  0  0  0  0  0  0  0  0  0  0  0
   26.8925   -0.1726   19.3766 O   0  0  0  0  0  0  0  0  0  0  0  0
   27.9860   -3.4089   12.6678 C   0  0  1  0  0  0  0  0  0  0  0  0
   27.4027   -2.9548   11.4176 O   0  0  0  0  0  0  0  0  0  0  0  0
   17.2232   -3.7544   14.6337 C   0  0  0  0  0  0  0  0  0  0  0  0
   16.9354   -5.2034   14.5859 N   0  0  0  0  0  0  0  0  0  0  0  0
   14.7979   -5.9858   20.7364 C   0  0  0  0  0  0  0  0  0  0  0  0
   13.5314   -6.5435   20.2963 O   0  0  0  0  0  0  0  0  0  0  0  0
  1  2  1  6  0  0  0
  1  8  1  0  0  0  0
  1 36  1  0  0  0  0
  3  4  1  6  0  0  0
  3 10  1  0  0  0  0
  3 47  1  0  0  0  0
  5 11  1  0  0  0  0
  5 30  1  0  0  0  0
  5 38  1  6  0  0  0
  6 21  1  6  0  0  0
  6 42  1  0  0  0  0
  7 15  1  0  0  0  0
  7 44  1  0  0  0  0
  7 32  1  6  0  0  0
  8  9  1  6  0  0  0
  8 17  1  0  0  0  0
 11 12  1  1  0  0  0
 11 20  1  0  0  0  0
 13  6  1  0  0  0  0
 13 14  1  6  0  0  0
 15 16  1  1  0  0  0
 15 24  1  0  0  0  0
 17 26  1  0  0  0  0
 18 10  1  0  0  0  0
 18 19  1  1  0  0  0
 20 21  1  1  0  0  0
 20 29  1  0  0  0  0
 22 13  1  0  0  0  0
 22 23  1  6  0  0  0
 24 25  1  1  0  0  0
 24 33  1  0  0  0  0
 26 27  1  6  0  0  0
 26 35  1  0  0  0  0
 28  2  1  1  0  0  0
 28 18  1  0  0  0  0
 29 30  1  0  0  0  0
 29 39  1  6  0  0  0
 31 22  1  0  0  0  0
 31 32  1  1  0  0  0
 31 41  1  0  0  0  0
 33 34  1  6  0  0  0
 33 43  1  0  0  0  0
 35 36  1  0  0  0  0
 35 45  1  1  0  0  0
 37 28  1  0  0  0  0
 37 38  1  6  0  0  0
 39 40  1  0  0  0  0
 41 42  1  0  0  0  0
 41 49  1  6  0  0  0
 43 44  1  0  0  0  0
 43 51  1  1  0  0  0
 45 46  1  0  0  0  0
 47 37  1  0  0  0  0
 47 48  1  6  0  0  0
 49 50  1  0  0  0  0
 51 52  1  0  0  0  0
M  END
>  <CHROM.1>
-156.65875071,59.60454994,-176.77538849,-162.88550020,121.03699104,-42.88038534
174.84674940,61.46133263,63.42497287,72.13974238,-74.99710187,-55.15665993
22.36407683,-4.18426175,16.32976431,-0.22226637,0.38034956,1.28605074

>  <Name>
2esj_lig

>  <RI>
1.01272e+07

>  <Rbt.Current_Directory>
/home/itssahil/PROJECTS/Mol_Feturizer/New_Systems/rnas/2esj

>  <Rbt.Executable>
rbdock ($Id: //depot/dev/client3/rdock/2013.1/src/exe/rbdock.cxx#4 $)

>  <Rbt.Library>
libRbt.so (2013.1, Build901 2013/11/27)

>  <Rbt.Parameter_File>
/export/apps/rDock/src/rDock_2013.1_src/data/scripts/dock_solv.prm

>  <Rbt.Receptor>
prm/pocket_docking_3.prm

>  <SCORE>
-10.6248

>  <SCORE.INTER>
-9.1565

>  <SCORE.INTER.CONST>
1

>  <SCORE.INTER.POLAR>
-0.938158

>  <SCORE.INTER.ROT>
12

>  <SCORE.INTER.SOLV>
12.6313

>  <SCORE.INTER.VDW>
-18.7876

>  <SCORE.INTER.norm>
-0.176087

>  <SCORE.INTRA>
-1.62309

>  <SCORE.INTRA.DIHEDRAL>
-14.894

>  <SCORE.INTRA.DIHEDRAL.0>
32.9766

>  <SCORE.INTRA.POLAR>
0

>  <SCORE.INTRA.POLAR.0>
0

>  <SCORE.INTRA.REPUL>
0

>  <SCORE.INTRA.REPUL.0>
0

>  <SCORE.INTRA.SOLV>
2.19833

>  <SCORE.INTRA.SOLV.lig_0>
-114.358

>  <SCORE.INTRA.VDW>
4.72475

>  <SCORE.INTRA.VDW.0>
-8.24257

>  <SCORE.INTRA.norm>
-0.0312133

>  <SCORE.RESTR>
0.154814

>  <SCORE.RESTR.CAVITY>
0.154814

>  <SCORE.RESTR.norm>
0.0029772

>  <SCORE.SYSTEM>
0

>  <SCORE.SYSTEM.CONST>
0

>  <SCORE.SYSTEM.DIHEDRAL>
0

>  <SCORE.SYSTEM.SOLV>
0

>  <SCORE.SYSTEM.norm>
0

>  <SCORE.heavy>
52

>  <SCORE.norm>
-0.204323

>  <RMSD>
10.222

$$$$
2esj_lig
 OpenBabel11021811423D
libRbt.so/2013.1/901 2013/11/27
 52 56  0  0  0  0  0  0  0  0999 V2000
   27.5629    0.0355   14.8479 C   0  0  2  0  0  0  0  0  0  0  0  0
   28.5066   -0.9797   15.2400 O   0  0  0  0  0  0  0  0  0  0  0  0
   30.1145   -4.4476   13.3226 C   0  0  2  0  0  0  0  0  0  0  0  0
   30.3230   -5.7878   12.7502 N   0  0  0  0  0  0  0  0  0  0  0  0
   26.3916   -2.0446   12.5150 C   0  0  1  0  0  0  0  0  0  0  0  0
   22.2099   -2.7606   12.1583 C   0  0  1  0  0  0  0  0  0  0  0  0
   19.9883   -5.7555   15.2571 C   0  0  1  0  0  0  0  0  0  0  0  0
   27.9439    1.3449   15.5999 C   0  0  2  0  0  0  0  0  0  0  0  0
   29.3241    1.7520   15.3378 N   0  0  0  0  0  0  0  0  0  0  0  0
   29.7109   -4.5581   14.8465 C   0  0  0  0  0  0  0  0  0  0  0  0
   25.4102   -1.0829   11.8440 C   0  0  2  0  0  0  0  0  0  0  0  0
   24.9058   -0.0848   12.7576 O   0  0  0  0  0  0  0  0  0  0  0  0
   21.5465   -2.9240   13.5986 C   0  0  2  0  0  0  0  0  0  0  0  0
   22.3463   -3.8397   14.4547 N   0  0  0  0  0  0  0  0  0  0  0  0
   18.5166   -5.9700   14.9230 C   0  0  1  0  0  0  0  0  0  0  0  0
   17.9133   -6.7886   15.9449 O   0  0  0  0  0  0  0  0  0  0  0  0
   27.7199    1.1897   17.1377 C   0  0  0  0  0  0  0  0  0  0  0  0
   29.5494   -3.1088   15.4587 C   0  0  2  0  0  0  0  0  0  0  0  0
   29.1612   -3.1833   16.8710 N   0  0  0  0  0  0  0  0  0  0  0  0
   24.3719   -2.0496   11.3526 C   0  0  2  0  0  0  0  0  0  0  0  0
   23.5537   -2.4742   12.4130 O   0  0  0  0  0  0  0  0  0  0  0  0
   20.0181   -3.3330   13.4205 C   0  0  1  0  0  0  0  0  0  0  0  0
   19.3922   -2.4061   12.5272 O   0  0  0  0  0  0  0  0  0  0  0  0
   17.6875   -4.6984   14.7884 C   0  0  1  0  0  0  0  0  0  0  0  0
   16.3136   -5.0946   14.7134 O   0  0  0  0  0  0  0  0  0  0  0  0
   26.2519    0.7338   17.3887 C   0  0  2  0  0  0  0  0  0  0  0  0
   25.9564    0.6474   18.7712 O   0  0  0  0  0  0  0  0  0  0  0  0
   28.5037   -2.2946   14.6533 C   0  0  2  0  0  0  0  0  0  0  0  0
   25.1405   -3.3223   10.9412 C   0  0  2  0  0  0  0  0  0  0  0  0
   26.2522   -3.2928   11.8223 O   0  0  0  0  0  0  0  0  0  0  0  0
   19.8757   -4.7548   12.7368 C   0  0  2  0  0  0  0  0  0  0  0  0
   20.4781   -5.6550   13.6680 O   0  0  0  0  0  0  0  0  0  0  0  0
   17.8697   -3.7180   15.9484 C   0  0  2  0  0  0  0  0  0  0  0  0
   17.2899   -2.4701   15.5344 O   0  0  0  0  0  0  0  0  0  0  0  0
   26.0331   -0.6222   16.6729 C   0  0  2  0  0  0  0  0  0  0  0  0
   26.2421   -0.3985   15.2491 O   0  0  0  0  0  0  0  0  0  0  0  0
   28.7777   -2.2454   13.1160 C   0  0  2  0  0  0  0  0  0  0  0  0
   27.7014   -1.5252   12.4531 O   0  0  0  0  0  0  0  0  0  0  0  0
   25.6402   -3.3796    9.4981 C   0  0  0  0  0  0  0  0  0  0  0  0
   24.4993   -3.2346    8.6395 O   0  0  0  0  0  0  0  0  0  0  0  0
   20.8034   -4.7277   11.5373 C   0  0  1  0  0  0  0  0  0  0  0  0
   22.0564   -4.0355   11.3494 O   0  0  0  0  0  0  0  0  0  0  0  0
   19.3305   -3.6203   16.3739 C   0  0  2  0  0  0  0  0  0  0  0  0
   20.2148   -4.7468   16.2712 O   0  0  0  0  0  0  0  0  0  0  0  0
   24.6397   -1.1353   16.8060 C   0  0  0  0  0  0  0  0  0  0  0  0
   24.5999   -2.4083   16.2075 O   0  0  0  0  0  0  0  0  0  0  0  0
   28.9846   -3.6869   12.5403 C   0  0  1  0  0  0  0  0  0  0  0  0
   29.4227   -3.5409   11.1633 O   0  0  0  0  0  0  0  0  0  0  0  0
   20.7801   -5.9845   10.6139 C   0  0  0  0  0  0  0  0  0  0  0  0
   21.4734   -7.1529   11.1960 N   0  0  0  0  0  0  0  0  0  0  0  0
   19.8075   -2.7252   17.5154 C   0  0  0  0  0  0  0  0  0  0  0  0
   19.6298   -1.3290   17.1580 O   0  0  0  0  0  0  0  0  0  0  0  0
  1  2  1  1  0  0  0
  1  8  1  0  0  0  0
  1 36  1  0  0  0  0
  3  4  1  6  0  0  0
  3 10  1  0  0  0  0
  3 47  1  0  0  0  0
  5 11  1  0  0  0  0
  5 30  1  0  0  0  0
  5 38  1  6  0  0  0
  6 21  1  1  0  0  0
  6 42  1  0  0  0  0
  7 15  1  0  0  0  0
  7 44  1  0  0  0  0
  7 32  1  6  0  0  0
  8  9  1  1  0  0  0
  8 17  1  0  0  0  0
 11 12  1  1  0  0  0
 11 20  1  0  0  0  0
 13  6  1  0  0  0  0
 13 14  1  1  0  0  0
 15 16  1  1  0  0  0
 15 24  1  0  0  0  0
 17 26  1  0  0  0  0
 18 10  1  0  0  0  0
 18 19  1  1  0  0  0
 20 21  1  1  0  0  0
 20 29  1  0  0  0  0
 22 13  1  0  0  0  0
 22 23  1  6  0  0  0
 24 25  1  1  0  0  0
 24 33  1  0  0  0  0
 26 27  1  1  0  0  0
 26 35  1  0  0  0  0
 28  2  1  1  0  0  0
 28 18  1  0  0  0  0
 29 30  1  0  0  0  0
 29 39  1  6  0  0  0
 31 22  1  0  0  0  0
 31 32  1  1  0  0  0
 31 41  1  0  0  0  0
 33 34  1  6  0  0  0
 33 43  1  0  0  0  0
 35 36  1  0  0  0  0
 35 45  1  6  0  0  0
 37 28  1  0  0  0  0
 37 38  1  6  0  0  0
 39 40  1  0  0  0  0
 41 42  1  0  0  0  0
 41 49  1  1  0  0  0
 43 44  1  0  0  0  0
 43 51  1  1  0  0  0
 45 46  1  0  0  0  0
 47 37  1  0  0  0  0
 47 48  1  6  0  0  0
 49 50  1  0  0  0  0
 51 52  1  0  0  0  0
M  END
>  <CHROM.1>
-175.35380228,175.87478094,-169.31673369,53.02904171,146.96860936,-173.67075311
-57.86129478,55.52585786,-175.54603705,-62.57472712,-74.82914782,-66.78350567
23.96697285,-2.87452526,14.03708365,0.13656411,0.25471369,1.01381315

>  <Name>
2esj_lig

>  <RI>
0

>  <Rbt.Current_Directory>
/home/itssahil/PROJECTS/Mol_Feturizer/New_Systems/rnas/2esj

>  <Rbt.Executable>
rbdock ($Id: //depot/dev/client3/rdock/2013.1/src/exe/rbdock.cxx#4 $)

>  <Rbt.Library>
libRbt.so (2013.1, Build901 2013/11/27)

>  <Rbt.Parameter_File>
/export/apps/rDock/src/rDock_2013.1_src/data/scripts/dock_solv.prm

>  <Rbt.Receptor>
prm/pocket_docking_4.prm

>  <SCORE>
-12.5612

>  <SCORE.INTER>
-2.64035

>  <SCORE.INTER.CONST>
1

>  <SCORE.INTER.POLAR>
-0.974151

>  <SCORE.INTER.ROT>
12

>  <SCORE.INTER.SOLV>
13.2563

>  <SCORE.INTER.VDW>
-14.5318

>  <SCORE.INTER.norm>
-0.0507759

>  <SCORE.INTRA>
-9.92081

>  <SCORE.INTRA.DIHEDRAL>
-22.4007

>  <SCORE.INTRA.DIHEDRAL.0>
32.9766

>  <SCORE.INTRA.POLAR>
0

>  <SCORE.INTRA.POLAR.0>
0

>  <SCORE.INTRA.REPUL>
0

>  <SCORE.INTRA.REPUL.0>
0

>  <SCORE.INTRA.SOLV>
0.902894

>  <SCORE.INTRA.SOLV.lig_0>
-114.358

>  <SCORE.INTRA.VDW>
0.828069

>  <SCORE.INTRA.VDW.0>
-8.24257

>  <SCORE.INTRA.norm>
-0.190785

>  <SCORE.RESTR>
0

>  <SCORE.RESTR.CAVITY>
0

>  <SCORE.RESTR.norm>
0

>  <SCORE.SYSTEM>
0

>  <SCORE.SYSTEM.CONST>
0

>  <SCORE.SYSTEM.DIHEDRAL>
0

>  <SCORE.SYSTEM.SOLV>
0

>  <SCORE.SYSTEM.norm>
0

>  <SCORE.heavy>
52

>  <SCORE.norm>
-0.241561

>  <RMSD>
10.226

$$$$
2esj_lig
 OpenBabel11021811423D
libRbt.so/2013.1/901 2013/11/27
 52 56  0  0  0  0  0  0  0  0999 V2000
   21.7416   -3.2778   15.9022 C   0  0  2  0  0  0  0  0  0  0  0  0
   21.1416   -4.1410   14.9174 O   0  0  0  0  0  0  0  0  0  0  0  0
   18.2816   -6.1779   17.3585 C   0  0  2  0  0  0  0  0  0  0  0  0
   17.1241   -6.9371   17.8598 N   0  0  0  0  0  0  0  0  0  0  0  0
   21.8486   -8.2760   15.5062 C   0  0  1  0  0  0  0  0  0  0  0  0
   22.1377  -12.0269   15.4851 C   0  0  1  0  0  0  0  0  0  0  0  0
   19.4049  -14.6058   19.0261 C   0  0  1  0  0  0  0  0  0  0  0  0
   22.7521   -2.3531   15.1614 C   0  0  2  0  0  0  0  0  0  0  0  0
   22.1196   -1.5940   14.0829 N   0  0  0  0  0  0  0  0  0  0  0  0
   17.7975   -4.9174   16.5374 C   0  0  0  0  0  0  0  0  0  0  0  0
   22.0731   -9.2557   14.3537 C   0  0  2  0  0  0  0  0  0  0  0  0
   20.9222  -10.0936   14.1114 O   0  0  0  0  0  0  0  0  0  0  0  0
   20.8050  -11.8899   16.3490 C   0  0  2  0  0  0  0  0  0  0  0  0
   21.1193  -11.6448   17.7815 N   0  0  0  0  0  0  0  0  0  0  0  0
   18.6524  -13.3316   18.6605 C   0  0  1  0  0  0  0  0  0  0  0  0
   17.2357  -13.5634   18.7935 O   0  0  0  0  0  0  0  0  0  0  0  0
   23.9516   -3.1782   14.5961 C   0  0  0  0  0  0  0  0  0  0  0  0
   19.0526   -4.0829   16.0581 C   0  0  2  0  0  0  0  0  0  0  0  0
   18.6306   -2.9130   15.2809 N   0  0  0  0  0  0  0  0  0  0  0  0
   23.2799   -9.9955   14.8541 C   0  0  2  0  0  0  0  0  0  0  0  0
   22.9134  -10.9218   15.8452 O   0  0  0  0  0  0  0  0  0  0  0  0
   19.8762  -13.1528   16.0706 C   0  0  1  0  0  0  0  0  0  0  0  0
   19.7118  -13.3034   14.6567 O   0  0  0  0  0  0  0  0  0  0  0  0
   19.0083  -12.1043   19.4908 C   0  0  1  0  0  0  0  0  0  0  0  0
   18.0521  -11.0868   19.1738 O   0  0  0  0  0  0  0  0  0  0  0  0
   24.5926   -3.9943   15.7575 C   0  0  2  0  0  0  0  0  0  0  0  0
   25.7382   -4.7088   15.3294 O   0  0  0  0  0  0  0  0  0  0  0  0
   20.0061   -4.9732   15.2195 C   0  0  2  0  0  0  0  0  0  0  0  0
   24.1296   -8.9546   15.6118 C   0  0  2  0  0  0  0  0  0  0  0  0
   23.1392   -8.0602   16.0938 O   0  0  0  0  0  0  0  0  0  0  0  0
   20.5567  -14.4928   16.5712 C   0  0  2  0  0  0  0  0  0  0  0  0
   20.6735  -14.3214   17.9845 O   0  0  0  0  0  0  0  0  0  0  0  0
   18.9986  -12.3566   20.9995 C   0  0  2  0  0  0  0  0  0  0  0  0
   19.6448  -11.2303   21.6147 O   0  0  0  0  0  0  0  0  0  0  0  0
   23.5147   -4.9413   16.3410 C   0  0  2  0  0  0  0  0  0  0  0  0
   22.4408   -4.1062   16.8608 O   0  0  0  0  0  0  0  0  0  0  0  0
   20.4302   -6.2998   15.9275 C   0  0  2  0  0  0  0  0  0  0  0  0
   21.2575   -7.0883   15.0274 O   0  0  0  0  0  0  0  0  0  0  0  0
   25.1528   -8.1779   14.7839 C   0  0  0  0  0  0  0  0  0  0  0  0
   25.8332   -7.2779   15.6709 O   0  0  0  0  0  0  0  0  0  0  0  0
   21.9758  -14.4563   16.0374 C   0  0  1  0  0  0  0  0  0  0  0  0
   22.8481  -13.3309   15.7982 O   0  0  0  0  0  0  0  0  0  0  0  0
   19.6231  -13.7038   21.3452 C   0  0  2  0  0  0  0  0  0  0  0  0
   19.5224  -14.8243   20.4529 O   0  0  0  0  0  0  0  0  0  0  0  0
   24.0057   -5.7431   17.4979 C   0  0  0  0  0  0  0  0  0  0  0  0
   24.5028   -4.8405   18.4562 O   0  0  0  0  0  0  0  0  0  0  0  0
   19.1752   -7.0847   16.4384 C   0  0  1  0  0  0  0  0  0  0  0  0
   19.6595   -8.1908   17.2455 O   0  0  0  0  0  0  0  0  0  0  0  0
   22.8488  -15.7217   16.3008 C   0  0  0  0  0  0  0  0  0  0  0  0
   23.4094  -15.7733   17.6675 N   0  0  0  0  0  0  0  0  0  0  0  0
   19.7397  -14.2255   22.7756 C   0  0  0  0  0  0  0  0  0  0  0  0
   18.5772  -15.0307   23.1059 O   0  0  0  0  0  0  0  0  0  0  0  0
  1  2  1  6  0  0  0
  1  8  1  0  0  0  0
  1 36  1  0  0  0  0
  3  4  1  6  0  0  0
  3 10  1  0  0  0  0
  3 47  1  0  0  0  0
  5 11  1  0  0  0  0
  5 30  1  0  0  0  0
  5 38  1  6  0  0  0
  6 21  1  1  0  0  0
  6 42  1  0  0  0  0
  7 15  1  0  0  0  0
  7 44  1  0  0  0  0
  7 32  1  1  0  0  0
  8  9  1  6  0  0  0
  8 17  1  0  0  0  0
 11 12  1  1  0  0  0
 11 20  1  0  0  0  0
 13  6  1  0  0  0  0
 13 14  1  1  0  0  0
 15 16  1  1  0  0  0
 15 24  1  0  0  0  0
 17 26  1  0  0  0  0
 18 10  1  0  0  0  0
 18 19  1  6  0  0  0
 20 21  1  1  0  0  0
 20 29  1  0  0  0  0
 22 13  1  0  0  0  0
 22 23  1  6  0  0  0
 24 25  1  1  0  0  0
 24 33  1  0  0  0  0
 26 27  1  6  0  0  0
 26 35  1  0  0  0  0
 28  2  1  1  0  0  0
 28 18  1  0  0  0  0
 29 30  1  0  0  0  0
 29 39  1  6  0  0  0
 31 22  1  0  0  0  0
 31 32  1  1  0  0  0
 31 41  1  0  0  0  0
 33 34  1  1  0  0  0
 33 43  1  0  0  0  0
 35 36  1  0  0  0  0
 35 45  1  1  0  0  0
 37 28  1  0  0  0  0
 37 38  1  6  0  0  0
 39 40  1  0  0  0  0
 41 42  1  0  0  0  0
 41 49  1  1  0  0  0
 43 44  1  0  0  0  0
 43 51  1  1  0  0  0
 45 46  1  0  0  0  0
 47 37  1  0  0  0  0
 47 48  1  1  0  0  0
 49 50  1  0  0  0  0
 51 52  1  0  0  0  0
M  END
>  <CHROM.1>
-169.70809923,152.73938443,-119.72754682,-74.69693716,67.61348261,42.78829129
-179.69651128,81.76921456,55.34997167,174.52314403,-79.63906552,91.99354668
21.19914187,-9.23423925,16.96252649,1.29715964,0.59098475,-0.18909350

>  <Name>
2esj_lig

>  <RI>
2.18877e+07

>  <Rbt.Current_Directory>
/home/itssahil/PROJECTS/Mol_Feturizer/New_Systems/rnas/2esj

>  <Rbt.Executable>
rbdock ($Id: //depot/dev/client3/rdock/2013.1/src/exe/rbdock.cxx#4 $)

>  <Rbt.Library>
libRbt.so (2013.1, Build901 2013/11/27)

>  <Rbt.Parameter_File>
/export/apps/rDock/src/rDock_2013.1_src/data/scripts/dock_solv.prm

>  <Rbt.Receptor>
prm/pocket_docking_7.prm

>  <SCORE>
-7.48363

>  <SCORE.INTER>
-7.09299

>  <SCORE.INTER.CONST>
1

>  <SCORE.INTER.POLAR>
-1.55798

>  <SCORE.INTER.ROT>
12

>  <SCORE.INTER.SOLV>
12.4891

>  <SCORE.INTER.VDW>
-15.2984

>  <SCORE.INTER.norm>
-0.136404

>  <SCORE.INTRA>
-0.419265

>  <SCORE.INTRA.DIHEDRAL>
-11.2276

>  <SCORE.INTRA.DIHEDRAL.0>
32.9766

>  <SCORE.INTRA.POLAR>
0

>  <SCORE.INTRA.POLAR.0>
0

>  <SCORE.INTRA.REPUL>
0

>  <SCORE.INTRA.REPUL.0>
0

>  <SCORE.INTRA.SOLV>
3.65736

>  <SCORE.INTRA.SOLV.lig_0>
-114.358

>  <SCORE.INTRA.VDW>
3.36585

>  <SCORE.INTRA.VDW.0>
-8.24257

>  <SCORE.INTRA.norm>
-0.00806279

>  <SCORE.RESTR>
0.0286287

>  <SCORE.RESTR.CAVITY>
0.0286287

>  <SCORE.RESTR.norm>
0.000550552

>  <SCORE.SYSTEM>
0

>  <SCORE.SYSTEM.CONST>
0

>  <SCORE.SYSTEM.DIHEDRAL>
0

>  <SCORE.SYSTEM.SOLV>
0

>  <SCORE.SYSTEM.norm>
0

>  <SCORE.heavy>
52

>  <SCORE.norm>
-0.143916

>  <RMSD>
10.266

$$$$
2esj_lig
 OpenBabel11021811423D
libRbt.so/2013.1/901 2013/11/27
 52 56  0  0  0  0  0  0  0  0999 V2000
   27.7498   -1.4183   16.5846 C   0  0  2  0  0  0  0  0  0  0  0  0
   28.1802   -1.5404   15.2154 O   0  0  0  0  0  0  0  0  0  0  0  0
   26.2729   -2.3103   11.4661 C   0  0  2  0  0  0  0  0  0  0  0  0
   25.5820   -2.9293   10.3229 N   0  0  0  0  0  0  0  0  0  0  0  0
   23.8254   -1.6287   15.0194 C   0  0  1  0  0  0  0  0  0  0  0  0
   19.8677   -3.0502   14.5101 C   0  0  1  0  0  0  0  0  0  0  0  0
   17.0485   -5.3211   18.4638 C   0  0  1  0  0  0  0  0  0  0  0  0
   28.9810   -1.7143   17.4910 C   0  0  2  0  0  0  0  0  0  0  0  0
   30.1113   -0.8351   17.1936 N   0  0  0  0  0  0  0  0  0  0  0  0
   27.5910   -3.1114   11.8103 C   0  0  0  0  0  0  0  0  0  0  0  0
   23.3115   -3.0653   15.1220 C   0  0  2  0  0  0  0  0  0  0  0  0
   23.2958   -3.7370   13.8437 O   0  0  0  0  0  0  0  0  0  0  0  0
   18.8315   -2.4031   15.5341 C   0  0  2  0  0  0  0  0  0  0  0  0
   19.4058   -2.3343   16.9039 N   0  0  0  0  0  0  0  0  0  0  0  0
   18.0023   -4.9288   19.5863 C   0  0  1  0  0  0  0  0  0  0  0  0
   17.2500   -4.7344   20.8007 O   0  0  0  0  0  0  0  0  0  0  0  0
   29.4220   -3.2069   17.3618 C   0  0  0  0  0  0  0  0  0  0  0  0
   28.3493   -2.3981   13.0009 C   0  0  2  0  0  0  0  0  0  0  0  0
   29.5712   -3.1305   13.3495 N   0  0  0  0  0  0  0  0  0  0  0  0
   21.9508   -2.8281   15.7105 C   0  0  2  0  0  0  0  0  0  0  0  0
   21.0636   -2.3604   14.7264 O   0  0  0  0  0  0  0  0  0  0  0  0
   17.4443   -3.1769   15.4243 C   0  0  1  0  0  0  0  0  0  0  0  0
   17.0463   -3.2203   14.0501 O   0  0  0  0  0  0  0  0  0  0  0  0
   19.1133   -5.9306   19.8764 C   0  0  1  0  0  0  0  0  0  0  0  0
   19.7495   -5.5175   21.0908 O   0  0  0  0  0  0  0  0  0  0  0  0
   28.1969   -4.1212   17.6600 C   0  0  2  0  0  0  0  0  0  0  0  0
   28.5458   -5.4937   17.6359 O   0  0  0  0  0  0  0  0  0  0  0  0
   27.4214   -2.2760   14.2375 C   0  0  2  0  0  0  0  0  0  0  0  0
   22.1083   -1.6310   16.6705 C   0  0  2  0  0  0  0  0  0  0  0  0
   23.1588   -0.8992   16.0590 O   0  0  0  0  0  0  0  0  0  0  0  0
   17.5869   -4.6872   15.8803 C   0  0  2  0  0  0  0  0  0  0  0  0
   17.9500   -4.6056   17.2594 O   0  0  0  0  0  0  0  0  0  0  0  0
   18.6209   -7.3711   20.0267 C   0  0  2  0  0  0  0  0  0  0  0  0
   19.7824   -8.2157   19.9800 O   0  0  0  0  0  0  0  0  0  0  0  0
   27.0848   -3.7971   16.6318 C   0  0  2  0  0  0  0  0  0  0  0  0
   26.7145   -2.4014   16.8205 O   0  0  0  0  0  0  0  0  0  0  0  0
   26.0455   -1.5982   13.9401 C   0  0  2  0  0  0  0  0  0  0  0  0
   25.2300   -1.6041   15.1448 O   0  0  0  0  0  0  0  0  0  0  0  0
   22.4938   -1.9603   18.1123 C   0  0  0  0  0  0  0  0  0  0  0  0
   23.4546   -3.0256   18.0703 O   0  0  0  0  0  0  0  0  0  0  0  0
   18.8152   -5.2171   15.1658 C   0  0  1  0  0  0  0  0  0  0  0  0
   20.0268   -4.5360   14.7750 O   0  0  0  0  0  0  0  0  0  0  0  0
   17.5570   -7.7097   18.9885 C   0  0  2  0  0  0  0  0  0  0  0  0
   16.6474   -6.7122   18.4991 O   0  0  0  0  0  0  0  0  0  0  0  0
   25.8380   -4.5843   16.8519 C   0  0  0  0  0  0  0  0  0  0  0  0
   25.5592   -4.5562   18.2309 O   0  0  0  0  0  0  0  0  0  0  0  0
   25.3355   -2.2874   12.7263 C   0  0  1  0  0  0  0  0  0  0  0  0
   24.1719   -1.4835   12.3962 O   0  0  0  0  0  0  0  0  0  0  0  0
   19.1305   -6.7324   15.3592 C   0  0  0  0  0  0  0  0  0  0  0  0
   19.5504   -7.0732   16.7348 N   0  0  0  0  0  0  0  0  0  0  0  0
   16.8776   -9.0747   18.9065 C   0  0  0  0  0  0  0  0  0  0  0  0
   17.6568   -9.9666   18.0661 O   0  0  0  0  0  0  0  0  0  0  0  0
  1  2  1  6  0  0  0
  1  8  1  0  0  0  0
  1 36  1  0  0  0  0
  3  4  1  6  0  0  0
  3 10  1  0  0  0  0
  3 47  1  0  0  0  0
  5 11  1  0  0  0  0
  5 30  1  0  0  0  0
  5 38  1  1  0  0  0
  6 21  1  1  0  0  0
  6 42  1  0  0  0  0
  7 15  1  0  0  0  0
  7 44  1  0  0  0  0
  7 32  1  6  0  0  0
  8  9  1  6  0  0  0
  8 17  1  0  0  0  0
 11 12  1  6  0  0  0
 11 20  1  0  0  0  0
 13  6  1  0  0  0  0
 13 14  1  1  0  0  0
 15 16  1  1  0  0  0
 15 24  1  0  0  0  0
 17 26  1  0  0  0  0
 18 10  1  0  0  0  0
 18 19  1  1  0  0  0
 20 21  1  6  0  0  0
 20 29  1  0  0  0  0
 22 13  1  0  0  0  0
 22 23  1  6  0  0  0
 24 25  1  1  0  0  0
 24 33  1  0  0  0  0
 26 27  1  6  0  0  0
 26 35  1  0  0  0  0
 28  2  1  1  0  0  0
 28 18  1  0  0  0  0
 29 30  1  0  0  0  0
 29 39  1  1  0  0  0
 31 22  1  0  0  0  0
 31 32  1  1  0  0  0
 31 41  1  0  0  0  0
 33 34  1  6  0  0  0
 33 43  1  0  0  0  0
 35 36  1  0  0  0  0
 35 45  1  1  0  0  0
 37 28  1  0  0  0  0
 37 38  1  1  0  0  0
 39 40  1  0  0  0  0
 41 42  1  0  0  0  0
 41 49  1  1  0  0  0
 43 44  1  0  0  0  0
 43 51  1  1  0  0  0
 45 46  1  0  0  0  0
 47 37  1  0  0  0  0
 47 48  1  6  0  0  0
 49 50  1  0  0  0  0
 51 52  1  0  0  0  0
M  END
>  <CHROM.1>
133.38790133,95.62719586,88.06042597,176.87463138,124.76783379,-169.11400300
39.35443646,122.26855724,44.90170126,-151.48796806,-68.27823190,-87.80465329
22.67168565,-3.87940750,16.28815023,-0.44047224,0.17806421,2.06531052

>  <Name>
2esj_lig

>  <RI>
0

>  <Rbt.Current_Directory>
/home/itssahil/PROJECTS/Mol_Feturizer/New_Systems/rnas/2esj

>  <Rbt.Executable>
rbdock ($Id: //depot/dev/client3/rdock/2013.1/src/exe/rbdock.cxx#4 $)

>  <Rbt.Library>
libRbt.so (2013.1, Build901 2013/11/27)

>  <Rbt.Parameter_File>
/export/apps/rDock/src/rDock_2013.1_src/data/scripts/dock_solv.prm

>  <Rbt.Receptor>
prm/pocket_docking_2.prm

>  <SCORE>
17.9573

>  <SCORE.INTER>
-3.27398

>  <SCORE.INTER.CONST>
1

>  <SCORE.INTER.POLAR>
-0.979796

>  <SCORE.INTER.ROT>
12

>  <SCORE.INTER.SOLV>
8.80528

>  <SCORE.INTER.VDW>
-13.4518

>  <SCORE.INTER.norm>
-0.0629612

>  <SCORE.INTRA>
11.7477

>  <SCORE.INTRA.DIHEDRAL>
6.4428

>  <SCORE.INTRA.DIHEDRAL.0>
32.9766

>  <SCORE.INTRA.POLAR>
0

>  <SCORE.INTRA.POLAR.0>
0

>  <SCORE.INTRA.REPUL>
0

>  <SCORE.INTRA.REPUL.0>
0

>  <SCORE.INTRA.SOLV>
7.617

>  <SCORE.INTRA.SOLV.lig_0>
-114.358

>  <SCORE.INTRA.VDW>
4.71779

>  <SCORE.INTRA.VDW.0>
-8.24257

>  <SCORE.INTRA.norm>
0.225917

>  <SCORE.RESTR>
9.48356

>  <SCORE.RESTR.CAVITY>
9.48356

>  <SCORE.RESTR.norm>
0.182376

>  <SCORE.SYSTEM>
0

>  <SCORE.SYSTEM.CONST>
0

>  <SCORE.SYSTEM.DIHEDRAL>
0

>  <SCORE.SYSTEM.SOLV>
0

>  <SCORE.SYSTEM.norm>
0

>  <SCORE.heavy>
52

>  <SCORE.norm>
0.345332

>  <RMSD>
10.270

$$$$
2esj_lig
 OpenBabel11021811423D
libRbt.so/2013.1/901 2013/11/27
 52 56  0  0  0  0  0  0  0  0999 V2000
   28.1938   -1.0768   18.0331 C   0  0  2  0  0  0  0  0  0  0  0  0
   26.7781   -1.3353   18.0951 O   0  0  0  0  0  0  0  0  0  0  0  0
   26.8697   -5.5331   18.9065 C   0  0  2  0  0  0  0  0  0  0  0  0
   26.5238   -6.9247   19.2398 N   0  0  0  0  0  0  0  0  0  0  0  0
   24.5021   -3.1983   15.9020 C   0  0  1  0  0  0  0  0  0  0  0  0
   20.4022   -3.0762   14.9898 C   0  0  1  0  0  0  0  0  0  0  0  0
   17.1233   -5.2452   18.5799 C   0  0  1  0  0  0  0  0  0  0  0  0
   28.3822    0.4576   17.8453 C   0  0  2  0  0  0  0  0  0  0  0  0
   27.7324    1.2286   18.9047 N   0  0  0  0  0  0  0  0  0  0  0  0
   26.4069   -4.5603   20.0628 C   0  0  0  0  0  0  0  0  0  0  0  0
   24.0163   -2.4124   14.6835 C   0  0  2  0  0  0  0  0  0  0  0  0
   23.8467   -1.0066   14.9669 O   0  0  0  0  0  0  0  0  0  0  0  0
   19.5426   -2.2744   16.0665 C   0  0  2  0  0  0  0  0  0  0  0  0
   20.0648   -2.4972   17.4408 N   0  0  0  0  0  0  0  0  0  0  0  0
   18.0204   -5.0148   19.7905 C   0  0  1  0  0  0  0  0  0  0  0  0
   17.2182   -5.0490   20.9879 O   0  0  0  0  0  0  0  0  0  0  0  0
   27.8492    0.9180   16.4514 C   0  0  0  0  0  0  0  0  0  0  0  0
   26.8393   -3.0793   19.7147 C   0  0  2  0  0  0  0  0  0  0  0  0
   26.4090   -2.1531   20.7672 N   0  0  0  0  0  0  0  0  0  0  0  0
   22.7377   -3.1389   14.3809 C   0  0  2  0  0  0  0  0  0  0  0  0
   21.7311   -2.7614   15.2857 O   0  0  0  0  0  0  0  0  0  0  0  0
   18.0031   -2.6280   15.8663 C   0  0  1  0  0  0  0  0  0  0  0  0
   17.6576   -2.4284   14.4917 O   0  0  0  0  0  0  0  0  0  0  0  0
   19.1581   -6.0149   19.9577 C   0  0  1  0  0  0  0  0  0  0  0  0
   19.7339   -5.7892   21.2490 O   0  0  0  0  0  0  0  0  0  0  0  0
   28.5380    0.0674   15.3434 C   0  0  2  0  0  0  0  0  0  0  0  0
   28.1569    0.4857   14.0450 O   0  0  0  0  0  0  0  0  0  0  0  0
   26.2509   -2.6516   18.3451 C   0  0  2  0  0  0  0  0  0  0  0  0
   23.0043   -4.6209   14.7157 C   0  0  2  0  0  0  0  0  0  0  0  0
   23.9646   -4.5200   15.7552 O   0  0  0  0  0  0  0  0  0  0  0  0
   17.7172   -4.1570   16.1656 C   0  0  2  0  0  0  0  0  0  0  0  0
   18.0394   -4.3111   17.5486 O   0  0  0  0  0  0  0  0  0  0  0  0
   18.7162   -7.4753   19.8478 C   0  0  2  0  0  0  0  0  0  0  0  0
   19.9103   -8.2628   19.7110 O   0  0  0  0  0  0  0  0  0  0  0  0
   28.1924   -1.4227   15.5869 C   0  0  2  0  0  0  0  0  0  0  0  0
   28.7310   -1.7842   16.8908 O   0  0  0  0  0  0  0  0  0  0  0  0
   26.5709   -3.6371   17.1757 C   0  0  2  0  0  0  0  0  0  0  0  0
   25.9111   -3.1818   15.9617 O   0  0  0  0  0  0  0  0  0  0  0  0
   23.5690   -5.4831   13.5873 C   0  0  0  0  0  0  0  0  0  0  0  0
   23.8071   -6.7934   14.1221 O   0  0  0  0  0  0  0  0  0  0  0  0
   18.7822   -4.9288   15.4104 C   0  0  1  0  0  0  0  0  0  0  0  0
   20.1457   -4.5678   15.1017 O   0  0  0  0  0  0  0  0  0  0  0  0
   17.7041   -7.6704   18.7245 C   0  0  2  0  0  0  0  0  0  0  0  0
   16.7750   -6.6349   18.3686 O   0  0  0  0  0  0  0  0  0  0  0  0
   28.8411   -2.3407   14.6077 C   0  0  0  0  0  0  0  0  0  0  0  0
   28.4169   -3.6480   14.9099 O   0  0  0  0  0  0  0  0  0  0  0  0
   26.1817   -5.1042   17.5611 C   0  0  1  0  0  0  0  0  0  0  0  0
   26.6858   -5.9722   16.5114 O   0  0  0  0  0  0  0  0  0  0  0  0
   18.6707   -6.4841   15.4493 C   0  0  0  0  0  0  0  0  0  0  0  0
   18.7564   -7.1118   14.1139 N   0  0  0  0  0  0  0  0  0  0  0  0
   17.0810   -9.0238   18.3903 C   0  0  0  0  0  0  0  0  0  0  0  0
   16.5081   -9.6147   19.5866 O   0  0  0  0  0  0  0  0  0  0  0  0
  1  2  1  6  0  0  0
  1  8  1  0  0  0  0
  1 36  1  0  0  0  0
  3  4  1  1  0  0  0
  3 10  1  0  0  0  0
  3 47  1  0  0  0  0
  5 11  1  0  0  0  0
  5 30  1  0  0  0  0
  5 38  1  6  0  0  0
  6 21  1  1  0  0  0
  6 42  1  0  0  0  0
  7 15  1  0  0  0  0
  7 44  1  0  0  0  0
  7 32  1  6  0  0  0
  8  9  1  1  0  0  0
  8 17  1  0  0  0  0
 11 12  1  1  0  0  0
 11 20  1  0  0  0  0
 13  6  1  0  0  0  0
 13 14  1  1  0  0  0
 15 16  1  1  0  0  0
 15 24  1  0  0  0  0
 17 26  1  0  0  0  0
 18 10  1  0  0  0  0
 18 19  1  1  0  0  0
 20 21  1  1  0  0  0
 20 29  1  0  0  0  0
 22 13  1  0  0  0  0
 22 23  1  6  0  0  0
 24 25  1  1  0  0  0
 24 33  1  0  0  0  0
 26 27  1  6  0  0  0
 26 35  1  0  0  0  0
 28  2  1  6  0  0  0
 28 18  1  0  0  0  0
 29 30  1  0  0  0  0
 29 39  1  6  0  0  0
 31 22  1  0  0  0  0
 31 32  1  1  0  0  0
 31 41  1  0  0  0  0
 33 34  1  6  0  0  0
 33 43  1  0  0  0  0
 35 36  1  0  0  0  0
 35 45  1  6  0  0  0
 37 28  1  0  0  0  0
 37 38  1  6  0  0  0
 39 40  1  0  0  0  0
 41 42  1  0  0  0  0
 41 49  1  1  0  0  0
 43 44  1  0  0  0  0
 43 51  1  1  0  0  0
 45 46  1  0  0  0  0
 47 37  1  0  0  0  0
 47 48  1  6  0  0  0
 49 50  1  0  0  0  0
 51 52  1  0  0  0  0
M  END
>  <CHROM.1>
-176.22945355,167.86903188,-169.75677027,177.88476429,165.10642711,58.46630817
177.02855702,139.84601947,-178.19312256,-66.59009784,130.16085568,52.52663938
22.89059269,-3.97656411,17.03146841,-0.34277189,0.30529334,2.14955078

>  <Name>
2esj_lig

>  <RI>
0

>  <Rbt.Current_Directory>
/home/itssahil/PROJECTS/Mol_Feturizer/New_Systems/rnas/2esj

>  <Rbt.Executable>
rbdock ($Id: //depot/dev/client3/rdock/2013.1/src/exe/rbdock.cxx#4 $)

>  <Rbt.Library>
libRbt.so (2013.1, Build901 2013/11/27)

>  <Rbt.Parameter_File>
/export/apps/rDock/src/rDock_2013.1_src/data/scripts/dock_solv.prm

>  <Rbt.Receptor>
prm/pocket_docking_4.prm

>  <SCORE>
-16.217

>  <SCORE.INTER>
-6.01464

>  <SCORE.INTER.CONST>
1

>  <SCORE.INTER.POLAR>
-1.79747

>  <SCORE.INTER.ROT>
12

>  <SCORE.INTER.SOLV>
11.1237

>  <SCORE.INTER.VDW>
-13.3261

>  <SCORE.INTER.norm>
-0.115666

>  <SCORE.INTRA>
-10.203

>  <SCORE.INTRA.DIHEDRAL>
-19.9955

>  <SCORE.INTRA.DIHEDRAL.0>
32.9766

>  <SCORE.INTRA.POLAR>
0

>  <SCORE.INTRA.POLAR.0>
0

>  <SCORE.INTRA.REPUL>
0

>  <SCORE.INTRA.REPUL.0>
0

>  <SCORE.INTRA.SOLV>
-3.0883

>  <SCORE.INTRA.SOLV.lig_0>
-114.358

>  <SCORE.INTRA.VDW>
1.33896

>  <SCORE.INTRA.VDW.0>
-8.24257

>  <SCORE.INTRA.norm>
-0.196211

>  <SCORE.RESTR>
0.000640998

>  <SCORE.RESTR.CAVITY>
0.000640998

>  <SCORE.RESTR.norm>
1.23269e-05

>  <SCORE.SYSTEM>
0

>  <SCORE.SYSTEM.CONST>
0

>  <SCORE.SYSTEM.DIHEDRAL>
0

>  <SCORE.SYSTEM.SOLV>
0

>  <SCORE.SYSTEM.norm>
0

>  <SCORE.heavy>
52

>  <SCORE.norm>
-0.311865

>  <RMSD>
10.277

$$$$
2esj_lig
 OpenBabel11021811423D
libRbt.so/2013.1/901 2013/11/27
 52 56  0  0  0  0  0  0  0  0999 V2000
   25.9895    0.7870   16.0013 C   0  0  2  0  0  0  0  0  0  0  0  0
   25.8746   -0.4735   15.3137 O   0  0  0  0  0  0  0  0  0  0  0  0
   21.7183   -0.3485   14.3149 C   0  0  2  0  0  0  0  0  0  0  0  0
   20.3786   -0.6196   13.7679 N   0  0  0  0  0  0  0  0  0  0  0  0
   24.0574   -3.6104   16.2449 C   0  0  1  0  0  0  0  0  0  0  0  0
   24.8502   -7.4076   14.6116 C   0  0  1  0  0  0  0  0  0  0  0  0
   20.9938  -10.9726   14.4831 C   0  0  1  0  0  0  0  0  0  0  0  0
   27.4933    0.9969   16.3469 C   0  0  2  0  0  0  0  0  0  0  0  0
   28.3466    0.9425   15.1603 N   0  0  0  0  0  0  0  0  0  0  0  0
   22.7707   -0.2066   13.1445 C   0  0  0  0  0  0  0  0  0  0  0  0
   25.2863   -3.8270   15.3610 C   0  0  2  0  0  0  0  0  0  0  0  0
   25.0481   -3.4548   13.9862 O   0  0  0  0  0  0  0  0  0  0  0  0
   23.7131   -7.8798   13.5990 C   0  0  2  0  0  0  0  0  0  0  0  0
   22.3690   -7.4478   14.0654 N   0  0  0  0  0  0  0  0  0  0  0  0
   19.9268   -9.8953   14.6389 C   0  0  1  0  0  0  0  0  0  0  0  0
   18.8947  -10.1051   13.6545 O   0  0  0  0  0  0  0  0  0  0  0  0
   27.9761   -0.0549   17.3956 C   0  0  0  0  0  0  0  0  0  0  0  0
   24.1905    0.1428   13.7477 C   0  0  2  0  0  0  0  0  0  0  0  0
   25.1899    0.2667   12.6815 N   0  0  0  0  0  0  0  0  0  0  0  0
   25.5193   -5.2953   15.5707 C   0  0  2  0  0  0  0  0  0  0  0  0
   24.5952   -6.0510   14.8296 O   0  0  0  0  0  0  0  0  0  0  0  0
   23.8658   -9.4438   13.3430 C   0  0  1  0  0  0  0  0  0  0  0  0
   25.2180   -9.7207   12.9639 O   0  0  0  0  0  0  0  0  0  0  0  0
   19.2635   -9.8292   16.0093 C   0  0  1  0  0  0  0  0  0  0  0  0
   18.1469   -8.9399   15.8969 O   0  0  0  0  0  0  0  0  0  0  0  0
   27.0388    0.0065   18.6379 C   0  0  2  0  0  0  0  0  0  0  0  0
   27.4665   -0.8708   19.6643 O   0  0  0  0  0  0  0  0  0  0  0  0
   24.6242   -0.9382   14.7716 C   0  0  2  0  0  0  0  0  0  0  0  0
   25.1405   -5.5778   17.0391 C   0  0  2  0  0  0  0  0  0  0  0  0
   24.1382   -4.6024   17.2778 O   0  0  0  0  0  0  0  0  0  0  0  0
   23.6101  -10.2744   14.6673 C   0  0  2  0  0  0  0  0  0  0  0  0
   22.2469  -10.0019   14.9959 O   0  0  0  0  0  0  0  0  0  0  0  0
   18.7812  -11.1855   16.5268 C   0  0  2  0  0  0  0  0  0  0  0  0
   18.4776  -11.0157   17.9210 O   0  0  0  0  0  0  0  0  0  0  0  0
   25.5958   -0.3159   18.1766 C   0  0  2  0  0  0  0  0  0  0  0  0
   25.2090    0.7093   17.2173 O   0  0  0  0  0  0  0  0  0  0  0  0
   23.5723   -1.2155   15.8929 C   0  0  2  0  0  0  0  0  0  0  0  0
   24.0458   -2.2929   16.7482 O   0  0  0  0  0  0  0  0  0  0  0  0
   26.2555   -5.4207   18.0724 C   0  0  0  0  0  0  0  0  0  0  0  0
   27.2572   -6.4062   17.7808 O   0  0  0  0  0  0  0  0  0  0  0  0
   24.4329   -9.5932   15.7439 C   0  0  1  0  0  0  0  0  0  0  0  0
   24.7814   -8.2011   15.9033 O   0  0  0  0  0  0  0  0  0  0  0  0
   19.7935  -12.2876   16.2351 C   0  0  2  0  0  0  0  0  0  0  0  0
   20.6256  -12.2464   15.0656 O   0  0  0  0  0  0  0  0  0  0  0  0
   24.5980   -0.2393   19.2816 C   0  0  0  0  0  0  0  0  0  0  0  0
   24.8690   -1.2973   20.1689 O   0  0  0  0  0  0  0  0  0  0  0  0
   22.1635   -1.5090   15.2753 C   0  0  1  0  0  0  0  0  0  0  0  0
   21.2151   -1.5609   16.3740 O   0  0  0  0  0  0  0  0  0  0  0  0
   24.4449  -10.2779   17.1453 C   0  0  0  0  0  0  0  0  0  0  0  0
   23.5553   -9.6215   18.1264 N   0  0  0  0  0  0  0  0  0  0  0  0
   19.5733  -13.7465   16.6285 C   0  0  0  0  0  0  0  0  0  0  0  0
   18.9818  -14.4750   15.5203 O   0  0  0  0  0  0  0  0  0  0  0  0
  1  2  1  1  0  0  0
  1  8  1  0  0  0  0
  1 36  1  0  0  0  0
  3  4  1  6  0  0  0
  3 10  1  0  0  0  0
  3 47  1  0  0  0  0
  5 11  1  0  0  0  0
  5 30  1  0  0  0  0
  5 38  1  1  0  0  0
  6 21  1  1  0  0  0
  6 42  1  0  0  0  0
  7 15  1  0  0  0  0
  7 44  1  0  0  0  0
  7 32  1  1  0  0  0
  8  9  1  6  0  0  0
  8 17  1  0  0  0  0
 11 12  1  6  0  0  0
 11 20  1  0  0  0  0
 13  6  1  0  0  0  0
 13 14  1  1  0  0  0
 15 16  1  6  0  0  0
 15 24  1  0  0  0  0
 17 26  1  0  0  0  0
 18 10  1  0  0  0  0
 18 19  1  6  0  0  0
 20 21  1  6  0  0  0
 20 29  1  0  0  0  0
 22 13  1  0  0  0  0
 22 23  1  1  0  0  0
 24 25  1  6  0  0  0
 24 33  1  0  0  0  0
 26 27  1  1  0  0  0
 26 35  1  0  0  0  0
 28  2  1  1  0  0  0
 28 18  1  0  0  0  0
 29 30  1  0  0  0  0
 29 39  1  1  0  0  0
 31 22  1  0  0  0  0
 31 32  1  1  0  0  0
 31 41  1  0  0  0  0
 33 34  1  1  0  0  0
 33 43  1  0  0  0  0
 35 36  1  0  0  0  0
 35 45  1  1  0  0  0
 37 28  1  0  0  0  0
 37 38  1  6  0  0  0
 39 40  1  0  0  0  0
 41 42  1  0  0  0  0
 41 49  1  1  0  0  0
 43 44  1  0  0  0  0
 43 51  1  6  0  0  0
 45 46  1  0  0  0  0
 47 37  1  0  0  0  0
 47 48  1  1  0  0  0
 49 50  1  0  0  0  0
 51 52  1  0  0  0  0
M  END
>  <CHROM.1>
-175.86633856,80.13564573,-172.96092247,-158.29998237,163.63230378,59.52717333
-64.06905076,92.63529933,-68.03576310,-71.77601582,-101.76258949,93.78602033
23.52374100,-5.36977164,15.87202917,1.10792741,-0.44554212,-0.13176104

>  <Name>
2esj_lig

>  <RI>
0

>  <Rbt.Current_Directory>
/home/itssahil/PROJECTS/Mol_Feturizer/New_Systems/rnas/2esj

>  <Rbt.Executable>
rbdock ($Id: //depot/dev/client3/rdock/2013.1/src/exe/rbdock.cxx#4 $)

>  <Rbt.Library>
libRbt.so (2013.1, Build901 2013/11/27)

>  <Rbt.Parameter_File>
/export/apps/rDock/src/rDock_2013.1_src/data/scripts/dock_solv.prm

>  <Rbt.Receptor>
prm/pocket_docking_6.prm

>  <SCORE>
-18.1966

>  <SCORE.INTER>
-11.7932

>  <SCORE.INTER.CONST>
1

>  <SCORE.INTER.POLAR>
-0.780618

>  <SCORE.INTER.ROT>
12

>  <SCORE.INTER.SOLV>
13.0116

>  <SCORE.INTER.VDW>
-21.1973

>  <SCORE.INTER.norm>
-0.226792

>  <SCORE.INTRA>
-6.40347

>  <SCORE.INTRA.DIHEDRAL>
-16.4558

>  <SCORE.INTRA.DIHEDRAL.0>
32.9766

>  <SCORE.INTRA.POLAR>
0

>  <SCORE.INTRA.POLAR.0>
0

>  <SCORE.INTRA.REPUL>
0

>  <SCORE.INTRA.REPUL.0>
0

>  <SCORE.INTRA.SOLV>
-1.34267

>  <SCORE.INTRA.SOLV.lig_0>
-114.358

>  <SCORE.INTRA.VDW>
2.49578

>  <SCORE.INTRA.VDW.0>
-8.24257

>  <SCORE.INTRA.norm>
-0.123144

>  <SCORE.RESTR>
0

>  <SCORE.RESTR.CAVITY>
0

>  <SCORE.RESTR.norm>
0

>  <SCORE.SYSTEM>
0

>  <SCORE.SYSTEM.CONST>
0

>  <SCORE.SYSTEM.DIHEDRAL>
0

>  <SCORE.SYSTEM.SOLV>
0

>  <SCORE.SYSTEM.norm>
0

>  <SCORE.heavy>
52

>  <SCORE.norm>
-0.349936

>  <RMSD>
10.300

$$$$
2esj_lig
 OpenBabel11021811423D
libRbt.so/2013.1/901 2013/11/27
 52 56  0  0  0  0  0  0  0  0999 V2000
   24.3529   -1.2246   12.8291 C   0  0  2  0  0  0  0  0  0  0  0  0
   23.7042   -2.1298   13.7427 O   0  0  0  0  0  0  0  0  0  0  0  0
   27.1068   -3.4622   15.9641 C   0  0  2  0  0  0  0  0  0  0  0  0
   28.0104   -4.1154   16.9255 N   0  0  0  0  0  0  0  0  0  0  0  0
   23.7015   -5.5279   13.6862 C   0  0  1  0  0  0  0  0  0  0  0  0
   20.7678   -8.2858   14.9162 C   0  0  1  0  0  0  0  0  0  0  0  0
   17.8832   -6.3087   17.9793 C   0  0  1  0  0  0  0  0  0  0  0  0
   23.2551   -0.2961   12.2308 C   0  0  2  0  0  0  0  0  0  0  0  0
   22.5080    0.4163   13.2669 N   0  0  0  0  0  0  0  0  0  0  0  0
   25.9927   -2.6419   16.7278 C   0  0  0  0  0  0  0  0  0  0  0  0
   23.4942   -6.8304   12.9123 C   0  0  2  0  0  0  0  0  0  0  0  0
   22.6311   -6.6590   11.7672 O   0  0  0  0  0  0  0  0  0  0  0  0
   19.4078   -7.5000   15.1888 C   0  0  2  0  0  0  0  0  0  0  0  0
   19.6737   -6.1556   15.7655 N   0  0  0  0  0  0  0  0  0  0  0  0
   18.6583   -5.1872   18.6612 C   0  0  1  0  0  0  0  0  0  0  0  0
   18.2363   -3.9208   18.1167 O   0  0  0  0  0  0  0  0  0  0  0  0
   22.2703   -1.1066   11.3295 C   0  0  0  0  0  0  0  0  0  0  0  0
   25.0686   -1.9002   15.6801 C   0  0  2  0  0  0  0  0  0  0  0  0
   24.0163   -1.1411   16.3637 N   0  0  0  0  0  0  0  0  0  0  0  0
   22.9204   -7.7021   13.9917 C   0  0  2  0  0  0  0  0  0  0  0  0
   21.5719   -7.3797   14.2198 O   0  0  0  0  0  0  0  0  0  0  0  0
   18.4413   -8.4238   16.0534 C   0  0  1  0  0  0  0  0  0  0  0  0
   18.3282   -9.7000   15.4153 O   0  0  0  0  0  0  0  0  0  0  0  0
   18.5096   -5.1209   20.1764 C   0  0  1  0  0  0  0  0  0  0  0  0
   19.1000   -3.8893   20.6063 O   0  0  0  0  0  0  0  0  0  0  0  0
   23.0910   -1.8734   10.2505 C   0  0  2  0  0  0  0  0  0  0  0  0
   22.2517   -2.5708    9.3476 O   0  0  0  0  0  0  0  0  0  0  0  0
   24.4443   -2.9196   14.6922 C   0  0  2  0  0  0  0  0  0  0  0  0
   23.6303   -7.2829   15.2954 C   0  0  2  0  0  0  0  0  0  0  0  0
   23.9078   -5.9129   15.0525 O   0  0  0  0  0  0  0  0  0  0  0  0
   19.0469   -8.7110   17.4887 C   0  0  2  0  0  0  0  0  0  0  0  0
   19.1134   -7.4248   18.1064 O   0  0  0  0  0  0  0  0  0  0  0  0
   17.0585   -5.1823   20.6568 C   0  0  2  0  0  0  0  0  0  0  0  0
   17.0981   -5.4248   22.0725 O   0  0  0  0  0  0  0  0  0  0  0  0
   24.0719   -2.8302   10.9726 C   0  0  2  0  0  0  0  0  0  0  0  0
   24.9647   -2.0080   11.7775 O   0  0  0  0  0  0  0  0  0  0  0  0
   25.4854   -3.8484   13.9889 C   0  0  2  0  0  0  0  0  0  0  0  0
   24.7892   -4.8096   13.1476 O   0  0  0  0  0  0  0  0  0  0  0  0
   24.9322   -8.0117   15.6266 C   0  0  0  0  0  0  0  0  0  0  0  0
   25.9116   -7.6091   14.6579 O   0  0  0  0  0  0  0  0  0  0  0  0
   20.4867   -9.1241   17.2510 C   0  0  1  0  0  0  0  0  0  0  0  0
   21.4122   -8.7117   16.2225 O   0  0  0  0  0  0  0  0  0  0  0  0
   16.2509   -6.2064   19.8673 C   0  0  2  0  0  0  0  0  0  0  0  0
   16.5379   -6.4801   18.4873 O   0  0  0  0  0  0  0  0  0  0  0  0
   24.9483   -3.5867   10.0334 C   0  0  0  0  0  0  0  0  0  0  0  0
   25.7249   -2.6465    9.3311 O   0  0  0  0  0  0  0  0  0  0  0  0
   26.4219   -4.5328   15.0409 C   0  0  1  0  0  0  0  0  0  0  0  0
   27.4705   -5.2150   14.3032 O   0  0  0  0  0  0  0  0  0  0  0  0
   21.2971   -9.5692   18.5072 C   0  0  0  0  0  0  0  0  0  0  0  0
   21.2108  -11.0198   18.7773 N   0  0  0  0  0  0  0  0  0  0  0  0
   14.7695   -6.4750   20.1224 C   0  0  0  0  0  0  0  0  0  0  0  0
   14.5782   -6.9461   21.4826 O   0  0  0  0  0  0  0  0  0  0  0  0
  1  2  1  1  0  0  0
  1  8  1  0  0  0  0
  1 36  1  0  0  0  0
  3  4  1  1  0  0  0
  3 10  1  0  0  0  0
  3 47  1  0  0  0  0
  5 11  1  0  0  0  0
  5 30  1  0  0  0  0
  5 38  1  6  0  0  0
  6 21  1  1  0  0  0
  6 42  1  0  0  0  0
  7 15  1  0  0  0  0
  7 44  1  0  0  0  0
  7 32  1  1  0  0  0
  8  9  1  1  0  0  0
  8 17  1  0  0  0  0
 11 12  1  6  0  0  0
 11 20  1  0  0  0  0
 13  6  1  0  0  0  0
 13 14  1  1  0  0  0
 15 16  1  6  0  0  0
 15 24  1  0  0  0  0
 17 26  1  0  0  0  0
 18 10  1  0  0  0  0
 18 19  1  1  0  0  0
 20 21  1  1  0  0  0
 20 29  1  0  0  0  0
 22 13  1  0  0  0  0
 22 23  1  6  0  0  0
 24 25  1  6  0  0  0
 24 33  1  0  0  0  0
 26 27  1  6  0  0  0
 26 35  1  0  0  0  0
 28  2  1  6  0  0  0
 28 18  1  0  0  0  0
 29 30  1  0  0  0  0
 29 39  1  6  0  0  0
 31 22  1  0  0  0  0
 31 32  1  1  0  0  0
 31 41  1  0  0  0  0
 33 34  1  1  0  0  0
 33 43  1  0  0  0  0
 35 36  1  0  0  0  0
 35 45  1  6  0  0  0
 37 28  1  0  0  0  0
 37 38  1  1  0  0  0
 39 40  1  0  0  0  0
 41 42  1  0  0  0  0
 41 49  1  1  0  0  0
 43 44  1  0  0  0  0
 43 51  1  6  0  0  0
 45 46  1  0  0  0  0
 47 37  1  0  0  0  0
 47 48  1  6  0  0  0
 49 50  1  0  0  0  0
 51 52  1  0  0  0  0
M  END
>  <CHROM.1>
-165.71362163,-156.53919417,171.06679843,-172.95890558,163.33578719,66.00909175
68.38470066,42.32987879,61.89195115,-48.61507366,90.47426370,-60.86201546
21.91423412,-5.26627325,15.51820796,0.50547796,0.67399388,-0.19280507

>  <Name>
2esj_lig

>  <RI>
0

>  <Rbt.Current_Directory>
/home/itssahil/PROJECTS/Mol_Feturizer/New_Systems/rnas/2esj

>  <Rbt.Executable>
rbdock ($Id: //depot/dev/client3/rdock/2013.1/src/exe/rbdock.cxx#4 $)

>  <Rbt.Library>
libRbt.so (2013.1, Build901 2013/11/27)

>  <Rbt.Parameter_File>
/export/apps/rDock/src/rDock_2013.1_src/data/scripts/dock_solv.prm

>  <Rbt.Receptor>
prm/pocket_docking_8.prm

>  <SCORE>
-19.4011

>  <SCORE.INTER>
-12.0036

>  <SCORE.INTER.CONST>
1

>  <SCORE.INTER.POLAR>
-0.979796

>  <SCORE.INTER.ROT>
12

>  <SCORE.INTER.SOLV>
15.236

>  <SCORE.INTER.VDW>
-21.4151

>  <SCORE.INTER.norm>
-0.230838

>  <SCORE.INTRA>
-7.39752

>  <SCORE.INTRA.DIHEDRAL>
-20.3141

>  <SCORE.INTRA.DIHEDRAL.0>
32.9766

>  <SCORE.INTRA.POLAR>
0

>  <SCORE.INTRA.POLAR.0>
0

>  <SCORE.INTRA.REPUL>
0

>  <SCORE.INTRA.REPUL.0>
0

>  <SCORE.INTRA.SOLV>
0.101106

>  <SCORE.INTRA.SOLV.lig_0>
-114.358

>  <SCORE.INTRA.VDW>
2.70898

>  <SCORE.INTRA.VDW.0>
-8.24257

>  <SCORE.INTRA.norm>
-0.14226

>  <SCORE.RESTR>
0

>  <SCORE.RESTR.CAVITY>
0

>  <SCORE.RESTR.norm>
0

>  <SCORE.SYSTEM>
0

>  <SCORE.SYSTEM.CONST>
0

>  <SCORE.SYSTEM.DIHEDRAL>
0

>  <SCORE.SYSTEM.SOLV>
0

>  <SCORE.SYSTEM.norm>
0

>  <SCORE.heavy>
52

>  <SCORE.norm>
-0.373098

>  <RMSD>
10.315

$$$$
2esj_lig
 OpenBabel11021811423D
libRbt.so/2013.1/901 2013/11/27
 52 56  0  0  0  0  0  0  0  0999 V2000
   25.3722   -3.8815   11.8119 C   0  0  2  0  0  0  0  0  0  0  0  0
   25.6020   -2.7667   12.6946 O   0  0  0  0  0  0  0  0  0  0  0  0
   27.7284   -4.7307   15.8425 C   0  0  2  0  0  0  0  0  0  0  0  0
   28.5909   -5.0506   16.9918 N   0  0  0  0  0  0  0  0  0  0  0  0
   23.5503   -2.9838   16.3601 C   0  0  1  0  0  0  0  0  0  0  0  0
   20.5574   -3.5794   19.1977 C   0  0  1  0  0  0  0  0  0  0  0  0
   18.3643   -7.8732   18.0163 C   0  0  1  0  0  0  0  0  0  0  0  0
   24.4378   -3.3887   10.6678 C   0  0  2  0  0  0  0  0  0  0  0  0
   24.9922   -2.2360    9.9584 N   0  0  0  0  0  0  0  0  0  0  0  0
   28.5668   -4.0173   14.7086 C   0  0  0  0  0  0  0  0  0  0  0  0
   23.3957   -1.9501   17.4763 C   0  0  2  0  0  0  0  0  0  0  0  0
   24.3179   -2.1732   18.5649 O   0  0  0  0  0  0  0  0  0  0  0  0
   20.8192   -4.8135   20.1722 C   0  0  2  0  0  0  0  0  0  0  0  0
   21.5496   -5.9025   19.4712 N   0  0  0  0  0  0  0  0  0  0  0  0
   17.0139   -8.0049   18.7109 C   0  0  1  0  0  0  0  0  0  0  0  0
   15.9759   -8.0975   17.7147 O   0  0  0  0  0  0  0  0  0  0  0  0
   23.0187   -3.0398   11.2187 C   0  0  0  0  0  0  0  0  0  0  0  0
   27.6377   -3.7353   13.4601 C   0  0  2  0  0  0  0  0  0  0  0  0
   28.3895   -3.0604   12.3970 N   0  0  0  0  0  0  0  0  0  0  0  0
   21.9530   -2.1524   17.8392 C   0  0  2  0  0  0  0  0  0  0  0  0
   21.7982   -3.3160   18.6116 O   0  0  0  0  0  0  0  0  0  0  0  0
   19.4396   -5.2485   20.8376 C   0  0  1  0  0  0  0  0  0  0  0  0
   18.8206   -4.0946   21.4155 O   0  0  0  0  0  0  0  0  0  0  0  0
   16.8766   -9.2005   19.6459 C   0  0  1  0  0  0  0  0  0  0  0  0
   15.4958   -9.2947   20.0128 O   0  0  0  0  0  0  0  0  0  0  0  0
   22.4606   -4.2733   11.9886 C   0  0  2  0  0  0  0  0  0  0  0  0
   21.1402   -4.0524   12.4508 O   0  0  0  0  0  0  0  0  0  0  0  0
   26.4119   -2.8830   13.8794 C   0  0  2  0  0  0  0  0  0  0  0  0
   21.2271   -2.4816   16.5185 C   0  0  2  0  0  0  0  0  0  0  0  0
   22.2493   -3.1231   15.7724 O   0  0  0  0  0  0  0  0  0  0  0  0
   18.4191   -5.7883   19.7529 C   0  0  2  0  0  0  0  0  0  0  0  0
   19.0522   -6.9542   19.2235 O   0  0  0  0  0  0  0  0  0  0  0  0
   17.3275  -10.5238   19.0250 C   0  0  2  0  0  0  0  0  0  0  0  0
   17.4362  -11.4724   20.0988 O   0  0  0  0  0  0  0  0  0  0  0  0
   23.4265   -4.5980   13.1551 C   0  0  2  0  0  0  0  0  0  0  0  0
   24.7181   -4.9273   12.5685 O   0  0  0  0  0  0  0  0  0  0  0  0
   25.6038   -3.4722   15.0797 C   0  0  2  0  0  0  0  0  0  0  0  0
   24.5280   -2.5600   15.4361 O   0  0  0  0  0  0  0  0  0  0  0  0
   20.6897   -1.2930   15.7221 C   0  0  0  0  0  0  0  0  0  0  0  0
   19.9469   -1.8170   14.6116 O   0  0  0  0  0  0  0  0  0  0  0  0
   18.4371   -4.7690   18.6300 C   0  0  1  0  0  0  0  0  0  0  0  0
   19.5130   -3.9318   18.1546 O   0  0  0  0  0  0  0  0  0  0  0  0
   18.6033  -10.3522   18.2081 C   0  0  2  0  0  0  0  0  0  0  0  0
   18.8865   -9.1273   17.5144 O   0  0  0  0  0  0  0  0  0  0  0  0
   23.0149   -5.7982   13.9378 C   0  0  0  0  0  0  0  0  0  0  0  0
   23.0531   -6.9031   13.0672 O   0  0  0  0  0  0  0  0  0  0  0  0
   26.5503   -3.7910   16.2858 C   0  0  1  0  0  0  0  0  0  0  0  0
   25.7619   -4.5075   17.2730 O   0  0  0  0  0  0  0  0  0  0  0  0
   17.4309   -5.0059   17.4620 C   0  0  0  0  0  0  0  0  0  0  0  0
   18.0587   -4.9440   16.1253 N   0  0  0  0  0  0  0  0  0  0  0  0
   19.2780  -11.5032   17.4654 C   0  0  0  0  0  0  0  0  0  0  0  0
   19.6574  -12.5442   18.4041 O   0  0  0  0  0  0  0  0  0  0  0  0
  1  2  1  1  0  0  0
  1  8  1  0  0  0  0
  1 36  1  0  0  0  0
  3  4  1  1  0  0  0
  3 10  1  0  0  0  0
  3 47  1  0  0  0  0
  5 11  1  0  0  0  0
  5 30  1  0  0  0  0
  5 38  1  6  0  0  0
  6 21  1  6  0  0  0
  6 42  1  0  0  0  0
  7 15  1  0  0  0  0
  7 44  1  0  0  0  0
  7 32  1  1  0  0  0
  8  9  1  1  0  0  0
  8 17  1  0  0  0  0
 11 12  1  1  0  0  0
 11 20  1  0  0  0  0
 13  6  1  0  0  0  0
 13 14  1  6  0  0  0
 15 16  1  6  0  0  0
 15 24  1  0  0  0  0
 17 26  1  0  0  0  0
 18 10  1  0  0  0  0
 18 19  1  6  0  0  0
 20 21  1  1  0  0  0
 20 29  1  0  0  0  0
 22 13  1  0  0  0  0
 22 23  1  6  0  0  0
 24 25  1  6  0  0  0
 24 33  1  0  0  0  0
 26 27  1  1  0  0  0
 26 35  1  0  0  0  0
 28  2  1  6  0  0  0
 28 18  1  0  0  0  0
 29 30  1  0  0  0  0
 29 39  1  6  0  0  0
 31 22  1  0  0  0  0
 31 32  1  6  0  0  0
 31 41  1  0  0  0  0
 33 34  1  1  0  0  0
 33 43  1  0  0  0  0
 35 36  1  0  0  0  0
 35 45  1  6  0  0  0
 37 28  1  0  0  0  0
 37 38  1  1  0  0  0
 39 40  1  0  0  0  0
 41 42  1  0  0  0  0
 41 49  1  6  0  0  0
 43 44  1  0  0  0  0
 43 51  1  6  0  0  0
 45 46  1  0  0  0  0
 47 37  1  0  0  0  0
 47 48  1  1  0  0  0
 49 50  1  0  0  0  0
 51 52  1  0  0  0  0
M  END
>  <CHROM.1>
178.93218196,128.42208302,-170.82975692,-50.46091971,171.50408362,42.01803044
-174.53334624,-179.10903572,62.74254248,170.54192695,-129.80288597,-59.93516348
21.82257543,-5.18293565,16.39269544,-0.09188216,-0.76053225,-2.53093731

>  <Name>
2esj_lig

>  <RI>
1.01272e+07

>  <Rbt.Current_Directory>
/home/itssahil/PROJECTS/Mol_Feturizer/New_Systems/rnas/2esj

>  <Rbt.Executable>
rbdock ($Id: //depot/dev/client3/rdock/2013.1/src/exe/rbdock.cxx#4 $)

>  <Rbt.Library>
libRbt.so (2013.1, Build901 2013/11/27)

>  <Rbt.Parameter_File>
/export/apps/rDock/src/rDock_2013.1_src/data/scripts/dock_solv.prm

>  <Rbt.Receptor>
prm/pocket_docking_3.prm

>  <SCORE>
-8.68972

>  <SCORE.INTER>
-3.48756

>  <SCORE.INTER.CONST>
1

>  <SCORE.INTER.POLAR>
-0.0335181

>  <SCORE.INTER.ROT>
12

>  <SCORE.INTER.SOLV>
11.3951

>  <SCORE.INTER.VDW>
-17.6117

>  <SCORE.INTER.norm>
-0.0670685

>  <SCORE.INTRA>
-5.21372

>  <SCORE.INTRA.DIHEDRAL>
-17.698

>  <SCORE.INTRA.DIHEDRAL.0>
32.9766

>  <SCORE.INTRA.POLAR>
0

>  <SCORE.INTRA.POLAR.0>
0

>  <SCORE.INTRA.REPUL>
0.0569992

>  <SCORE.INTRA.REPUL.0>
0

>  <SCORE.INTRA.SOLV>
-0.00942008

>  <SCORE.INTRA.SOLV.lig_0>
-114.358

>  <SCORE.INTRA.VDW>
3.35501

>  <SCORE.INTRA.VDW.0>
-8.24257

>  <SCORE.INTRA.norm>
-0.100264

>  <SCORE.RESTR>
0.011557

>  <SCORE.RESTR.CAVITY>
0.011557

>  <SCORE.RESTR.norm>
0.000222249

>  <SCORE.SYSTEM>
0

>  <SCORE.SYSTEM.CONST>
0

>  <SCORE.SYSTEM.DIHEDRAL>
0

>  <SCORE.SYSTEM.SOLV>
0

>  <SCORE.SYSTEM.norm>
0

>  <SCORE.heavy>
52

>  <SCORE.norm>
-0.16711

>  <RMSD>
10.318

$$$$
2esj_lig
 OpenBabel11021811423D
libRbt.so/2013.1/901 2013/11/27
 52 56  0  0  0  0  0  0  0  0999 V2000
   26.6699   -4.3114   16.8342 C   0  0  2  0  0  0  0  0  0  0  0  0
   26.2015   -3.2495   15.9811 O   0  0  0  0  0  0  0  0  0  0  0  0
   24.4071   -3.2185   12.0995 C   0  0  2  0  0  0  0  0  0  0  0  0
   23.5201   -3.4175   10.9415 N   0  0  0  0  0  0  0  0  0  0  0  0
   23.0519   -2.0213   16.3170 C   0  0  1  0  0  0  0  0  0  0  0  0
   19.9730   -3.3586   18.7986 C   0  0  1  0  0  0  0  0  0  0  0  0
   19.7653   -8.3522   19.1123 C   0  0  1  0  0  0  0  0  0  0  0  0
   27.0094   -3.6850   18.2189 C   0  0  2  0  0  0  0  0  0  0  0  0
   25.8684   -2.9796   18.8018 N   0  0  0  0  0  0  0  0  0  0  0  0
   24.8266   -4.6120   12.7156 C   0  0  0  0  0  0  0  0  0  0  0  0
   22.4026   -1.0247   17.2781 C   0  0  2  0  0  0  0  0  0  0  0  0
   23.1577   -0.8650   18.4986 O   0  0  0  0  0  0  0  0  0  0  0  0
   20.4608   -4.6154   19.6494 C   0  0  2  0  0  0  0  0  0  0  0  0
   21.4502   -5.4241   18.8891 N   0  0  0  0  0  0  0  0  0  0  0  0
   20.5546   -8.8779   17.9189 C   0  0  1  0  0  0  0  0  0  0  0  0
   21.6719   -9.6547   18.3951 O   0  0  0  0  0  0  0  0  0  0  0  0
   28.2307   -2.7179   18.1087 C   0  0  0  0  0  0  0  0  0  0  0  0
   25.8253   -4.3801   13.9200 C   0  0  2  0  0  0  0  0  0  0  0  0
   26.2201   -5.6592   14.5191 N   0  0  0  0  0  0  0  0  0  0  0  0
   21.0561   -1.6621   17.4652 C   0  0  2  0  0  0  0  0  0  0  0  0
   21.1484   -2.7605   18.3366 O   0  0  0  0  0  0  0  0  0  0  0  0
   19.1856   -5.4197   20.1612 C   0  0  1  0  0  0  0  0  0  0  0  0
   18.2957   -4.5088   20.8147 O   0  0  0  0  0  0  0  0  0  0  0  0
   19.7629   -9.7411   16.9440 C   0  0  1  0  0  0  0  0  0  0  0  0
   20.7036  -10.3289   16.0387 O   0  0  0  0  0  0  0  0  0  0  0  0
   29.4234   -3.4850   17.4647 C   0  0  2  0  0  0  0  0  0  0  0  0
   30.5921   -2.6870   17.4051 O   0  0  0  0  0  0  0  0  0  0  0  0
   25.1801   -3.4596   14.9883 C   0  0  2  0  0  0  0  0  0  0  0  0
   20.6950   -2.2939   16.1050 C   0  0  2  0  0  0  0  0  0  0  0  0
   21.9736   -2.6141   15.5800 O   0  0  0  0  0  0  0  0  0  0  0  0
   18.3651   -6.0327   18.9527 C   0  0  2  0  0  0  0  0  0  0  0  0
   19.2691   -6.9581   18.3471 O   0  0  0  0  0  0  0  0  0  0  0  0
   18.9503  -10.8472   17.6195 C   0  0  2  0  0  0  0  0  0  0  0  0
   18.0375  -11.3555   16.6330 O   0  0  0  0  0  0  0  0  0  0  0  0
   28.9902   -3.9681   16.0583 C   0  0  2  0  0  0  0  0  0  0  0  0
   27.8637   -4.8731   16.2397 O   0  0  0  0  0  0  0  0  0  0  0  0
   24.6331   -2.1097   14.4231 C   0  0  2  0  0  0  0  0  0  0  0  0
   23.9855   -1.3625   15.4902 O   0  0  0  0  0  0  0  0  0  0  0  0
   19.9510   -1.3989   15.1145 C   0  0  0  0  0  0  0  0  0  0  0  0
   20.9202   -0.5406   14.4951 O   0  0  0  0  0  0  0  0  0  0  0  0
   18.2050   -4.9046   17.9518 C   0  0  1  0  0  0  0  0  0  0  0  0
   19.0851   -3.8005   17.6500 O   0  0  0  0  0  0  0  0  0  0  0  0
   18.2811  -10.3496   18.8959 C   0  0  2  0  0  0  0  0  0  0  0  0
   18.8904   -9.3378   19.7125 O   0  0  0  0  0  0  0  0  0  0  0  0
   30.0436   -4.7609   15.3625 C   0  0  0  0  0  0  0  0  0  0  0  0
   29.5547   -5.0803   14.0822 O   0  0  0  0  0  0  0  0  0  0  0  0
   23.6872   -2.3599   13.2004 C   0  0  1  0  0  0  0  0  0  0  0  0
   23.3829   -1.0637   12.6202 O   0  0  0  0  0  0  0  0  0  0  0  0
   17.3339   -5.2110   16.6947 C   0  0  0  0  0  0  0  0  0  0  0  0
   18.0533   -5.0094   15.4194 N   0  0  0  0  0  0  0  0  0  0  0  0
   17.4145  -11.2398   19.7837 C   0  0  0  0  0  0  0  0  0  0  0  0
   17.2855  -12.5580   19.1885 O   0  0  0  0  0  0  0  0  0  0  0  0
  1  2  1  6  0  0  0
  1  8  1  0  0  0  0
  1 36  1  0  0  0  0
  3  4  1  6  0  0  0
  3 10  1  0  0  0  0
  3 47  1  0  0  0  0
  5 11  1  0  0  0  0
  5 30  1  0  0  0  0
  5 38  1  6  0  0  0
  6 21  1  6  0  0  0
  6 42  1  0  0  0  0
  7 15  1  0  0  0  0
  7 44  1  0  0  0  0
  7 32  1  6  0  0  0
  8  9  1  6  0  0  0
  8 17  1  0  0  0  0
 11 12  1  1  0  0  0
 11 20  1  0  0  0  0
 13  6  1  0  0  0  0
 13 14  1  6  0  0  0
 15 16  1  1  0  0  0
 15 24  1  0  0  0  0
 17 26  1  0  0  0  0
 18 10  1  0  0  0  0
 18 19  1  1  0  0  0
 20 21  1  1  0  0  0
 20 29  1  0  0  0  0
 22 13  1  0  0  0  0
 22 23  1  6  0  0  0
 24 25  1  6  0  0  0
 24 33  1  0  0  0  0
 26 27  1  6  0  0  0
 26 35  1  0  0  0  0
 28  2  1  1  0  0  0
 28 18  1  0  0  0  0
 29 30  1  0  0  0  0
 29 39  1  6  0  0  0
 31 22  1  0  0  0  0
 31 32  1  6  0  0  0
 31 41  1  0  0  0  0
 33 34  1  6  0  0  0
 33 43  1  0  0  0  0
 35 36  1  0  0  0  0
 35 45  1  1  0  0  0
 37 28  1  0  0  0  0
 37 38  1  1  0  0  0
 39 40  1  0  0  0  0
 41 42  1  0  0  0  0
 41 49  1  6  0  0  0
 43 44  1  0  0  0  0
 43 51  1  1  0  0  0
 45 46  1  0  0  0  0
 47 37  1  0  0  0  0
 47 48  1  6  0  0  0
 49 50  1  0  0  0  0
 51 52  1  0  0  0  0
M  END
>  <CHROM.1>
-145.59784828,-174.73365660,175.61725201,175.26003141,170.23698298,-67.94621862
79.41874804,67.51494855,-177.16439203,-48.52813493,-122.60991156,-3.01378334
22.52104355,-4.94972813,16.77722000,-0.64215064,-0.18313983,2.88850992

>  <Name>
2esj_lig

>  <RI>
1.01272e+07

>  <Rbt.Current_Directory>
/home/itssahil/PROJECTS/Mol_Feturizer/New_Systems/rnas/2esj

>  <Rbt.Executable>
rbdock ($Id: //depot/dev/client3/rdock/2013.1/src/exe/rbdock.cxx#4 $)

>  <Rbt.Library>
libRbt.so (2013.1, Build901 2013/11/27)

>  <Rbt.Parameter_File>
/export/apps/rDock/src/rDock_2013.1_src/data/scripts/dock_solv.prm

>  <Rbt.Receptor>
prm/pocket_docking_3.prm

>  <SCORE>
-5.43726

>  <SCORE.INTER>
-2.69589

>  <SCORE.INTER.CONST>
1

>  <SCORE.INTER.POLAR>
0

>  <SCORE.INTER.ROT>
12

>  <SCORE.INTER.SOLV>
9.55173

>  <SCORE.INTER.VDW>
-16.5812

>  <SCORE.INTER.norm>
-0.0518441

>  <SCORE.INTRA>
-3.7468

>  <SCORE.INTRA.DIHEDRAL>
-18.5894

>  <SCORE.INTRA.DIHEDRAL.0>
32.9766

>  <SCORE.INTRA.POLAR>
0

>  <SCORE.INTRA.POLAR.0>
0

>  <SCORE.INTRA.REPUL>
0

>  <SCORE.INTRA.REPUL.0>
0

>  <SCORE.INTRA.SOLV>
3.45551

>  <SCORE.INTRA.SOLV.lig_0>
-114.358

>  <SCORE.INTRA.VDW>
3.82017

>  <SCORE.INTRA.VDW.0>
-8.24257

>  <SCORE.INTRA.norm>
-0.0720538

>  <SCORE.RESTR>
1.00543

>  <SCORE.RESTR.CAVITY>
1.00543

>  <SCORE.RESTR.norm>
0.0193352

>  <SCORE.SYSTEM>
0

>  <SCORE.SYSTEM.CONST>
0

>  <SCORE.SYSTEM.DIHEDRAL>
0

>  <SCORE.SYSTEM.SOLV>
0

>  <SCORE.SYSTEM.norm>
0

>  <SCORE.heavy>
52

>  <SCORE.norm>
-0.104563

>  <RMSD>
10.318

$$$$
2esj_lig
 OpenBabel11021811423D
libRbt.so/2013.1/901 2013/11/27
 52 56  0  0  0  0  0  0  0  0999 V2000
   20.2954   -3.3748   10.5398 C   0  0  2  0  0  0  0  0  0  0  0  0
   21.5664   -2.9251   10.0326 O   0  0  0  0  0  0  0  0  0  0  0  0
   25.4914   -3.4730   11.6395 C   0  0  2  0  0  0  0  0  0  0  0  0
   26.7580   -3.3342   12.3769 N   0  0  0  0  0  0  0  0  0  0  0  0
   21.7606   -5.1682   13.6051 C   0  0  1  0  0  0  0  0  0  0  0  0
   20.5971   -6.8265   16.7859 C   0  0  1  0  0  0  0  0  0  0  0  0
   19.6698  -10.4541   20.3920 C   0  0  1  0  0  0  0  0  0  0  0  0
   19.2280   -3.0998    9.4398 C   0  0  2  0  0  0  0  0  0  0  0  0
   19.5658   -3.7397    8.1687 N   0  0  0  0  0  0  0  0  0  0  0  0
   25.2126   -2.1775   10.7785 C   0  0  0  0  0  0  0  0  0  0  0  0
   20.3616   -5.3138   14.2052 C   0  0  2  0  0  0  0  0  0  0  0  0
   20.2042   -4.5571   15.4251 O   0  0  0  0  0  0  0  0  0  0  0  0
   21.7451   -7.3130   17.7791 C   0  0  2  0  0  0  0  0  0  0  0  0
   22.1237   -8.7251   17.5079 N   0  0  0  0  0  0  0  0  0  0  0  0
   20.9294  -11.2838   20.6121 C   0  0  1  0  0  0  0  0  0  0  0  0
   20.7950  -12.0331   21.8364 O   0  0  0  0  0  0  0  0  0  0  0  0
   19.0315   -1.5654    9.2251 C   0  0  0  0  0  0  0  0  0  0  0  0
   23.8798   -2.3690    9.9487 C   0  0  2  0  0  0  0  0  0  0  0  0
   23.5906   -1.1734    9.1500 N   0  0  0  0  0  0  0  0  0  0  0  0
   20.2964   -6.8023   14.3904 C   0  0  2  0  0  0  0  0  0  0  0  0
   21.0453   -7.1918   15.5137 O   0  0  0  0  0  0  0  0  0  0  0  0
   21.2946   -7.0129   19.2765 C   0  0  1  0  0  0  0  0  0  0  0  0
   20.9001   -5.6405   19.3747 O   0  0  0  0  0  0  0  0  0  0  0  0
   21.2669  -12.2640   19.4952 C   0  0  1  0  0  0  0  0  0  0  0  0
   22.3209  -13.1060   19.9749 O   0  0  0  0  0  0  0  0  0  0  0  0
   18.6962   -0.9047   10.5950 C   0  0  2  0  0  0  0  0  0  0  0  0
   18.4288    0.4797   10.4606 O   0  0  0  0  0  0  0  0  0  0  0  0
   22.6935   -2.6857   10.8960 C   0  0  2  0  0  0  0  0  0  0  0  0
   21.0658   -7.4104   13.1996 C   0  0  2  0  0  0  0  0  0  0  0  0
   22.0237   -6.4014   12.9215 O   0  0  0  0  0  0  0  0  0  0  0  0
   20.0167   -7.8591   19.6766 C   0  0  2  0  0  0  0  0  0  0  0  0
   20.4555   -9.2164   19.6008 O   0  0  0  0  0  0  0  0  0  0  0  0
   20.0849  -13.1309   19.0577 C   0  0  2  0  0  0  0  0  0  0  0  0
   20.4629  -13.7578   17.8213 O   0  0  0  0  0  0  0  0  0  0  0  0
   19.8755   -1.1663   11.5644 C   0  0  2  0  0  0  0  0  0  0  0  0
   19.9887   -2.6089   11.7287 O   0  0  0  0  0  0  0  0  0  0  0  0
   22.9499   -3.8860   11.8627 C   0  0  2  0  0  0  0  0  0  0  0  0
   21.8100   -4.0459   12.7524 O   0  0  0  0  0  0  0  0  0  0  0  0
   20.2521   -7.6968   11.9380 C   0  0  0  0  0  0  0  0  0  0  0  0
   21.1619   -8.1741   10.9359 O   0  0  0  0  0  0  0  0  0  0  0  0
   19.0346   -7.6837   18.5343 C   0  0  1  0  0  0  0  0  0  0  0  0
   19.2770   -7.4946   17.1236 O   0  0  0  0  0  0  0  0  0  0  0  0
   18.7953  -12.3212   18.9818 C   0  0  2  0  0  0  0  0  0  0  0  0
   18.5557  -11.2145   19.8647 O   0  0  0  0  0  0  0  0  0  0  0  0
   19.6424   -0.6163   12.9303 C   0  0  0  0  0  0  0  0  0  0  0  0
   18.6031   -1.3638   13.5144 O   0  0  0  0  0  0  0  0  0  0  0  0
   24.2988   -3.7002   12.6362 C   0  0  1  0  0  0  0  0  0  0  0  0
   24.5547   -4.9352   13.3563 O   0  0  0  0  0  0  0  0  0  0  0  0
   17.6308   -8.3377   18.7198 C   0  0  0  0  0  0  0  0  0  0  0  0
   16.5122   -7.3941   18.5122 N   0  0  0  0  0  0  0  0  0  0  0  0
   17.4526  -12.9286   18.5819 C   0  0  0  0  0  0  0  0  0  0  0  0
   16.9974  -12.3457   17.3321 O   0  0  0  0  0  0  0  0  0  0  0  0
  1  2  1  6  0  0  0
  1  8  1  0  0  0  0
  1 36  1  0  0  0  0
  3  4  1  1  0  0  0
  3 10  1  0  0  0  0
  3 47  1  0  0  0  0
  5 11  1  0  0  0  0
  5 30  1  0  0  0  0
  5 38  1  6  0  0  0
  6 21  1  6  0  0  0
  6 42  1  0  0  0  0
  7 15  1  0  0  0  0
  7 44  1  0  0  0  0
  7 32  1  6  0  0  0
  8  9  1  6  0  0  0
  8 17  1  0  0  0  0
 11 12  1  1  0  0  0
 11 20  1  0  0  0  0
 13  6  1  0  0  0  0
 13 14  1  1  0  0  0
 15 16  1  1  0  0  0
 15 24  1  0  0  0  0
 17 26  1  0  0  0  0
 18 10  1  0  0  0  0
 18 19  1  1  0  0  0
 20 21  1  1  0  0  0
 20 29  1  0  0  0  0
 22 13  1  0  0  0  0
 22 23  1  6  0  0  0
 24 25  1  1  0  0  0
 24 33  1  0  0  0  0
 26 27  1  6  0  0  0
 26 35  1  0  0  0  0
 28  2  1  6  0  0  0
 28 18  1  0  0  0  0
 29 30  1  0  0  0  0
 29 39  1  6  0  0  0
 31 22  1  0  0  0  0
 31 32  1  6  0  0  0
 31 41  1  0  0  0  0
 33 34  1  6  0  0  0
 33 43  1  0  0  0  0
 35 36  1  0  0  0  0
 35 45  1  1  0  0  0
 37 28  1  0  0  0  0
 37 38  1  1  0  0  0
 39 40  1  0  0  0  0
 41 42  1  0  0  0  0
 41 49  1  6  0  0  0
 43 44  1  0  0  0  0
 43 51  1  1  0  0  0
 45 46  1  0  0  0  0
 47 37  1  0  0  0  0
 47 48  1  6  0  0  0
 49 50  1  0  0  0  0
 51 52  1  0  0  0  0
M  END
>  <CHROM.1>
162.59937458,-167.02896629,-174.94440239,-148.67758799,68.32640337,174.14726461
176.45645884,159.27605768,67.88281826,172.69103101,126.86306972,-115.16409761
20.77125904,-6.37449630,14.88507354,1.42859272,0.18992730,-0.75168034

>  <Name>
2esj_lig

>  <RI>
0

>  <Rbt.Current_Directory>
/home/itssahil/PROJECTS/Mol_Feturizer/New_Systems/rnas/2esj

>  <Rbt.Executable>
rbdock ($Id: //depot/dev/client3/rdock/2013.1/src/exe/rbdock.cxx#4 $)

>  <Rbt.Library>
libRbt.so (2013.1, Build901 2013/11/27)

>  <Rbt.Parameter_File>
/export/apps/rDock/src/rDock_2013.1_src/data/scripts/dock_solv.prm

>  <Rbt.Receptor>
prm/pocket_docking_6.prm

>  <SCORE>
-11.147

>  <SCORE.INTER>
-4.08395

>  <SCORE.INTER.CONST>
1

>  <SCORE.INTER.POLAR>
-0.966677

>  <SCORE.INTER.ROT>
12

>  <SCORE.INTER.SOLV>
13.9687

>  <SCORE.INTER.VDW>
-15.7566

>  <SCORE.INTER.norm>
-0.0785375

>  <SCORE.INTRA>
-7.06451

>  <SCORE.INTRA.DIHEDRAL>
-17.2941

>  <SCORE.INTRA.DIHEDRAL.0>
32.9766

>  <SCORE.INTRA.POLAR>
0

>  <SCORE.INTRA.POLAR.0>
0

>  <SCORE.INTRA.REPUL>
0.0409188

>  <SCORE.INTRA.REPUL.0>
0

>  <SCORE.INTRA.SOLV>
-4.48945

>  <SCORE.INTRA.SOLV.lig_0>
-114.358

>  <SCORE.INTRA.VDW>
3.62266

>  <SCORE.INTRA.VDW.0>
-8.24257

>  <SCORE.INTRA.norm>
-0.135856

>  <SCORE.RESTR>
0.0014303

>  <SCORE.RESTR.CAVITY>
0.0014303

>  <SCORE.RESTR.norm>
2.75057e-05

>  <SCORE.SYSTEM>
0

>  <SCORE.SYSTEM.CONST>
0

>  <SCORE.SYSTEM.DIHEDRAL>
0

>  <SCORE.SYSTEM.SOLV>
0

>  <SCORE.SYSTEM.norm>
0

>  <SCORE.heavy>
52

>  <SCORE.norm>
-0.214366

>  <RMSD>
10.334

$$$$
2esj_lig
 OpenBabel11021811423D
libRbt.so/2013.1/901 2013/11/27
 52 56  0  0  0  0  0  0  0  0999 V2000
   26.2538   -1.7740   15.8197 C   0  0  2  0  0  0  0  0  0  0  0  0
   26.4272   -2.1529   14.4408 O   0  0  0  0  0  0  0  0  0  0  0  0
   24.0440   -2.5091   10.9079 C   0  0  2  0  0  0  0  0  0  0  0  0
   23.0401   -2.8960    9.9030 N   0  0  0  0  0  0  0  0  0  0  0  0
   22.6893   -1.4383   14.9746 C   0  0  1  0  0  0  0  0  0  0  0  0
   20.1079   -4.4928   15.5221 C   0  0  1  0  0  0  0  0  0  0  0  0
   17.8172   -6.9869   19.0199 C   0  0  1  0  0  0  0  0  0  0  0  0
   27.6317   -1.2736   16.3450 C   0  0  2  0  0  0  0  0  0  0  0  0
   28.1650   -0.1751   15.5399 N   0  0  0  0  0  0  0  0  0  0  0  0
   24.8533   -3.7772   11.3920 C   0  0  0  0  0  0  0  0  0  0  0  0
   22.8984   -2.9530   14.9933 C   0  0  2  0  0  0  0  0  0  0  0  0
   22.4470   -3.5862   13.7764 O   0  0  0  0  0  0  0  0  0  0  0  0
   18.5464   -4.2058   15.6659 C   0  0  2  0  0  0  0  0  0  0  0  0
   18.2300   -3.6259   16.9980 N   0  0  0  0  0  0  0  0  0  0  0  0
   16.6666   -7.9702   18.8388 C   0  0  1  0  0  0  0  0  0  0  0  0
   17.0020   -9.2155   19.4830 O   0  0  0  0  0  0  0  0  0  0  0  0
   28.6659   -2.4426   16.3980 C   0  0  0  0  0  0  0  0  0  0  0  0
   25.9653   -3.3337   12.4257 C   0  0  2  0  0  0  0  0  0  0  0  0
   26.7231   -4.4956   12.9016 N   0  0  0  0  0  0  0  0  0  0  0  0
   22.1047   -3.3241   16.2124 C   0  0  2  0  0  0  0  0  0  0  0  0
   20.7288   -3.3084   15.9275 O   0  0  0  0  0  0  0  0  0  0  0  0
   17.7416   -5.5301   15.3003 C   0  0  1  0  0  0  0  0  0  0  0  0
   18.1916   -6.0087   14.0286 O   0  0  0  0  0  0  0  0  0  0  0  0
   15.3214   -7.5058   19.3841 C   0  0  1  0  0  0  0  0  0  0  0  0
   14.4363   -8.6305   19.3418 O   0  0  0  0  0  0  0  0  0  0  0  0
   28.0658   -3.6073   17.2401 C   0  0  2  0  0  0  0  0  0  0  0  0
   28.9851   -4.6738   17.3943 O   0  0  0  0  0  0  0  0  0  0  0  0
   25.3241   -2.5808   13.6203 C   0  0  2  0  0  0  0  0  0  0  0  0
   22.2929   -2.1620   17.2092 C   0  0  2  0  0  0  0  0  0  0  0  0
   22.4767   -1.0554   16.3404 O   0  0  0  0  0  0  0  0  0  0  0  0
   18.0441   -6.6940   16.3313 C   0  0  2  0  0  0  0  0  0  0  0  0
   17.5529   -6.1970   17.5771 O   0  0  0  0  0  0  0  0  0  0  0  0
   15.3886   -6.9671   20.8142 C   0  0  2  0  0  0  0  0  0  0  0  0
   14.1443   -6.2936   21.0647 O   0  0  0  0  0  0  0  0  0  0  0  0
   26.7563   -4.0771   16.5594 C   0  0  2  0  0  0  0  0  0  0  0  0
   25.8387   -2.9461   16.5598 O   0  0  0  0  0  0  0  0  0  0  0  0
   24.4102   -1.3834   13.2053 C   0  0  2  0  0  0  0  0  0  0  0  0
   23.8042   -0.8001   14.3923 O   0  0  0  0  0  0  0  0  0  0  0  0
   23.4873   -2.2646   18.1572 C   0  0  0  0  0  0  0  0  0  0  0  0
   23.8171   -0.9343   18.5827 O   0  0  0  0  0  0  0  0  0  0  0  0
   19.5534   -6.7331   16.4744 C   0  0  1  0  0  0  0  0  0  0  0  0
   20.5206   -5.6640   16.3944 O   0  0  0  0  0  0  0  0  0  0  0  0
   16.6248   -6.1008   21.0280 C   0  0  2  0  0  0  0  0  0  0  0  0
   17.8498   -6.3619   20.3259 O   0  0  0  0  0  0  0  0  0  0  0  0
   26.0652   -5.1645   17.3093 C   0  0  0  0  0  0  0  0  0  0  0  0
   26.8821   -6.3084   17.2420 O   0  0  0  0  0  0  0  0  0  0  0  0
   23.3499   -1.8332   12.1443 C   0  0  1  0  0  0  0  0  0  0  0  0
   22.6786   -0.6347   11.6730 O   0  0  0  0  0  0  0  0  0  0  0  0
   20.1365   -7.8727   17.3655 C   0  0  0  0  0  0  0  0  0  0  0  0
   20.4427   -9.1073   16.6128 N   0  0  0  0  0  0  0  0  0  0  0  0
   16.9568   -5.4381   22.3630 C   0  0  0  0  0  0  0  0  0  0  0  0
   18.1625   -4.6390   22.2335 O   0  0  0  0  0  0  0  0  0  0  0  0
  1  2  1  6  0  0  0
  1  8  1  0  0  0  0
  1 36  1  0  0  0  0
  3  4  1  6  0  0  0
  3 10  1  0  0  0  0
  3 47  1  0  0  0  0
  5 11  1  0  0  0  0
  5 30  1  0  0  0  0
  5 38  1  1  0  0  0
  6 21  1  1  0  0  0
  6 42  1  0  0  0  0
  7 15  1  0  0  0  0
  7 44  1  0  0  0  0
  7 32  1  6  0  0  0
  8  9  1  6  0  0  0
  8 17  1  0  0  0  0
 11 12  1  6  0  0  0
 11 20  1  0  0  0  0
 13  6  1  0  0  0  0
 13 14  1  1  0  0  0
 15 16  1  1  0  0  0
 15 24  1  0  0  0  0
 17 26  1  0  0  0  0
 18 10  1  0  0  0  0
 18 19  1  1  0  0  0
 20 21  1  6  0  0  0
 20 29  1  0  0  0  0
 22 13  1  0  0  0  0
 22 23  1  6  0  0  0
 24 25  1  1  0  0  0
 24 33  1  0  0  0  0
 26 27  1  6  0  0  0
 26 35  1  0  0  0  0
 28  2  1  1  0  0  0
 28 18  1  0  0  0  0
 29 30  1  0  0  0  0
 29 39  1  1  0  0  0
 31 22  1  0  0  0  0
 31 32  1  1  0  0  0
 31 41  1  0  0  0  0
 33 34  1  6  0  0  0
 33 43  1  0  0  0  0
 35 36  1  0  0  0  0
 35 45  1  1  0  0  0
 37 28  1  0  0  0  0
 37 38  1  1  0  0  0
 39 40  1  0  0  0  0
 41 42  1  0  0  0  0
 41 49  1  1  0  0  0
 43 44  1  0  0  0  0
 43 51  1  1  0  0  0
 45 46  1  0  0  0  0
 47 37  1  0  0  0  0
 47 48  1  6  0  0  0
 49 50  1  0  0  0  0
 51 52  1  0  0  0  0
M  END
>  <CHROM.1>
-175.83750666,41.85701425,165.48756303,-82.27201096,92.73715899,-161.26706737
156.65106690,-172.00904923,-67.14686890,-79.08933867,90.21781158,-177.68942909
21.82840130,-4.28183633,16.42104558,-0.53386887,0.31303589,1.83381248

>  <Name>
2esj_lig

>  <RI>
0

>  <Rbt.Current_Directory>
/home/itssahil/PROJECTS/Mol_Feturizer/New_Systems/rnas/2esj

>  <Rbt.Executable>
rbdock ($Id: //depot/dev/client3/rdock/2013.1/src/exe/rbdock.cxx#4 $)

>  <Rbt.Library>
libRbt.so (2013.1, Build901 2013/11/27)

>  <Rbt.Parameter_File>
/export/apps/rDock/src/rDock_2013.1_src/data/scripts/dock_solv.prm

>  <Rbt.Receptor>
prm/pocket_docking_2.prm

>  <SCORE>
-4.02661

>  <SCORE.INTER>
-6.02331

>  <SCORE.INTER.CONST>
1

>  <SCORE.INTER.POLAR>
-0.480711

>  <SCORE.INTER.ROT>
12

>  <SCORE.INTER.SOLV>
17.54

>  <SCORE.INTER.VDW>
-19.8598

>  <SCORE.INTER.norm>
-0.115833

>  <SCORE.INTRA>
-2.15826

>  <SCORE.INTRA.DIHEDRAL>
-13.7772

>  <SCORE.INTRA.DIHEDRAL.0>
32.9766

>  <SCORE.INTRA.POLAR>
0

>  <SCORE.INTRA.POLAR.0>
0

>  <SCORE.INTRA.REPUL>
0

>  <SCORE.INTRA.REPUL.0>
0

>  <SCORE.INTRA.SOLV>
-1.76071

>  <SCORE.INTRA.SOLV.lig_0>
-114.358

>  <SCORE.INTRA.VDW>
5.61068

>  <SCORE.INTRA.VDW.0>
-8.24257

>  <SCORE.INTRA.norm>
-0.041505

>  <SCORE.RESTR>
4.15496

>  <SCORE.RESTR.CAVITY>
4.15496

>  <SCORE.RESTR.norm>
0.079903

>  <SCORE.SYSTEM>
0

>  <SCORE.SYSTEM.CONST>
0

>  <SCORE.SYSTEM.DIHEDRAL>
0

>  <SCORE.SYSTEM.SOLV>
0

>  <SCORE.SYSTEM.norm>
0

>  <SCORE.heavy>
52

>  <SCORE.norm>
-0.0774348

>  <RMSD>
10.341

$$$$
2esj_lig
 OpenBabel11021811423D
libRbt.so/2013.1/901 2013/11/27
 52 56  0  0  0  0  0  0  0  0999 V2000
   29.0734   -2.4050   14.8267 C   0  0  2  0  0  0  0  0  0  0  0  0
   27.6967   -2.8279   14.8003 O   0  0  0  0  0  0  0  0  0  0  0  0
   25.8502    0.8542   13.6511 C   0  0  2  0  0  0  0  0  0  0  0  0
   24.8986    1.9019   13.2461 N   0  0  0  0  0  0  0  0  0  0  0  0
   25.1969   -2.2742   16.9682 C   0  0  1  0  0  0  0  0  0  0  0  0
   22.0525   -4.8598   17.9562 C   0  0  1  0  0  0  0  0  0  0  0  0
   19.9745   -7.5537   13.9755 C   0  0  1  0  0  0  0  0  0  0  0  0
   29.9540   -3.6834   14.9506 C   0  0  2  0  0  0  0  0  0  0  0  0
   29.6970   -4.6389   13.8735 N   0  0  0  0  0  0  0  0  0  0  0  0
   25.8049   -0.3525   12.6316 C   0  0  0  0  0  0  0  0  0  0  0  0
   24.9257   -2.5919   18.4393 C   0  0  2  0  0  0  0  0  0  0  0  0
   25.7755   -3.6464   18.9405 O   0  0  0  0  0  0  0  0  0  0  0  0
   22.2372   -6.2788   17.2537 C   0  0  2  0  0  0  0  0  0  0  0  0
   22.8809   -6.1358   15.9210 N   0  0  0  0  0  0  0  0  0  0  0  0
   20.7215   -8.6164   14.7730 C   0  0  1  0  0  0  0  0  0  0  0  0
   20.0802   -9.8928   14.5782 O   0  0  0  0  0  0  0  0  0  0  0  0
   29.7410   -4.3748   16.3347 C   0  0  0  0  0  0  0  0  0  0  0  0
   26.8746   -1.4400   13.0493 C   0  0  2  0  0  0  0  0  0  0  0  0
   26.8436   -2.5787   12.1255 N   0  0  0  0  0  0  0  0  0  0  0  0
   23.4691   -2.9507   18.3781 C   0  0  2  0  0  0  0  0  0  0  0  0
   23.3022   -4.2432   17.8528 O   0  0  0  0  0  0  0  0  0  0  0  0
   20.8379   -7.0384   17.2469 C   0  0  1  0  0  0  0  0  0  0  0  0
   20.3085   -7.0447   18.5767 O   0  0  0  0  0  0  0  0  0  0  0  0
   22.1971   -8.7734   14.4259 C   0  0  1  0  0  0  0  0  0  0  0  0
   22.6648   -9.9531   15.0891 O   0  0  0  0  0  0  0  0  0  0  0  0
   29.9976   -3.3320   17.4628 C   0  0  2  0  0  0  0  0  0  0  0  0
   29.8966   -3.9135   18.7504 O   0  0  0  0  0  0  0  0  0  0  0  0
   26.6219   -1.9170   14.5031 C   0  0  2  0  0  0  0  0  0  0  0  0
   22.8516   -2.0293   17.3060 C   0  0  2  0  0  0  0  0  0  0  0  0
   23.9470   -1.8233   16.4281 O   0  0  0  0  0  0  0  0  0  0  0  0
   19.7697   -6.2750   16.3607 C   0  0  2  0  0  0  0  0  0  0  0  0
   20.3128   -6.3179   15.0402 O   0  0  0  0  0  0  0  0  0  0  0  0
   22.4680   -8.8943   12.9253 C   0  0  2  0  0  0  0  0  0  0  0  0
   23.8823   -8.7192   12.7416 O   0  0  0  0  0  0  0  0  0  0  0  0
   28.9961   -2.1640   17.2843 C   0  0  2  0  0  0  0  0  0  0  0  0
   29.2626   -1.5601   15.9862 O   0  0  0  0  0  0  0  0  0  0  0  0
   26.5348   -0.7602   15.5497 C   0  0  2  0  0  0  0  0  0  0  0  0
   26.2218   -1.3116   16.8590 O   0  0  0  0  0  0  0  0  0  0  0  0
   22.3294   -0.6768   17.7894 C   0  0  0  0  0  0  0  0  0  0  0  0
   21.3966   -0.1982   16.8094 O   0  0  0  0  0  0  0  0  0  0  0  0
   19.8471   -4.8214   16.7864 C   0  0  1  0  0  0  0  0  0  0  0  0
   20.9742   -4.0519   17.2578 O   0  0  0  0  0  0  0  0  0  0  0  0
   21.6066   -7.9265   12.1217 C   0  0  2  0  0  0  0  0  0  0  0  0
   20.2914   -7.5552   12.5624 O   0  0  0  0  0  0  0  0  0  0  0  0
   29.1816   -1.0766   18.2870 C   0  0  0  0  0  0  0  0  0  0  0  0
   28.7459   -1.5706   19.5305 O   0  0  0  0  0  0  0  0  0  0  0  0
   25.5078    0.3296   15.0916 C   0  0  1  0  0  0  0  0  0  0  0  0
   25.6306    1.4484   16.0094 O   0  0  0  0  0  0  0  0  0  0  0  0
   18.8137   -3.8518   16.1349 C   0  0  0  0  0  0  0  0  0  0  0  0
   19.2474   -3.3278   14.8226 N   0  0  0  0  0  0  0  0  0  0  0  0
   21.6573   -7.8339   10.5984 C   0  0  0  0  0  0  0  0  0  0  0  0
   22.9256   -7.2649   10.1783 O   0  0  0  0  0  0  0  0  0  0  0  0
  1  2  1  1  0  0  0
  1  8  1  0  0  0  0
  1 36  1  0  0  0  0
  3  4  1  6  0  0  0
  3 10  1  0  0  0  0
  3 47  1  0  0  0  0
  5 11  1  0  0  0  0
  5 30  1  0  0  0  0
  5 38  1  1  0  0  0
  6 21  1  6  0  0  0
  6 42  1  0  0  0  0
  7 15  1  0  0  0  0
  7 44  1  0  0  0  0
  7 32  1  1  0  0  0
  8  9  1  6  0  0  0
  8 17  1  0  0  0  0
 11 12  1  6  0  0  0
 11 20  1  0  0  0  0
 13  6  1  0  0  0  0
 13 14  1  6  0  0  0
 15 16  1  6  0  0  0
 15 24  1  0  0  0  0
 17 26  1  0  0  0  0
 18 10  1  0  0  0  0
 18 19  1  6  0  0  0
 20 21  1  6  0  0  0
 20 29  1  0  0  0  0
 22 13  1  0  0  0  0
 22 23  1  1  0  0  0
 24 25  1  1  0  0  0
 24 33  1  0  0  0  0
 26 27  1  1  0  0  0
 26 35  1  0  0  0  0
 28  2  1  1  0  0  0
 28 18  1  0  0  0  0
 29 30  1  0  0  0  0
 29 39  1  1  0  0  0
 31 22  1  0  0  0  0
 31 32  1  6  0  0  0
 31 41  1  0  0  0  0
 33 34  1  1  0  0  0
 33 43  1  0  0  0  0
 35 36  1  0  0  0  0
 35 45  1  1  0  0  0
 37 28  1  0  0  0  0
 37 38  1  1  0  0  0
 39 40  1  0  0  0  0
 41 42  1  0  0  0  0
 41 49  1  6  0  0  0
 43 44  1  0  0  0  0
 43 51  1  6  0  0  0
 45 46  1  0  0  0  0
 47 37  1  0  0  0  0
 47 48  1  1  0  0  0
 49 50  1  0  0  0  0
 51 52  1  0  0  0  0
M  END
>  <CHROM.1>
-171.02589802,-173.35621095,179.52916199,-67.56946615,167.63624052,63.01746581
-159.52624636,90.35163971,-71.12600540,-45.76769147,-85.04538483,-69.30045148
24.26017765,-4.03299179,15.61297345,-0.68637771,-0.27714156,-2.54544944

>  <Name>
2esj_lig

>  <RI>
0

>  <Rbt.Current_Directory>
/home/itssahil/PROJECTS/Mol_Feturizer/New_Systems/rnas/2esj

>  <Rbt.Executable>
rbdock ($Id: //depot/dev/client3/rdock/2013.1/src/exe/rbdock.cxx#4 $)

>  <Rbt.Library>
libRbt.so (2013.1, Build901 2013/11/27)

>  <Rbt.Parameter_File>
/export/apps/rDock/src/rDock_2013.1_src/data/scripts/dock_solv.prm

>  <Rbt.Receptor>
prm/pocket_docking_6.prm

>  <SCORE>
-5.73329

>  <SCORE.INTER>
1.89485

>  <SCORE.INTER.CONST>
1

>  <SCORE.INTER.POLAR>
0

>  <SCORE.INTER.ROT>
12

>  <SCORE.INTER.SOLV>
10.0934

>  <SCORE.INTER.VDW>
-13.7012

>  <SCORE.INTER.norm>
0.0364394

>  <SCORE.INTRA>
-7.62814

>  <SCORE.INTRA.DIHEDRAL>
-19.9287

>  <SCORE.INTRA.DIHEDRAL.0>
32.9766

>  <SCORE.INTRA.POLAR>
0

>  <SCORE.INTRA.POLAR.0>
0

>  <SCORE.INTRA.REPUL>
0

>  <SCORE.INTRA.REPUL.0>
0

>  <SCORE.INTRA.SOLV>
0.425419

>  <SCORE.INTRA.SOLV.lig_0>
-114.358

>  <SCORE.INTRA.VDW>
2.12351

>  <SCORE.INTRA.VDW.0>
-8.24257

>  <SCORE.INTRA.norm>
-0.146695

>  <SCORE.RESTR>
0

>  <SCORE.RESTR.CAVITY>
0

>  <SCORE.RESTR.norm>
0

>  <SCORE.SYSTEM>
0

>  <SCORE.SYSTEM.CONST>
0

>  <SCORE.SYSTEM.DIHEDRAL>
0

>  <SCORE.SYSTEM.SOLV>
0

>  <SCORE.SYSTEM.norm>
0

>  <SCORE.heavy>
52

>  <SCORE.norm>
-0.110255

>  <RMSD>
10.341

$$$$
2esj_lig
 OpenBabel11021811423D
libRbt.so/2013.1/901 2013/11/27
 52 56  0  0  0  0  0  0  0  0999 V2000
   24.5701   -5.3083   20.7922 C   0  0  2  0  0  0  0  0  0  0  0  0
   24.6088   -4.4682   19.6228 O   0  0  0  0  0  0  0  0  0  0  0  0
   21.6294   -2.2286   17.5263 C   0  0  2  0  0  0  0  0  0  0  0  0
   20.5173   -1.8039   16.6602 N   0  0  0  0  0  0  0  0  0  0  0  0
   21.2977   -5.7788   20.2719 C   0  0  1  0  0  0  0  0  0  0  0  0
   19.2989   -9.2436   19.4788 C   0  0  1  0  0  0  0  0  0  0  0  0
   20.6191  -13.9964   18.4336 C   0  0  1  0  0  0  0  0  0  0  0  0
   25.9396   -5.1632   21.5191 C   0  0  2  0  0  0  0  0  0  0  0  0
   26.2427   -3.7725   21.8557 N   0  0  0  0  0  0  0  0  0  0  0  0
   22.7284   -2.9838   16.6781 C   0  0  0  0  0  0  0  0  0  0  0  0
   20.8011   -6.5343   21.5053 C   0  0  2  0  0  0  0  0  0  0  0  0
   21.8375   -7.3331   22.1160 O   0  0  0  0  0  0  0  0  0  0  0  0
   19.4748  -10.6902   20.1252 C   0  0  2  0  0  0  0  0  0  0  0  0
   20.9109  -11.0657   20.2120 N   0  0  0  0  0  0  0  0  0  0  0  0
   22.1378  -13.8674   18.4102 C   0  0  1  0  0  0  0  0  0  0  0  0
   22.7012  -14.7194   19.4276 O   0  0  0  0  0  0  0  0  0  0  0  0
   27.0947   -5.7636   20.6564 C   0  0  0  0  0  0  0  0  0  0  0  0
   23.9408   -3.3797   17.6136 C   0  0  2  0  0  0  0  0  0  0  0  0
   24.9702   -4.0950   16.8524 N   0  0  0  0  0  0  0  0  0  0  0  0
   19.6806   -7.3329   20.9046 C   0  0  2  0  0  0  0  0  0  0  0  0
   20.1876   -8.4262   20.1821 O   0  0  0  0  0  0  0  0  0  0  0  0
   18.5556  -11.7239   19.3369 C   0  0  1  0  0  0  0  0  0  0  0  0
   17.2227  -11.2057   19.2770 O   0  0  0  0  0  0  0  0  0  0  0  0
   22.8005  -14.2176   17.0834 C   0  0  1  0  0  0  0  0  0  0  0  0
   24.2124  -14.2697   17.3160 O   0  0  0  0  0  0  0  0  0  0  0  0
   26.7378   -7.2352   20.2920 C   0  0  2  0  0  0  0  0  0  0  0  0
   27.7811   -7.8675   19.5724 O   0  0  0  0  0  0  0  0  0  0  0  0
   23.4473   -4.2461   18.8013 C   0  0  2  0  0  0  0  0  0  0  0  0
   19.0509   -6.4306   19.8233 C   0  0  2  0  0  0  0  0  0  0  0  0
   20.1609   -5.6515   19.4066 O   0  0  0  0  0  0  0  0  0  0  0  0
   19.0243  -11.8843   17.8323 C   0  0  2  0  0  0  0  0  0  0  0  0
   20.3394  -12.4333   17.9300 O   0  0  0  0  0  0  0  0  0  0  0  0
   22.3344  -15.5500   16.4940 C   0  0  2  0  0  0  0  0  0  0  0  0
   22.7933  -15.5870   15.1329 O   0  0  0  0  0  0  0  0  0  0  0  0
   25.4126   -7.2314   19.4902 C   0  0  2  0  0  0  0  0  0  0  0  0
   24.3834   -6.6760   20.3580 O   0  0  0  0  0  0  0  0  0  0  0  0
   22.2745   -3.6092   19.6137 C   0  0  2  0  0  0  0  0  0  0  0  0
   21.8424   -4.5341   20.6502 O   0  0  0  0  0  0  0  0  0  0  0  0
   17.9254   -5.5035   20.2809 C   0  0  0  0  0  0  0  0  0  0  0  0
   17.2598   -5.0187   19.1055 O   0  0  0  0  0  0  0  0  0  0  0  0
   19.2094  -10.4733   17.3079 C   0  0  1  0  0  0  0  0  0  0  0  0
   19.6255   -9.2748   17.9971 O   0  0  0  0  0  0  0  0  0  0  0  0
   20.8297  -15.7364   16.6539 C   0  0  2  0  0  0  0  0  0  0  0  0
   20.1254  -15.1906   17.7799 O   0  0  0  0  0  0  0  0  0  0  0  0
   24.9459   -8.5997   19.1261 C   0  0  0  0  0  0  0  0  0  0  0  0
   23.8083   -8.4543   18.3106 O   0  0  0  0  0  0  0  0  0  0  0  0
   21.1071   -3.1789   18.6628 C   0  0  1  0  0  0  0  0  0  0  0  0
   20.1556   -2.4283   19.4631 O   0  0  0  0  0  0  0  0  0  0  0  0
   19.5744  -10.3369   15.7976 C   0  0  0  0  0  0  0  0  0  0  0  0
   20.5751   -9.2828   15.5289 N   0  0  0  0  0  0  0  0  0  0  0  0
   20.0879  -16.9793   16.1674 C   0  0  0  0  0  0  0  0  0  0  0  0
   19.1066  -16.6095   15.1629 O   0  0  0  0  0  0  0  0  0  0  0  0
  1  2  1  6  0  0  0
  1  8  1  0  0  0  0
  1 36  1  0  0  0  0
  3  4  1  6  0  0  0
  3 10  1  0  0  0  0
  3 47  1  0  0  0  0
  5 11  1  0  0  0  0
  5 30  1  0  0  0  0
  5 38  1  1  0  0  0
  6 21  1  1  0  0  0
  6 42  1  0  0  0  0
  7 15  1  0  0  0  0
  7 44  1  0  0  0  0
  7 32  1  6  0  0  0
  8  9  1  6  0  0  0
  8 17  1  0  0  0  0
 11 12  1  6  0  0  0
 11 20  1  0  0  0  0
 13  6  1  0  0  0  0
 13 14  1  6  0  0  0
 15 16  1  1  0  0  0
 15 24  1  0  0  0  0
 17 26  1  0  0  0  0
 18 10  1  0  0  0  0
 18 19  1  6  0  0  0
 20 21  1  6  0  0  0
 20 29  1  0  0  0  0
 22 13  1  0  0  0  0
 22 23  1  6  0  0  0
 24 25  1  1  0  0  0
 24 33  1  0  0  0  0
 26 27  1  6  0  0  0
 26 35  1  0  0  0  0
 28  2  1  1  0  0  0
 28 18  1  0  0  0  0
 29 30  1  0  0  0  0
 29 39  1  1  0  0  0
 31 22  1  0  0  0  0
 31 32  1  1  0  0  0
 31 41  1  0  0  0  0
 33 34  1  6  0  0  0
 33 43  1  0  0  0  0
 35 36  1  0  0  0  0
 35 45  1  1  0  0  0
 37 28  1  0  0  0  0
 37 38  1  1  0  0  0
 39 40  1  0  0  0  0
 41 42  1  0  0  0  0
 41 49  1  6  0  0  0
 43 44  1  0  0  0  0
 43 51  1  1  0  0  0
 45 46  1  0  0  0  0
 47 37  1  0  0  0  0
 47 48  1  1  0  0  0
 49 50  1  0  0  0  0
 51 52  1  0  0  0  0
M  END
>  <CHROM.1>
-172.77976606,-175.04318887,-119.25191697,-175.76829236,-176.08588920,-176.13353736
-165.57052475,70.40075645,-175.04568389,-63.22819462,-140.29615283,-118.59371468
21.79590842,-8.61041292,18.77465691,-1.36197604,0.09721016,-2.94438420

>  <Name>
2esj_lig

>  <RI>
0

>  <Rbt.Current_Directory>
/home/itssahil/PROJECTS/Mol_Feturizer/New_Systems/rnas/2esj

>  <Rbt.Executable>
rbdock ($Id: //depot/dev/client3/rdock/2013.1/src/exe/rbdock.cxx#4 $)

>  <Rbt.Library>
libRbt.so (2013.1, Build901 2013/11/27)

>  <Rbt.Parameter_File>
/export/apps/rDock/src/rDock_2013.1_src/data/scripts/dock_solv.prm

>  <Rbt.Receptor>
prm/pocket_docking_8.prm

>  <SCORE>
-15.0259

>  <SCORE.INTER>
-7.34457

>  <SCORE.INTER.CONST>
1

>  <SCORE.INTER.POLAR>
-1.13913

>  <SCORE.INTER.ROT>
12

>  <SCORE.INTER.SOLV>
8.74596

>  <SCORE.INTER.VDW>
-15.6146

>  <SCORE.INTER.norm>
-0.141242

>  <SCORE.INTRA>
-7.68138

>  <SCORE.INTRA.DIHEDRAL>
-17.2436

>  <SCORE.INTRA.DIHEDRAL.0>
32.9766

>  <SCORE.INTRA.POLAR>
0

>  <SCORE.INTRA.POLAR.0>
0

>  <SCORE.INTRA.REPUL>
0.0227772

>  <SCORE.INTRA.REPUL.0>
0

>  <SCORE.INTRA.SOLV>
-3.3542

>  <SCORE.INTRA.SOLV.lig_0>
-114.358

>  <SCORE.INTRA.VDW>
2.50366

>  <SCORE.INTRA.VDW.0>
-8.24257

>  <SCORE.INTRA.norm>
-0.147719

>  <SCORE.RESTR>
0

>  <SCORE.RESTR.CAVITY>
0

>  <SCORE.RESTR.norm>
0

>  <SCORE.SYSTEM>
0

>  <SCORE.SYSTEM.CONST>
0

>  <SCORE.SYSTEM.DIHEDRAL>
0

>  <SCORE.SYSTEM.SOLV>
0

>  <SCORE.SYSTEM.norm>
0

>  <SCORE.heavy>
52

>  <SCORE.norm>
-0.28896

>  <RMSD>
10.356

$$$$
2esj_lig
 OpenBabel11021811423D
libRbt.so/2013.1/901 2013/11/27
 52 56  0  0  0  0  0  0  0  0999 V2000
   28.7663   -1.7330   15.8451 C   0  0  2  0  0  0  0  0  0  0  0  0
   27.3430   -1.8323   15.6468 O   0  0  0  0  0  0  0  0  0  0  0  0
   26.5119   -5.1824   18.1715 C   0  0  2  0  0  0  0  0  0  0  0  0
   25.8631   -6.2136   18.9979 N   0  0  0  0  0  0  0  0  0  0  0  0
   24.9720   -4.1899   14.0897 C   0  0  1  0  0  0  0  0  0  0  0  0
   22.3849   -4.2012   14.5346 C   0  0  1  0  0  0  0  0  0  0  0  0
   18.1203   -6.6751   16.3120 C   0  0  1  0  0  0  0  0  0  0  0  0
   29.3046   -0.6631   14.8498 C   0  0  2  0  0  0  0  0  0  0  0  0
   28.6391    0.6291   15.0131 N   0  0  0  0  0  0  0  0  0  0  0  0
   26.1377   -3.7404   18.6991 C   0  0  0  0  0  0  0  0  0  0  0  0
   24.6351   -2.7460   13.7155 C   0  0  2  0  0  0  0  0  0  0  0  0
   24.3106   -1.9397   14.8688 O   0  0  0  0  0  0  0  0  0  0  0  0
   21.4301   -5.3956   14.0841 C   0  0  2  0  0  0  0  0  0  0  0  0
   20.1073   -4.8834   13.6385 N   0  0  0  0  0  0  0  0  0  0  0  0
   17.8629   -6.3732   17.7838 C   0  0  1  0  0  0  0  0  0  0  0  0
   16.4631   -6.5670   18.0691 O   0  0  0  0  0  0  0  0  0  0  0  0
   29.1585   -1.1517   13.3736 C   0  0  0  0  0  0  0  0  0  0  0  0
   26.8902   -2.6486   17.8369 C   0  0  2  0  0  0  0  0  0  0  0  0
   26.5490   -1.2989   18.2982 N   0  0  0  0  0  0  0  0  0  0  0  0
   23.4859   -2.9676   12.7752 C   0  0  2  0  0  0  0  0  0  0  0  0
   22.3163   -3.2744   13.4910 O   0  0  0  0  0  0  0  0  0  0  0  0
   21.3742   -6.4800   15.2485 C   0  0  1  0  0  0  0  0  0  0  0  0
   22.7116   -6.8319   15.6177 O   0  0  0  0  0  0  0  0  0  0  0  0
   18.6649   -7.2130   18.7706 C   0  0  1  0  0  0  0  0  0  0  0  0
   18.1270   -6.9635   20.0739 O   0  0  0  0  0  0  0  0  0  0  0  0
   29.8540   -2.5380   13.2315 C   0  0  2  0  0  0  0  0  0  0  0  0
   29.8264   -3.0066   11.8951 O   0  0  0  0  0  0  0  0  0  0  0  0
   26.5410   -2.8104   16.3346 C   0  0  2  0  0  0  0  0  0  0  0  0
   23.8089   -4.2689   12.0123 C   0  0  2  0  0  0  0  0  0  0  0  0
   24.5720   -4.9887   12.9675 O   0  0  0  0  0  0  0  0  0  0  0  0
   20.7064   -5.8891   16.5577 C   0  0  2  0  0  0  0  0  0  0  0  0
   19.3685   -5.5820   16.1625 O   0  0  0  0  0  0  0  0  0  0  0  0
   18.6190   -8.7146   18.4823 C   0  0  2  0  0  0  0  0  0  0  0  0
   19.6479   -9.3237   19.2792 O   0  0  0  0  0  0  0  0  0  0  0  0
   29.1636   -3.5315   14.1986 C   0  0  2  0  0  0  0  0  0  0  0  0
   29.3530   -3.0224   15.5498 O   0  0  0  0  0  0  0  0  0  0  0  0
   26.7747   -4.2504   15.7753 C   0  0  2  0  0  0  0  0  0  0  0  0
   26.3457   -4.3081   14.3864 O   0  0  0  0  0  0  0  0  0  0  0  0
   24.6194   -4.1204   10.7252 C   0  0  0  0  0  0  0  0  0  0  0  0
   23.9581   -3.1434    9.9080 O   0  0  0  0  0  0  0  0  0  0  0  0
   21.3795   -4.5505   16.7930 C   0  0  1  0  0  0  0  0  0  0  0  0
   21.9102   -3.5999   15.8446 O   0  0  0  0  0  0  0  0  0  0  0  0
   18.7302   -9.0009   16.9889 C   0  0  2  0  0  0  0  0  0  0  0  0
   18.2023   -8.0897   16.0128 O   0  0  0  0  0  0  0  0  0  0  0  0
   29.7817   -4.8881   14.1825 C   0  0  0  0  0  0  0  0  0  0  0  0
   29.4827   -5.4731   12.9381 O   0  0  0  0  0  0  0  0  0  0  0  0
   26.0634   -5.3189   16.6723 C   0  0  1  0  0  0  0  0  0  0  0  0
   26.4879   -6.6259   16.2020 O   0  0  0  0  0  0  0  0  0  0  0  0
   20.9769   -3.7908   18.0943 C   0  0  0  0  0  0  0  0  0  0  0  0
   21.5599   -4.3767   19.3197 N   0  0  0  0  0  0  0  0  0  0  0  0
   18.7026  -10.4124   16.4070 C   0  0  0  0  0  0  0  0  0  0  0  0
   19.4570  -10.4521   15.1668 O   0  0  0  0  0  0  0  0  0  0  0  0
  1  2  1  6  0  0  0
  1  8  1  0  0  0  0
  1 36  1  0  0  0  0
  3  4  1  1  0  0  0
  3 10  1  0  0  0  0
  3 47  1  0  0  0  0
  5 11  1  0  0  0  0
  5 30  1  0  0  0  0
  5 38  1  6  0  0  0
  6 21  1  6  0  0  0
  6 42  1  0  0  0  0
  7 15  1  0  0  0  0
  7 44  1  0  0  0  0
  7 32  1  1  0  0  0
  8  9  1  6  0  0  0
  8 17  1  0  0  0  0
 11 12  1  1  0  0  0
 11 20  1  0  0  0  0
 13  6  1  0  0  0  0
 13 14  1  1  0  0  0
 15 16  1  1  0  0  0
 15 24  1  0  0  0  0
 17 26  1  0  0  0  0
 18 10  1  0  0  0  0
 18 19  1  1  0  0  0
 20 21  1  1  0  0  0
 20 29  1  0  0  0  0
 22 13  1  0  0  0  0
 22 23  1  1  0  0  0
 24 25  1  1  0  0  0
 24 33  1  0  0  0  0
 26 27  1  6  0  0  0
 26 35  1  0  0  0  0
 28  2  1  6  0  0  0
 28 18  1  0  0  0  0
 29 30  1  0  0  0  0
 29 39  1  6  0  0  0
 31 22  1  0  0  0  0
 31 32  1  6  0  0  0
 31 41  1  0  0  0  0
 33 34  1  1  0  0  0
 33 43  1  0  0  0  0
 35 36  1  0  0  0  0
 35 45  1  1  0  0  0
 37 28  1  0  0  0  0
 37 38  1  6  0  0  0
 39 40  1  0  0  0  0
 41 42  1  0  0  0  0
 41 49  1  6  0  0  0
 43 44  1  0  0  0  0
 43 51  1  1  0  0  0
 45 46  1  0  0  0  0
 47 37  1  0  0  0  0
 47 48  1  6  0  0  0
 49 50  1  0  0  0  0
 51 52  1  0  0  0  0
M  END
>  <CHROM.1>
174.94456994,96.56344434,-117.76286723,82.41943889,-45.23065337,51.82095343
-52.18222683,90.92649829,-69.43223450,-67.94240566,74.28230168,-151.66273924
23.78707463,-4.77082745,15.59195827,-0.31622426,0.44838547,1.66406285

>  <Name>
2esj_lig

>  <RI>
1.01272e+07

>  <Rbt.Current_Directory>
/home/itssahil/PROJECTS/Mol_Feturizer/New_Systems/rnas/2esj

>  <Rbt.Executable>
rbdock ($Id: //depot/dev/client3/rdock/2013.1/src/exe/rbdock.cxx#4 $)

>  <Rbt.Library>
libRbt.so (2013.1, Build901 2013/11/27)

>  <Rbt.Parameter_File>
/export/apps/rDock/src/rDock_2013.1_src/data/scripts/dock_solv.prm

>  <Rbt.Receptor>
prm/pocket_docking_3.prm

>  <SCORE>
0.867158

>  <SCORE.INTER>
-0.84786

>  <SCORE.INTER.CONST>
1

>  <SCORE.INTER.POLAR>
-0.979796

>  <SCORE.INTER.ROT>
12

>  <SCORE.INTER.SOLV>
7.19026

>  <SCORE.INTER.VDW>
-11.296

>  <SCORE.INTER.norm>
-0.016305

>  <SCORE.INTRA>
1.68873

>  <SCORE.INTRA.DIHEDRAL>
-7.22091

>  <SCORE.INTRA.DIHEDRAL.0>
32.9766

>  <SCORE.INTRA.POLAR>
0

>  <SCORE.INTRA.POLAR.0>
0

>  <SCORE.INTRA.REPUL>
0

>  <SCORE.INTRA.REPUL.0>
0

>  <SCORE.INTRA.SOLV>
-1.69697

>  <SCORE.INTRA.SOLV.lig_0>
-114.358

>  <SCORE.INTRA.VDW>
6.14767

>  <SCORE.INTRA.VDW.0>
-8.24257

>  <SCORE.INTRA.norm>
0.0324757

>  <SCORE.RESTR>
0.0262837

>  <SCORE.RESTR.CAVITY>
0.0262837

>  <SCORE.RESTR.norm>
0.000505455

>  <SCORE.SYSTEM>
0

>  <SCORE.SYSTEM.CONST>
0

>  <SCORE.SYSTEM.DIHEDRAL>
0

>  <SCORE.SYSTEM.SOLV>
0

>  <SCORE.SYSTEM.norm>
0

>  <SCORE.heavy>
52

>  <SCORE.norm>
0.0166761

>  <RMSD>
10.367

$$$$
2esj_lig
 OpenBabel11021811423D
libRbt.so/2013.1/901 2013/11/27
 52 56  0  0  0  0  0  0  0  0999 V2000
   27.8252   -1.0148   17.1484 C   0  0  2  0  0  0  0  0  0  0  0  0
   26.5846   -1.7259   16.9757 O   0  0  0  0  0  0  0  0  0  0  0  0
   27.9817   -5.0577   14.6877 C   0  0  2  0  0  0  0  0  0  0  0  0
   28.1289   -6.3587   14.0144 N   0  0  0  0  0  0  0  0  0  0  0  0
   24.1931   -2.6351   14.4299 C   0  0  1  0  0  0  0  0  0  0  0  0
   20.1375   -3.6819   14.4825 C   0  0  1  0  0  0  0  0  0  0  0  0
   17.0449   -5.3881   18.4582 C   0  0  1  0  0  0  0  0  0  0  0  0
   27.4940    0.3477   17.8258 C   0  0  2  0  0  0  0  0  0  0  0  0
   26.7815    0.1776   19.0917 N   0  0  0  0  0  0  0  0  0  0  0  0
   27.7419   -5.2648   16.2359 C   0  0  0  0  0  0  0  0  0  0  0  0
   23.1418   -1.5631   14.1402 C   0  0  2  0  0  0  0  0  0  0  0  0
   22.8191   -0.7783   15.3087 O   0  0  0  0  0  0  0  0  0  0  0  0
   19.0733   -2.7927   15.2686 C   0  0  2  0  0  0  0  0  0  0  0  0
   19.5207   -2.5310   16.6622 N   0  0  0  0  0  0  0  0  0  0  0  0
   18.0654   -5.0155   19.5274 C   0  0  1  0  0  0  0  0  0  0  0  0
   17.3972   -4.8982   20.7995 O   0  0  0  0  0  0  0  0  0  0  0  0
   26.6626    1.2588   16.8678 C   0  0  0  0  0  0  0  0  0  0  0  0
   27.6456   -3.8571   16.9505 C   0  0  2  0  0  0  0  0  0  0  0  0
   27.4092   -4.0213   18.3885 N   0  0  0  0  0  0  0  0  0  0  0  0
   22.0122   -2.4156   13.6389 C   0  0  2  0  0  0  0  0  0  0  0  0
   21.3658   -3.0556   14.7099 O   0  0  0  0  0  0  0  0  0  0  0  0
   17.6378   -3.4690   15.1387 C   0  0  1  0  0  0  0  0  0  0  0  0
   17.3679   -3.7197   13.7555 O   0  0  0  0  0  0  0  0  0  0  0  0
   19.2223   -5.9937   19.6922 C   0  0  1  0  0  0  0  0  0  0  0  0
   19.9322   -5.6144   20.8764 O   0  0  0  0  0  0  0  0  0  0  0  0
   27.4304    1.4053   15.5207 C   0  0  2  0  0  0  0  0  0  0  0  0
   26.7676    2.2845   14.6297 O   0  0  0  0  0  0  0  0  0  0  0  0
   26.5201   -3.0022   16.3122 C   0  0  2  0  0  0  0  0  0  0  0  0
   22.6696   -3.5705   12.8556 C   0  0  2  0  0  0  0  0  0  0  0  0
   23.9100   -3.7148   13.5292 O   0  0  0  0  0  0  0  0  0  0  0  0
   17.5987   -4.8841   15.8494 C   0  0  2  0  0  0  0  0  0  0  0  0
   17.8371   -4.5926   17.2273 O   0  0  0  0  0  0  0  0  0  0  0  0
   18.7828   -7.4541   19.8105 C   0  0  2  0  0  0  0  0  0  0  0  0
   19.9614   -8.2589   19.6433 O   0  0  0  0  0  0  0  0  0  0  0  0
   27.6074   -0.0047   14.9044 C   0  0  2  0  0  0  0  0  0  0  0  0
   28.4009   -0.7894   15.8401 O   0  0  0  0  0  0  0  0  0  0  0  0
   26.6296   -2.8564   14.7605 C   0  0  2  0  0  0  0  0  0  0  0  0
   25.4889   -2.1043   14.2611 O   0  0  0  0  0  0  0  0  0  0  0  0
   22.9267   -3.3256   11.3692 C   0  0  0  0  0  0  0  0  0  0  0  0
   21.6610   -3.0506   10.7511 O   0  0  0  0  0  0  0  0  0  0  0  0
   18.8351   -5.6190   15.3683 C   0  0  1  0  0  0  0  0  0  0  0  0
   20.1350   -5.1072   15.0037 O   0  0  0  0  0  0  0  0  0  0  0  0
   17.6571   -7.7802   18.8354 C   0  0  2  0  0  0  0  0  0  0  0  0
   16.6869   -6.7913   18.4577 O   0  0  0  0  0  0  0  0  0  0  0  0
   28.3758    0.0081   13.6269 C   0  0  0  0  0  0  0  0  0  0  0  0
   28.3940   -1.3092   13.1324 O   0  0  0  0  0  0  0  0  0  0  0  0
   26.7749   -4.2582   14.0779 C   0  0  1  0  0  0  0  0  0  0  0  0
   27.0646   -4.0246   12.6741 O   0  0  0  0  0  0  0  0  0  0  0  0
   18.9914   -7.0971   15.8409 C   0  0  0  0  0  0  0  0  0  0  0  0
   19.1728   -8.0527   14.7279 N   0  0  0  0  0  0  0  0  0  0  0  0
   17.0124   -9.1611   18.7389 C   0  0  0  0  0  0  0  0  0  0  0  0
   18.0304  -10.1916   18.8413 O   0  0  0  0  0  0  0  0  0  0  0  0
  1  2  1  6  0  0  0
  1  8  1  0  0  0  0
  1 36  1  0  0  0  0
  3  4  1  6  0  0  0
  3 10  1  0  0  0  0
  3 47  1  0  0  0  0
  5 11  1  0  0  0  0
  5 30  1  0  0  0  0
  5 38  1  6  0  0  0
  6 21  1  1  0  0  0
  6 42  1  0  0  0  0
  7 15  1  0  0  0  0
  7 44  1  0  0  0  0
  7 32  1  6  0  0  0
  8  9  1  1  0  0  0
  8 17  1  0  0  0  0
 11 12  1  1  0  0  0
 11 20  1  0  0  0  0
 13  6  1  0  0  0  0
 13 14  1  1  0  0  0
 15 16  1  1  0  0  0
 15 24  1  0  0  0  0
 17 26  1  0  0  0  0
 18 10  1  0  0  0  0
 18 19  1  1  0  0  0
 20 21  1  1  0  0  0
 20 29  1  0  0  0  0
 22 13  1  0  0  0  0
 22 23  1  6  0  0  0
 24 25  1  1  0  0  0
 24 33  1  0  0  0  0
 26 27  1  6  0  0  0
 26 35  1  0  0  0  0
 28  2  1  1  0  0  0
 28 18  1  0  0  0  0
 29 30  1  0  0  0  0
 29 39  1  6  0  0  0
 31 22  1  0  0  0  0
 31 32  1  1  0  0  0
 31 41  1  0  0  0  0
 33 34  1  6  0  0  0
 33 43  1  0  0  0  0
 35 36  1  0  0  0  0
 35 45  1  6  0  0  0
 37 28  1  0  0  0  0
 37 38  1  6  0  0  0
 39 40  1  0  0  0  0
 41 42  1  0  0  0  0
 41 49  1  1  0  0  0
 43 44  1  0  0  0  0
 43 51  1  1  0  0  0
 45 46  1  0  0  0  0
 47 37  1  0  0  0  0
 47 48  1  6  0  0  0
 49 50  1  0  0  0  0
 51 52  1  0  0  0  0
M  END
>  <CHROM.1>
176.74860858,166.81168143,-111.11323820,160.61335186,167.67313634,48.22394799
-59.37775807,141.21218538,-176.42307793,-62.51710004,125.35348058,-40.70797556
22.75428228,-3.70779291,15.98708259,-0.42711380,0.37758894,1.96108944

>  <Name>
2esj_lig

>  <RI>
0

>  <Rbt.Current_Directory>
/home/itssahil/PROJECTS/Mol_Feturizer/New_Systems/rnas/2esj

>  <Rbt.Executable>
rbdock ($Id: //depot/dev/client3/rdock/2013.1/src/exe/rbdock.cxx#4 $)

>  <Rbt.Library>
libRbt.so (2013.1, Build901 2013/11/27)

>  <Rbt.Parameter_File>
/export/apps/rDock/src/rDock_2013.1_src/data/scripts/dock_solv.prm

>  <Rbt.Receptor>
prm/pocket_docking_4.prm

>  <SCORE>
-10.4586

>  <SCORE.INTER>
-4.97586

>  <SCORE.INTER.CONST>
1

>  <SCORE.INTER.POLAR>
-1.29257

>  <SCORE.INTER.ROT>
12

>  <SCORE.INTER.SOLV>
16.9733

>  <SCORE.INTER.VDW>
-16.2664

>  <SCORE.INTER.norm>
-0.0956897

>  <SCORE.INTRA>
-5.5545

>  <SCORE.INTRA.DIHEDRAL>
-11.5563

>  <SCORE.INTRA.DIHEDRAL.0>
32.9766

>  <SCORE.INTRA.POLAR>
0

>  <SCORE.INTRA.POLAR.0>
0

>  <SCORE.INTRA.REPUL>
0

>  <SCORE.INTRA.REPUL.0>
0

>  <SCORE.INTRA.SOLV>
-2.79341

>  <SCORE.INTRA.SOLV.lig_0>
-114.358

>  <SCORE.INTRA.VDW>
1.62038

>  <SCORE.INTRA.VDW.0>
-8.24257

>  <SCORE.INTRA.norm>
-0.106817

>  <SCORE.RESTR>
0.0717174

>  <SCORE.RESTR.CAVITY>
0.0717174

>  <SCORE.RESTR.norm>
0.00137918

>  <SCORE.SYSTEM>
0

>  <SCORE.SYSTEM.CONST>
0

>  <SCORE.SYSTEM.DIHEDRAL>
0

>  <SCORE.SYSTEM.SOLV>
0

>  <SCORE.SYSTEM.norm>
0

>  <SCORE.heavy>
52

>  <SCORE.norm>
-0.201128

>  <RMSD>
10.374

$$$$
2esj_lig
 OpenBabel11021811423D
libRbt.so/2013.1/901 2013/11/27
 52 56  0  0  0  0  0  0  0  0999 V2000
   28.9722   -4.5086   17.2766 C   0  0  2  0  0  0  0  0  0  0  0  0
   27.7410   -4.4181   16.5346 O   0  0  0  0  0  0  0  0  0  0  0  0
   29.1836   -2.4472   13.0243 C   0  0  2  0  0  0  0  0  0  0  0  0
   29.3332   -1.8656   11.6801 N   0  0  0  0  0  0  0  0  0  0  0  0
   25.5064   -2.0207   15.7556 C   0  0  1  0  0  0  0  0  0  0  0  0
   21.4555   -2.5010   15.0585 C   0  0  1  0  0  0  0  0  0  0  0  0
   17.8414   -5.5251   16.9311 C   0  0  1  0  0  0  0  0  0  0  0  0
   28.6524   -5.2056   18.6319 C   0  0  2  0  0  0  0  0  0  0  0  0
   28.0290   -6.5157   18.4468 N   0  0  0  0  0  0  0  0  0  0  0  0
   28.8195   -3.9815   12.9212 C   0  0  0  0  0  0  0  0  0  0  0  0
   24.5489   -1.2032   16.6236 C   0  0  2  0  0  0  0  0  0  0  0  0
   24.3099   -1.8174   17.9085 O   0  0  0  0  0  0  0  0  0  0  0  0
   20.3534   -1.8639   16.0181 C   0  0  2  0  0  0  0  0  0  0  0  0
   20.4606   -2.4149   17.3949 N   0  0  0  0  0  0  0  0  0  0  0  0
   17.2347   -5.0891   18.2597 C   0  0  1  0  0  0  0  0  0  0  0  0
   16.0673   -5.8898   18.5326 O   0  0  0  0  0  0  0  0  0  0  0  0
   27.7375   -4.3039   19.5201 C   0  0  0  0  0  0  0  0  0  0  0  0
   28.7213   -4.6019   14.3728 C   0  0  2  0  0  0  0  0  0  0  0  0
   28.3706   -6.0243   14.3056 N   0  0  0  0  0  0  0  0  0  0  0  0
   23.3433   -1.1540   15.7301 C   0  0  2  0  0  0  0  0  0  0  0  0
   22.6568   -2.3796   15.7620 O   0  0  0  0  0  0  0  0  0  0  0  0
   18.9222   -2.0234   15.3391 C   0  0  1  0  0  0  0  0  0  0  0  0
   18.9838   -1.5113   14.0039 O   0  0  0  0  0  0  0  0  0  0  0  0
   18.1643   -5.1870   19.4633 C   0  0  1  0  0  0  0  0  0  0  0  0
   17.3670   -4.9704   20.6328 O   0  0  0  0  0  0  0  0  0  0  0  0
   28.4112   -2.9091   19.6827 C   0  0  2  0  0  0  0  0  0  0  0  0
   27.6697   -2.0632   20.5433 O   0  0  0  0  0  0  0  0  0  0  0  0
   27.6799   -3.8283   15.2225 C   0  0  2  0  0  0  0  0  0  0  0  0
   23.8882   -1.0686   14.2895 C   0  0  2  0  0  0  0  0  0  0  0  0
   25.1194   -1.7653   14.3983 O   0  0  0  0  0  0  0  0  0  0  0  0
   18.5154   -3.5479   15.1983 C   0  0  2  0  0  0  0  0  0  0  0  0
   18.4304   -4.0152   16.5455 O   0  0  0  0  0  0  0  0  0  0  0  0
   18.8812   -6.5332   19.5807 C   0  0  2  0  0  0  0  0  0  0  0  0
   19.9294   -6.3641   20.5489 O   0  0  0  0  0  0  0  0  0  0  0  0
   28.5823   -2.2832   18.2763 C   0  0  2  0  0  0  0  0  0  0  0  0
   29.4549   -3.1651   17.5135 O   0  0  0  0  0  0  0  0  0  0  0  0
   27.9122   -2.2840   15.2684 C   0  0  2  0  0  0  0  0  0  0  0  0
   26.8412   -1.6535   16.0247 O   0  0  0  0  0  0  0  0  0  0  0  0
   24.1476    0.3343   13.7415 C   0  0  0  0  0  0  0  0  0  0  0  0
   24.5560    0.1952   12.3728 O   0  0  0  0  0  0  0  0  0  0  0  0
   19.7249   -4.2416   14.6017 C   0  0  1  0  0  0  0  0  0  0  0  0
   21.1309   -3.9528   14.7585 O   0  0  0  0  0  0  0  0  0  0  0  0
   19.3575   -7.0336   18.2216 C   0  0  2  0  0  0  0  0  0  0  0  0
   18.6298   -6.7367   17.0199 O   0  0  0  0  0  0  0  0  0  0  0  0
   29.2646   -0.9581   18.3053 C   0  0  0  0  0  0  0  0  0  0  0  0
   28.3522   -0.0253   18.8322 O   0  0  0  0  0  0  0  0  0  0  0  0
   28.0570   -1.6989   13.8231 C   0  0  1  0  0  0  0  0  0  0  0  0
   28.4608   -0.3106   13.9600 O   0  0  0  0  0  0  0  0  0  0  0  0
   19.5578   -5.7537   14.2577 C   0  0  0  0  0  0  0  0  0  0  0  0
   18.3768   -6.0364   13.4150 N   0  0  0  0  0  0  0  0  0  0  0  0
   20.0959   -8.3568   18.0330 C   0  0  0  0  0  0  0  0  0  0  0  0
   19.2965   -9.4497   18.5577 O   0  0  0  0  0  0  0  0  0  0  0  0
  1  2  1  6  0  0  0
  1  8  1  0  0  0  0
  1 36  1  0  0  0  0
  3  4  1  6  0  0  0
  3 10  1  0  0  0  0
  3 47  1  0  0  0  0
  5 11  1  0  0  0  0
  5 30  1  0  0  0  0
  5 38  1  6  0  0  0
  6 21  1  1  0  0  0
  6 42  1  0  0  0  0
  7 15  1  0  0  0  0
  7 44  1  0  0  0  0
  7 32  1  1  0  0  0
  8  9  1  6  0  0  0
  8 17  1  0  0  0  0
 11 12  1  1  0  0  0
 11 20  1  0  0  0  0
 13  6  1  0  0  0  0
 13 14  1  1  0  0  0
 15 16  1  1  0  0  0
 15 24  1  0  0  0  0
 17 26  1  0  0  0  0
 18 10  1  0  0  0  0
 18 19  1  6  0  0  0
 20 21  1  6  0  0  0
 20 29  1  0  0  0  0
 22 13  1  0  0  0  0
 22 23  1  6  0  0  0
 24 25  1  1  0  0  0
 24 33  1  0  0  0  0
 26 27  1  1  0  0  0
 26 35  1  0  0  0  0
 28  2  1  1  0  0  0
 28 18  1  0  0  0  0
 29 30  1  0  0  0  0
 29 39  1  1  0  0  0
 31 22  1  0  0  0  0
 31 32  1  1  0  0  0
 31 41  1  0  0  0  0
 33 34  1  1  0  0  0
 33 43  1  0  0  0  0
 35 36  1  0  0  0  0
 35 45  1  1  0  0  0
 37 28  1  0  0  0  0
 37 38  1  6  0  0  0
 39 40  1  0  0  0  0
 41 42  1  0  0  0  0
 41 49  1  1  0  0  0
 43 44  1  0  0  0  0
 43 51  1  1  0  0  0
 45 46  1  0  0  0  0
 47 37  1  0  0  0  0
 47 48  1  1  0  0  0
 49 50  1  0  0  0  0
 51 52  1  0  0  0  0
M  END
>  <CHROM.1>
-179.65227462,-177.94354899,-81.74630320,-147.23819142,175.93569142,55.30482668
-176.04390580,172.05931792,-72.68129039,-46.66498067,52.37620589,56.62758282
23.68381811,-3.55040500,16.43159751,-0.28612038,0.15235733,2.18934938

>  <Name>
2esj_lig

>  <RI>
1.62275e+07

>  <Rbt.Current_Directory>
/home/itssahil/PROJECTS/Mol_Feturizer/New_Systems/rnas/2esj

>  <Rbt.Executable>
rbdock ($Id: //depot/dev/client3/rdock/2013.1/src/exe/rbdock.cxx#4 $)

>  <Rbt.Library>
libRbt.so (2013.1, Build901 2013/11/27)

>  <Rbt.Parameter_File>
/export/apps/rDock/src/rDock_2013.1_src/data/scripts/dock_solv.prm

>  <Rbt.Receptor>
prm/pocket_docking_5.prm

>  <SCORE>
-12.454

>  <SCORE.INTER>
-4.4123

>  <SCORE.INTER.CONST>
1

>  <SCORE.INTER.POLAR>
-1.6814

>  <SCORE.INTER.ROT>
12

>  <SCORE.INTER.SOLV>
15.4065

>  <SCORE.INTER.VDW>
-14.0724

>  <SCORE.INTER.norm>
-0.0848518

>  <SCORE.INTRA>
-8.04169

>  <SCORE.INTRA.DIHEDRAL>
-19.7414

>  <SCORE.INTRA.DIHEDRAL.0>
32.9766

>  <SCORE.INTRA.POLAR>
0

>  <SCORE.INTRA.POLAR.0>
0

>  <SCORE.INTRA.REPUL>
0

>  <SCORE.INTRA.REPUL.0>
0

>  <SCORE.INTRA.SOLV>
-1.65729

>  <SCORE.INTRA.SOLV.lig_0>
-114.358

>  <SCORE.INTRA.VDW>
2.65764

>  <SCORE.INTRA.VDW.0>
-8.24257

>  <SCORE.INTRA.norm>
-0.154648

>  <SCORE.RESTR>
0

>  <SCORE.RESTR.CAVITY>
0

>  <SCORE.RESTR.norm>
0

>  <SCORE.SYSTEM>
0

>  <SCORE.SYSTEM.CONST>
0

>  <SCORE.SYSTEM.DIHEDRAL>
0

>  <SCORE.SYSTEM.SOLV>
0

>  <SCORE.SYSTEM.norm>
0

>  <SCORE.heavy>
52

>  <SCORE.norm>
-0.2395

>  <RMSD>
10.395

$$$$
2esj_lig
 OpenBabel11021811423D
libRbt.so/2013.1/901 2013/11/27
 52 56  0  0  0  0  0  0  0  0999 V2000
   28.4319   -1.5464   15.7909 C   0  0  2  0  0  0  0  0  0  0  0  0
   28.2054   -2.8833   15.3049 O   0  0  0  0  0  0  0  0  0  0  0  0
   26.7095   -6.3956   17.2322 C   0  0  2  0  0  0  0  0  0  0  0  0
   25.8769   -7.3898   17.9292 N   0  0  0  0  0  0  0  0  0  0  0  0
   25.0692   -4.5194   13.6156 C   0  0  1  0  0  0  0  0  0  0  0  0
   21.0493   -3.2617   14.2154 C   0  0  1  0  0  0  0  0  0  0  0  0
   18.0712   -5.8704   17.3672 C   0  0  1  0  0  0  0  0  0  0  0  0
   27.1442   -0.7190   15.5039 C   0  0  2  0  0  0  0  0  0  0  0  0
   25.9538   -1.3228   16.1017 N   0  0  0  0  0  0  0  0  0  0  0  0
   26.7916   -5.0609   18.0744 C   0  0  0  0  0  0  0  0  0  0  0  0
   24.5770   -3.4247   14.5630 C   0  0  2  0  0  0  0  0  0  0  0  0
   24.2483   -3.9368   15.8726 O   0  0  0  0  0  0  0  0  0  0  0  0
   21.1179   -2.9250   15.7721 C   0  0  2  0  0  0  0  0  0  0  0  0
   21.6498   -4.0782   16.5455 N   0  0  0  0  0  0  0  0  0  0  0  0
   17.3448   -5.2126   18.5347 C   0  0  1  0  0  0  0  0  0  0  0  0
   16.0106   -5.7510   18.6264 O   0  0  0  0  0  0  0  0  0  0  0  0
   26.9309   -0.5352   13.9677 C   0  0  0  0  0  0  0  0  0  0  0  0
   27.7370   -4.0275   17.3395 C   0  0  2  0  0  0  0  0  0  0  0  0
   27.8196   -2.7732   18.0949 N   0  0  0  0  0  0  0  0  0  0  0  0
   23.3991   -2.9038   13.7914 C   0  0  2  0  0  0  0  0  0  0  0  0
   22.3085   -3.7824   13.9055 O   0  0  0  0  0  0  0  0  0  0  0  0
   19.6949   -2.3938   16.2494 C   0  0  1  0  0  0  0  0  0  0  0  0
   19.2819   -1.3334   15.3811 O   0  0  0  0  0  0  0  0  0  0  0  0
   18.0135   -5.3783   19.8941 C   0  0  1  0  0  0  0  0  0  0  0  0
   17.0866   -4.9130   20.8814 O   0  0  0  0  0  0  0  0  0  0  0  0
   28.2191    0.0868   13.3517 C   0  0  2  0  0  0  0  0  0  0  0  0
   28.0662    0.3528   11.9690 O   0  0  0  0  0  0  0  0  0  0  0  0
   27.2286   -3.7583   15.8994 C   0  0  2  0  0  0  0  0  0  0  0  0
   23.7960   -2.9925   12.3033 C   0  0  2  0  0  0  0  0  0  0  0  0
   24.6791   -4.1030   12.2996 O   0  0  0  0  0  0  0  0  0  0  0  0
   18.5848   -3.5162   16.1184 C   0  0  2  0  0  0  0  0  0  0  0  0
   19.0103   -4.5389   17.0202 O   0  0  0  0  0  0  0  0  0  0  0  0
   18.4127   -6.8201   20.2132 C   0  0  2  0  0  0  0  0  0  0  0  0
   19.2902   -6.7678   21.3498 O   0  0  0  0  0  0  0  0  0  0  0  0
   29.4020   -0.8765   13.6198 C   0  0  2  0  0  0  0  0  0  0  0  0
   29.5512   -0.9869   15.0643 O   0  0  0  0  0  0  0  0  0  0  0  0
   27.0098   -5.0491   15.0467 C   0  0  2  0  0  0  0  0  0  0  0  0
   26.4633   -4.6871   13.7480 O   0  0  0  0  0  0  0  0  0  0  0  0
   24.5103   -1.7761   11.7154 C   0  0  0  0  0  0  0  0  0  0  0  0
   23.6613   -0.6368   11.9170 O   0  0  0  0  0  0  0  0  0  0  0  0
   18.7547   -4.1008   14.7293 C   0  0  1  0  0  0  0  0  0  0  0  0
   19.9470   -4.2655   13.9319 O   0  0  0  0  0  0  0  0  0  0  0  0
   19.0055   -7.5189   18.9947 C   0  0  2  0  0  0  0  0  0  0  0  0
   18.5713   -7.1966   17.6645 O   0  0  0  0  0  0  0  0  0  0  0  0
   30.7045   -0.3580   13.1126 C   0  0  0  0  0  0  0  0  0  0  0  0
   31.6858   -1.3229   13.4061 O   0  0  0  0  0  0  0  0  0  0  0  0
   26.1132   -6.0786   15.8140 C   0  0  1  0  0  0  0  0  0  0  0  0
   26.1213   -7.3114   15.0462 O   0  0  0  0  0  0  0  0  0  0  0  0
   17.7074   -5.1717   14.2945 C   0  0  0  0  0  0  0  0  0  0  0  0
   18.3121   -6.3533   13.6442 N   0  0  0  0  0  0  0  0  0  0  0  0
   19.4829   -8.9692   19.0164 C   0  0  0  0  0  0  0  0  0  0  0  0
   20.9312   -9.0130   19.1116 O   0  0  0  0  0  0  0  0  0  0  0  0
  1  2  1  6  0  0  0
  1  8  1  0  0  0  0
  1 36  1  0  0  0  0
  3  4  1  1  0  0  0
  3 10  1  0  0  0  0
  3 47  1  0  0  0  0
  5 11  1  0  0  0  0
  5 30  1  0  0  0  0
  5 38  1  6  0  0  0
  6 21  1  1  0  0  0
  6 42  1  0  0  0  0
  7 15  1  0  0  0  0
  7 44  1  0  0  0  0
  7 32  1  1  0  0  0
  8  9  1  6  0  0  0
  8 17  1  0  0  0  0
 11 12  1  1  0  0  0
 11 20  1  0  0  0  0
 13  6  1  0  0  0  0
 13 14  1  1  0  0  0
 15 16  1  1  0  0  0
 15 24  1  0  0  0  0
 17 26  1  0  0  0  0
 18 10  1  0  0  0  0
 18 19  1  1  0  0  0
 20 21  1  6  0  0  0
 20 29  1  0  0  0  0
 22 13  1  0  0  0  0
 22 23  1  6  0  0  0
 24 25  1  1  0  0  0
 24 33  1  0  0  0  0
 26 27  1  6  0  0  0
 26 35  1  0  0  0  0
 28  2  1  6  0  0  0
 28 18  1  0  0  0  0
 29 30  1  0  0  0  0
 29 39  1  1  0  0  0
 31 22  1  0  0  0  0
 31 32  1  1  0  0  0
 31 41  1  0  0  0  0
 33 34  1  1  0  0  0
 33 43  1  0  0  0  0
 35 36  1  0  0  0  0
 35 45  1  6  0  0  0
 37 28  1  0  0  0  0
 37 38  1  6  0  0  0
 39 40  1  0  0  0  0
 41 42  1  0  0  0  0
 41 49  1  1  0  0  0
 43 44  1  0  0  0  0
 43 51  1  1  0  0  0
 45 46  1  0  0  0  0
 47 37  1  0  0  0  0
 47 48  1  6  0  0  0
 49 50  1  0  0  0  0
 51 52  1  0  0  0  0
M  END
>  <CHROM.1>
-66.51694171,59.11944180,-75.58920984,-89.18334044,132.39936179,-64.97682024
-56.78402491,172.97241606,-179.50550241,-85.08903864,-134.91562320,-101.94914374
23.36830191,-3.97007476,15.77920037,-0.51887443,0.05241829,2.28156064

>  <Name>
2esj_lig

>  <RI>
0

>  <Rbt.Current_Directory>
/home/itssahil/PROJECTS/Mol_Feturizer/New_Systems/rnas/2esj

>  <Rbt.Executable>
rbdock ($Id: //depot/dev/client3/rdock/2013.1/src/exe/rbdock.cxx#4 $)

>  <Rbt.Library>
libRbt.so (2013.1, Build901 2013/11/27)

>  <Rbt.Parameter_File>
/export/apps/rDock/src/rDock_2013.1_src/data/scripts/dock_solv.prm

>  <Rbt.Receptor>
prm/pocket_docking_4.prm

>  <SCORE>
-7.12304

>  <SCORE.INTER>
-7.59398

>  <SCORE.INTER.CONST>
1

>  <SCORE.INTER.POLAR>
-1.80442

>  <SCORE.INTER.ROT>
12

>  <SCORE.INTER.SOLV>
13.0288

>  <SCORE.INTER.VDW>
-14.9909

>  <SCORE.INTER.norm>
-0.146038

>  <SCORE.INTRA>
0.470943

>  <SCORE.INTRA.DIHEDRAL>
-12.7187

>  <SCORE.INTRA.DIHEDRAL.0>
32.9766

>  <SCORE.INTRA.POLAR>
0

>  <SCORE.INTRA.POLAR.0>
0

>  <SCORE.INTRA.REPUL>
0

>  <SCORE.INTRA.REPUL.0>
0

>  <SCORE.INTRA.SOLV>
5.91838

>  <SCORE.INTRA.SOLV.lig_0>
-114.358

>  <SCORE.INTRA.VDW>
3.87109

>  <SCORE.INTRA.VDW.0>
-8.24257

>  <SCORE.INTRA.norm>
0.0090566

>  <SCORE.RESTR>
0

>  <SCORE.RESTR.CAVITY>
0

>  <SCORE.RESTR.norm>
0

>  <SCORE.SYSTEM>
0

>  <SCORE.SYSTEM.CONST>
0

>  <SCORE.SYSTEM.DIHEDRAL>
0

>  <SCORE.SYSTEM.SOLV>
0

>  <SCORE.SYSTEM.norm>
0

>  <SCORE.heavy>
52

>  <SCORE.norm>
-0.136982

>  <RMSD>
10.398

$$$$
2esj_lig
 OpenBabel11021811423D
libRbt.so/2013.1/901 2013/11/27
 52 56  0  0  0  0  0  0  0  0999 V2000
   24.8488    0.4529   13.3012 C   0  0  2  0  0  0  0  0  0  0  0  0
   25.8423    0.4206   12.2587 O   0  0  0  0  0  0  0  0  0  0  0  0
   25.5504    0.4317    7.9923 C   0  0  2  0  0  0  0  0  0  0  0  0
   25.3835    0.0601    6.5776 N   0  0  0  0  0  0  0  0  0  0  0  0
   22.5625   -0.8615   11.0404 C   0  0  1  0  0  0  0  0  0  0  0  0
   20.4298   -4.3087   10.9188 C   0  0  1  0  0  0  0  0  0  0  0  0
   20.0253   -8.8017   13.3271 C   0  0  1  0  0  0  0  0  0  0  0  0
   25.4938    1.1377   14.5422 C   0  0  2  0  0  0  0  0  0  0  0  0
   26.0052    2.4728   14.2341 N   0  0  0  0  0  0  0  0  0  0  0  0
   26.6849   -0.4431    8.6595 C   0  0  0  0  0  0  0  0  0  0  0  0
   21.4080   -0.9217   12.0414 C   0  0  2  0  0  0  0  0  0  0  0  0
   21.8474   -1.2882   13.3673 O   0  0  0  0  0  0  0  0  0  0  0  0
   19.1186   -4.6210   11.7700 C   0  0  2  0  0  0  0  0  0  0  0  0
   19.4346   -4.7268   13.2190 N   0  0  0  0  0  0  0  0  0  0  0  0
   19.7135   -8.4242   14.7707 C   0  0  1  0  0  0  0  0  0  0  0  0
   19.4344   -9.6216   15.5236 O   0  0  0  0  0  0  0  0  0  0  0  0
   26.6384    0.2550   15.1337 C   0  0  0  0  0  0  0  0  0  0  0  0
   26.8904    0.0105   10.1607 C   0  0  2  0  0  0  0  0  0  0  0  0
   27.9302   -0.7962   10.8079 N   0  0  0  0  0  0  0  0  0  0  0  0
   20.5254   -1.9408   11.3808 C   0  0  2  0  0  0  0  0  0  0  0  0
   21.0365   -3.2351   11.5760 O   0  0  0  0  0  0  0  0  0  0  0  0
   18.3876   -5.8905   11.1464 C   0  0  1  0  0  0  0  0  0  0  0  0
   18.2056   -5.6766    9.7429 O   0  0  0  0  0  0  0  0  0  0  0  0
   20.8137   -7.6584   15.4955 C   0  0  1  0  0  0  0  0  0  0  0  0
   20.4498   -7.6026   16.8792 O   0  0  0  0  0  0  0  0  0  0  0  0
   26.0751   -1.1663   15.4312 C   0  0  2  0  0  0  0  0  0  0  0  0
   27.0436   -1.9991   16.0433 O   0  0  0  0  0  0  0  0  0  0  0  0
   25.5571   -0.0965   10.9456 C   0  0  2  0  0  0  0  0  0  0  0  0
   20.6718   -1.7065    9.8631 C   0  0  2  0  0  0  0  0  0  0  0  0
   21.9964   -1.2069    9.7686 O   0  0  0  0  0  0  0  0  0  0  0  0
   19.2812   -7.1924   11.2723 C   0  0  2  0  0  0  0  0  0  0  0  0
   19.4129   -7.3939   12.6803 O   0  0  0  0  0  0  0  0  0  0  0  0
   22.1987   -8.2939   15.3609 C   0  0  2  0  0  0  0  0  0  0  0  0
   23.1510   -7.3174   15.8128 O   0  0  0  0  0  0  0  0  0  0  0  0
   25.5578   -1.7736   14.1036 C   0  0  2  0  0  0  0  0  0  0  0  0
   24.4878   -0.9114   13.6213 O   0  0  0  0  0  0  0  0  0  0  0  0
   24.3589    0.6492   10.2753 C   0  0  2  0  0  0  0  0  0  0  0  0
   23.1492    0.4210   11.0506 O   0  0  0  0  0  0  0  0  0  0  0  0
   19.7066   -0.7031    9.2327 C   0  0  0  0  0  0  0  0  0  0  0  0
   18.3734   -1.1793    9.4680 O   0  0  0  0  0  0  0  0  0  0  0  0
   20.6609   -6.7911   10.7870 C   0  0  1  0  0  0  0  0  0  0  0  0
   21.3417   -5.5209   10.8744 O   0  0  0  0  0  0  0  0  0  0  0  0
   22.4455   -8.8023   13.9449 C   0  0  2  0  0  0  0  0  0  0  0  0
   21.3711   -9.2997   13.1325 O   0  0  0  0  0  0  0  0  0  0  0  0
   24.9488   -3.1233   14.2764 C   0  0  0  0  0  0  0  0  0  0  0  0
   25.9761   -4.0031   14.6644 O   0  0  0  0  0  0  0  0  0  0  0  0
   24.2054    0.2229    8.7763 C   0  0  1  0  0  0  0  0  0  0  0  0
   23.2080    1.0951    8.1816 O   0  0  0  0  0  0  0  0  0  0  0  0
   21.7260   -7.9278   10.7075 C   0  0  0  0  0  0  0  0  0  0  0  0
   23.0945   -7.4730   11.0320 N   0  0  0  0  0  0  0  0  0  0  0  0
   23.7402   -9.4924   13.5214 C   0  0  0  0  0  0  0  0  0  0  0  0
   24.8753   -8.6306   13.7999 O   0  0  0  0  0  0  0  0  0  0  0  0
  1  2  1  6  0  0  0
  1  8  1  0  0  0  0
  1 36  1  0  0  0  0
  3  4  1  6  0  0  0
  3 10  1  0  0  0  0
  3 47  1  0  0  0  0
  5 11  1  0  0  0  0
  5 30  1  0  0  0  0
  5 38  1  6  0  0  0
  6 21  1  1  0  0  0
  6 42  1  0  0  0  0
  7 15  1  0  0  0  0
  7 44  1  0  0  0  0
  7 32  1  6  0  0  0
  8  9  1  6  0  0  0
  8 17  1  0  0  0  0
 11 12  1  1  0  0  0
 11 20  1  0  0  0  0
 13  6  1  0  0  0  0
 13 14  1  1  0  0  0
 15 16  1  1  0  0  0
 15 24  1  0  0  0  0
 17 26  1  0  0  0  0
 18 10  1  0  0  0  0
 18 19  1  1  0  0  0
 20 21  1  6  0  0  0
 20 29  1  0  0  0  0
 22 13  1  0  0  0  0
 22 23  1  6  0  0  0
 24 25  1  1  0  0  0
 24 33  1  0  0  0  0
 26 27  1  6  0  0  0
 26 35  1  0  0  0  0
 28  2  1  1  0  0  0
 28 18  1  0  0  0  0
 29 30  1  0  0  0  0
 29 39  1  1  0  0  0
 31 22  1  0  0  0  0
 31 32  1  1  0  0  0
 31 41  1  0  0  0  0
 33 34  1  6  0  0  0
 33 43  1  0  0  0  0
 35 36  1  0  0  0  0
 35 45  1  1  0  0  0
 37 28  1  0  0  0  0
 37 38  1  1  0  0  0
 39 40  1  0  0  0  0
 41 42  1  0  0  0  0
 41 49  1  1  0  0  0
 43 44  1  0  0  0  0
 43 51  1  1  0  0  0
 45 46  1  0  0  0  0
 47 37  1  0  0  0  0
 47 48  1  6  0  0  0
 49 50  1  0  0  0  0
 51 52  1  0  0  0  0
M  END
>  <CHROM.1>
-177.19620576,173.38953835,-78.48037135,-172.96839111,-173.43988545,-178.24335591
-59.43152081,168.10801370,-66.31389959,-70.59592610,-145.42145850,-56.42407862
22.74171651,-3.51705533,12.22811946,-0.97419762,0.64324153,2.46978499

>  <Name>
2esj_lig

>  <RI>
0

>  <Rbt.Current_Directory>
/home/itssahil/PROJECTS/Mol_Feturizer/New_Systems/rnas/2esj

>  <Rbt.Executable>
rbdock ($Id: //depot/dev/client3/rdock/2013.1/src/exe/rbdock.cxx#4 $)

>  <Rbt.Library>
libRbt.so (2013.1, Build901 2013/11/27)

>  <Rbt.Parameter_File>
/export/apps/rDock/src/rDock_2013.1_src/data/scripts/dock_solv.prm

>  <Rbt.Receptor>
prm/pocket_docking_6.prm

>  <SCORE>
-16.2449

>  <SCORE.INTER>
-7.59085

>  <SCORE.INTER.CONST>
1

>  <SCORE.INTER.POLAR>
-0.391

>  <SCORE.INTER.ROT>
12

>  <SCORE.INTER.SOLV>
10.7188

>  <SCORE.INTER.VDW>
-18.9302

>  <SCORE.INTER.norm>
-0.145978

>  <SCORE.INTRA>
-8.65402

>  <SCORE.INTRA.DIHEDRAL>
-24.236

>  <SCORE.INTRA.DIHEDRAL.0>
32.9766

>  <SCORE.INTRA.POLAR>
0

>  <SCORE.INTRA.POLAR.0>
0

>  <SCORE.INTRA.REPUL>
0

>  <SCORE.INTRA.REPUL.0>
0

>  <SCORE.INTRA.SOLV>
1.22851

>  <SCORE.INTRA.SOLV.lig_0>
-114.358

>  <SCORE.INTRA.VDW>
2.84972

>  <SCORE.INTRA.VDW.0>
-8.24257

>  <SCORE.INTRA.norm>
-0.166424

>  <SCORE.RESTR>
0

>  <SCORE.RESTR.CAVITY>
0

>  <SCORE.RESTR.norm>
0

>  <SCORE.SYSTEM>
0

>  <SCORE.SYSTEM.CONST>
0

>  <SCORE.SYSTEM.DIHEDRAL>
0

>  <SCORE.SYSTEM.SOLV>
0

>  <SCORE.SYSTEM.norm>
0

>  <SCORE.heavy>
52

>  <SCORE.norm>
-0.312401

>  <RMSD>
10.409

$$$$
2esj_lig
 OpenBabel11021811423D
libRbt.so/2013.1/901 2013/11/27
 52 56  0  0  0  0  0  0  0  0999 V2000
   25.0304   -3.6551   11.2526 C   0  0  2  0  0  0  0  0  0  0  0  0
   25.7427   -2.5082   11.7547 O   0  0  0  0  0  0  0  0  0  0  0  0
   28.4015   -2.0426   15.0716 C   0  0  2  0  0  0  0  0  0  0  0  0
   28.9866   -1.8446   16.4080 N   0  0  0  0  0  0  0  0  0  0  0  0
   25.0254   -4.9310   14.3336 C   0  0  1  0  0  0  0  0  0  0  0  0
   21.4104   -6.3642   15.2913 C   0  0  1  0  0  0  0  0  0  0  0  0
   18.2742   -7.5286   18.9530 C   0  0  1  0  0  0  0  0  0  0  0  0
   24.7479   -3.4066    9.7415 C   0  0  2  0  0  0  0  0  0  0  0  0
   25.9727   -3.1503    8.9844 N   0  0  0  0  0  0  0  0  0  0  0  0
   27.4480   -0.8366   14.7056 C   0  0  0  0  0  0  0  0  0  0  0  0
   24.4285   -6.3351   14.2304 C   0  0  2  0  0  0  0  0  0  0  0  0
   23.4958   -6.4576   13.1348 O   0  0  0  0  0  0  0  0  0  0  0  0
   20.2721   -5.3002   15.6279 C   0  0  2  0  0  0  0  0  0  0  0  0
   20.4342   -4.7614   17.0042 N   0  0  0  0  0  0  0  0  0  0  0  0
   16.8508   -7.0329   19.1804 C   0  0  1  0  0  0  0  0  0  0  0  0
   16.0777   -8.0805   19.7994 O   0  0  0  0  0  0  0  0  0  0  0  0
   23.7480   -2.2225    9.5488 C   0  0  0  0  0  0  0  0  0  0  0  0
   26.8761   -1.0373   13.2447 C   0  0  2  0  0  0  0  0  0  0  0  0
   25.9761    0.0633   12.8850 N   0  0  0  0  0  0  0  0  0  0  0  0
   23.8041   -6.4679   15.5893 C   0  0  2  0  0  0  0  0  0  0  0  0
   22.6055   -5.7374   15.6538 O   0  0  0  0  0  0  0  0  0  0  0  0
   18.8508   -5.9496   15.3227 C   0  0  1  0  0  0  0  0  0  0  0  0
   18.8603   -6.4802   13.9934 O   0  0  0  0  0  0  0  0  0  0  0  0
   16.7267   -5.7835   20.0441 C   0  0  1  0  0  0  0  0  0  0  0  0
   15.3366   -5.6100   20.3405 O   0  0  0  0  0  0  0  0  0  0  0  0
   22.4636   -2.5079   10.3822 C   0  0  2  0  0  0  0  0  0  0  0  0
   21.4792   -1.5074   10.1920 O   0  0  0  0  0  0  0  0  0  0  0  0
   26.1378   -2.3967   13.1347 C   0  0  2  0  0  0  0  0  0  0  0  0
   24.7456   -5.7272   16.5612 C   0  0  2  0  0  0  0  0  0  0  0  0
   25.3018   -4.7243   15.7258 O   0  0  0  0  0  0  0  0  0  0  0  0
   18.5604   -7.1805   16.2767 C   0  0  2  0  0  0  0  0  0  0  0  0
   18.5242   -6.6102   17.5858 O   0  0  0  0  0  0  0  0  0  0  0  0
   17.5184   -5.8562   21.3509 C   0  0  2  0  0  0  0  0  0  0  0  0
   17.5595   -4.5241   21.8881 O   0  0  0  0  0  0  0  0  0  0  0  0
   22.8671   -2.6353   11.8721 C   0  0  2  0  0  0  0  0  0  0  0  0
   23.7827   -3.7629   11.9775 O   0  0  0  0  0  0  0  0  0  0  0  0
   26.9863   -3.6245   13.5970 C   0  0  2  0  0  0  0  0  0  0  0  0
   26.1761   -4.8306   13.5243 O   0  0  0  0  0  0  0  0  0  0  0  0
   25.8731   -6.5532   17.1794 C   0  0  0  0  0  0  0  0  0  0  0  0
   25.2687   -7.6229   17.9212 O   0  0  0  0  0  0  0  0  0  0  0  0
   19.8137   -8.0337   16.2381 C   0  0  1  0  0  0  0  0  0  0  0  0
   21.1948   -7.6462   16.0744 O   0  0  0  0  0  0  0  0  0  0  0  0
   18.8890   -6.4899   21.1399 C   0  0  2  0  0  0  0  0  0  0  0  0
   19.0976   -7.5032   20.1441 O   0  0  0  0  0  0  0  0  0  0  0  0
   21.7167   -2.9578   12.7637 C   0  0  0  0  0  0  0  0  0  0  0  0
   22.1776   -2.8820   14.0911 O   0  0  0  0  0  0  0  0  0  0  0  0
   27.5842   -3.3832   15.0241 C   0  0  1  0  0  0  0  0  0  0  0  0
   28.5066   -4.4722   15.2932 O   0  0  0  0  0  0  0  0  0  0  0  0
   19.7594   -9.3819   17.0206 C   0  0  0  0  0  0  0  0  0  0  0  0
   19.8800  -10.5704   16.1502 N   0  0  0  0  0  0  0  0  0  0  0  0
   19.8922   -6.7011   22.2716 C   0  0  0  0  0  0  0  0  0  0  0  0
   21.2457   -6.6702   21.7463 O   0  0  0  0  0  0  0  0  0  0  0  0
  1  2  1  1  0  0  0
  1  8  1  0  0  0  0
  1 36  1  0  0  0  0
  3  4  1  1  0  0  0
  3 10  1  0  0  0  0
  3 47  1  0  0  0  0
  5 11  1  0  0  0  0
  5 30  1  0  0  0  0
  5 38  1  6  0  0  0
  6 21  1  1  0  0  0
  6 42  1  0  0  0  0
  7 15  1  0  0  0  0
  7 44  1  0  0  0  0
  7 32  1  6  0  0  0
  8  9  1  6  0  0  0
  8 17  1  0  0  0  0
 11 12  1  6  0  0  0
 11 20  1  0  0  0  0
 13  6  1  0  0  0  0
 13 14  1  1  0  0  0
 15 16  1  1  0  0  0
 15 24  1  0  0  0  0
 17 26  1  0  0  0  0
 18 10  1  0  0  0  0
 18 19  1  1  0  0  0
 20 21  1  6  0  0  0
 20 29  1  0  0  0  0
 22 13  1  0  0  0  0
 22 23  1  6  0  0  0
 24 25  1  1  0  0  0
 24 33  1  0  0  0  0
 26 27  1  1  0  0  0
 26 35  1  0  0  0  0
 28  2  1  6  0  0  0
 28 18  1  0  0  0  0
 29 30  1  0  0  0  0
 29 39  1  6  0  0  0
 31 22  1  0  0  0  0
 31 32  1  1  0  0  0
 31 41  1  0  0  0  0
 33 34  1  6  0  0  0
 33 43  1  0  0  0  0
 35 36  1  0  0  0  0
 35 45  1  1  0  0  0
 37 28  1  0  0  0  0
 37 38  1  1  0  0  0
 39 40  1  0  0  0  0
 41 42  1  0  0  0  0
 41 49  1  1  0  0  0
 43 44  1  0  0  0  0
 43 51  1  1  0  0  0
 45 46  1  0  0  0  0
 47 37  1  0  0  0  0
 47 48  1  6  0  0  0
 49 50  1  0  0  0  0
 51 52  1  0  0  0  0
M  END
>  <CHROM.1>
178.64850928,-172.94521808,174.40763603,-106.97024175,89.36168792,179.57745623
-60.25830051,-178.77746286,-172.84529379,-62.60120501,115.83894196,-151.58561761
22.43747111,-5.02632462,15.59673048,0.78484691,-0.23842587,-1.26399926

>  <Name>
2esj_lig

>  <RI>
1.62275e+07

>  <Rbt.Current_Directory>
/home/itssahil/PROJECTS/Mol_Feturizer/New_Systems/rnas/2esj

>  <Rbt.Executable>
rbdock ($Id: //depot/dev/client3/rdock/2013.1/src/exe/rbdock.cxx#4 $)

>  <Rbt.Library>
libRbt.so (2013.1, Build901 2013/11/27)

>  <Rbt.Parameter_File>
/export/apps/rDock/src/rDock_2013.1_src/data/scripts/dock_solv.prm

>  <Rbt.Receptor>
prm/pocket_docking_5.prm

>  <SCORE>
-18.1077

>  <SCORE.INTER>
-9.59215

>  <SCORE.INTER.CONST>
1

>  <SCORE.INTER.POLAR>
-0.810441

>  <SCORE.INTER.ROT>
12

>  <SCORE.INTER.SOLV>
11.7121

>  <SCORE.INTER.VDW>
-19.1973

>  <SCORE.INTER.norm>
-0.184464

>  <SCORE.INTRA>
-8.51554

>  <SCORE.INTRA.DIHEDRAL>
-16.6105

>  <SCORE.INTRA.DIHEDRAL.0>
32.9766

>  <SCORE.INTRA.POLAR>
0

>  <SCORE.INTRA.POLAR.0>
0

>  <SCORE.INTRA.REPUL>
0

>  <SCORE.INTRA.REPUL.0>
0

>  <SCORE.INTRA.SOLV>
-3.55215

>  <SCORE.INTRA.SOLV.lig_0>
-114.358

>  <SCORE.INTRA.VDW>
1.56579

>  <SCORE.INTRA.VDW.0>
-8.24257

>  <SCORE.INTRA.norm>
-0.16376

>  <SCORE.RESTR>
0

>  <SCORE.RESTR.CAVITY>
0

>  <SCORE.RESTR.norm>
0

>  <SCORE.SYSTEM>
0

>  <SCORE.SYSTEM.CONST>
0

>  <SCORE.SYSTEM.DIHEDRAL>
0

>  <SCORE.SYSTEM.SOLV>
0

>  <SCORE.SYSTEM.norm>
0

>  <SCORE.heavy>
52

>  <SCORE.norm>
-0.348225

>  <RMSD>
10.410

$$$$
2esj_lig
 OpenBabel11021811423D
libRbt.so/2013.1/901 2013/11/27
 52 56  0  0  0  0  0  0  0  0999 V2000
   18.1633   -1.8348   10.5997 C   0  0  2  0  0  0  0  0  0  0  0  0
   18.0669   -3.1591   11.1582 O   0  0  0  0  0  0  0  0  0  0  0  0
   18.6630   -2.2212   15.2877 C   0  0  2  0  0  0  0  0  0  0  0  0
   18.7723   -2.2684   16.7551 N   0  0  0  0  0  0  0  0  0  0  0  0
   20.8696   -5.2334   12.9851 C   0  0  1  0  0  0  0  0  0  0  0  0
   21.6334   -9.0172   14.1539 C   0  0  1  0  0  0  0  0  0  0  0  0
   20.0220  -13.6300   16.2966 C   0  0  1  0  0  0  0  0  0  0  0  0
   17.7310   -1.9234    9.1063 C   0  0  2  0  0  0  0  0  0  0  0  0
   16.3895   -2.4851    8.9509 N   0  0  0  0  0  0  0  0  0  0  0  0
   17.2239   -2.6862   14.8292 C   0  0  0  0  0  0  0  0  0  0  0  0
   19.7952   -6.2344   12.5585 C   0  0  2  0  0  0  0  0  0  0  0  0
   18.6523   -6.2250   13.4412 O   0  0  0  0  0  0  0  0  0  0  0  0
   20.8828  -10.2991   13.5754 C   0  0  2  0  0  0  0  0  0  0  0  0
   19.4801  -10.3633   14.0645 N   0  0  0  0  0  0  0  0  0  0  0  0
   20.9144  -13.7208   17.5290 C   0  0  1  0  0  0  0  0  0  0  0  0
   20.2578  -14.5226   18.5312 O   0  0  0  0  0  0  0  0  0  0  0  0
   18.7560   -2.7618    8.2783 C   0  0  0  0  0  0  0  0  0  0  0  0
   17.1061   -2.5724   13.2560 C   0  0  2  0  0  0  0  0  0  0  0  0
   15.7824   -3.0116   12.8026 N   0  0  0  0  0  0  0  0  0  0  0  0
   20.5843   -7.5113   12.5852 C   0  0  2  0  0  0  0  0  0  0  0  0
   20.7640   -7.9513   13.9075 O   0  0  0  0  0  0  0  0  0  0  0  0
   21.7607  -11.5926   13.8780 C   0  0  1  0  0  0  0  0  0  0  0  0
   23.0949  -11.3655   13.4122 O   0  0  0  0  0  0  0  0  0  0  0  0
   22.2991  -14.3099   17.2882 C   0  0  1  0  0  0  0  0  0  0  0  0
   22.8928  -14.5345   18.5717 O   0  0  0  0  0  0  0  0  0  0  0  0
   20.1778   -2.1587    8.4787 C   0  0  2  0  0  0  0  0  0  0  0  0
   21.1486   -2.8259    7.6923 O   0  0  0  0  0  0  0  0  0  0  0  0
   18.2172   -3.4077   12.5684 C   0  0  2  0  0  0  0  0  0  0  0  0
   22.0068   -7.1389   12.1189 C   0  0  2  0  0  0  0  0  0  0  0  0
   22.1190   -5.7950   12.5599 O   0  0  0  0  0  0  0  0  0  0  0  0
   21.8859  -11.8553   15.4351 C   0  0  2  0  0  0  0  0  0  0  0  0
   20.5456  -12.1106   15.8579 O   0  0  0  0  0  0  0  0  0  0  0  0
   22.2828  -15.6213   16.5008 C   0  0  2  0  0  0  0  0  0  0  0  0
   23.6357  -15.8775   16.0898 O   0  0  0  0  0  0  0  0  0  0  0  0
   20.5254   -2.2197    9.9869 C   0  0  2  0  0  0  0  0  0  0  0  0
   19.5427   -1.4073   10.6906 O   0  0  0  0  0  0  0  0  0  0  0  0
   19.6622   -3.0815   13.0649 C   0  0  2  0  0  0  0  0  0  0  0  0
   20.6123   -3.9700   12.4135 O   0  0  0  0  0  0  0  0  0  0  0  0
   22.2685   -7.2011   10.6145 C   0  0  0  0  0  0  0  0  0  0  0  0
   23.6167   -6.7623   10.3917 O   0  0  0  0  0  0  0  0  0  0  0  0
   22.2592  -10.5190   16.0477 C   0  0  1  0  0  0  0  0  0  0  0  0
   21.9071   -9.1801   15.6377 O   0  0  0  0  0  0  0  0  0  0  0  0
   21.2778  -15.5734   15.3553 C   0  0  2  0  0  0  0  0  0  0  0  0
   20.0665  -14.8088   15.4565 O   0  0  0  0  0  0  0  0  0  0  0  0
   21.8535   -1.6220   10.3052 C   0  0  0  0  0  0  0  0  0  0  0  0
   22.8370   -2.4514    9.7352 O   0  0  0  0  0  0  0  0  0  0  0  0
   19.7436   -3.1505   14.6272 C   0  0  1  0  0  0  0  0  0  0  0  0
   21.0513   -2.6492   15.0119 O   0  0  0  0  0  0  0  0  0  0  0  0
   22.5497  -10.5153   17.5801 C   0  0  0  0  0  0  0  0  0  0  0  0
   21.7792   -9.4943   18.3207 N   0  0  0  0  0  0  0  0  0  0  0  0
   21.0393  -16.7459   14.4067 C   0  0  0  0  0  0  0  0  0  0  0  0
   20.1960  -17.7390   15.0482 O   0  0  0  0  0  0  0  0  0  0  0  0
  1  2  1  6  0  0  0
  1  8  1  0  0  0  0
  1 36  1  0  0  0  0
  3  4  1  1  0  0  0
  3 10  1  0  0  0  0
  3 47  1  0  0  0  0
  5 11  1  0  0  0  0
  5 30  1  0  0  0  0
  5 38  1  6  0  0  0
  6 21  1  1  0  0  0
  6 42  1  0  0  0  0
  7 15  1  0  0  0  0
  7 44  1  0  0  0  0
  7 32  1  6  0  0  0
  8  9  1  1  0  0  0
  8 17  1  0  0  0  0
 11 12  1  1  0  0  0
 11 20  1  0  0  0  0
 13  6  1  0  0  0  0
 13 14  1  1  0  0  0
 15 16  1  1  0  0  0
 15 24  1  0  0  0  0
 17 26  1  0  0  0  0
 18 10  1  0  0  0  0
 18 19  1  6  0  0  0
 20 21  1  1  0  0  0
 20 29  1  0  0  0  0
 22 13  1  0  0  0  0
 22 23  1  1  0  0  0
 24 25  1  1  0  0  0
 24 33  1  0  0  0  0
 26 27  1  6  0  0  0
 26 35  1  0  0  0  0
 28  2  1  6  0  0  0
 28 18  1  0  0  0  0
 29 30  1  0  0  0  0
 29 39  1  6  0  0  0
 31 22  1  0  0  0  0
 31 32  1  1  0  0  0
 31 41  1  0  0  0  0
 33 34  1  6  0  0  0
 33 43  1  0  0  0  0
 35 36  1  0  0  0  0
 35 45  1  6  0  0  0
 37 28  1  0  0  0  0
 37 38  1  6  0  0  0
 39 40  1  0  0  0  0
 41 42  1  0  0  0  0
 41 49  1  1  0  0  0
 43 44  1  0  0  0  0
 43 51  1  1  0  0  0
 45 46  1  0  0  0  0
 47 37  1  0  0  0  0
 47 48  1  6  0  0  0
 49 50  1  0  0  0  0
 51 52  1  0  0  0  0
M  END
>  <CHROM.1>
-171.29968443,82.90065348,-71.07828828,65.86678523,-170.96164781,59.29253644
177.37203597,108.02831684,-67.77753350,-86.41696159,-128.00952449,78.51664463
20.52434628,-7.68427195,13.57491190,1.96081604,1.10281096,-0.76500971

>  <Name>
2esj_lig

>  <RI>
2.18877e+07

>  <Rbt.Current_Directory>
/home/itssahil/PROJECTS/Mol_Feturizer/New_Systems/rnas/2esj

>  <Rbt.Executable>
rbdock ($Id: //depot/dev/client3/rdock/2013.1/src/exe/rbdock.cxx#4 $)

>  <Rbt.Library>
libRbt.so (2013.1, Build901 2013/11/27)

>  <Rbt.Parameter_File>
/export/apps/rDock/src/rDock_2013.1_src/data/scripts/dock_solv.prm

>  <Rbt.Receptor>
prm/pocket_docking_7.prm

>  <SCORE>
-16.1738

>  <SCORE.INTER>
-11.5723

>  <SCORE.INTER.CONST>
1

>  <SCORE.INTER.POLAR>
-1.33765

>  <SCORE.INTER.ROT>
12

>  <SCORE.INTER.SOLV>
20.3736

>  <SCORE.INTER.VDW>
-21.6472

>  <SCORE.INTER.norm>
-0.222545

>  <SCORE.INTRA>
-4.60143

>  <SCORE.INTRA.DIHEDRAL>
-14.3024

>  <SCORE.INTRA.DIHEDRAL.0>
32.9766

>  <SCORE.INTRA.POLAR>
0

>  <SCORE.INTRA.POLAR.0>
0

>  <SCORE.INTRA.REPUL>
0

>  <SCORE.INTRA.REPUL.0>
0

>  <SCORE.INTRA.SOLV>
-1.81975

>  <SCORE.INTRA.SOLV.lig_0>
-114.358

>  <SCORE.INTRA.VDW>
3.45963

>  <SCORE.INTRA.VDW.0>
-8.24257

>  <SCORE.INTRA.norm>
-0.088489

>  <SCORE.RESTR>
0

>  <SCORE.RESTR.CAVITY>
0

>  <SCORE.RESTR.norm>
0

>  <SCORE.SYSTEM>
0

>  <SCORE.SYSTEM.CONST>
0

>  <SCORE.SYSTEM.DIHEDRAL>
0

>  <SCORE.SYSTEM.SOLV>
0

>  <SCORE.SYSTEM.norm>
0

>  <SCORE.heavy>
52

>  <SCORE.norm>
-0.311034

>  <RMSD>
10.460

$$$$
2esj_lig
 OpenBabel11021811423D
libRbt.so/2013.1/901 2013/11/27
 52 56  0  0  0  0  0  0  0  0999 V2000
   25.3765   -0.1004   15.6929 C   0  0  2  0  0  0  0  0  0  0  0  0
   26.1028   -1.3417   15.6130 O   0  0  0  0  0  0  0  0  0  0  0  0
   27.1402   -4.2282   18.5929 C   0  0  2  0  0  0  0  0  0  0  0  0
   27.1150   -5.2604   19.6423 N   0  0  0  0  0  0  0  0  0  0  0  0
   24.6891   -4.5747   14.8320 C   0  0  1  0  0  0  0  0  0  0  0  0
   20.8275   -6.0799   14.0552 C   0  0  1  0  0  0  0  0  0  0  0  0
   18.7856   -7.4981   18.4306 C   0  0  1  0  0  0  0  0  0  0  0  0
   24.8913    0.2521   14.2558 C   0  0  2  0  0  0  0  0  0  0  0  0
   24.0840   -0.8158   13.6668 N   0  0  0  0  0  0  0  0  0  0  0  0
   26.2852   -2.9748   19.0350 C   0  0  0  0  0  0  0  0  0  0  0  0
   24.3028   -5.0453   13.4292 C   0  0  2  0  0  0  0  0  0  0  0  0
   23.8712   -3.9576   12.5830 O   0  0  0  0  0  0  0  0  0  0  0  0
   19.7586   -5.1070   14.7279 C   0  0  2  0  0  0  0  0  0  0  0  0
   20.2615   -4.5729   16.0212 N   0  0  0  0  0  0  0  0  0  0  0  0
   17.2782   -7.4947   18.6572 C   0  0  1  0  0  0  0  0  0  0  0  0
   16.8917   -8.7307   19.2906 O   0  0  0  0  0  0  0  0  0  0  0  0
   26.1012    0.5777   13.3234 C   0  0  0  0  0  0  0  0  0  0  0  0
   26.3726   -1.8542   17.9222 C   0  0  2  0  0  0  0  0  0  0  0  0
   25.5753   -0.6834   18.3024 N   0  0  0  0  0  0  0  0  0  0  0  0
   23.2233   -6.0350   13.7597 C   0  0  2  0  0  0  0  0  0  0  0  0
   22.0306   -5.3700   14.0910 O   0  0  0  0  0  0  0  0  0  0  0  0
   18.3564   -5.8568   14.8093 C   0  0  1  0  0  0  0  0  0  0  0  0
   18.0305   -6.3705   13.5137 O   0  0  0  0  0  0  0  0  0  0  0  0
   16.7502   -6.3452   19.5071 C   0  0  1  0  0  0  0  0  0  0  0  0
   15.3801   -6.6345   19.8063 O   0  0  0  0  0  0  0  0  0  0  0  0
   26.9569    1.6997   13.9828 C   0  0  2  0  0  0  0  0  0  0  0  0
   28.0318    2.0995   13.1517 O   0  0  0  0  0  0  0  0  0  0  0  0
   25.8969   -2.4108   16.5552 C   0  0  2  0  0  0  0  0  0  0  0  0
   23.6554   -6.7066   15.0796 C   0  0  2  0  0  0  0  0  0  0  0  0
   24.3963   -5.6724   15.7077 O   0  0  0  0  0  0  0  0  0  0  0  0
   18.4286   -7.1162   15.7673 C   0  0  2  0  0  0  0  0  0  0  0  0
   18.7207   -6.5647   17.0522 O   0  0  0  0  0  0  0  0  0  0  0  0
   17.5213   -6.1385   20.8120 C   0  0  2  0  0  0  0  0  0  0  0  0
   17.1222   -4.8605   21.3339 O   0  0  0  0  0  0  0  0  0  0  0  0
   27.4576    1.1876   15.3562 C   0  0  2  0  0  0  0  0  0  0  0  0
   26.2821    0.9209   16.1734 O   0  0  0  0  0  0  0  0  0  0  0  0
   26.6204   -3.7228   16.1122 C   0  0  2  0  0  0  0  0  0  0  0  0
   26.0472   -4.1956   14.8615 O   0  0  0  0  0  0  0  0  0  0  0  0
   24.5316   -7.9525   14.9547 C   0  0  0  0  0  0  0  0  0  0  0  0
   23.8333   -8.8906   14.1229 O   0  0  0  0  0  0  0  0  0  0  0  0
   19.6764   -7.8736   15.3556 C   0  0  1  0  0  0  0  0  0  0  0  0
   20.9271   -7.3828   14.8269 O   0  0  0  0  0  0  0  0  0  0  0  0
   19.0240   -6.2893   20.6035 C   0  0  2  0  0  0  0  0  0  0  0  0
   19.5543   -7.1895   19.6185 O   0  0  0  0  0  0  0  0  0  0  0  0
   28.2535    2.2027   16.1036 C   0  0  0  0  0  0  0  0  0  0  0  0
   29.4701    2.3737   15.4174 O   0  0  0  0  0  0  0  0  0  0  0  0
   26.5655   -4.8000   17.2475 C   0  0  1  0  0  0  0  0  0  0  0  0
   27.4182   -5.9014   16.8362 O   0  0  0  0  0  0  0  0  0  0  0  0
   19.9349   -9.2306   16.0797 C   0  0  0  0  0  0  0  0  0  0  0  0
   20.2801  -10.3318   15.1562 N   0  0  0  0  0  0  0  0  0  0  0  0
   20.0404   -6.1459   21.7340 C   0  0  0  0  0  0  0  0  0  0  0  0
   19.4255   -6.4993   23.0012 O   0  0  0  0  0  0  0  0  0  0  0  0
  1  2  1  6  0  0  0
  1  8  1  0  0  0  0
  1 36  1  0  0  0  0
  3  4  1  1  0  0  0
  3 10  1  0  0  0  0
  3 47  1  0  0  0  0
  5 11  1  0  0  0  0
  5 30  1  0  0  0  0
  5 38  1  6  0  0  0
  6 21  1  1  0  0  0
  6 42  1  0  0  0  0
  7 15  1  0  0  0  0
  7 44  1  0  0  0  0
  7 32  1  6  0  0  0
  8  9  1  6  0  0  0
  8 17  1  0  0  0  0
 11 12  1  6  0  0  0
 11 20  1  0  0  0  0
 13  6  1  0  0  0  0
 13 14  1  1  0  0  0
 15 16  1  1  0  0  0
 15 24  1  0  0  0  0
 17 26  1  0  0  0  0
 18 10  1  0  0  0  0
 18 19  1  1  0  0  0
 20 21  1  1  0  0  0
 20 29  1  0  0  0  0
 22 13  1  0  0  0  0
 22 23  1  6  0  0  0
 24 25  1  1  0  0  0
 24 33  1  0  0  0  0
 26 27  1  6  0  0  0
 26 35  1  0  0  0  0
 28  2  1  6  0  0  0
 28 18  1  0  0  0  0
 29 30  1  0  0  0  0
 29 39  1  6  0  0  0
 31 22  1  0  0  0  0
 31 32  1  1  0  0  0
 31 41  1  0  0  0  0
 33 34  1  6  0  0  0
 33 43  1  0  0  0  0
 35 36  1  0  0  0  0
 35 45  1  1  0  0  0
 37 28  1  0  0  0  0
 37 38  1  6  0  0  0
 39 40  1  0  0  0  0
 41 42  1  0  0  0  0
 41 49  1  1  0  0  0
 43 44  1  0  0  0  0
 43 51  1  1  0  0  0
 45 46  1  0  0  0  0
 47 37  1  0  0  0  0
 47 48  1  6  0  0  0
 49 50  1  0  0  0  0
 51 52  1  0  0  0  0
M  END
>  <CHROM.1>
-134.62998499,-179.60889105,170.15753296,-82.33624371,161.84078139,-64.98761527
-55.63469449,175.38482964,-69.27571559,-62.84194761,132.68191060,27.48346511
22.78735461,-4.46288976,16.47821160,0.03931505,0.71460744,1.10333359

>  <Name>
2esj_lig

>  <RI>
0

>  <Rbt.Current_Directory>
/home/itssahil/PROJECTS/Mol_Feturizer/New_Systems/rnas/2esj

>  <Rbt.Executable>
rbdock ($Id: //depot/dev/client3/rdock/2013.1/src/exe/rbdock.cxx#4 $)

>  <Rbt.Library>
libRbt.so (2013.1, Build901 2013/11/27)

>  <Rbt.Parameter_File>
/export/apps/rDock/src/rDock_2013.1_src/data/scripts/dock_solv.prm

>  <Rbt.Receptor>
prm/pocket_docking_4.prm

>  <SCORE>
-8.69861

>  <SCORE.INTER>
-4.3627

>  <SCORE.INTER.CONST>
1

>  <SCORE.INTER.POLAR>
-0.455479

>  <SCORE.INTER.ROT>
12

>  <SCORE.INTER.SOLV>
9.90405

>  <SCORE.INTER.VDW>
-16.2916

>  <SCORE.INTER.norm>
-0.0838982

>  <SCORE.INTRA>
-4.3359

>  <SCORE.INTRA.DIHEDRAL>
-15.9991

>  <SCORE.INTRA.DIHEDRAL.0>
32.9766

>  <SCORE.INTRA.POLAR>
0

>  <SCORE.INTRA.POLAR.0>
0

>  <SCORE.INTRA.REPUL>
0.00169418

>  <SCORE.INTRA.REPUL.0>
0

>  <SCORE.INTRA.SOLV>
-0.26318

>  <SCORE.INTRA.SOLV.lig_0>
-114.358

>  <SCORE.INTRA.VDW>
3.78675

>  <SCORE.INTRA.VDW.0>
-8.24257

>  <SCORE.INTRA.norm>
-0.0833828

>  <SCORE.RESTR>
0

>  <SCORE.RESTR.CAVITY>
0

>  <SCORE.RESTR.norm>
0

>  <SCORE.SYSTEM>
0

>  <SCORE.SYSTEM.CONST>
0

>  <SCORE.SYSTEM.DIHEDRAL>
0

>  <SCORE.SYSTEM.SOLV>
0

>  <SCORE.SYSTEM.norm>
0

>  <SCORE.heavy>
52

>  <SCORE.norm>
-0.167281

>  <RMSD>
10.467

$$$$
2esj_lig
 OpenBabel11021811423D
libRbt.so/2013.1/901 2013/11/27
 52 56  0  0  0  0  0  0  0  0999 V2000
   25.7201   -0.0736   18.4677 C   0  0  2  0  0  0  0  0  0  0  0  0
   26.6656   -1.1604   18.4766 O   0  0  0  0  0  0  0  0  0  0  0  0
   29.7521    0.4372   15.9848 C   0  0  2  0  0  0  0  0  0  0  0  0
   31.0379    0.7624   15.3458 N   0  0  0  0  0  0  0  0  0  0  0  0
   26.3748   -3.2608   16.6333 C   0  0  1  0  0  0  0  0  0  0  0  0
   22.8814   -4.7251   15.8041 C   0  0  1  0  0  0  0  0  0  0  0  0
   18.1215   -6.8367   16.7082 C   0  0  1  0  0  0  0  0  0  0  0  0
   24.3416   -0.6482   18.9086 C   0  0  2  0  0  0  0  0  0  0  0  0
   24.4073   -1.3040   20.2143 N   0  0  0  0  0  0  0  0  0  0  0  0
   29.8204    0.7299   17.5363 C   0  0  0  0  0  0  0  0  0  0  0  0
   25.9552   -4.4679   15.7934 C   0  0  2  0  0  0  0  0  0  0  0  0
   25.3148   -4.0829   14.5577 O   0  0  0  0  0  0  0  0  0  0  0  0
   21.6024   -3.8772   16.2359 C   0  0  2  0  0  0  0  0  0  0  0  0
   21.2149   -4.1722   17.6408 N   0  0  0  0  0  0  0  0  0  0  0  0
   17.9282   -6.4174   18.1609 C   0  0  1  0  0  0  0  0  0  0  0  0
   16.5325   -6.5296   18.5045 O   0  0  0  0  0  0  0  0  0  0  0  0
   23.7865   -1.6451   17.8421 C   0  0  0  0  0  0  0  0  0  0  0  0
   28.4137    0.4311   18.1947 C   0  0  2  0  0  0  0  0  0  0  0  0
   28.4540    0.6822   19.6390 N   0  0  0  0  0  0  0  0  0  0  0  0
   25.0516   -5.1748   16.7619 C   0  0  2  0  0  0  0  0  0  0  0  0
   23.8057   -4.5292   16.8337 O   0  0  0  0  0  0  0  0  0  0  0  0
   20.4495   -4.0962   15.1599 C   0  0  1  0  0  0  0  0  0  0  0  0
   20.9793   -3.8391   13.8553 O   0  0  0  0  0  0  0  0  0  0  0  0
   18.7297   -7.2166   19.1814 C   0  0  1  0  0  0  0  0  0  0  0  0
   18.2483   -6.8499   20.4790 O   0  0  0  0  0  0  0  0  0  0  0  0
   23.7482   -0.9314   16.4583 C   0  0  2  0  0  0  0  0  0  0  0  0
   23.1810   -1.7560   15.4560 O   0  0  0  0  0  0  0  0  0  0  0  0
   27.9841   -1.0321   17.9126 C   0  0  2  0  0  0  0  0  0  0  0  0
   25.6695   -4.9503   18.1574 C   0  0  2  0  0  0  0  0  0  0  0  0
   26.3034   -3.6908   17.9998 O   0  0  0  0  0  0  0  0  0  0  0  0
   19.9581   -5.6019   15.1371 C   0  0  2  0  0  0  0  0  0  0  0  0
   19.4069   -5.8119   16.4380 O   0  0  0  0  0  0  0  0  0  0  0  0
   18.6130   -8.7319   19.0070 C   0  0  2  0  0  0  0  0  0  0  0  0
   19.6437   -9.3248   19.8137 O   0  0  0  0  0  0  0  0  0  0  0  0
   25.1898   -0.4988   16.0926 C   0  0  2  0  0  0  0  0  0  0  0  0
   25.6336    0.4368   17.1165 O   0  0  0  0  0  0  0  0  0  0  0  0
   28.0101   -1.4261   16.4009 C   0  0  2  0  0  0  0  0  0  0  0  0
   27.6652   -2.8322   16.2589 O   0  0  0  0  0  0  0  0  0  0  0  0
   26.6992   -5.9805   18.6200 C   0  0  0  0  0  0  0  0  0  0  0  0
   27.8440   -5.8627   17.7624 O   0  0  0  0  0  0  0  0  0  0  0  0
   21.2185   -6.4440   15.0875 C   0  0  1  0  0  0  0  0  0  0  0  0
   22.5249   -6.1920   15.6483 O   0  0  0  0  0  0  0  0  0  0  0  0
   18.6601   -9.1309   17.5363 C   0  0  2  0  0  0  0  0  0  0  0  0
   18.1356   -8.2715   16.5125 O   0  0  0  0  0  0  0  0  0  0  0  0
   25.2680    0.2412   14.8008 C   0  0  0  0  0  0  0  0  0  0  0  0
   25.1671   -0.7060   13.7651 O   0  0  0  0  0  0  0  0  0  0  0  0
   29.3938   -1.0752   15.7572 C   0  0  1  0  0  0  0  0  0  0  0  0
   29.2685   -1.2885   14.3261 O   0  0  0  0  0  0  0  0  0  0  0  0
   21.0185   -7.9849   14.9520 C   0  0  0  0  0  0  0  0  0  0  0  0
   21.8216   -8.7675   15.9148 N   0  0  0  0  0  0  0  0  0  0  0  0
   18.5551  -10.5786   17.0621 C   0  0  0  0  0  0  0  0  0  0  0  0
   19.8820  -11.1239   16.8369 O   0  0  0  0  0  0  0  0  0  0  0  0
  1  2  1  6  0  0  0
  1  8  1  0  0  0  0
  1 36  1  0  0  0  0
  3  4  1  1  0  0  0
  3 10  1  0  0  0  0
  3 47  1  0  0  0  0
  5 11  1  0  0  0  0
  5 30  1  0  0  0  0
  5 38  1  6  0  0  0
  6 21  1  1  0  0  0
  6 42  1  0  0  0  0
  7 15  1  0  0  0  0
  7 44  1  0  0  0  0
  7 32  1  1  0  0  0
  8  9  1  1  0  0  0
  8 17  1  0  0  0  0
 11 12  1  6  0  0  0
 11 20  1  0  0  0  0
 13  6  1  0  0  0  0
 13 14  1  1  0  0  0
 15 16  1  1  0  0  0
 15 24  1  0  0  0  0
 17 26  1  0  0  0  0
 18 10  1  0  0  0  0
 18 19  1  1  0  0  0
 20 21  1  1  0  0  0
 20 29  1  0  0  0  0
 22 13  1  0  0  0  0
 22 23  1  6  0  0  0
 24 25  1  1  0  0  0
 24 33  1  0  0  0  0
 26 27  1  6  0  0  0
 26 35  1  0  0  0  0
 28  2  1  6  0  0  0
 28 18  1  0  0  0  0
 29 30  1  0  0  0  0
 29 39  1  6  0  0  0
 31 22  1  0  0  0  0
 31 32  1  1  0  0  0
 31 41  1  0  0  0  0
 33 34  1  1  0  0  0
 33 43  1  0  0  0  0
 35 36  1  0  0  0  0
 35 45  1  6  0  0  0
 37 28  1  0  0  0  0
 37 38  1  1  0  0  0
 39 40  1  0  0  0  0
 41 42  1  0  0  0  0
 41 49  1  1  0  0  0
 43 44  1  0  0  0  0
 43 51  1  1  0  0  0
 45 46  1  0  0  0  0
 47 37  1  0  0  0  0
 47 48  1  6  0  0  0
 49 50  1  0  0  0  0
 51 52  1  0  0  0  0
M  END
>  <CHROM.1>
169.59186824,150.47543361,178.88944707,-171.38832984,77.24873501,34.79535689
66.28287403,147.44724412,-76.92833061,64.30469319,-131.78226930,-96.55692958
23.66734928,-4.02356028,16.90725321,0.67247724,0.16221018,0.11281531

>  <Name>
2esj_lig

>  <RI>
1.62275e+07

>  <Rbt.Current_Directory>
/home/itssahil/PROJECTS/Mol_Feturizer/New_Systems/rnas/2esj

>  <Rbt.Executable>
rbdock ($Id: //depot/dev/client3/rdock/2013.1/src/exe/rbdock.cxx#4 $)

>  <Rbt.Library>
libRbt.so (2013.1, Build901 2013/11/27)

>  <Rbt.Parameter_File>
/export/apps/rDock/src/rDock_2013.1_src/data/scripts/dock_solv.prm

>  <Rbt.Receptor>
prm/pocket_docking_5.prm

>  <SCORE>
-1.85369

>  <SCORE.INTER>
0.6745

>  <SCORE.INTER.CONST>
1

>  <SCORE.INTER.POLAR>
-0.979796

>  <SCORE.INTER.ROT>
12

>  <SCORE.INTER.SOLV>
6.72154

>  <SCORE.INTER.VDW>
-10.1249

>  <SCORE.INTER.norm>
0.0129712

>  <SCORE.INTRA>
-2.52819

>  <SCORE.INTRA.DIHEDRAL>
-13.5269

>  <SCORE.INTRA.DIHEDRAL.0>
32.9766

>  <SCORE.INTRA.POLAR>
0

>  <SCORE.INTRA.POLAR.0>
0

>  <SCORE.INTRA.REPUL>
0.397244

>  <SCORE.INTRA.REPUL.0>
0

>  <SCORE.INTRA.SOLV>
4.78793

>  <SCORE.INTRA.SOLV.lig_0>
-114.358

>  <SCORE.INTRA.VDW>
-0.144938

>  <SCORE.INTRA.VDW.0>
-8.24257

>  <SCORE.INTRA.norm>
-0.048619

>  <SCORE.RESTR>
0

>  <SCORE.RESTR.CAVITY>
0

>  <SCORE.RESTR.norm>
0

>  <SCORE.SYSTEM>
0

>  <SCORE.SYSTEM.CONST>
0

>  <SCORE.SYSTEM.DIHEDRAL>
0

>  <SCORE.SYSTEM.SOLV>
0

>  <SCORE.SYSTEM.norm>
0

>  <SCORE.heavy>
52

>  <SCORE.norm>
-0.0356479

>  <RMSD>
10.482

$$$$
2esj_lig
 OpenBabel11021811423D
libRbt.so/2013.1/901 2013/11/27
 52 56  0  0  0  0  0  0  0  0999 V2000
   20.9990   -0.8562   11.5371 C   0  0  2  0  0  0  0  0  0  0  0  0
   20.4843   -1.9547   12.3137 O   0  0  0  0  0  0  0  0  0  0  0  0
   16.6294   -3.6007   13.1613 C   0  0  2  0  0  0  0  0  0  0  0  0
   15.2663   -4.1493   13.0702 N   0  0  0  0  0  0  0  0  0  0  0  0
   20.2928   -6.1728   12.3746 C   0  0  1  0  0  0  0  0  0  0  0  0
   21.4957  -10.0394   13.4013 C   0  0  1  0  0  0  0  0  0  0  0  0
   18.8005  -11.4927   17.0360 C   0  0  1  0  0  0  0  0  0  0  0  0
   21.5087   -1.4365   10.1849 C   0  0  2  0  0  0  0  0  0  0  0  0
   20.4651   -2.1695    9.4688 N   0  0  0  0  0  0  0  0  0  0  0  0
   16.6981   -2.1828   12.4667 C   0  0  0  0  0  0  0  0  0  0  0  0
   21.2499   -6.9159   11.4417 C   0  0  2  0  0  0  0  0  0  0  0  0
   20.5637   -7.5513   10.3413 O   0  0  0  0  0  0  0  0  0  0  0  0
   20.1927  -10.8250   13.8769 C   0  0  2  0  0  0  0  0  0  0  0  0
   19.2202   -9.9050   14.5241 N   0  0  0  0  0  0  0  0  0  0  0  0
   18.6702  -10.9738   18.4634 C   0  0  1  0  0  0  0  0  0  0  0  0
   17.2861  -10.6746   18.7340 O   0  0  0  0  0  0  0  0  0  0  0  0
   22.7483   -2.3603   10.4068 C   0  0  0  0  0  0  0  0  0  0  0  0
   18.1533   -1.5842   12.6264 C   0  0  2  0  0  0  0  0  0  0  0  0
   18.2478   -0.2723   11.9776 N   0  0  0  0  0  0  0  0  0  0  0  0
   21.8854   -7.8738   12.4075 C   0  0  2  0  0  0  0  0  0  0  0  0
   21.0108   -8.9352   12.6953 O   0  0  0  0  0  0  0  0  0  0  0  0
   20.6351  -12.0699   14.7655 C   0  0  1  0  0  0  0  0  0  0  0  0
   21.6142  -12.8269   14.0465 O   0  0  0  0  0  0  0  0  0  0  0  0
   19.1676  -11.9213   19.5484 C   0  0  1  0  0  0  0  0  0  0  0  0
   18.7532  -11.3785   20.8070 O   0  0  0  0  0  0  0  0  0  0  0  0
   23.8344   -1.5652   11.1904 C   0  0  2  0  0  0  0  0  0  0  0  0
   25.0204   -2.3207   11.3598 O   0  0  0  0  0  0  0  0  0  0  0  0
   19.2064   -2.5566   12.0345 C   0  0  2  0  0  0  0  0  0  0  0  0
   22.0008   -7.1121   13.7439 C   0  0  2  0  0  0  0  0  0  0  0  0
   20.8926   -6.2287   13.6763 O   0  0  0  0  0  0  0  0  0  0  0  0
   21.3463  -11.6030   16.1017 C   0  0  2  0  0  0  0  0  0  0  0  0
   20.3337  -10.8828   16.8063 O   0  0  0  0  0  0  0  0  0  0  0  0
   18.6351  -13.3488   19.4120 C   0  0  2  0  0  0  0  0  0  0  0  0
   19.4198  -14.1720   20.2902 O   0  0  0  0  0  0  0  0  0  0  0  0
   23.2348   -1.1320   12.5513 C   0  0  2  0  0  0  0  0  0  0  0  0
   22.0995   -0.2651   12.2676 O   0  0  0  0  0  0  0  0  0  0  0  0
   19.1164   -4.0133   12.5921 C   0  0  2  0  0  0  0  0  0  0  0  0
   20.0938   -4.8535   11.9175 O   0  0  0  0  0  0  0  0  0  0  0  0
   23.2798   -6.3035   13.9587 C   0  0  0  0  0  0  0  0  0  0  0  0
   23.2561   -5.8065   15.3048 O   0  0  0  0  0  0  0  0  0  0  0  0
   22.3678  -10.5639   15.6811 C   0  0  1  0  0  0  0  0  0  0  0  0
   22.3308   -9.6135   14.5948 O   0  0  0  0  0  0  0  0  0  0  0  0
   18.6319  -13.8079   17.9582 C   0  0  2  0  0  0  0  0  0  0  0  0
   18.4171  -12.8807   16.8830 O   0  0  0  0  0  0  0  0  0  0  0  0
   24.1760   -0.3176   13.3719 C   0  0  0  0  0  0  0  0  0  0  0  0
   25.2210   -1.1662   13.7819 O   0  0  0  0  0  0  0  0  0  0  0  0
   17.6568   -4.5674   12.4704 C   0  0  1  0  0  0  0  0  0  0  0  0
   17.6173   -5.8338   13.1804 O   0  0  0  0  0  0  0  0  0  0  0  0
   23.2931  -10.0057   16.8058 C   0  0  0  0  0  0  0  0  0  0  0  0
   22.5659   -9.2295   17.8322 N   0  0  0  0  0  0  0  0  0  0  0  0
   18.1428  -15.1869   17.5211 C   0  0  0  0  0  0  0  0  0  0  0  0
   16.6911  -15.2127   17.4952 O   0  0  0  0  0  0  0  0  0  0  0  0
  1  2  1  1  0  0  0
  1  8  1  0  0  0  0
  1 36  1  0  0  0  0
  3  4  1  6  0  0  0
  3 10  1  0  0  0  0
  3 47  1  0  0  0  0
  5 11  1  0  0  0  0
  5 30  1  0  0  0  0
  5 38  1  6  0  0  0
  6 21  1  1  0  0  0
  6 42  1  0  0  0  0
  7 15  1  0  0  0  0
  7 44  1  0  0  0  0
  7 32  1  1  0  0  0
  8  9  1  1  0  0  0
  8 17  1  0  0  0  0
 11 12  1  6  0  0  0
 11 20  1  0  0  0  0
 13  6  1  0  0  0  0
 13 14  1  1  0  0  0
 15 16  1  1  0  0  0
 15 24  1  0  0  0  0
 17 26  1  0  0  0  0
 18 10  1  0  0  0  0
 18 19  1  6  0  0  0
 20 21  1  1  0  0  0
 20 29  1  0  0  0  0
 22 13  1  0  0  0  0
 22 23  1  6  0  0  0
 24 25  1  1  0  0  0
 24 33  1  0  0  0  0
 26 27  1  1  0  0  0
 26 35  1  0  0  0  0
 28  2  1  1  0  0  0
 28 18  1  0  0  0  0
 29 30  1  0  0  0  0
 29 39  1  6  0  0  0
 31 22  1  0  0  0  0
 31 32  1  1  0  0  0
 31 41  1  0  0  0  0
 33 34  1  1  0  0  0
 33 43  1  0  0  0  0
 35 36  1  0  0  0  0
 35 45  1  1  0  0  0
 37 28  1  0  0  0  0
 37 38  1  6  0  0  0
 39 40  1  0  0  0  0
 41 42  1  0  0  0  0
 41 49  1  1  0  0  0
 43 44  1  0  0  0  0
 43 51  1  1  0  0  0
 45 46  1  0  0  0  0
 47 37  1  0  0  0  0
 47 48  1  1  0  0  0
 49 50  1  0  0  0  0
 51 52  1  0  0  0  0
M  END
>  <CHROM.1>
-76.13239183,174.21755705,165.30349602,140.52754226,169.73470874,-77.88313707
-173.50271345,49.00480077,-68.77943547,172.71154922,-65.52231501,78.15254207
20.41756605,-7.16365633,14.30866115,1.40727133,0.05782203,-0.49273885

>  <Name>
2esj_lig

>  <RI>
2.18877e+07

>  <Rbt.Current_Directory>
/home/itssahil/PROJECTS/Mol_Feturizer/New_Systems/rnas/2esj

>  <Rbt.Executable>
rbdock ($Id: //depot/dev/client3/rdock/2013.1/src/exe/rbdock.cxx#4 $)

>  <Rbt.Library>
libRbt.so (2013.1, Build901 2013/11/27)

>  <Rbt.Parameter_File>
/export/apps/rDock/src/rDock_2013.1_src/data/scripts/dock_solv.prm

>  <Rbt.Receptor>
prm/pocket_docking_7.prm

>  <SCORE>
-13.0045

>  <SCORE.INTER>
-8.88978

>  <SCORE.INTER.CONST>
1

>  <SCORE.INTER.POLAR>
-0.942625

>  <SCORE.INTER.ROT>
12

>  <SCORE.INTER.SOLV>
14.8142

>  <SCORE.INTER.VDW>
-19.3225

>  <SCORE.INTER.norm>
-0.170957

>  <SCORE.INTRA>
-4.11474

>  <SCORE.INTRA.DIHEDRAL>
-16.6707

>  <SCORE.INTRA.DIHEDRAL.0>
32.9766

>  <SCORE.INTRA.POLAR>
0

>  <SCORE.INTRA.POLAR.0>
0

>  <SCORE.INTRA.REPUL>
0

>  <SCORE.INTRA.REPUL.0>
0

>  <SCORE.INTRA.SOLV>
1.55241

>  <SCORE.INTRA.SOLV.lig_0>
-114.358

>  <SCORE.INTRA.VDW>
3.44439

>  <SCORE.INTRA.VDW.0>
-8.24257

>  <SCORE.INTRA.norm>
-0.0791296

>  <SCORE.RESTR>
0

>  <SCORE.RESTR.CAVITY>
0

>  <SCORE.RESTR.norm>
0

>  <SCORE.SYSTEM>
0

>  <SCORE.SYSTEM.CONST>
0

>  <SCORE.SYSTEM.DIHEDRAL>
0

>  <SCORE.SYSTEM.SOLV>
0

>  <SCORE.SYSTEM.norm>
0

>  <SCORE.heavy>
52

>  <SCORE.norm>
-0.250087

>  <RMSD>
10.507

$$$$
2esj_lig
 OpenBabel11021811423D
libRbt.so/2013.1/901 2013/11/27
 52 56  0  0  0  0  0  0  0  0999 V2000
   27.7628   -1.3793   13.7596 C   0  0  2  0  0  0  0  0  0  0  0  0
   26.4975   -2.0657   13.8094 O   0  0  0  0  0  0  0  0  0  0  0  0
   25.2204   -0.9948   17.7477 C   0  0  2  0  0  0  0  0  0  0  0  0
   24.4856   -0.8575   19.0160 N   0  0  0  0  0  0  0  0  0  0  0  0
   26.0316   -4.9428   15.5532 C   0  0  1  0  0  0  0  0  0  0  0  0
   23.5401   -8.1472   14.6715 C   0  0  1  0  0  0  0  0  0  0  0  0
   19.2185   -6.9111   11.9621 C   0  0  1  0  0  0  0  0  0  0  0  0
   28.1532   -1.2244   12.2600 C   0  0  2  0  0  0  0  0  0  0  0  0
   27.1236   -0.5280   11.4892 N   0  0  0  0  0  0  0  0  0  0  0  0
   24.2928   -0.6007   16.5304 C   0  0  0  0  0  0  0  0  0  0  0  0
   26.6326   -6.3476   15.6141 C   0  0  2  0  0  0  0  0  0  0  0  0
   27.3415   -6.6960   14.4052 O   0  0  0  0  0  0  0  0  0  0  0  0
   23.3408   -8.5552   13.1434 C   0  0  2  0  0  0  0  0  0  0  0  0
   23.3647   -7.3572   12.2629 N   0  0  0  0  0  0  0  0  0  0  0  0
   19.8592   -5.9165   11.0010 C   0  0  1  0  0  0  0  0  0  0  0  0
   18.9445   -5.6463    9.9199 O   0  0  0  0  0  0  0  0  0  0  0  0
   28.4485   -2.6156   11.6145 C   0  0  0  0  0  0  0  0  0  0  0  0
   25.1162   -0.6974   15.1834 C   0  0  2  0  0  0  0  0  0  0  0  0
   24.2733   -0.3491   14.0350 N   0  0  0  0  0  0  0  0  0  0  0  0
   25.3968   -7.1638   15.8609 C   0  0  2  0  0  0  0  0  0  0  0  0
   24.6562   -7.3064   14.6754 O   0  0  0  0  0  0  0  0  0  0  0  0
   22.0359   -9.4584   13.0153 C   0  0  1  0  0  0  0  0  0  0  0  0
   22.1208  -10.5305   13.9599 O   0  0  0  0  0  0  0  0  0  0  0  0
   20.2649   -4.5836   11.6183 C   0  0  1  0  0  0  0  0  0  0  0  0
   20.6191   -3.7087   10.5416 O   0  0  0  0  0  0  0  0  0  0  0  0
   29.5294   -3.3458   12.4656 C   0  0  2  0  0  0  0  0  0  0  0  0
   29.9022   -4.5859   11.8918 O   0  0  0  0  0  0  0  0  0  0  0  0
   25.7042   -2.1218   15.0097 C   0  0  2  0  0  0  0  0  0  0  0  0
   24.4930   -6.2995   16.7642 C   0  0  2  0  0  0  0  0  0  0  0  0
   24.8537   -4.9850   16.3705 O   0  0  0  0  0  0  0  0  0  0  0  0
   20.7308   -8.6469   13.3995 C   0  0  2  0  0  0  0  0  0  0  0  0
   20.6599   -7.6101   12.4195 O   0  0  0  0  0  0  0  0  0  0  0  0
   19.1648   -3.9332   12.4591 C   0  0  2  0  0  0  0  0  0  0  0  0
   19.7845   -2.8774   13.2114 O   0  0  0  0  0  0  0  0  0  0  0  0
   28.9799   -3.5244   13.9027 C   0  0  2  0  0  0  0  0  0  0  0  0
   28.7439   -2.1933   14.4442 O   0  0  0  0  0  0  0  0  0  0  0  0
   26.5363   -2.6238   16.2330 C   0  0  2  0  0  0  0  0  0  0  0  0
   26.9736   -3.9909   15.9957 O   0  0  0  0  0  0  0  0  0  0  0  0
   24.6941   -6.4492   18.2718 C   0  0  0  0  0  0  0  0  0  0  0  0
   26.0316   -6.0254   18.5737 O   0  0  0  0  0  0  0  0  0  0  0  0
   21.0515   -7.9501   14.7079 C   0  0  1  0  0  0  0  0  0  0  0  0
   22.3078   -7.4384   15.2025 O   0  0  0  0  0  0  0  0  0  0  0  0
   18.4297   -4.9622   13.3107 C   0  0  2  0  0  0  0  0  0  0  0  0
   18.2522   -6.3141   12.8604 O   0  0  0  0  0  0  0  0  0  0  0  0
   29.9549   -4.1740   14.8247 C   0  0  0  0  0  0  0  0  0  0  0  0
   30.1304   -5.4998   14.3871 O   0  0  0  0  0  0  0  0  0  0  0  0
   25.7213   -2.4719   17.5615 C   0  0  1  0  0  0  0  0  0  0  0  0
   26.6259   -2.7726   18.6573 O   0  0  0  0  0  0  0  0  0  0  0  0
   19.8874   -7.1530   15.3728 C   0  0  0  0  0  0  0  0  0  0  0  0
   19.4529   -7.7195   16.6670 N   0  0  0  0  0  0  0  0  0  0  0  0
   17.2753   -4.6005   14.2426 C   0  0  0  0  0  0  0  0  0  0  0  0
   17.7854   -3.9363   15.4289 O   0  0  0  0  0  0  0  0  0  0  0  0
  1  2  1  6  0  0  0
  1  8  1  0  0  0  0
  1 36  1  0  0  0  0
  3  4  1  1  0  0  0
  3 10  1  0  0  0  0
  3 47  1  0  0  0  0
  5 11  1  0  0  0  0
  5 30  1  0  0  0  0
  5 38  1  1  0  0  0
  6 21  1  6  0  0  0
  6 42  1  0  0  0  0
  7 15  1  0  0  0  0
  7 44  1  0  0  0  0
  7 32  1  1  0  0  0
  8  9  1  6  0  0  0
  8 17  1  0  0  0  0
 11 12  1  6  0  0  0
 11 20  1  0  0  0  0
 13  6  1  0  0  0  0
 13 14  1  6  0  0  0
 15 16  1  6  0  0  0
 15 24  1  0  0  0  0
 17 26  1  0  0  0  0
 18 10  1  0  0  0  0
 18 19  1  6  0  0  0
 20 21  1  6  0  0  0
 20 29  1  0  0  0  0
 22 13  1  0  0  0  0
 22 23  1  1  0  0  0
 24 25  1  6  0  0  0
 24 33  1  0  0  0  0
 26 27  1  6  0  0  0
 26 35  1  0  0  0  0
 28  2  1  6  0  0  0
 28 18  1  0  0  0  0
 29 30  1  0  0  0  0
 29 39  1  1  0  0  0
 31 22  1  0  0  0  0
 31 32  1  6  0  0  0
 31 41  1  0  0  0  0
 33 34  1  1  0  0  0
 33 43  1  0  0  0  0
 35 36  1  0  0  0  0
 35 45  1  1  0  0  0
 37 28  1  0  0  0  0
 37 38  1  6  0  0  0
 39 40  1  0  0  0  0
 41 42  1  0  0  0  0
 41 49  1  6  0  0  0
 43 44  1  0  0  0  0
 43 51  1  6  0  0  0
 45 46  1  0  0  0  0
 47 37  1  0  0  0  0
 47 48  1  1  0  0  0
 49 50  1  0  0  0  0
 51 52  1  0  0  0  0
M  END
>  <CHROM.1>
-166.28346244,-169.67311130,-156.66269483,177.76697140,173.62577451,72.72586905
62.68991041,153.00664519,-67.09351436,-48.46818070,114.47817429,-74.68981780
24.00693104,-4.80310207,14.38916133,0.37320467,-0.25311048,-0.13839332

>  <Name>
2esj_lig

>  <RI>
0

>  <Rbt.Current_Directory>
/home/itssahil/PROJECTS/Mol_Feturizer/New_Systems/rnas/2esj

>  <Rbt.Executable>
rbdock ($Id: //depot/dev/client3/rdock/2013.1/src/exe/rbdock.cxx#4 $)

>  <Rbt.Library>
libRbt.so (2013.1, Build901 2013/11/27)

>  <Rbt.Parameter_File>
/export/apps/rDock/src/rDock_2013.1_src/data/scripts/dock_solv.prm

>  <Rbt.Receptor>
prm/pocket_docking_4.prm

>  <SCORE>
-14.8346

>  <SCORE.INTER>
-5.75987

>  <SCORE.INTER.CONST>
1

>  <SCORE.INTER.POLAR>
-0.823301

>  <SCORE.INTER.ROT>
12

>  <SCORE.INTER.SOLV>
10.2069

>  <SCORE.INTER.VDW>
-16.0979

>  <SCORE.INTER.norm>
-0.110767

>  <SCORE.INTRA>
-9.07795

>  <SCORE.INTRA.DIHEDRAL>
-19.1668

>  <SCORE.INTRA.DIHEDRAL.0>
32.9766

>  <SCORE.INTRA.POLAR>
0

>  <SCORE.INTRA.POLAR.0>
0

>  <SCORE.INTRA.REPUL>
0

>  <SCORE.INTRA.REPUL.0>
0

>  <SCORE.INTRA.SOLV>
-1.06976

>  <SCORE.INTRA.SOLV.lig_0>
-114.358

>  <SCORE.INTRA.VDW>
1.04032

>  <SCORE.INTRA.VDW.0>
-8.24257

>  <SCORE.INTRA.norm>
-0.174576

>  <SCORE.RESTR>
0.00321327

>  <SCORE.RESTR.CAVITY>
0.00321327

>  <SCORE.RESTR.norm>
6.17937e-05

>  <SCORE.SYSTEM>
0

>  <SCORE.SYSTEM.CONST>
0

>  <SCORE.SYSTEM.DIHEDRAL>
0

>  <SCORE.SYSTEM.SOLV>
0

>  <SCORE.SYSTEM.norm>
0

>  <SCORE.heavy>
52

>  <SCORE.norm>
-0.285281

>  <RMSD>
10.509

$$$$
2esj_lig
 OpenBabel11021811423D
libRbt.so/2013.1/901 2013/11/27
 52 56  0  0  0  0  0  0  0  0999 V2000
   27.2605   -3.8512   13.1887 C   0  0  2  0  0  0  0  0  0  0  0  0
   27.4736   -3.1294   14.4168 O   0  0  0  0  0  0  0  0  0  0  0  0
   27.2897   -4.5283   18.4538 C   0  0  2  0  0  0  0  0  0  0  0  0
   26.8565   -4.9091   19.8083 N   0  0  0  0  0  0  0  0  0  0  0  0
   25.0298   -6.1765   15.0852 C   0  0  1  0  0  0  0  0  0  0  0  0
   20.9296   -6.7361   15.2183 C   0  0  1  0  0  0  0  0  0  0  0  0
   17.9566   -7.5593   19.0647 C   0  0  1  0  0  0  0  0  0  0  0  0
   28.1683   -3.2042   12.1013 C   0  0  2  0  0  0  0  0  0  0  0  0
   29.5779   -3.1947   12.4914 N   0  0  0  0  0  0  0  0  0  0  0  0
   26.9485   -3.0107   18.1746 C   0  0  0  0  0  0  0  0  0  0  0  0
   24.1525   -4.9252   15.0309 C   0  0  2  0  0  0  0  0  0  0  0  0
   24.0168   -4.2915   16.3214 O   0  0  0  0  0  0  0  0  0  0  0  0
   19.8994   -5.5745   15.5797 C   0  0  2  0  0  0  0  0  0  0  0  0
   20.1751   -5.0166   16.9301 N   0  0  0  0  0  0  0  0  0  0  0  0
   16.4814   -7.2096   19.2234 C   0  0  1  0  0  0  0  0  0  0  0  0
   15.8028   -8.3027   19.8738 O   0  0  0  0  0  0  0  0  0  0  0  0
   27.6985   -1.7508   11.7757 C   0  0  0  0  0  0  0  0  0  0  0  0
   27.4739   -2.6046   16.7391 C   0  0  2  0  0  0  0  0  0  0  0  0
   27.1573   -1.2022   16.4493 N   0  0  0  0  0  0  0  0  0  0  0  0
   22.8775   -5.5077   14.4931 C   0  0  2  0  0  0  0  0  0  0  0  0
   22.1883   -6.2002   15.5029 O   0  0  0  0  0  0  0  0  0  0  0  0
   18.4166   -6.1129   15.3641 C   0  0  1  0  0  0  0  0  0  0  0  0
   18.3149   -6.6755   14.0519 O   0  0  0  0  0  0  0  0  0  0  0  0
   16.1950   -5.9398   20.0158 C   0  0  1  0  0  0  0  0  0  0  0  0
   14.7848   -5.9030   20.2614 O   0  0  0  0  0  0  0  0  0  0  0  0
   26.1909   -1.7847   11.3864 C   0  0  2  0  0  0  0  0  0  0  0  0
   25.7171   -0.5062   11.0030 O   0  0  0  0  0  0  0  0  0  0  0  0
   26.8618   -3.5313   15.6567 C   0  0  2  0  0  0  0  0  0  0  0  0
   23.3019   -6.6135   13.5048 C   0  0  2  0  0  0  0  0  0  0  0  0
   24.5335   -7.0476   14.0595 O   0  0  0  0  0  0  0  0  0  0  0  0
   18.0778   -7.2917   16.3666 C   0  0  2  0  0  0  0  0  0  0  0  0
   18.1552   -6.6879   17.6588 O   0  0  0  0  0  0  0  0  0  0  0  0
   16.9437   -5.8619   21.3475 C   0  0  2  0  0  0  0  0  0  0  0  0
   16.8240   -4.5083   21.8144 O   0  0  0  0  0  0  0  0  0  0  0  0
   25.3906   -2.3540   12.5841 C   0  0  2  0  0  0  0  0  0  0  0  0
   25.8687   -3.7094   12.8189 O   0  0  0  0  0  0  0  0  0  0  0  0
   27.0592   -5.0561   15.9343 C   0  0  2  0  0  0  0  0  0  0  0  0
   26.3846   -5.8294   14.9031 O   0  0  0  0  0  0  0  0  0  0  0  0
   23.5238   -6.1829   12.0553 C   0  0  0  0  0  0  0  0  0  0  0  0
   23.6246   -7.3739   11.2610 O   0  0  0  0  0  0  0  0  0  0  0  0
   19.2548   -8.2453   16.2910 C   0  0  1  0  0  0  0  0  0  0  0  0
   20.6523   -7.9762   16.0480 O   0  0  0  0  0  0  0  0  0  0  0  0
   18.3804   -6.3536   21.2109 C   0  0  2  0  0  0  0  0  0  0  0  0
   18.7303   -7.3863   20.2766 O   0  0  0  0  0  0  0  0  0  0  0  0
   23.9312   -2.4775   12.3061 C   0  0  0  0  0  0  0  0  0  0  0  0
   23.7824   -3.3517   11.2134 O   0  0  0  0  0  0  0  0  0  0  0  0
   26.5796   -5.4263   17.3783 C   0  0  1  0  0  0  0  0  0  0  0  0
   26.9741   -6.8026   17.6224 O   0  0  0  0  0  0  0  0  0  0  0  0
   19.1327   -9.5646   17.1140 C   0  0  0  0  0  0  0  0  0  0  0  0
   20.2806  -10.4777   16.9320 N   0  0  0  0  0  0  0  0  0  0  0  0
   19.3601   -6.3991   22.3812 C   0  0  0  0  0  0  0  0  0  0  0  0
   20.7059   -6.6408   21.8921 O   0  0  0  0  0  0  0  0  0  0  0  0
  1  2  1  1  0  0  0
  1  8  1  0  0  0  0
  1 36  1  0  0  0  0
  3  4  1  1  0  0  0
  3 10  1  0  0  0  0
  3 47  1  0  0  0  0
  5 11  1  0  0  0  0
  5 30  1  0  0  0  0
  5 38  1  6  0  0  0
  6 21  1  1  0  0  0
  6 42  1  0  0  0  0
  7 15  1  0  0  0  0
  7 44  1  0  0  0  0
  7 32  1  6  0  0  0
  8  9  1  1  0  0  0
  8 17  1  0  0  0  0
 11 12  1  1  0  0  0
 11 20  1  0  0  0  0
 13  6  1  0  0  0  0
 13 14  1  1  0  0  0
 15 16  1  1  0  0  0
 15 24  1  0  0  0  0
 17 26  1  0  0  0  0
 18 10  1  0  0  0  0
 18 19  1  6  0  0  0
 20 21  1  1  0  0  0
 20 29  1  0  0  0  0
 22 13  1  0  0  0  0
 22 23  1  6  0  0  0
 24 25  1  1  0  0  0
 24 33  1  0  0  0  0
 26 27  1  1  0  0  0
 26 35  1  0  0  0  0
 28  2  1  6  0  0  0
 28 18  1  0  0  0  0
 29 30  1  0  0  0  0
 29 39  1  6  0  0  0
 31 22  1  0  0  0  0
 31 32  1  1  0  0  0
 31 41  1  0  0  0  0
 33 34  1  6  0  0  0
 33 43  1  0  0  0  0
 35 36  1  0  0  0  0
 35 45  1  6  0  0  0
 37 28  1  0  0  0  0
 37 38  1  6  0  0  0
 39 40  1  0  0  0  0
 41 42  1  0  0  0  0
 41 49  1  1  0  0  0
 43 44  1  0  0  0  0
 43 51  1  1  0  0  0
 45 46  1  0  0  0  0
 47 37  1  0  0  0  0
 47 48  1  1  0  0  0
 49 50  1  0  0  0  0
 51 52  1  0  0  0  0
M  END
>  <CHROM.1>
-175.23985552,67.73458948,-89.76079785,-96.42161875,175.64001412,173.57383538
-167.86779916,-176.55358614,60.28048335,-88.59301894,176.72210082,-168.13564075
22.64500550,-5.38120679,16.12904527,0.53873944,-0.37581202,-1.57564612

>  <Name>
2esj_lig

>  <RI>
0

>  <Rbt.Current_Directory>
/home/itssahil/PROJECTS/Mol_Feturizer/New_Systems/rnas/2esj

>  <Rbt.Executable>
rbdock ($Id: //depot/dev/client3/rdock/2013.1/src/exe/rbdock.cxx#4 $)

>  <Rbt.Library>
libRbt.so (2013.1, Build901 2013/11/27)

>  <Rbt.Parameter_File>
/export/apps/rDock/src/rDock_2013.1_src/data/scripts/dock_solv.prm

>  <Rbt.Receptor>
prm/pocket_docking_4.prm

>  <SCORE>
-16.2648

>  <SCORE.INTER>
-10.4604

>  <SCORE.INTER.CONST>
1

>  <SCORE.INTER.POLAR>
-0.742597

>  <SCORE.INTER.ROT>
12

>  <SCORE.INTER.SOLV>
12.6618

>  <SCORE.INTER.VDW>
-20.3189

>  <SCORE.INTER.norm>
-0.201161

>  <SCORE.INTRA>
-5.81396

>  <SCORE.INTRA.DIHEDRAL>
-14.8544

>  <SCORE.INTRA.DIHEDRAL.0>
32.9766

>  <SCORE.INTRA.POLAR>
0

>  <SCORE.INTRA.POLAR.0>
0

>  <SCORE.INTRA.REPUL>
0

>  <SCORE.INTRA.REPUL.0>
0

>  <SCORE.INTRA.SOLV>
-2.86847

>  <SCORE.INTRA.SOLV.lig_0>
-114.358

>  <SCORE.INTRA.VDW>
3.04746

>  <SCORE.INTRA.VDW.0>
-8.24257

>  <SCORE.INTRA.norm>
-0.111807

>  <SCORE.RESTR>
0.00958447

>  <SCORE.RESTR.CAVITY>
0.00958447

>  <SCORE.RESTR.norm>
0.000184317

>  <SCORE.SYSTEM>
0

>  <SCORE.SYSTEM.CONST>
0

>  <SCORE.SYSTEM.DIHEDRAL>
0

>  <SCORE.SYSTEM.SOLV>
0

>  <SCORE.SYSTEM.norm>
0

>  <SCORE.heavy>
52

>  <SCORE.norm>
-0.312784

>  <RMSD>
10.512

$$$$
2esj_lig
 OpenBabel11021811423D
libRbt.so/2013.1/901 2013/11/27
 52 56  0  0  0  0  0  0  0  0999 V2000
   26.4677   -1.3893   13.1462 C   0  0  2  0  0  0  0  0  0  0  0  0
   26.3423   -2.4004   14.1643 O   0  0  0  0  0  0  0  0  0  0  0  0
   29.0574   -4.5121   16.7053 C   0  0  2  0  0  0  0  0  0  0  0  0
   30.1082   -4.8826   17.6676 N   0  0  0  0  0  0  0  0  0  0  0  0
   24.3967   -3.1149   17.0819 C   0  0  1  0  0  0  0  0  0  0  0  0
   20.3435   -4.1851   16.6158 C   0  0  1  0  0  0  0  0  0  0  0  0
   18.9886   -8.1074   19.2584 C   0  0  1  0  0  0  0  0  0  0  0  0
   25.9770   -0.0442   13.7586 C   0  0  2  0  0  0  0  0  0  0  0  0
   26.7098    0.3106   14.9736 N   0  0  0  0  0  0  0  0  0  0  0  0
   29.6602   -3.6148   15.5526 C   0  0  0  0  0  0  0  0  0  0  0  0
   23.4183   -2.1800   16.3698 C   0  0  2  0  0  0  0  0  0  0  0  0
   22.8794   -1.1716   17.2518 O   0  0  0  0  0  0  0  0  0  0  0  0
   19.7705   -4.6862   18.0165 C   0  0  2  0  0  0  0  0  0  0  0  0
   20.7976   -5.4522   18.7709 N   0  0  0  0  0  0  0  0  0  0  0  0
   17.7014   -8.7622   18.7708 C   0  0  1  0  0  0  0  0  0  0  0  0
   17.3956   -9.8911   19.6136 O   0  0  0  0  0  0  0  0  0  0  0  0
   24.4452   -0.0947   14.0590 C   0  0  0  0  0  0  0  0  0  0  0  0
   28.5307   -3.2766   14.4983 C   0  0  2  0  0  0  0  0  0  0  0  0
   29.0616   -2.4321   13.4233 N   0  0  0  0  0  0  0  0  0  0  0  0
   22.4048   -3.1704   15.8737 C   0  0  2  0  0  0  0  0  0  0  0  0
   21.5679   -3.5859   16.9231 O   0  0  0  0  0  0  0  0  0  0  0  0
   18.4017   -5.4605   17.7679 C   0  0  1  0  0  0  0  0  0  0  0  0
   17.5387   -4.6335   16.9805 O   0  0  0  0  0  0  0  0  0  0  0  0
   16.4791   -7.8525   18.7409 C   0  0  1  0  0  0  0  0  0  0  0  0
   15.3393   -8.6829   18.4924 O   0  0  0  0  0  0  0  0  0  0  0  0
   23.6902   -0.4967   12.7575 C   0  0  2  0  0  0  0  0  0  0  0  0
   22.2855   -0.4867   12.9390 O   0  0  0  0  0  0  0  0  0  0  0  0
   27.3336   -2.5773   15.1934 C   0  0  2  0  0  0  0  0  0  0  0  0
   23.1998   -4.4400   15.5051 C   0  0  2  0  0  0  0  0  0  0  0  0
   24.2902   -4.3781   16.4107 O   0  0  0  0  0  0  0  0  0  0  0  0
   18.6287   -6.7787   16.9194 C   0  0  2  0  0  0  0  0  0  0  0  0
   19.4626   -7.5909   17.7472 O   0  0  0  0  0  0  0  0  0  0  0  0
   16.2622   -7.0685   20.0363 C   0  0  2  0  0  0  0  0  0  0  0  0
   15.2903   -6.0498   19.7492 O   0  0  0  0  0  0  0  0  0  0  0  0
   24.1976   -1.8900   12.3099 C   0  0  2  0  0  0  0  0  0  0  0  0
   25.6218   -1.7635   12.0333 O   0  0  0  0  0  0  0  0  0  0  0  0
   26.7632   -3.3563   16.4217 C   0  0  2  0  0  0  0  0  0  0  0  0
   25.7005   -2.5787   17.0399 O   0  0  0  0  0  0  0  0  0  0  0  0
   23.7336   -4.5181   14.0752 C   0  0  0  0  0  0  0  0  0  0  0  0
   22.6023   -4.5688   13.1936 O   0  0  0  0  0  0  0  0  0  0  0  0
   19.4965   -6.3666   15.7458 C   0  0  1  0  0  0  0  0  0  0  0  0
   20.5190   -5.3508   15.6601 O   0  0  0  0  0  0  0  0  0  0  0  0
   17.5777   -6.5400   20.5971 C   0  0  2  0  0  0  0  0  0  0  0  0
   18.8079   -7.2585   20.4177 O   0  0  0  0  0  0  0  0  0  0  0  0
   23.5744   -2.3586   11.0392 C   0  0  0  0  0  0  0  0  0  0  0  0
   24.0832   -3.6422   10.7680 O   0  0  0  0  0  0  0  0  0  0  0  0
   27.9057   -3.7249   17.4273 C   0  0  1  0  0  0  0  0  0  0  0  0
   27.3294   -4.6055   18.4282 O   0  0  0  0  0  0  0  0  0  0  0  0
   19.7909   -7.4671   14.6805 C   0  0  0  0  0  0  0  0  0  0  0  0
   20.4143   -8.6811   15.2482 N   0  0  0  0  0  0  0  0  0  0  0  0
   17.6673   -5.7297   21.8882 C   0  0  0  0  0  0  0  0  0  0  0  0
   16.5919   -4.7550   21.9374 O   0  0  0  0  0  0  0  0  0  0  0  0
  1  2  1  1  0  0  0
  1  8  1  0  0  0  0
  1 36  1  0  0  0  0
  3  4  1  1  0  0  0
  3 10  1  0  0  0  0
  3 47  1  0  0  0  0
  5 11  1  0  0  0  0
  5 30  1  0  0  0  0
  5 38  1  6  0  0  0
  6 21  1  1  0  0  0
  6 42  1  0  0  0  0
  7 15  1  0  0  0  0
  7 44  1  0  0  0  0
  7 32  1  6  0  0  0
  8  9  1  1  0  0  0
  8 17  1  0  0  0  0
 11 12  1  1  0  0  0
 11 20  1  0  0  0  0
 13  6  1  0  0  0  0
 13 14  1  6  0  0  0
 15 16  1  1  0  0  0
 15 24  1  0  0  0  0
 17 26  1  0  0  0  0
 18 10  1  0  0  0  0
 18 19  1  6  0  0  0
 20 21  1  1  0  0  0
 20 29  1  0  0  0  0
 22 13  1  0  0  0  0
 22 23  1  6  0  0  0
 24 25  1  1  0  0  0
 24 33  1  0  0  0  0
 26 27  1  1  0  0  0
 26 35  1  0  0  0  0
 28  2  1  6  0  0  0
 28 18  1  0  0  0  0
 29 30  1  0  0  0  0
 29 39  1  6  0  0  0
 31 22  1  0  0  0  0
 31 32  1  1  0  0  0
 31 41  1  0  0  0  0
 33 34  1  6  0  0  0
 33 43  1  0  0  0  0
 35 36  1  0  0  0  0
 35 45  1  6  0  0  0
 37 28  1  0  0  0  0
 37 38  1  1  0  0  0
 39 40  1  0  0  0  0
 41 42  1  0  0  0  0
 41 49  1  1  0  0  0
 43 44  1  0  0  0  0
 43 51  1  1  0  0  0
 45 46  1  0  0  0  0
 47 37  1  0  0  0  0
 47 48  1  1  0  0  0
 49 50  1  0  0  0  0
 51 52  1  0  0  0  0
M  END
>  <CHROM.1>
-81.60296990,-121.51059474,172.85214520,55.31631377,161.55575335,-75.16334275
-64.71179116,60.67375208,-178.16162496,118.11617837,-56.35456870,-42.57417031
22.37924851,-4.40328098,16.36827018,0.60027556,-0.20118081,-1.06348047

>  <Name>
2esj_lig

>  <RI>
1.01272e+07

>  <Rbt.Current_Directory>
/home/itssahil/PROJECTS/Mol_Feturizer/New_Systems/rnas/2esj

>  <Rbt.Executable>
rbdock ($Id: //depot/dev/client3/rdock/2013.1/src/exe/rbdock.cxx#4 $)

>  <Rbt.Library>
libRbt.so (2013.1, Build901 2013/11/27)

>  <Rbt.Parameter_File>
/export/apps/rDock/src/rDock_2013.1_src/data/scripts/dock_solv.prm

>  <Rbt.Receptor>
prm/pocket_docking_3.prm

>  <SCORE>
-2.39364

>  <SCORE.INTER>
-0.487953

>  <SCORE.INTER.CONST>
1

>  <SCORE.INTER.POLAR>
0

>  <SCORE.INTER.ROT>
12

>  <SCORE.INTER.SOLV>
9.64474

>  <SCORE.INTER.VDW>
-15.1402

>  <SCORE.INTER.norm>
-0.00938372

>  <SCORE.INTRA>
-1.93723

>  <SCORE.INTRA.DIHEDRAL>
-8.2068

>  <SCORE.INTRA.DIHEDRAL.0>
32.9766

>  <SCORE.INTRA.POLAR>
0

>  <SCORE.INTRA.POLAR.0>
0

>  <SCORE.INTRA.REPUL>
0

>  <SCORE.INTRA.REPUL.0>
0

>  <SCORE.INTRA.SOLV>
4.3804

>  <SCORE.INTRA.SOLV.lig_0>
-114.358

>  <SCORE.INTRA.VDW>
-0.0240321

>  <SCORE.INTRA.VDW.0>
-8.24257

>  <SCORE.INTRA.norm>
-0.0372545

>  <SCORE.RESTR>
0.0315474

>  <SCORE.RESTR.CAVITY>
0.0315474

>  <SCORE.RESTR.norm>
0.00060668

>  <SCORE.SYSTEM>
0

>  <SCORE.SYSTEM.CONST>
0

>  <SCORE.SYSTEM.DIHEDRAL>
0

>  <SCORE.SYSTEM.SOLV>
0

>  <SCORE.SYSTEM.norm>
0

>  <SCORE.heavy>
52

>  <SCORE.norm>
-0.0460315

>  <RMSD>
10.515

$$$$
2esj_lig
 OpenBabel11021811423D
libRbt.so/2013.1/901 2013/11/27
 52 56  0  0  0  0  0  0  0  0999 V2000
   11.9100   -1.0488   10.6513 C   0  0  2  0  0  0  0  0  0  0  0  0
   12.6716   -0.3652   11.6649 O   0  0  0  0  0  0  0  0  0  0  0  0
   16.6110    0.6056   13.0167 C   0  0  2  0  0  0  0  0  0  0  0  0
   18.0676    0.6797   13.2166 N   0  0  0  0  0  0  0  0  0  0  0  0
   14.8955    0.8769    8.9170 C   0  0  1  0  0  0  0  0  0  0  0  0
   17.3395   -1.7789    6.9397 C   0  0  1  0  0  0  0  0  0  0  0  0
   21.4601   -0.1017    8.0484 C   0  0  1  0  0  0  0  0  0  0  0  0
   10.7470   -1.7991   11.3651 C   0  0  2  0  0  0  0  0  0  0  0  0
    9.9129   -0.8984   12.1602 N   0  0  0  0  0  0  0  0  0  0  0  0
   16.1074   -0.8817   13.1945 C   0  0  0  0  0  0  0  0  0  0  0  0
   15.3221   -0.5490    9.2682 C   0  0  2  0  0  0  0  0  0  0  0  0
   16.6447   -0.6015    9.8457 O   0  0  0  0  0  0  0  0  0  0  0  0
   18.4048   -1.4105    8.0669 C   0  0  2  0  0  0  0  0  0  0  0  0
   18.7039    0.0461    8.0641 N   0  0  0  0  0  0  0  0  0  0  0  0
   22.7053   -0.9801    8.0848 C   0  0  1  0  0  0  0  0  0  0  0  0
   23.7764   -0.2570    8.7238 O   0  0  0  0  0  0  0  0  0  0  0  0
   11.2968   -2.9483   12.2685 C   0  0  0  0  0  0  0  0  0  0  0  0
   14.5346   -0.9316   13.0350 C   0  0  2  0  0  0  0  0  0  0  0  0
   14.0423   -2.3053   13.1823 N   0  0  0  0  0  0  0  0  0  0  0  0
   15.2100   -1.2075    7.9236 C   0  0  2  0  0  0  0  0  0  0  0  0
   16.3025   -0.8582    7.1119 O   0  0  0  0  0  0  0  0  0  0  0  0
   19.6744   -2.3582    7.9080 C   0  0  1  0  0  0  0  0  0  0  0  0
   19.2330   -3.7190    7.8625 O   0  0  0  0  0  0  0  0  0  0  0  0
   22.5413   -2.3125    8.8059 C   0  0  1  0  0  0  0  0  0  0  0  0
   23.8476   -2.8821    8.9455 O   0  0  0  0  0  0  0  0  0  0  0  0
   12.1992   -3.8789   11.4053 C   0  0  2  0  0  0  0  0  0  0  0  0
   12.6710   -4.9901   12.1461 O   0  0  0  0  0  0  0  0  0  0  0  0
   14.1114   -0.3507   11.6607 C   0  0  2  0  0  0  0  0  0  0  0  0
   14.0020   -0.5463    7.2286 C   0  0  2  0  0  0  0  0  0  0  0  0
   14.0148    0.7561    7.7913 O   0  0  0  0  0  0  0  0  0  0  0  0
   20.4205   -2.1002    6.5347 C   0  0  2  0  0  0  0  0  0  0  0  0
   20.8749   -0.7493    6.6294 O   0  0  0  0  0  0  0  0  0  0  0  0
   21.8913   -2.1911   10.1853 C   0  0  2  0  0  0  0  0  0  0  0  0
   21.5238   -3.5196   10.5913 O   0  0  0  0  0  0  0  0  0  0  0  0
   13.3670   -3.0353   10.8365 C   0  0  2  0  0  0  0  0  0  0  0  0
   12.7830   -1.9990    9.9963 O   0  0  0  0  0  0  0  0  0  0  0  0
   14.6770    1.0759   11.3680 C   0  0  2  0  0  0  0  0  0  0  0  0
   14.2835    1.4899   10.0300 O   0  0  0  0  0  0  0  0  0  0  0  0
   12.6381   -1.1903    7.4749 C   0  0  0  0  0  0  0  0  0  0  0  0
   11.6396   -0.1799    7.2709 O   0  0  0  0  0  0  0  0  0  0  0  0
   19.3364   -2.0923    5.4742 C   0  0  1  0  0  0  0  0  0  0  0  0
   17.9592   -1.6670    5.5589 O   0  0  0  0  0  0  0  0  0  0  0  0
   20.7357   -1.1967   10.1734 C   0  0  2  0  0  0  0  0  0  0  0  0
   20.7449   -0.0519    9.3067 O   0  0  0  0  0  0  0  0  0  0  0  0
   14.2751   -3.8171    9.9496 C   0  0  0  0  0  0  0  0  0  0  0  0
   13.9388   -3.5036    8.6197 O   0  0  0  0  0  0  0  0  0  0  0  0
   16.2279    1.1151   11.5810 C   0  0  1  0  0  0  0  0  0  0  0  0
   16.6404    2.5040   11.4810 O   0  0  0  0  0  0  0  0  0  0  0  0
   19.8136   -1.9585    3.9953 C   0  0  0  0  0  0  0  0  0  0  0  0
   19.5155   -0.6389    3.3999 N   0  0  0  0  0  0  0  0  0  0  0  0
   19.9087   -0.8657   11.4137 C   0  0  0  0  0  0  0  0  0  0  0  0
   18.9163    0.1447   11.0926 O   0  0  0  0  0  0  0  0  0  0  0  0
  1  2  1  1  0  0  0
  1  8  1  0  0  0  0
  1 36  1  0  0  0  0
  3  4  1  6  0  0  0
  3 10  1  0  0  0  0
  3 47  1  0  0  0  0
  5 11  1  0  0  0  0
  5 30  1  0  0  0  0
  5 38  1  1  0  0  0
  6 21  1  6  0  0  0
  6 42  1  0  0  0  0
  7 15  1  0  0  0  0
  7 44  1  0  0  0  0
  7 32  1  6  0  0  0
  8  9  1  1  0  0  0
  8 17  1  0  0  0  0
 11 12  1  6  0  0  0
 11 20  1  0  0  0  0
 13  6  1  0  0  0  0
 13 14  1  6  0  0  0
 15 16  1  1  0  0  0
 15 24  1  0  0  0  0
 17 26  1  0  0  0  0
 18 10  1  0  0  0  0
 18 19  1  6  0  0  0
 20 21  1  6  0  0  0
 20 29  1  0  0  0  0
 22 13  1  0  0  0  0
 22 23  1  6  0  0  0
 24 25  1  1  0  0  0
 24 33  1  0  0  0  0
 26 27  1  1  0  0  0
 26 35  1  0  0  0  0
 28  2  1  1  0  0  0
 28 18  1  0  0  0  0
 29 30  1  0  0  0  0
 29 39  1  1  0  0  0
 31 22  1  0  0  0  0
 31 32  1  1  0  0  0
 31 41  1  0  0  0  0
 33 34  1  6  0  0  0
 33 43  1  0  0  0  0
 35 36  1  0  0  0  0
 35 45  1  6  0  0  0
 37 28  1  0  0  0  0
 37 38  1  6  0  0  0
 39 40  1  0  0  0  0
 41 42  1  0  0  0  0
 41 49  1  6  0  0  0
 43 44  1  0  0  0  0
 43 51  1  1  0  0  0
 45 46  1  0  0  0  0
 47 37  1  0  0  0  0
 47 48  1  1  0  0  0
 49 50  1  0  0  0  0
 51 52  1  0  0  0  0
M  END
>  <CHROM.1>
137.23312904,28.81208966,-93.00380893,67.04731561,102.27700435,-123.32188326
155.44656105,38.35099957,101.21135902,-72.05877723,-107.99878223,178.08431034
16.76581040,-1.18044143,9.43519124,2.80191434,0.03581972,1.45931698

>  <Name>
2esj_lig

>  <RI>
0

>  <Rbt.Current_Directory>
/home/itssahil/PROJECTS/Mol_Feturizer/New_Systems/rnas/2esj

>  <Rbt.Executable>
rbdock ($Id: //depot/dev/client3/rdock/2013.1/src/exe/rbdock.cxx#4 $)

>  <Rbt.Library>
libRbt.so (2013.1, Build901 2013/11/27)

>  <Rbt.Parameter_File>
/export/apps/rDock/src/rDock_2013.1_src/data/scripts/dock_solv.prm

>  <Rbt.Receptor>
prm/blind_docking_40.prm

>  <SCORE>
49.122

>  <SCORE.INTER>
1.95428

>  <SCORE.INTER.CONST>
1

>  <SCORE.INTER.POLAR>
-0.601595

>  <SCORE.INTER.ROT>
12

>  <SCORE.INTER.SOLV>
19.779

>  <SCORE.INTER.VDW>
-14.8848

>  <SCORE.INTER.norm>
0.0375822

>  <SCORE.INTRA>
27.6171

>  <SCORE.INTRA.DIHEDRAL>
7.50298

>  <SCORE.INTRA.DIHEDRAL.0>
32.9766

>  <SCORE.INTRA.POLAR>
0

>  <SCORE.INTRA.POLAR.0>
0

>  <SCORE.INTRA.REPUL>
0

>  <SCORE.INTRA.REPUL.0>
0

>  <SCORE.INTRA.SOLV>
15.0157

>  <SCORE.INTRA.SOLV.lig_0>
-114.358

>  <SCORE.INTRA.VDW>
16.3577

>  <SCORE.INTRA.VDW.0>
-8.24257

>  <SCORE.INTRA.norm>
0.531097

>  <SCORE.RESTR>
19.5507

>  <SCORE.RESTR.CAVITY>
19.5507

>  <SCORE.RESTR.norm>
0.375975

>  <SCORE.SYSTEM>
0

>  <SCORE.SYSTEM.CONST>
0

>  <SCORE.SYSTEM.DIHEDRAL>
0

>  <SCORE.SYSTEM.SOLV>
0

>  <SCORE.SYSTEM.norm>
0

>  <SCORE.heavy>
52

>  <SCORE.norm>
0.944655

>  <RMSD>
10.545

$$$$
2esj_lig
 OpenBabel11021811423D
libRbt.so/2013.1/901 2013/11/27
 52 56  0  0  0  0  0  0  0  0999 V2000
   26.9304   -3.3847   13.1054 C   0  0  2  0  0  0  0  0  0  0  0  0
   26.6677   -4.0383   14.3619 O   0  0  0  0  0  0  0  0  0  0  0  0
   28.8769   -5.1746   17.8428 C   0  0  2  0  0  0  0  0  0  0  0  0
   29.7783   -5.2092   19.0063 N   0  0  0  0  0  0  0  0  0  0  0  0
   24.4857   -3.4460   17.5847 C   0  0  1  0  0  0  0  0  0  0  0  0
   20.7157   -3.6902   19.4821 C   0  0  1  0  0  0  0  0  0  0  0  0
   17.9788   -7.7103   17.8126 C   0  0  1  0  0  0  0  0  0  0  0  0
   26.5060   -1.8939   13.2550 C   0  0  2  0  0  0  0  0  0  0  0  0
   27.1885   -1.2332   14.3672 N   0  0  0  0  0  0  0  0  0  0  0  0
   29.6839   -4.8109   16.5336 C   0  0  0  0  0  0  0  0  0  0  0  0
   23.8989   -2.2557   18.3445 C   0  0  2  0  0  0  0  0  0  0  0  0
   24.3782   -2.1802   19.7046 O   0  0  0  0  0  0  0  0  0  0  0  0
   20.6488   -5.0215   20.3564 C   0  0  2  0  0  0  0  0  0  0  0  0
   21.3291   -6.1492   19.6661 N   0  0  0  0  0  0  0  0  0  0  0  0
   16.8153   -8.0584   18.7339 C   0  0  1  0  0  0  0  0  0  0  0  0
   15.6177   -8.2136   17.9464 O   0  0  0  0  0  0  0  0  0  0  0  0
   24.9594   -1.7699   13.4333 C   0  0  0  0  0  0  0  0  0  0  0  0
   28.7111   -4.8367   15.2868 C   0  0  2  0  0  0  0  0  0  0  0  0
   29.4336   -4.4888   14.0589 N   0  0  0  0  0  0  0  0  0  0  0  0
   22.4316   -2.5498   18.2233 C   0  0  2  0  0  0  0  0  0  0  0  0
   22.0587   -3.5694   19.1154 O   0  0  0  0  0  0  0  0  0  0  0  0
   19.1344   -5.2972   20.7634 C   0  0  1  0  0  0  0  0  0  0  0  0
   18.5915   -4.1126   21.3556 O   0  0  0  0  0  0  0  0  0  0  0  0
   16.9988   -9.3224   19.5652 C   0  0  1  0  0  0  0  0  0  0  0  0
   15.7368   -9.6150   20.1751 O   0  0  0  0  0  0  0  0  0  0  0  0
   24.2566   -2.5002   12.2507 C   0  0  2  0  0  0  0  0  0  0  0  0
   22.8482   -2.3609   12.3081 O   0  0  0  0  0  0  0  0  0  0  0  0
   27.5224   -3.8655   15.5077 C   0  0  2  0  0  0  0  0  0  0  0  0
   22.2414   -3.1846   16.8303 C   0  0  2  0  0  0  0  0  0  0  0  0
   23.4886   -3.8298   16.6277 O   0  0  0  0  0  0  0  0  0  0  0  0
   18.2383   -5.5934   19.4911 C   0  0  2  0  0  0  0  0  0  0  0  0
   18.7855   -6.7957   18.9475 O   0  0  0  0  0  0  0  0  0  0  0  0
   17.4620  -10.5329   18.7527 C   0  0  2  0  0  0  0  0  0  0  0  0
   17.8852  -11.5308   19.6961 O   0  0  0  0  0  0  0  0  0  0  0  0
   24.6839   -3.9888   12.2736 C   0  0  2  0  0  0  0  0  0  0  0  0
   26.1277   -4.0274   12.0873 O   0  0  0  0  0  0  0  0  0  0  0  0
   26.7512   -4.0930   16.8472 C   0  0  2  0  0  0  0  0  0  0  0  0
   25.7111   -3.0854   16.9867 O   0  0  0  0  0  0  0  0  0  0  0  0
   21.9763   -2.2216   15.6735 C   0  0  0  0  0  0  0  0  0  0  0  0
   23.0357   -1.2534   15.6655 O   0  0  0  0  0  0  0  0  0  0  0  0
   18.5737   -4.5040   18.4907 C   0  0  1  0  0  0  0  0  0  0  0  0
   19.8149   -3.8015   18.2659 O   0  0  0  0  0  0  0  0  0  0  0  0
   18.5242  -10.1465   17.7296 C   0  0  2  0  0  0  0  0  0  0  0  0
   18.5272   -8.8514   17.1095 O   0  0  0  0  0  0  0  0  0  0  0  0
   24.1053   -4.7803   11.1506 C   0  0  0  0  0  0  0  0  0  0  0  0
   22.7237   -4.9024   11.3884 O   0  0  0  0  0  0  0  0  0  0  0  0
   27.7388   -4.1144   18.0623 C   0  0  1  0  0  0  0  0  0  0  0  0
   26.9757   -4.5212   19.2291 O   0  0  0  0  0  0  0  0  0  0  0  0
   17.7458   -4.4973   17.1688 C   0  0  0  0  0  0  0  0  0  0  0  0
   18.5813   -4.3924   15.9541 N   0  0  0  0  0  0  0  0  0  0  0  0
   19.1622  -11.1500   16.7716 C   0  0  0  0  0  0  0  0  0  0  0  0
   20.3379  -10.5650   16.1516 O   0  0  0  0  0  0  0  0  0  0  0  0
  1  2  1  1  0  0  0
  1  8  1  0  0  0  0
  1 36  1  0  0  0  0
  3  4  1  1  0  0  0
  3 10  1  0  0  0  0
  3 47  1  0  0  0  0
  5 11  1  0  0  0  0
  5 30  1  0  0  0  0
  5 38  1  6  0  0  0
  6 21  1  6  0  0  0
  6 42  1  0  0  0  0
  7 15  1  0  0  0  0
  7 44  1  0  0  0  0
  7 32  1  1  0  0  0
  8  9  1  1  0  0  0
  8 17  1  0  0  0  0
 11 12  1  1  0  0  0
 11 20  1  0  0  0  0
 13  6  1  0  0  0  0
 13 14  1  6  0  0  0
 15 16  1  6  0  0  0
 15 24  1  0  0  0  0
 17 26  1  0  0  0  0
 18 10  1  0  0  0  0
 18 19  1  6  0  0  0
 20 21  1  1  0  0  0
 20 29  1  0  0  0  0
 22 13  1  0  0  0  0
 22 23  1  6  0  0  0
 24 25  1  6  0  0  0
 24 33  1  0  0  0  0
 26 27  1  1  0  0  0
 26 35  1  0  0  0  0
 28  2  1  6  0  0  0
 28 18  1  0  0  0  0
 29 30  1  0  0  0  0
 29 39  1  6  0  0  0
 31 22  1  0  0  0  0
 31 32  1  6  0  0  0
 31 41  1  0  0  0  0
 33 34  1  1  0  0  0
 33 43  1  0  0  0  0
 35 36  1  0  0  0  0
 35 45  1  6  0  0  0
 37 28  1  0  0  0  0
 37 38  1  1  0  0  0
 39 40  1  0  0  0  0
 41 42  1  0  0  0  0
 41 49  1  6  0  0  0
 43 44  1  0  0  0  0
 43 51  1  6  0  0  0
 45 46  1  0  0  0  0
 47 37  1  0  0  0  0
 47 48  1  1  0  0  0
 49 50  1  0  0  0  0
 51 52  1  0  0  0  0
M  END
>  <CHROM.1>
-76.43262499,147.69095640,174.07829935,-63.54986638,159.07037095,-81.44519476
54.32738695,165.36037007,-69.83556157,144.08394608,-131.21066498,-166.64507856
22.51826573,-5.07820522,16.87246952,0.35700410,-0.48728587,-1.58737311

>  <Name>
2esj_lig

>  <RI>
0

>  <Rbt.Current_Directory>
/home/itssahil/PROJECTS/Mol_Feturizer/New_Systems/rnas/2esj

>  <Rbt.Executable>
rbdock ($Id: //depot/dev/client3/rdock/2013.1/src/exe/rbdock.cxx#4 $)

>  <Rbt.Library>
libRbt.so (2013.1, Build901 2013/11/27)

>  <Rbt.Parameter_File>
/export/apps/rDock/src/rDock_2013.1_src/data/scripts/dock_solv.prm

>  <Rbt.Receptor>
prm/pocket_docking_4.prm

>  <SCORE>
-6.81214

>  <SCORE.INTER>
-4.04367

>  <SCORE.INTER.CONST>
1

>  <SCORE.INTER.POLAR>
-0.0702468

>  <SCORE.INTER.ROT>
12

>  <SCORE.INTER.SOLV>
9.68412

>  <SCORE.INTER.VDW>
-17.2897

>  <SCORE.INTER.norm>
-0.0777628

>  <SCORE.INTRA>
-2.76848

>  <SCORE.INTRA.DIHEDRAL>
-12.0611

>  <SCORE.INTRA.DIHEDRAL.0>
32.9766

>  <SCORE.INTRA.POLAR>
0

>  <SCORE.INTRA.POLAR.0>
0

>  <SCORE.INTRA.REPUL>
0.0477453

>  <SCORE.INTRA.REPUL.0>
0

>  <SCORE.INTRA.SOLV>
1.90002

>  <SCORE.INTRA.SOLV.lig_0>
-114.358

>  <SCORE.INTRA.VDW>
2.07336

>  <SCORE.INTRA.VDW.0>
-8.24257

>  <SCORE.INTRA.norm>
-0.0532399

>  <SCORE.RESTR>
0

>  <SCORE.RESTR.CAVITY>
0

>  <SCORE.RESTR.norm>
0

>  <SCORE.SYSTEM>
0

>  <SCORE.SYSTEM.CONST>
0

>  <SCORE.SYSTEM.DIHEDRAL>
0

>  <SCORE.SYSTEM.SOLV>
0

>  <SCORE.SYSTEM.norm>
0

>  <SCORE.heavy>
52

>  <SCORE.norm>
-0.131003

>  <RMSD>
10.555

$$$$
2esj_lig
 OpenBabel11021811423D
libRbt.so/2013.1/901 2013/11/27
 52 56  0  0  0  0  0  0  0  0999 V2000
   21.7901   -2.6010   12.1888 C   0  0  2  0  0  0  0  0  0  0  0  0
   20.4490   -2.1477   12.4545 O   0  0  0  0  0  0  0  0  0  0  0  0
   16.7410   -3.8740   13.7030 C   0  0  2  0  0  0  0  0  0  0  0  0
   15.4895   -4.6442   13.7913 N   0  0  0  0  0  0  0  0  0  0  0  0
   20.6792   -5.8838   14.5243 C   0  0  1  0  0  0  0  0  0  0  0  0
   20.3181   -9.5963   16.2609 C   0  0  1  0  0  0  0  0  0  0  0  0
   19.9105  -11.4368   21.0502 C   0  0  1  0  0  0  0  0  0  0  0  0
   22.7645   -1.4757   12.6463 C   0  0  2  0  0  0  0  0  0  0  0  0
   22.5772   -1.1194   14.0524 N   0  0  0  0  0  0  0  0  0  0  0  0
   16.7463   -2.9826   12.3981 C   0  0  0  0  0  0  0  0  0  0  0  0
   20.5543   -7.2758   13.9037 C   0  0  2  0  0  0  0  0  0  0  0  0
   19.1909   -7.7516   13.8887 O   0  0  0  0  0  0  0  0  0  0  0  0
   19.4297   -9.4380   17.5750 C   0  0  2  0  0  0  0  0  0  0  0  0
   20.1874   -8.7481   18.6525 N   0  0  0  0  0  0  0  0  0  0  0  0
   21.0521  -10.7228   21.7646 C   0  0  1  0  0  0  0  0  0  0  0  0
   20.5312  -10.0336   22.9188 O   0  0  0  0  0  0  0  0  0  0  0  0
   22.6074   -0.2050   11.7520 C   0  0  0  0  0  0  0  0  0  0  0  0
   18.0706   -2.1191   12.3512 C   0  0  2  0  0  0  0  0  0  0  0  0
   18.1067   -1.2915   11.1410 N   0  0  0  0  0  0  0  0  0  0  0  0
   21.4705   -8.0583   14.7994 C   0  0  2  0  0  0  0  0  0  0  0  0
   20.8471   -8.3236   16.0304 O   0  0  0  0  0  0  0  0  0  0  0  0
   18.8384  -10.8615   17.9738 C   0  0  1  0  0  0  0  0  0  0  0  0
   18.1954  -11.4325   16.8296 O   0  0  0  0  0  0  0  0  0  0  0  0
   22.1930  -11.6206   22.2279 C   0  0  1  0  0  0  0  0  0  0  0  0
   23.0388  -10.8299   23.0702 O   0  0  0  0  0  0  0  0  0  0  0  0
   22.7879   -0.6144   10.2601 C   0  0  2  0  0  0  0  0  0  0  0  0
   22.7341    0.5067    9.3962 O   0  0  0  0  0  0  0  0  0  0  0  0
   19.3182   -3.0381   12.4145 C   0  0  2  0  0  0  0  0  0  0  0  0
   22.6243   -7.1014   15.1637 C   0  0  2  0  0  0  0  0  0  0  0  0
   21.9827   -5.8366   15.1211 O   0  0  0  0  0  0  0  0  0  0  0  0
   19.9889  -11.8746   18.3729 C   0  0  2  0  0  0  0  0  0  0  0  0
   20.5839  -11.2919   19.5334 O   0  0  0  0  0  0  0  0  0  0  0  0
   21.7295  -12.8601   22.9953 C   0  0  2  0  0  0  0  0  0  0  0  0
   22.8601  -13.7424   23.0839 O   0  0  0  0  0  0  0  0  0  0  0  0
   21.7011   -1.6598    9.9064 C   0  0  2  0  0  0  0  0  0  0  0  0
   21.9184   -2.8168   10.7637 O   0  0  0  0  0  0  0  0  0  0  0  0
   19.3192   -4.0328   13.6193 C   0  0  2  0  0  0  0  0  0  0  0  0
   20.4899   -4.8927   13.5389 O   0  0  0  0  0  0  0  0  0  0  0  0
   23.8251   -7.0915   14.2184 C   0  0  0  0  0  0  0  0  0  0  0  0
   24.8348   -6.2612   14.8108 O   0  0  0  0  0  0  0  0  0  0  0  0
   21.0329  -11.7611   17.2787 C   0  0  1  0  0  0  0  0  0  0  0  0
   21.4141  -10.6239   16.4749 O   0  0  0  0  0  0  0  0  0  0  0  0
   20.4949  -13.4849   22.3551 C   0  0  2  0  0  0  0  0  0  0  0  0
   19.5164  -12.6804   21.6790 O   0  0  0  0  0  0  0  0  0  0  0  0
   21.8071   -2.1623    8.5068 C   0  0  0  0  0  0  0  0  0  0  0  0
   20.7097   -3.0134    8.2800 O   0  0  0  0  0  0  0  0  0  0  0  0
   17.9789   -4.8406   13.6762 C   0  0  1  0  0  0  0  0  0  0  0  0
   17.9811   -5.5894   14.9206 O   0  0  0  0  0  0  0  0  0  0  0  0
   22.2438  -12.7398   17.3710 C   0  0  0  0  0  0  0  0  0  0  0  0
   22.7410  -13.1838   16.0518 N   0  0  0  0  0  0  0  0  0  0  0  0
   19.8061  -14.7283   22.9131 C   0  0  0  0  0  0  0  0  0  0  0  0
   19.1691  -15.4670   21.8374 O   0  0  0  0  0  0  0  0  0  0  0  0
  1  2  1  6  0  0  0
  1  8  1  0  0  0  0
  1 36  1  0  0  0  0
  3  4  1  6  0  0  0
  3 10  1  0  0  0  0
  3 47  1  0  0  0  0
  5 11  1  0  0  0  0
  5 30  1  0  0  0  0
  5 38  1  6  0  0  0
  6 21  1  1  0  0  0
  6 42  1  0  0  0  0
  7 15  1  0  0  0  0
  7 44  1  0  0  0  0
  7 32  1  6  0  0  0
  8  9  1  1  0  0  0
  8 17  1  0  0  0  0
 11 12  1  1  0  0  0
 11 20  1  0  0  0  0
 13  6  1  0  0  0  0
 13 14  1  1  0  0  0
 15 16  1  1  0  0  0
 15 24  1  0  0  0  0
 17 26  1  0  0  0  0
 18 10  1  0  0  0  0
 18 19  1  6  0  0  0
 20 21  1  1  0  0  0
 20 29  1  0  0  0  0
 22 13  1  0  0  0  0
 22 23  1  6  0  0  0
 24 25  1  1  0  0  0
 24 33  1  0  0  0  0
 26 27  1  6  0  0  0
 26 35  1  0  0  0  0
 28  2  1  1  0  0  0
 28 18  1  0  0  0  0
 29 30  1  0  0  0  0
 29 39  1  6  0  0  0
 31 22  1  0  0  0  0
 31 32  1  1  0  0  0
 31 41  1  0  0  0  0
 33 34  1  6  0  0  0
 33 43  1  0  0  0  0
 35 36  1  0  0  0  0
 35 45  1  6  0  0  0
 37 28  1  0  0  0  0
 37 38  1  6  0  0  0
 39 40  1  0  0  0  0
 41 42  1  0  0  0  0
 41 49  1  1  0  0  0
 43 44  1  0  0  0  0
 43 51  1  1  0  0  0
 45 46  1  0  0  0  0
 47 37  1  0  0  0  0
 47 48  1  1  0  0  0
 49 50  1  0  0  0  0
 51 52  1  0  0  0  0
M  END
>  <CHROM.1>
-166.81500935,113.50645301,-167.79611557,175.92083646,102.14646544,-164.40203791
-173.59236728,80.10120620,-175.31137796,-179.13040854,145.37622199,-150.92986475
20.66030263,-7.28883249,15.83932820,-1.57468297,0.06521487,2.38697381

>  <Name>
2esj_lig

>  <RI>
0

>  <Rbt.Current_Directory>
/home/itssahil/PROJECTS/Mol_Feturizer/New_Systems/rnas/2esj

>  <Rbt.Executable>
rbdock ($Id: //depot/dev/client3/rdock/2013.1/src/exe/rbdock.cxx#4 $)

>  <Rbt.Library>
libRbt.so (2013.1, Build901 2013/11/27)

>  <Rbt.Parameter_File>
/export/apps/rDock/src/rDock_2013.1_src/data/scripts/dock_solv.prm

>  <Rbt.Receptor>
prm/pocket_docking_8.prm

>  <SCORE>
-14.3332

>  <SCORE.INTER>
-9.81065

>  <SCORE.INTER.CONST>
1

>  <SCORE.INTER.POLAR>
-2.80574

>  <SCORE.INTER.ROT>
12

>  <SCORE.INTER.SOLV>
16.1586

>  <SCORE.INTER.VDW>
-14.1742

>  <SCORE.INTER.norm>
-0.188666

>  <SCORE.INTRA>
-4.52259

>  <SCORE.INTRA.DIHEDRAL>
-9.70962

>  <SCORE.INTRA.DIHEDRAL.0>
32.9766

>  <SCORE.INTRA.POLAR>
0

>  <SCORE.INTRA.POLAR.0>
0

>  <SCORE.INTRA.REPUL>
0

>  <SCORE.INTRA.REPUL.0>
0

>  <SCORE.INTRA.SOLV>
-4.0836

>  <SCORE.INTRA.SOLV.lig_0>
-114.358

>  <SCORE.INTRA.VDW>
2.37402

>  <SCORE.INTRA.VDW.0>
-8.24257

>  <SCORE.INTRA.norm>
-0.0869729

>  <SCORE.RESTR>
0

>  <SCORE.RESTR.CAVITY>
0

>  <SCORE.RESTR.norm>
0

>  <SCORE.SYSTEM>
0

>  <SCORE.SYSTEM.CONST>
0

>  <SCORE.SYSTEM.DIHEDRAL>
0

>  <SCORE.SYSTEM.SOLV>
0

>  <SCORE.SYSTEM.norm>
0

>  <SCORE.heavy>
52

>  <SCORE.norm>
-0.275639

>  <RMSD>
10.579

$$$$
2esj_lig
 OpenBabel11021811423D
libRbt.so/2013.1/901 2013/11/27
 52 56  0  0  0  0  0  0  0  0999 V2000
   28.6815   -0.7220   16.9972 C   0  0  2  0  0  0  0  0  0  0  0  0
   27.7687   -1.8345   17.0603 O   0  0  0  0  0  0  0  0  0  0  0  0
   27.9349   -5.8582   18.4992 C   0  0  2  0  0  0  0  0  0  0  0  0
   28.1238   -7.0707   19.3126 N   0  0  0  0  0  0  0  0  0  0  0  0
   24.2893   -2.7585   18.2918 C   0  0  1  0  0  0  0  0  0  0  0  0
   20.7425   -2.7200   16.0615 C   0  0  1  0  0  0  0  0  0  0  0  0
   16.9413   -5.3835   18.5551 C   0  0  1  0  0  0  0  0  0  0  0  0
   28.0656    0.4376   17.8344 C   0  0  2  0  0  0  0  0  0  0  0  0
   27.7873    0.0373   19.2134 N   0  0  0  0  0  0  0  0  0  0  0  0
   29.2858   -5.0432   18.4067 C   0  0  0  0  0  0  0  0  0  0  0  0
   24.3011   -2.1738   16.8788 C   0  0  2  0  0  0  0  0  0  0  0  0
   24.1621   -0.7364   16.8766 O   0  0  0  0  0  0  0  0  0  0  0  0
   19.5835   -2.0117   16.8959 C   0  0  2  0  0  0  0  0  0  0  0  0
   19.7359   -2.2741   18.3515 N   0  0  0  0  0  0  0  0  0  0  0  0
   17.4771   -5.1507   19.9630 C   0  0  1  0  0  0  0  0  0  0  0  0
   16.4476   -5.4702   20.9204 O   0  0  0  0  0  0  0  0  0  0  0  0
   26.7613    0.9763   17.1653 C   0  0  0  0  0  0  0  0  0  0  0  0
   29.0789   -3.7772   17.4815 C   0  0  2  0  0  0  0  0  0  0  0  0
   30.3161   -2.9950   17.3898 N   0  0  0  0  0  0  0  0  0  0  0  0
   23.1407   -2.9062   16.2695 C   0  0  2  0  0  0  0  0  0  0  0  0
   21.9252   -2.3567   16.7111 O   0  0  0  0  0  0  0  0  0  0  0  0
   18.1752   -2.4283   16.2810 C   0  0  1  0  0  0  0  0  0  0  0  0
   18.1943   -2.1806   14.8714 O   0  0  0  0  0  0  0  0  0  0  0  0
   18.7222   -5.9508   20.3263 C   0  0  1  0  0  0  0  0  0  0  0  0
   18.9343   -5.7884   21.7331 O   0  0  0  0  0  0  0  0  0  0  0  0
   27.0782    1.3734   15.6930 C   0  0  2  0  0  0  0  0  0  0  0  0
   25.9539    1.9440   15.0477 O   0  0  0  0  0  0  0  0  0  0  0  0
   27.9218   -2.8965   18.0205 C   0  0  2  0  0  0  0  0  0  0  0  0
   23.1595   -4.3184   16.8901 C   0  0  2  0  0  0  0  0  0  0  0  0
   23.7252   -4.0714   18.1676 O   0  0  0  0  0  0  0  0  0  0  0  0
   17.9101   -3.9816   16.4428 C   0  0  2  0  0  0  0  0  0  0  0  0
   17.8635   -4.1853   17.8558 O   0  0  0  0  0  0  0  0  0  0  0  0
   18.6147   -7.4411   19.9986 C   0  0  2  0  0  0  0  0  0  0  0  0
   19.9404   -7.9865   20.0985 O   0  0  0  0  0  0  0  0  0  0  0  0
   27.5862    0.1147   14.9469 C   0  0  2  0  0  0  0  0  0  0  0  0
   28.8063   -0.3200   15.6127 O   0  0  0  0  0  0  0  0  0  0  0  0
   26.5835   -3.6693   18.2502 C   0  0  2  0  0  0  0  0  0  0  0  0
   25.5951   -2.7697   18.8248 O   0  0  0  0  0  0  0  0  0  0  0  0
   23.9945   -5.3712   16.1621 C   0  0  0  0  0  0  0  0  0  0  0  0
   23.4535   -5.5139   14.8405 O   0  0  0  0  0  0  0  0  0  0  0  0
   19.1800   -4.6653   15.9739 C   0  0  1  0  0  0  0  0  0  0  0  0
   20.5531   -4.2257   16.0518 O   0  0  0  0  0  0  0  0  0  0  0  0
   17.9425   -7.6700   18.6495 C   0  0  2  0  0  0  0  0  0  0  0  0
   16.9320   -6.7761   18.1578 O   0  0  0  0  0  0  0  0  0  0  0  0
   27.9677    0.3881   13.5320 C   0  0  0  0  0  0  0  0  0  0  0  0
   28.2387   -0.8503   12.9212 O   0  0  0  0  0  0  0  0  0  0  0  0
   26.8203   -4.9458   19.1258 C   0  0  1  0  0  0  0  0  0  0  0  0
   25.5803   -5.7019   19.1273 O   0  0  0  0  0  0  0  0  0  0  0  0
   19.1531   -6.2242   15.9304 C   0  0  0  0  0  0  0  0  0  0  0  0
   18.8509   -6.7684   14.5898 N   0  0  0  0  0  0  0  0  0  0  0  0
   17.6919   -9.0599   18.0688 C   0  0  0  0  0  0  0  0  0  0  0  0
   17.0184   -9.8928   19.0493 O   0  0  0  0  0  0  0  0  0  0  0  0
  1  2  1  6  0  0  0
  1  8  1  0  0  0  0
  1 36  1  0  0  0  0
  3  4  1  1  0  0  0
  3 10  1  0  0  0  0
  3 47  1  0  0  0  0
  5 11  1  0  0  0  0
  5 30  1  0  0  0  0
  5 38  1  6  0  0  0
  6 21  1  1  0  0  0
  6 42  1  0  0  0  0
  7 15  1  0  0  0  0
  7 44  1  0  0  0  0
  7 32  1  6  0  0  0
  8  9  1  1  0  0  0
  8 17  1  0  0  0  0
 11 12  1  1  0  0  0
 11 20  1  0  0  0  0
 13  6  1  0  0  0  0
 13 14  1  1  0  0  0
 15 16  1  1  0  0  0
 15 24  1  0  0  0  0
 17 26  1  0  0  0  0
 18 10  1  0  0  0  0
 18 19  1  1  0  0  0
 20 21  1  1  0  0  0
 20 29  1  0  0  0  0
 22 13  1  0  0  0  0
 22 23  1  6  0  0  0
 24 25  1  1  0  0  0
 24 33  1  0  0  0  0
 26 27  1  6  0  0  0
 26 35  1  0  0  0  0
 28  2  1  6  0  0  0
 28 18  1  0  0  0  0
 29 30  1  0  0  0  0
 29 39  1  6  0  0  0
 31 22  1  0  0  0  0
 31 32  1  1  0  0  0
 31 41  1  0  0  0  0
 33 34  1  6  0  0  0
 33 43  1  0  0  0  0
 35 36  1  0  0  0  0
 35 45  1  6  0  0  0
 37 28  1  0  0  0  0
 37 38  1  1  0  0  0
 39 40  1  0  0  0  0
 41 42  1  0  0  0  0
 41 49  1  1  0  0  0
 43 44  1  0  0  0  0
 43 51  1  1  0  0  0
 45 46  1  0  0  0  0
 47 37  1  0  0  0  0
 47 48  1  6  0  0  0
 49 50  1  0  0  0  0
 51 52  1  0  0  0  0
M  END
>  <CHROM.1>
-95.17480841,-68.48771193,175.46452250,173.43304527,167.47442940,-76.46595203
-60.66439933,150.02032721,-172.38909699,133.88797044,96.89641295,51.24320687
23.05287049,-3.69855487,17.42610268,-0.46547073,0.11318286,2.56860363

>  <Name>
2esj_lig

>  <RI>
0

>  <Rbt.Current_Directory>
/home/itssahil/PROJECTS/Mol_Feturizer/New_Systems/rnas/2esj

>  <Rbt.Executable>
rbdock ($Id: //depot/dev/client3/rdock/2013.1/src/exe/rbdock.cxx#4 $)

>  <Rbt.Library>
libRbt.so (2013.1, Build901 2013/11/27)

>  <Rbt.Parameter_File>
/export/apps/rDock/src/rDock_2013.1_src/data/scripts/dock_solv.prm

>  <Rbt.Receptor>
prm/pocket_docking_4.prm

>  <SCORE>
-12.7509

>  <SCORE.INTER>
-7.98719

>  <SCORE.INTER.CONST>
1

>  <SCORE.INTER.POLAR>
-1.68882

>  <SCORE.INTER.ROT>
12

>  <SCORE.INTER.SOLV>
13.4605

>  <SCORE.INTER.VDW>
-15.7822

>  <SCORE.INTER.norm>
-0.1536

>  <SCORE.INTRA>
-4.76374

>  <SCORE.INTRA.DIHEDRAL>
-10.8939

>  <SCORE.INTRA.DIHEDRAL.0>
32.9766

>  <SCORE.INTRA.POLAR>
0

>  <SCORE.INTRA.POLAR.0>
0

>  <SCORE.INTRA.REPUL>
0

>  <SCORE.INTRA.REPUL.0>
0

>  <SCORE.INTRA.SOLV>
-0.0559073

>  <SCORE.INTRA.SOLV.lig_0>
-114.358

>  <SCORE.INTRA.VDW>
0.711169

>  <SCORE.INTRA.VDW.0>
-8.24257

>  <SCORE.INTRA.norm>
-0.0916104

>  <SCORE.RESTR>
0

>  <SCORE.RESTR.CAVITY>
0

>  <SCORE.RESTR.norm>
0

>  <SCORE.SYSTEM>
0

>  <SCORE.SYSTEM.CONST>
0

>  <SCORE.SYSTEM.DIHEDRAL>
0

>  <SCORE.SYSTEM.SOLV>
0

>  <SCORE.SYSTEM.norm>
0

>  <SCORE.heavy>
52

>  <SCORE.norm>
-0.24521

>  <RMSD>
10.584

$$$$
2esj_lig
 OpenBabel11021811423D
libRbt.so/2013.1/901 2013/11/27
 52 56  0  0  0  0  0  0  0  0999 V2000
   27.8659   -3.1546   16.9764 C   0  0  2  0  0  0  0  0  0  0  0  0
   28.8837   -3.5426   16.0339 O   0  0  0  0  0  0  0  0  0  0  0  0
   28.0054   -1.4111   12.4320 C   0  0  2  0  0  0  0  0  0  0  0  0
   27.8600   -0.9889   11.0292 N   0  0  0  0  0  0  0  0  0  0  0  0
   25.1408   -4.1969   14.9386 C   0  0  1  0  0  0  0  0  0  0  0  0
   21.1850   -3.0294   15.8848 C   0  0  1  0  0  0  0  0  0  0  0  0
   18.6100   -5.8138   19.0040 C   0  0  1  0  0  0  0  0  0  0  0  0
   28.5592   -2.9452   18.3550 C   0  0  2  0  0  0  0  0  0  0  0  0
   29.6421   -1.9645   18.2865 N   0  0  0  0  0  0  0  0  0  0  0  0
   29.5169   -1.7445   12.7512 C   0  0  0  0  0  0  0  0  0  0  0  0
   24.6970   -2.7353   14.8653 C   0  0  2  0  0  0  0  0  0  0  0  0
   25.0032   -2.0057   16.0732 O   0  0  0  0  0  0  0  0  0  0  0  0
   20.8318   -3.3019   17.4153 C   0  0  2  0  0  0  0  0  0  0  0  0
   21.3879   -4.6043   17.8684 N   0  0  0  0  0  0  0  0  0  0  0  0
   18.9174   -7.2998   18.8595 C   0  0  1  0  0  0  0  0  0  0  0  0
   19.5031   -7.7836   20.0848 O   0  0  0  0  0  0  0  0  0  0  0  0
   29.1031   -4.2973   18.9164 C   0  0  0  0  0  0  0  0  0  0  0  0
   29.6624   -2.1383   14.2760 C   0  0  2  0  0  0  0  0  0  0  0  0
   31.0557   -2.4661   14.5956 N   0  0  0  0  0  0  0  0  0  0  0  0
   23.2285   -2.9077   14.6047 C   0  0  2  0  0  0  0  0  0  0  0  0
   22.5581   -3.2687   15.7857 O   0  0  0  0  0  0  0  0  0  0  0  0
   19.2623   -3.1322   17.6218 C   0  0  1  0  0  0  0  0  0  0  0  0
   18.8591   -1.8678   17.0856 O   0  0  0  0  0  0  0  0  0  0  0  0
   17.7203   -8.1832   18.5293 C   0  0  1  0  0  0  0  0  0  0  0  0
   18.1468   -9.5431   18.6672 O   0  0  0  0  0  0  0  0  0  0  0  0
   27.9381   -5.3300   18.9575 C   0  0  2  0  0  0  0  0  0  0  0  0
   28.3445   -6.5600   19.5303 O   0  0  0  0  0  0  0  0  0  0  0  0
   28.7345   -3.3332   14.6172 C   0  0  2  0  0  0  0  0  0  0  0  0
   23.1021   -4.1558   13.7071 C   0  0  2  0  0  0  0  0  0  0  0  0
   24.2203   -4.9274   14.1161 O   0  0  0  0  0  0  0  0  0  0  0  0
   18.4506   -4.2238   16.8102 C   0  0  2  0  0  0  0  0  0  0  0  0
   18.8508   -5.4651   17.3928 O   0  0  0  0  0  0  0  0  0  0  0  0
   16.5071   -7.9388   19.4285 C   0  0  2  0  0  0  0  0  0  0  0  0
   15.3900   -8.5970   18.8092 O   0  0  0  0  0  0  0  0  0  0  0  0
   27.4044   -5.5209   17.5160 C   0  0  2  0  0  0  0  0  0  0  0  0
   26.9020   -4.2302   17.0662 O   0  0  0  0  0  0  0  0  0  0  0  0
   27.2400   -3.1171   14.2162 C   0  0  2  0  0  0  0  0  0  0  0  0
   26.4787   -4.3214   14.5101 O   0  0  0  0  0  0  0  0  0  0  0  0
   23.1747   -3.9201   12.1988 C   0  0  0  0  0  0  0  0  0  0  0  0
   23.1007   -5.2016   11.5569 O   0  0  0  0  0  0  0  0  0  0  0  0
   19.0416   -4.2197   15.4134 C   0  0  1  0  0  0  0  0  0  0  0  0
   20.3924   -3.9534   14.9787 O   0  0  0  0  0  0  0  0  0  0  0  0
   16.2938   -6.4517   19.6881 C   0  0  2  0  0  0  0  0  0  0  0  0
   17.4004   -5.5387   19.7512 O   0  0  0  0  0  0  0  0  0  0  0  0
   26.2481   -6.4588   17.4403 C   0  0  0  0  0  0  0  0  0  0  0  0
   25.9780   -6.6864   16.0781 O   0  0  0  0  0  0  0  0  0  0  0  0
   27.1229   -2.6789   12.7174 C   0  0  1  0  0  0  0  0  0  0  0  0
   25.7369   -2.3134   12.4836 O   0  0  0  0  0  0  0  0  0  0  0  0
   18.3488   -5.1429   14.3644 C   0  0  0  0  0  0  0  0  0  0  0  0
   16.8729   -5.1100   14.4381 N   0  0  0  0  0  0  0  0  0  0  0  0
   15.1630   -5.9121   20.5609 C   0  0  0  0  0  0  0  0  0  0  0  0
   15.7130   -5.2194   21.7125 O   0  0  0  0  0  0  0  0  0  0  0  0
  1  2  1  6  0  0  0
  1  8  1  0  0  0  0
  1 36  1  0  0  0  0
  3  4  1  6  0  0  0
  3 10  1  0  0  0  0
  3 47  1  0  0  0  0
  5 11  1  0  0  0  0
  5 30  1  0  0  0  0
  5 38  1  6  0  0  0
  6 21  1  1  0  0  0
  6 42  1  0  0  0  0
  7 15  1  0  0  0  0
  7 44  1  0  0  0  0
  7 32  1  6  0  0  0
  8  9  1  6  0  0  0
  8 17  1  0  0  0  0
 11 12  1  1  0  0  0
 11 20  1  0  0  0  0
 13  6  1  0  0  0  0
 13 14  1  6  0  0  0
 15 16  1  1  0  0  0
 15 24  1  0  0  0  0
 17 26  1  0  0  0  0
 18 10  1  0  0  0  0
 18 19  1  6  0  0  0
 20 21  1  1  0  0  0
 20 29  1  0  0  0  0
 22 13  1  0  0  0  0
 22 23  1  6  0  0  0
 24 25  1  1  0  0  0
 24 33  1  0  0  0  0
 26 27  1  6  0  0  0
 26 35  1  0  0  0  0
 28  2  1  1  0  0  0
 28 18  1  0  0  0  0
 29 30  1  0  0  0  0
 29 39  1  6  0  0  0
 31 22  1  0  0  0  0
 31 32  1  1  0  0  0
 31 41  1  0  0  0  0
 33 34  1  6  0  0  0
 33 43  1  0  0  0  0
 35 36  1  0  0  0  0
 35 45  1  1  0  0  0
 37 28  1  0  0  0  0
 37 38  1  6  0  0  0
 39 40  1  0  0  0  0
 41 42  1  0  0  0  0
 41 49  1  1  0  0  0
 43 44  1  0  0  0  0
 43 51  1  1  0  0  0
 45 46  1  0  0  0  0
 47 37  1  0  0  0  0
 47 48  1  1  0  0  0
 49 50  1  0  0  0  0
 51 52  1  0  0  0  0
M  END
>  <CHROM.1>
-155.94935091,6.07429999,-169.81245810,167.17342272,157.95442609,105.45713647
177.34763764,59.99292085,-172.13647489,145.52965219,41.95240933,117.28645046
23.13442112,-4.47591229,16.38394696,-0.40675109,0.11530665,2.02328303

>  <Name>
2esj_lig

>  <RI>
1.01272e+07

>  <Rbt.Current_Directory>
/home/itssahil/PROJECTS/Mol_Feturizer/New_Systems/rnas/2esj

>  <Rbt.Executable>
rbdock ($Id: //depot/dev/client3/rdock/2013.1/src/exe/rbdock.cxx#4 $)

>  <Rbt.Library>
libRbt.so (2013.1, Build901 2013/11/27)

>  <Rbt.Parameter_File>
/export/apps/rDock/src/rDock_2013.1_src/data/scripts/dock_solv.prm

>  <Rbt.Receptor>
prm/pocket_docking_3.prm

>  <SCORE>
-2.06651

>  <SCORE.INTER>
-6.68092

>  <SCORE.INTER.CONST>
1

>  <SCORE.INTER.POLAR>
-0.979796

>  <SCORE.INTER.ROT>
12

>  <SCORE.INTER.SOLV>
11.276

>  <SCORE.INTER.VDW>
-16.5466

>  <SCORE.INTER.norm>
-0.128479

>  <SCORE.INTRA>
3.42905

>  <SCORE.INTRA.DIHEDRAL>
-2.74382

>  <SCORE.INTRA.DIHEDRAL.0>
32.9766

>  <SCORE.INTRA.POLAR>
0

>  <SCORE.INTRA.POLAR.0>
0

>  <SCORE.INTRA.REPUL>
0

>  <SCORE.INTRA.REPUL.0>
0

>  <SCORE.INTRA.SOLV>
-0.737149

>  <SCORE.INTRA.SOLV.lig_0>
-114.358

>  <SCORE.INTRA.VDW>
5.16953

>  <SCORE.INTRA.VDW.0>
-8.24257

>  <SCORE.INTRA.norm>
0.0659432

>  <SCORE.RESTR>
1.18537

>  <SCORE.RESTR.CAVITY>
1.18537

>  <SCORE.RESTR.norm>
0.0227955

>  <SCORE.SYSTEM>
0

>  <SCORE.SYSTEM.CONST>
0

>  <SCORE.SYSTEM.DIHEDRAL>
0

>  <SCORE.SYSTEM.SOLV>
0

>  <SCORE.SYSTEM.norm>
0

>  <SCORE.heavy>
52

>  <SCORE.norm>
-0.0397406

>  <RMSD>
10.600

$$$$
2esj_lig
 OpenBabel11021811423D
libRbt.so/2013.1/901 2013/11/27
 52 56  0  0  0  0  0  0  0  0999 V2000
   28.1408   -2.5316   13.0837 C   0  0  2  0  0  0  0  0  0  0  0  0
   27.6086   -1.3577   13.7270 O   0  0  0  0  0  0  0  0  0  0  0  0
   26.2609   -0.4394   17.6803 C   0  0  2  0  0  0  0  0  0  0  0  0
   25.4936   -0.3339   18.9323 N   0  0  0  0  0  0  0  0  0  0  0  0
   26.9049   -4.3616   15.5331 C   0  0  1  0  0  0  0  0  0  0  0  0
   24.2648   -7.5064   15.0483 C   0  0  1  0  0  0  0  0  0  0  0  0
   19.8124   -6.3143   12.9180 C   0  0  1  0  0  0  0  0  0  0  0  0
   28.9356   -2.0596   11.8306 C   0  0  2  0  0  0  0  0  0  0  0  0
   29.9857   -1.0999   12.1705 N   0  0  0  0  0  0  0  0  0  0  0  0
   25.3937    0.0680   16.4605 C   0  0  0  0  0  0  0  0  0  0  0  0
   27.5113   -5.7546   15.3589 C   0  0  2  0  0  0  0  0  0  0  0  0
   27.9277   -6.0078   13.9996 O   0  0  0  0  0  0  0  0  0  0  0  0
   23.4864   -7.5168   13.6572 C   0  0  2  0  0  0  0  0  0  0  0  0
   23.2984   -6.1357   13.1395 N   0  0  0  0  0  0  0  0  0  0  0  0
   20.5303   -5.1155   12.3089 C   0  0  1  0  0  0  0  0  0  0  0  0
   20.4159   -5.1744   10.8729 O   0  0  0  0  0  0  0  0  0  0  0  0
   27.9776   -1.4412   10.7634 C   0  0  0  0  0  0  0  0  0  0  0  0
   26.2540    0.0029   15.1348 C   0  0  2  0  0  0  0  0  0  0  0  0
   25.4667    0.4564   13.9836 N   0  0  0  0  0  0  0  0  0  0  0  0
   26.3688   -6.6108   15.8233 C   0  0  2  0  0  0  0  0  0  0  0  0
   25.3780   -6.6905   14.8300 O   0  0  0  0  0  0  0  0  0  0  0  0
   22.1472   -8.3623   13.8204 C   0  0  1  0  0  0  0  0  0  0  0  0
   22.4709   -9.6375   14.3842 O   0  0  0  0  0  0  0  0  0  0  0  0
   20.0244   -3.7525   12.7657 C   0  0  1  0  0  0  0  0  0  0  0  0
   20.6402   -2.7693   11.9266 O   0  0  0  0  0  0  0  0  0  0  0  0
   26.8568   -2.4719   10.4361 C   0  0  2  0  0  0  0  0  0  0  0  0
   25.9935   -2.0047    9.4150 O   0  0  0  0  0  0  0  0  0  0  0  0
   26.7755   -1.4384   14.8985 C   0  0  2  0  0  0  0  0  0  0  0  0
   25.6902   -5.8270   16.9655 C   0  0  2  0  0  0  0  0  0  0  0  0
   25.9447   -4.4822   16.5918 O   0  0  0  0  0  0  0  0  0  0  0  0
   21.1520   -7.6774   14.8450 C   0  0  2  0  0  0  0  0  0  0  0  0
   20.8251   -6.4274   14.2359 O   0  0  0  0  0  0  0  0  0  0  0  0
   18.5039   -3.6025   12.6907 C   0  0  2  0  0  0  0  0  0  0  0  0
   18.1648   -2.4189   13.4316 O   0  0  0  0  0  0  0  0  0  0  0  0
   26.0819   -2.7806   11.7412 C   0  0  2  0  0  0  0  0  0  0  0  0
   27.0298   -3.3659   12.6791 O   0  0  0  0  0  0  0  0  0  0  0  0
   27.5419   -2.0487   16.1155 C   0  0  2  0  0  0  0  0  0  0  0  0
   27.9178   -3.4215   15.8146 O   0  0  0  0  0  0  0  0  0  0  0  0
   26.2307   -6.0714   18.3740 C   0  0  0  0  0  0  0  0  0  0  0  0
   25.4450   -5.2844   19.2812 O   0  0  0  0  0  0  0  0  0  0  0  0
   21.9895   -7.3317   16.0612 C   0  0  1  0  0  0  0  0  0  0  0  0
   23.3810   -6.9576   16.1533 O   0  0  0  0  0  0  0  0  0  0  0  0
   17.7932   -4.8649   13.1656 C   0  0  2  0  0  0  0  0  0  0  0  0
   18.3731   -6.1646   12.9750 O   0  0  0  0  0  0  0  0  0  0  0  0
   25.0081   -3.7981   11.5566 C   0  0  0  0  0  0  0  0  0  0  0  0
   24.0408   -3.2401   10.7004 O   0  0  0  0  0  0  0  0  0  0  0  0
   26.6933   -1.9279   17.4260 C   0  0  1  0  0  0  0  0  0  0  0  0
   27.5462   -2.3343   18.5291 O   0  0  0  0  0  0  0  0  0  0  0  0
   21.2259   -6.7309   17.2814 C   0  0  0  0  0  0  0  0  0  0  0  0
   20.2620   -5.6745   16.9077 N   0  0  0  0  0  0  0  0  0  0  0  0
   16.2729   -5.0056   13.1909 C   0  0  0  0  0  0  0  0  0  0  0  0
   15.7711   -5.2055   11.8429 O   0  0  0  0  0  0  0  0  0  0  0  0
  1  2  1  6  0  0  0
  1  8  1  0  0  0  0
  1 36  1  0  0  0  0
  3  4  1  1  0  0  0
  3 10  1  0  0  0  0
  3 47  1  0  0  0  0
  5 11  1  0  0  0  0
  5 30  1  0  0  0  0
  5 38  1  1  0  0  0
  6 21  1  6  0  0  0
  6 42  1  0  0  0  0
  7 15  1  0  0  0  0
  7 44  1  0  0  0  0
  7 32  1  1  0  0  0
  8  9  1  1  0  0  0
  8 17  1  0  0  0  0
 11 12  1  6  0  0  0
 11 20  1  0  0  0  0
 13  6  1  0  0  0  0
 13 14  1  1  0  0  0
 15 16  1  6  0  0  0
 15 24  1  0  0  0  0
 17 26  1  0  0  0  0
 18 10  1  0  0  0  0
 18 19  1  6  0  0  0
 20 21  1  6  0  0  0
 20 29  1  0  0  0  0
 22 13  1  0  0  0  0
 22 23  1  1  0  0  0
 24 25  1  6  0  0  0
 24 33  1  0  0  0  0
 26 27  1  6  0  0  0
 26 35  1  0  0  0  0
 28  2  1  6  0  0  0
 28 18  1  0  0  0  0
 29 30  1  0  0  0  0
 29 39  1  1  0  0  0
 31 22  1  0  0  0  0
 31 32  1  6  0  0  0
 31 41  1  0  0  0  0
 33 34  1  1  0  0  0
 33 43  1  0  0  0  0
 35 36  1  0  0  0  0
 35 45  1  6  0  0  0
 37 28  1  0  0  0  0
 37 38  1  6  0  0  0
 39 40  1  0  0  0  0
 41 42  1  0  0  0  0
 41 49  1  6  0  0  0
 43 44  1  0  0  0  0
 43 51  1  6  0  0  0
 45 46  1  0  0  0  0
 47 37  1  0  0  0  0
 47 48  1  1  0  0  0
 49 50  1  0  0  0  0
 51 52  1  0  0  0  0
M  END
>  <CHROM.1>
177.71957892,-175.42404760,-171.94668348,-147.07160511,176.48765722,-171.74722427
-178.36072011,73.49299381,-65.39867122,-60.22060264,-45.48600819,75.26633987
24.03113698,-4.22617277,14.28069122,0.08712723,-0.41574205,-0.95018236

>  <Name>
2esj_lig

>  <RI>
0

>  <Rbt.Current_Directory>
/home/itssahil/PROJECTS/Mol_Feturizer/New_Systems/rnas/2esj

>  <Rbt.Executable>
rbdock ($Id: //depot/dev/client3/rdock/2013.1/src/exe/rbdock.cxx#4 $)

>  <Rbt.Library>
libRbt.so (2013.1, Build901 2013/11/27)

>  <Rbt.Parameter_File>
/export/apps/rDock/src/rDock_2013.1_src/data/scripts/dock_solv.prm

>  <Rbt.Receptor>
prm/pocket_docking_4.prm

>  <SCORE>
-11.5217

>  <SCORE.INTER>
-3.3473

>  <SCORE.INTER.CONST>
1

>  <SCORE.INTER.POLAR>
-0.824621

>  <SCORE.INTER.ROT>
12

>  <SCORE.INTER.SOLV>
6.99539

>  <SCORE.INTER.VDW>
-13.4146

>  <SCORE.INTER.norm>
-0.0643711

>  <SCORE.INTRA>
-8.4182

>  <SCORE.INTRA.DIHEDRAL>
-21.7746

>  <SCORE.INTRA.DIHEDRAL.0>
32.9766

>  <SCORE.INTRA.POLAR>
0

>  <SCORE.INTRA.POLAR.0>
0

>  <SCORE.INTRA.REPUL>
0.126403

>  <SCORE.INTRA.REPUL.0>
0

>  <SCORE.INTRA.SOLV>
0.357179

>  <SCORE.INTRA.SOLV.lig_0>
-114.358

>  <SCORE.INTRA.VDW>
1.6585

>  <SCORE.INTRA.VDW.0>
-8.24257

>  <SCORE.INTRA.norm>
-0.161889

>  <SCORE.RESTR>
0.243825

>  <SCORE.RESTR.CAVITY>
0.243825

>  <SCORE.RESTR.norm>
0.00468894

>  <SCORE.SYSTEM>
0

>  <SCORE.SYSTEM.CONST>
0

>  <SCORE.SYSTEM.DIHEDRAL>
0

>  <SCORE.SYSTEM.SOLV>
0

>  <SCORE.SYSTEM.norm>
0

>  <SCORE.heavy>
52

>  <SCORE.norm>
-0.221571

>  <RMSD>
10.606

$$$$
2esj_lig
 OpenBabel11021811423D
libRbt.so/2013.1/901 2013/11/27
 52 56  0  0  0  0  0  0  0  0999 V2000
   27.1097    1.7306   17.9505 C   0  0  2  0  0  0  0  0  0  0  0  0
   26.2821    1.3999   16.8188 O   0  0  0  0  0  0  0  0  0  0  0  0
   25.6177    3.0371   12.9244 C   0  0  2  0  0  0  0  0  0  0  0  0
   25.7731    3.5832   11.5661 N   0  0  0  0  0  0  0  0  0  0  0  0
   25.5872   -1.4776   14.0037 C   0  0  1  0  0  0  0  0  0  0  0  0
   23.9954   -5.1716   12.6216 C   0  0  1  0  0  0  0  0  0  0  0  0
   18.8660   -5.9812   13.2347 C   0  0  1  0  0  0  0  0  0  0  0  0
   28.3117    0.7405   17.9572 C   0  0  2  0  0  0  0  0  0  0  0  0
   29.0632    0.7741   16.7029 N   0  0  0  0  0  0  0  0  0  0  0  0
   26.4563    3.8891   13.9580 C   0  0  0  0  0  0  0  0  0  0  0  0
   26.4240   -2.7459   13.8315 C   0  0  2  0  0  0  0  0  0  0  0  0
   27.0682   -2.8095   12.5406 O   0  0  0  0  0  0  0  0  0  0  0  0
   22.9505   -4.8827   11.4527 C   0  0  2  0  0  0  0  0  0  0  0  0
   22.0733   -3.7312   11.7925 N   0  0  0  0  0  0  0  0  0  0  0  0
   18.4167   -4.5259   13.1727 C   0  0  1  0  0  0  0  0  0  0  0  0
   16.9824   -4.4786   13.0356 O   0  0  0  0  0  0  0  0  0  0  0  0
   27.8317   -0.7168   18.2488 C   0  0  0  0  0  0  0  0  0  0  0  0
   26.2300    3.3243   15.4179 C   0  0  2  0  0  0  0  0  0  0  0  0
   27.0092    4.0902   16.3962 N   0  0  0  0  0  0  0  0  0  0  0  0
   25.3751   -3.7978   14.0494 C   0  0  2  0  0  0  0  0  0  0  0  0
   24.5643   -3.9281   12.9091 O   0  0  0  0  0  0  0  0  0  0  0  0
   22.1828   -6.2323   11.1004 C   0  0  1  0  0  0  0  0  0  0  0  0
   23.1461   -7.2633   10.8596 O   0  0  0  0  0  0  0  0  0  0  0  0
   18.8029   -3.6735   14.3754 C   0  0  1  0  0  0  0  0  0  0  0  0
   18.1050   -2.4292   14.2540 O   0  0  0  0  0  0  0  0  0  0  0  0
   27.0155   -0.7217   19.5752 C   0  0  2  0  0  0  0  0  0  0  0  0
   26.6134   -2.0295   19.9413 O   0  0  0  0  0  0  0  0  0  0  0  0
   26.6098    1.8220   15.4818 C   0  0  2  0  0  0  0  0  0  0  0  0
   24.4229   -3.2294   15.1217 C   0  0  2  0  0  0  0  0  0  0  0  0
   24.5142   -1.8332   14.8866 O   0  0  0  0  0  0  0  0  0  0  0  0
   21.3078   -6.7357   12.3211 C   0  0  2  0  0  0  0  0  0  0  0  0
   20.3400   -5.7022   12.5102 O   0  0  0  0  0  0  0  0  0  0  0  0
   18.4627   -4.3162   15.7213 C   0  0  2  0  0  0  0  0  0  0  0  0
   19.1545   -3.5621   16.7300 O   0  0  0  0  0  0  0  0  0  0  0  0
   25.7992    0.2218   19.4030 C   0  0  2  0  0  0  0  0  0  0  0  0
   26.3205    1.5581   19.1510 O   0  0  0  0  0  0  0  0  0  0  0  0
   25.9044    0.9377   14.4042 C   0  0  2  0  0  0  0  0  0  0  0  0
   26.3878   -0.4307   14.5058 O   0  0  0  0  0  0  0  0  0  0  0  0
   24.7844   -3.5220   16.5775 C   0  0  0  0  0  0  0  0  0  0  0  0
   23.8022   -2.8806   17.4042 O   0  0  0  0  0  0  0  0  0  0  0  0
   22.2176   -6.6690   13.5328 C   0  0  1  0  0  0  0  0  0  0  0  0
   23.2953   -5.7568   13.8342 O   0  0  0  0  0  0  0  0  0  0  0  0
   18.7801   -5.8075   15.7250 C   0  0  2  0  0  0  0  0  0  0  0  0
   18.6703   -6.5970   14.5307 O   0  0  0  0  0  0  0  0  0  0  0  0
   24.9668    0.3331   20.6347 C   0  0  0  0  0  0  0  0  0  0  0  0
   23.8781    1.1723   20.3337 O   0  0  0  0  0  0  0  0  0  0  0  0
   26.0985    1.5425   12.9728 C   0  0  1  0  0  0  0  0  0  0  0  0
   25.2587    0.7792   12.0664 O   0  0  0  0  0  0  0  0  0  0  0  0
   21.6311   -7.2140   14.8714 C   0  0  0  0  0  0  0  0  0  0  0  0
   22.3510   -8.3968   15.3886 N   0  0  0  0  0  0  0  0  0  0  0  0
   18.5332   -6.7087   16.9327 C   0  0  0  0  0  0  0  0  0  0  0  0
   17.1448   -6.6125   17.3474 O   0  0  0  0  0  0  0  0  0  0  0  0
  1  2  1  6  0  0  0
  1  8  1  0  0  0  0
  1 36  1  0  0  0  0
  3  4  1  6  0  0  0
  3 10  1  0  0  0  0
  3 47  1  0  0  0  0
  5 11  1  0  0  0  0
  5 30  1  0  0  0  0
  5 38  1  1  0  0  0
  6 21  1  1  0  0  0
  6 42  1  0  0  0  0
  7 15  1  0  0  0  0
  7 44  1  0  0  0  0
  7 32  1  1  0  0  0
  8  9  1  6  0  0  0
  8 17  1  0  0  0  0
 11 12  1  6  0  0  0
 11 20  1  0  0  0  0
 13  6  1  0  0  0  0
 13 14  1  1  0  0  0
 15 16  1  1  0  0  0
 15 24  1  0  0  0  0
 17 26  1  0  0  0  0
 18 10  1  0  0  0  0
 18 19  1  1  0  0  0
 20 21  1  6  0  0  0
 20 29  1  0  0  0  0
 22 13  1  0  0  0  0
 22 23  1  1  0  0  0
 24 25  1  6  0  0  0
 24 33  1  0  0  0  0
 26 27  1  6  0  0  0
 26 35  1  0  0  0  0
 28  2  1  1  0  0  0
 28 18  1  0  0  0  0
 29 30  1  0  0  0  0
 29 39  1  1  0  0  0
 31 22  1  0  0  0  0
 31 32  1  1  0  0  0
 31 41  1  0  0  0  0
 33 34  1  1  0  0  0
 33 43  1  0  0  0  0
 35 36  1  0  0  0  0
 35 45  1  1  0  0  0
 37 28  1  0  0  0  0
 37 38  1  6  0  0  0
 39 40  1  0  0  0  0
 41 42  1  0  0  0  0
 41 49  1  1  0  0  0
 43 44  1  0  0  0  0
 43 51  1  1  0  0  0
 45 46  1  0  0  0  0
 47 37  1  0  0  0  0
 47 48  1  6  0  0  0
 49 50  1  0  0  0  0
 51 52  1  0  0  0  0
M  END
>  <CHROM.1>
-79.64265076,163.42110131,169.75841294,177.30704473,149.82403034,-76.48002926
178.46282876,155.57859206,-177.90783774,157.21190706,115.97103037,55.21880240
23.58384750,-2.36570633,15.07982491,0.42649683,0.75616735,1.32130828

>  <Name>
2esj_lig

>  <RI>
0

>  <Rbt.Current_Directory>
/home/itssahil/PROJECTS/Mol_Feturizer/New_Systems/rnas/2esj

>  <Rbt.Executable>
rbdock ($Id: //depot/dev/client3/rdock/2013.1/src/exe/rbdock.cxx#4 $)

>  <Rbt.Library>
libRbt.so (2013.1, Build901 2013/11/27)

>  <Rbt.Parameter_File>
/export/apps/rDock/src/rDock_2013.1_src/data/scripts/dock_solv.prm

>  <Rbt.Receptor>
prm/pocket_docking_8.prm

>  <SCORE>
-12.592

>  <SCORE.INTER>
-6.30308

>  <SCORE.INTER.CONST>
1

>  <SCORE.INTER.POLAR>
-1.2629

>  <SCORE.INTER.ROT>
12

>  <SCORE.INTER.SOLV>
11.0547

>  <SCORE.INTER.VDW>
-15.2773

>  <SCORE.INTER.norm>
-0.121213

>  <SCORE.INTRA>
-6.28889

>  <SCORE.INTRA.DIHEDRAL>
-14.7653

>  <SCORE.INTRA.DIHEDRAL.0>
32.9766

>  <SCORE.INTRA.POLAR>
0

>  <SCORE.INTRA.POLAR.0>
0

>  <SCORE.INTRA.REPUL>
0

>  <SCORE.INTRA.REPUL.0>
0

>  <SCORE.INTRA.SOLV>
-0.804568

>  <SCORE.INTRA.SOLV.lig_0>
-114.358

>  <SCORE.INTRA.VDW>
1.49604

>  <SCORE.INTRA.VDW.0>
-8.24257

>  <SCORE.INTRA.norm>
-0.12094

>  <SCORE.RESTR>
0

>  <SCORE.RESTR.CAVITY>
0

>  <SCORE.RESTR.norm>
0

>  <SCORE.SYSTEM>
0

>  <SCORE.SYSTEM.CONST>
0

>  <SCORE.SYSTEM.DIHEDRAL>
0

>  <SCORE.SYSTEM.SOLV>
0

>  <SCORE.SYSTEM.norm>
0

>  <SCORE.heavy>
52

>  <SCORE.norm>
-0.242153

>  <RMSD>
10.607

$$$$
2esj_lig
 OpenBabel11021811423D
libRbt.so/2013.1/901 2013/11/27
 52 56  0  0  0  0  0  0  0  0999 V2000
   28.9865   -1.9334   15.3469 C   0  0  2  0  0  0  0  0  0  0  0  0
   28.5461   -3.2759   15.0663 O   0  0  0  0  0  0  0  0  0  0  0  0
   26.8280   -6.3622   17.4768 C   0  0  2  0  0  0  0  0  0  0  0  0
   25.9657   -7.1576   18.3663 N   0  0  0  0  0  0  0  0  0  0  0  0
   24.9890   -4.3972   13.9898 C   0  0  1  0  0  0  0  0  0  0  0  0
   21.6481   -2.1766   15.2274 C   0  0  1  0  0  0  0  0  0  0  0  0
   18.5409   -4.3435   18.5190 C   0  0  1  0  0  0  0  0  0  0  0  0
   28.8484   -1.1104   14.0321 C   0  0  2  0  0  0  0  0  0  0  0  0
   27.4854   -1.1383   13.5025 N   0  0  0  0  0  0  0  0  0  0  0  0
   27.2479   -5.0120   18.1825 C   0  0  0  0  0  0  0  0  0  0  0  0
   24.9229   -3.0440   14.6991 C   0  0  2  0  0  0  0  0  0  0  0  0
   24.7922   -3.1787   16.1309 O   0  0  0  0  0  0  0  0  0  0  0  0
   22.1195   -2.2541   16.7482 C   0  0  2  0  0  0  0  0  0  0  0  0
   22.3096   -3.6649   17.1777 N   0  0  0  0  0  0  0  0  0  0  0  0
   19.1113   -4.8993   19.8188 C   0  0  1  0  0  0  0  0  0  0  0  0
   18.0260   -5.2457   20.7024 O   0  0  0  0  0  0  0  0  0  0  0  0
   29.8492   -1.6210   12.9474 C   0  0  0  0  0  0  0  0  0  0  0  0
   28.2206   -4.1994   17.2364 C   0  0  2  0  0  0  0  0  0  0  0  0
   28.6151   -2.9336   17.8632 N   0  0  0  0  0  0  0  0  0  0  0  0
   23.7252   -2.4396   14.0250 C   0  0  2  0  0  0  0  0  0  0  0  0
   22.5403   -2.9982   14.5332 O   0  0  0  0  0  0  0  0  0  0  0  0
   21.1127   -1.4076   17.6453 C   0  0  1  0  0  0  0  0  0  0  0  0
   20.9785   -0.0990   17.0810 O   0  0  0  0  0  0  0  0  0  0  0  0
   20.0037   -6.1251   19.6666 C   0  0  1  0  0  0  0  0  0  0  0  0
   20.2458   -6.6385   20.9811 O   0  0  0  0  0  0  0  0  0  0  0  0
   31.2883   -1.6038   13.5427 C   0  0  2  0  0  0  0  0  0  0  0  0
   32.2594   -1.9834   12.5841 O   0  0  0  0  0  0  0  0  0  0  0  0
   27.5463   -3.9359   15.8649 C   0  0  2  0  0  0  0  0  0  0  0  0
   23.7715   -2.9290   12.5628 C   0  0  2  0  0  0  0  0  0  0  0  0
   24.4112   -4.1886   12.6937 O   0  0  0  0  0  0  0  0  0  0  0  0
   19.6583   -2.0349   17.6316 C   0  0  2  0  0  0  0  0  0  0  0  0
   19.8240   -3.3211   18.2305 O   0  0  0  0  0  0  0  0  0  0  0  0
   19.3952   -7.2264   18.7965 C   0  0  2  0  0  0  0  0  0  0  0  0
   20.4530   -8.1508   18.4941 O   0  0  0  0  0  0  0  0  0  0  0  0
   31.3151   -2.5341   14.7808 C   0  0  2  0  0  0  0  0  0  0  0  0
   30.3748   -1.9903   15.7510 O   0  0  0  0  0  0  0  0  0  0  0  0
   26.9983   -5.2205   15.1645 C   0  0  2  0  0  0  0  0  0  0  0  0
   26.3232   -4.8507   13.9300 O   0  0  0  0  0  0  0  0  0  0  0  0
   24.5572   -2.0625   11.5792 C   0  0  0  0  0  0  0  0  0  0  0  0
   24.4421   -2.6672   10.2828 O   0  0  0  0  0  0  0  0  0  0  0  0
   19.3408   -2.3022   16.1728 C   0  0  1  0  0  0  0  0  0  0  0  0
   20.2176   -2.6626   15.0838 O   0  0  0  0  0  0  0  0  0  0  0  0
   18.6975   -6.6488   17.5701 C   0  0  2  0  0  0  0  0  0  0  0  0
   18.0588   -5.3634   17.6109 O   0  0  0  0  0  0  0  0  0  0  0  0
   32.6396   -2.5590   15.4647 C   0  0  0  0  0  0  0  0  0  0  0  0
   32.5444   -3.4670   16.5355 O   0  0  0  0  0  0  0  0  0  0  0  0
   26.0789   -6.0355   16.1354 C   0  0  1  0  0  0  0  0  0  0  0  0
   25.7743   -7.2961   15.4817 O   0  0  0  0  0  0  0  0  0  0  0  0
   17.9076   -2.8325   15.8607 C   0  0  0  0  0  0  0  0  0  0  0  0
   17.6553   -3.0261   14.4172 N   0  0  0  0  0  0  0  0  0  0  0  0
   17.9912   -7.5140   16.5288 C   0  0  0  0  0  0  0  0  0  0  0  0
   18.3967   -7.1127   15.1934 O   0  0  0  0  0  0  0  0  0  0  0  0
  1  2  1  6  0  0  0
  1  8  1  0  0  0  0
  1 36  1  0  0  0  0
  3  4  1  1  0  0  0
  3 10  1  0  0  0  0
  3 47  1  0  0  0  0
  5 11  1  0  0  0  0
  5 30  1  0  0  0  0
  5 38  1  6  0  0  0
  6 21  1  6  0  0  0
  6 42  1  0  0  0  0
  7 15  1  0  0  0  0
  7 44  1  0  0  0  0
  7 32  1  6  0  0  0
  8  9  1  6  0  0  0
  8 17  1  0  0  0  0
 11 12  1  1  0  0  0
 11 20  1  0  0  0  0
 13  6  1  0  0  0  0
 13 14  1  1  0  0  0
 15 16  1  1  0  0  0
 15 24  1  0  0  0  0
 17 26  1  0  0  0  0
 18 10  1  0  0  0  0
 18 19  1  1  0  0  0
 20 21  1  1  0  0  0
 20 29  1  0  0  0  0
 22 13  1  0  0  0  0
 22 23  1  6  0  0  0
 24 25  1  1  0  0  0
 24 33  1  0  0  0  0
 26 27  1  6  0  0  0
 26 35  1  0  0  0  0
 28  2  1  6  0  0  0
 28 18  1  0  0  0  0
 29 30  1  0  0  0  0
 29 39  1  6  0  0  0
 31 22  1  0  0  0  0
 31 32  1  1  0  0  0
 31 41  1  0  0  0  0
 33 34  1  6  0  0  0
 33 43  1  0  0  0  0
 35 36  1  0  0  0  0
 35 45  1  1  0  0  0
 37 28  1  0  0  0  0
 37 38  1  6  0  0  0
 39 40  1  0  0  0  0
 41 42  1  0  0  0  0
 41 49  1  1  0  0  0
 43 44  1  0  0  0  0
 43 51  1  1  0  0  0
 45 46  1  0  0  0  0
 47 37  1  0  0  0  0
 47 48  1  6  0  0  0
 49 50  1  0  0  0  0
 51 52  1  0  0  0  0
M  END
>  <CHROM.1>
-127.25837315,67.36913130,-89.37469455,-144.45570857,115.53827139,-69.30522023
-178.32760221,176.53623055,-178.06987158,-82.07843992,178.03391249,-132.32208831
24.09381976,-3.84906031,15.96866965,-0.34126444,-0.01663188,2.22622919

>  <Name>
2esj_lig

>  <RI>
0

>  <Rbt.Current_Directory>
/home/itssahil/PROJECTS/Mol_Feturizer/New_Systems/rnas/2esj

>  <Rbt.Executable>
rbdock ($Id: //depot/dev/client3/rdock/2013.1/src/exe/rbdock.cxx#4 $)

>  <Rbt.Library>
libRbt.so (2013.1, Build901 2013/11/27)

>  <Rbt.Parameter_File>
/export/apps/rDock/src/rDock_2013.1_src/data/scripts/dock_solv.prm

>  <Rbt.Receptor>
prm/pocket_docking_4.prm

>  <SCORE>
-0.653039

>  <SCORE.INTER>
-3.99127

>  <SCORE.INTER.CONST>
1

>  <SCORE.INTER.POLAR>
-0.456655

>  <SCORE.INTER.ROT>
12

>  <SCORE.INTER.SOLV>
8.62609

>  <SCORE.INTER.VDW>
-15.614

>  <SCORE.INTER.norm>
-0.0767551

>  <SCORE.INTRA>
3.33823

>  <SCORE.INTRA.DIHEDRAL>
-1.80768

>  <SCORE.INTRA.DIHEDRAL.0>
32.9766

>  <SCORE.INTRA.POLAR>
0

>  <SCORE.INTRA.POLAR.0>
0

>  <SCORE.INTRA.REPUL>
0

>  <SCORE.INTRA.REPUL.0>
0

>  <SCORE.INTRA.SOLV>
2.79193

>  <SCORE.INTRA.SOLV.lig_0>
-114.358

>  <SCORE.INTRA.VDW>
2.8461

>  <SCORE.INTRA.VDW.0>
-8.24257

>  <SCORE.INTRA.norm>
0.0641967

>  <SCORE.RESTR>
0

>  <SCORE.RESTR.CAVITY>
0

>  <SCORE.RESTR.norm>
0

>  <SCORE.SYSTEM>
0

>  <SCORE.SYSTEM.CONST>
0

>  <SCORE.SYSTEM.DIHEDRAL>
0

>  <SCORE.SYSTEM.SOLV>
0

>  <SCORE.SYSTEM.norm>
0

>  <SCORE.heavy>
52

>  <SCORE.norm>
-0.0125584

>  <RMSD>
10.624

$$$$
2esj_lig
 OpenBabel11021811423D
libRbt.so/2013.1/901 2013/11/27
 52 56  0  0  0  0  0  0  0  0999 V2000
   29.5077   -1.9181   15.5769 C   0  0  2  0  0  0  0  0  0  0  0  0
   28.3426   -1.7104   16.3980 O   0  0  0  0  0  0  0  0  0  0  0  0
   27.1168   -5.7736   16.9232 C   0  0  2  0  0  0  0  0  0  0  0  0
   26.4801   -7.0184   17.3841 N   0  0  0  0  0  0  0  0  0  0  0  0
   24.3721   -2.8537   15.3235 C   0  0  1  0  0  0  0  0  0  0  0  0
   20.2925   -3.3474   15.1148 C   0  0  1  0  0  0  0  0  0  0  0  0
   16.8040   -5.4738   18.4575 C   0  0  1  0  0  0  0  0  0  0  0  0
   29.9568   -0.5270   15.0401 C   0  0  2  0  0  0  0  0  0  0  0  0
   30.2125    0.4264   16.1195 N   0  0  0  0  0  0  0  0  0  0  0  0
   27.8516   -5.0556   18.1240 C   0  0  0  0  0  0  0  0  0  0  0  0
   23.5345   -1.5747   15.3554 C   0  0  2  0  0  0  0  0  0  0  0  0
   23.3326   -1.0822   16.6979 O   0  0  0  0  0  0  0  0  0  0  0  0
   19.1801   -2.5025   15.8830 C   0  0  2  0  0  0  0  0  0  0  0  0
   19.4670   -2.4417   17.3407 N   0  0  0  0  0  0  0  0  0  0  0  0
   17.4796   -4.9656   19.7259 C   0  0  1  0  0  0  0  0  0  0  0  0
   16.5560   -5.0681   20.8281 O   0  0  0  0  0  0  0  0  0  0  0  0
   28.8959    0.0593   14.0553 C   0  0  0  0  0  0  0  0  0  0  0  0
   28.5785   -3.7531   17.5982 C   0  0  2  0  0  0  0  0  0  0  0  0
   29.2581   -3.0596   18.6973 N   0  0  0  0  0  0  0  0  0  0  0  0
   22.2818   -2.0506   14.6785 C   0  0  2  0  0  0  0  0  0  0  0  0
   21.5099   -2.8259   15.5603 O   0  0  0  0  0  0  0  0  0  0  0  0
   17.7432   -3.0737   15.5034 C   0  0  1  0  0  0  0  0  0  0  0  0
   17.6316   -3.1351   14.0777 O   0  0  0  0  0  0  0  0  0  0  0  0
   18.7610   -5.6919   20.1167 C   0  0  1  0  0  0  0  0  0  0  0  0
   19.1150   -5.2483   21.4313 O   0  0  0  0  0  0  0  0  0  0  0  0
   28.6242   -0.9826   12.9300 C   0  0  2  0  0  0  0  0  0  0  0  0
   27.7254   -0.4832   11.9558 O   0  0  0  0  0  0  0  0  0  0  0  0
   27.5614   -2.8066   16.9091 C   0  0  2  0  0  0  0  0  0  0  0  0
   22.7393   -3.0551   13.6008 C   0  0  2  0  0  0  0  0  0  0  0  0
   23.9200   -3.5894   14.1782 O   0  0  0  0  0  0  0  0  0  0  0  0
   17.5584   -4.5613   16.0153 C   0  0  2  0  0  0  0  0  0  0  0  0
   17.6411   -4.4569   17.4375 O   0  0  0  0  0  0  0  0  0  0  0  0
   18.6313   -7.2160   20.1138 C   0  0  2  0  0  0  0  0  0  0  0  0
   19.9640   -7.7480   20.1879 O   0  0  0  0  0  0  0  0  0  0  0  0
   28.0913   -2.2808   13.5855 C   0  0  2  0  0  0  0  0  0  0  0  0
   29.1337   -2.7764   14.4735 O   0  0  0  0  0  0  0  0  0  0  0  0
   26.7125   -3.4873   15.7880 C   0  0  2  0  0  0  0  0  0  0  0  0
   25.7448   -2.5352   15.2650 O   0  0  0  0  0  0  0  0  0  0  0  0
   23.0664   -2.4758   12.2249 C   0  0  0  0  0  0  0  0  0  0  0  0
   23.4537   -3.5671   11.3772 O   0  0  0  0  0  0  0  0  0  0  0  0
   18.8113   -5.3009   15.5872 C   0  0  1  0  0  0  0  0  0  0  0  0
   20.1663   -4.8237   15.4428 O   0  0  0  0  0  0  0  0  0  0  0  0
   17.8259   -7.7065   18.9158 C   0  0  2  0  0  0  0  0  0  0  0  0
   16.7640   -6.9179   18.3568 O   0  0  0  0  0  0  0  0  0  0  0  0
   27.8398   -3.3718   12.6012 C   0  0  0  0  0  0  0  0  0  0  0  0
   27.2365   -4.4363   13.2964 O   0  0  0  0  0  0  0  0  0  0  0  0
   26.0433   -4.8011   16.3156 C   0  0  1  0  0  0  0  0  0  0  0  0
   25.4420   -5.4659   15.1729 O   0  0  0  0  0  0  0  0  0  0  0  0
   18.8463   -6.8328   15.8786 C   0  0  0  0  0  0  0  0  0  0  0  0
   17.5229   -7.4815   15.7664 N   0  0  0  0  0  0  0  0  0  0  0  0
   17.5270   -9.1820   18.6606 C   0  0  0  0  0  0  0  0  0  0  0  0
   18.4937  -10.0114   19.3580 O   0  0  0  0  0  0  0  0  0  0  0  0
  1  2  1  1  0  0  0
  1  8  1  0  0  0  0
  1 36  1  0  0  0  0
  3  4  1  1  0  0  0
  3 10  1  0  0  0  0
  3 47  1  0  0  0  0
  5 11  1  0  0  0  0
  5 30  1  0  0  0  0
  5 38  1  6  0  0  0
  6 21  1  1  0  0  0
  6 42  1  0  0  0  0
  7 15  1  0  0  0  0
  7 44  1  0  0  0  0
  7 32  1  6  0  0  0
  8  9  1  1  0  0  0
  8 17  1  0  0  0  0
 11 12  1  1  0  0  0
 11 20  1  0  0  0  0
 13  6  1  0  0  0  0
 13 14  1  1  0  0  0
 15 16  1  1  0  0  0
 15 24  1  0  0  0  0
 17 26  1  0  0  0  0
 18 10  1  0  0  0  0
 18 19  1  1  0  0  0
 20 21  1  1  0  0  0
 20 29  1  0  0  0  0
 22 13  1  0  0  0  0
 22 23  1  6  0  0  0
 24 25  1  1  0  0  0
 24 33  1  0  0  0  0
 26 27  1  6  0  0  0
 26 35  1  0  0  0  0
 28  2  1  6  0  0  0
 28 18  1  0  0  0  0
 29 30  1  0  0  0  0
 29 39  1  6  0  0  0
 31 22  1  0  0  0  0
 31 32  1  1  0  0  0
 31 41  1  0  0  0  0
 33 34  1  6  0  0  0
 33 43  1  0  0  0  0
 35 36  1  0  0  0  0
 35 45  1  6  0  0  0
 37 28  1  0  0  0  0
 37 38  1  1  0  0  0
 39 40  1  0  0  0  0
 41 42  1  0  0  0  0
 41 49  1  1  0  0  0
 43 44  1  0  0  0  0
 43 51  1  1  0  0  0
 45 46  1  0  0  0  0
 47 37  1  0  0  0  0
 47 48  1  6  0  0  0
 49 50  1  0  0  0  0
 51 52  1  0  0  0  0
M  END
>  <CHROM.1>
171.51937209,153.85477567,-108.55064772,172.37048991,179.23202535,51.63076360
-179.43839894,148.50505445,-174.13461337,-121.88430424,34.11802164,-21.77314014
22.99490180,-4.01924849,16.21529341,-0.45559477,0.12155237,2.18594232

>  <Name>
2esj_lig

>  <RI>
0

>  <Rbt.Current_Directory>
/home/itssahil/PROJECTS/Mol_Feturizer/New_Systems/rnas/2esj

>  <Rbt.Executable>
rbdock ($Id: //depot/dev/client3/rdock/2013.1/src/exe/rbdock.cxx#4 $)

>  <Rbt.Library>
libRbt.so (2013.1, Build901 2013/11/27)

>  <Rbt.Parameter_File>
/export/apps/rDock/src/rDock_2013.1_src/data/scripts/dock_solv.prm

>  <Rbt.Receptor>
prm/pocket_docking_2.prm

>  <SCORE>
7.48475

>  <SCORE.INTER>
-1.96658

>  <SCORE.INTER.CONST>
1

>  <SCORE.INTER.POLAR>
-0.978305

>  <SCORE.INTER.ROT>
12

>  <SCORE.INTER.SOLV>
15.9573

>  <SCORE.INTER.VDW>
-14.9691

>  <SCORE.INTER.norm>
-0.0378189

>  <SCORE.INTRA>
2.49547

>  <SCORE.INTRA.DIHEDRAL>
-5.31474

>  <SCORE.INTRA.DIHEDRAL.0>
32.9766

>  <SCORE.INTRA.POLAR>
0

>  <SCORE.INTRA.POLAR.0>
0

>  <SCORE.INTRA.REPUL>
0

>  <SCORE.INTRA.REPUL.0>
0

>  <SCORE.INTRA.SOLV>
1.79527

>  <SCORE.INTRA.SOLV.lig_0>
-114.358

>  <SCORE.INTRA.VDW>
4.2552

>  <SCORE.INTRA.VDW.0>
-8.24257

>  <SCORE.INTRA.norm>
0.0479898

>  <SCORE.RESTR>
6.95586

>  <SCORE.RESTR.CAVITY>
6.95586

>  <SCORE.RESTR.norm>
0.133767

>  <SCORE.SYSTEM>
0

>  <SCORE.SYSTEM.CONST>
0

>  <SCORE.SYSTEM.DIHEDRAL>
0

>  <SCORE.SYSTEM.SOLV>
0

>  <SCORE.SYSTEM.norm>
0

>  <SCORE.heavy>
52

>  <SCORE.norm>
0.143938

>  <RMSD>
10.630

$$$$
2esj_lig
 OpenBabel11021811423D
libRbt.so/2013.1/901 2013/11/27
 52 56  0  0  0  0  0  0  0  0999 V2000
   27.9549   -0.8483   14.2664 C   0  0  2  0  0  0  0  0  0  0  0  0
   26.8305   -1.7473   14.3139 O   0  0  0  0  0  0  0  0  0  0  0  0
   25.4002   -0.8695   18.2474 C   0  0  2  0  0  0  0  0  0  0  0  0
   24.6122   -0.7864   19.4881 N   0  0  0  0  0  0  0  0  0  0  0  0
   26.2142   -4.7209   15.9191 C   0  0  1  0  0  0  0  0  0  0  0  0
   23.7622   -7.8767   14.7848 C   0  0  1  0  0  0  0  0  0  0  0  0
   19.5510   -7.0005   11.8037 C   0  0  1  0  0  0  0  0  0  0  0  0
   28.5131   -0.8724   12.8129 C   0  0  2  0  0  0  0  0  0  0  0  0
   27.4941   -0.5249   11.8229 N   0  0  0  0  0  0  0  0  0  0  0  0
   24.5368   -0.3863   17.0151 C   0  0  0  0  0  0  0  0  0  0  0  0
   26.8765   -6.0704   15.6383 C   0  0  2  0  0  0  0  0  0  0  0  0
   27.4236   -6.1482   14.3041 O   0  0  0  0  0  0  0  0  0  0  0  0
   23.6750   -8.3795   13.2746 C   0  0  2  0  0  0  0  0  0  0  0  0
   23.6878   -7.2330   12.3279 N   0  0  0  0  0  0  0  0  0  0  0  0
   20.1959   -6.0314   10.8195 C   0  0  1  0  0  0  0  0  0  0  0  0
   19.3156   -5.8444    9.6933 O   0  0  0  0  0  0  0  0  0  0  0  0
   29.1266   -2.2682   12.4746 C   0  0  0  0  0  0  0  0  0  0  0  0
   25.4176   -0.4264   15.7021 C   0  0  2  0  0  0  0  0  0  0  0  0
   24.6345    0.0052   14.5397 N   0  0  0  0  0  0  0  0  0  0  0  0
   25.7229   -6.9986   15.8867 C   0  0  2  0  0  0  0  0  0  0  0  0
   24.8305   -6.9760   14.8016 O   0  0  0  0  0  0  0  0  0  0  0  0
   22.4291   -9.3598   13.1272 C   0  0  1  0  0  0  0  0  0  0  0  0
   22.5142  -10.3712   14.1364 O   0  0  0  0  0  0  0  0  0  0  0  0
   20.5340   -4.6575   11.3856 C   0  0  1  0  0  0  0  0  0  0  0  0
   20.9010   -3.8232   10.2814 O   0  0  0  0  0  0  0  0  0  0  0  0
   30.1905   -2.6253   13.5546 C   0  0  2  0  0  0  0  0  0  0  0  0
   30.8441   -3.8482   13.2660 O   0  0  0  0  0  0  0  0  0  0  0  0
   25.9831   -1.8522   15.4733 C   0  0  2  0  0  0  0  0  0  0  0  0
   24.9186   -6.3728   17.0447 C   0  0  2  0  0  0  0  0  0  0  0  0
   25.1650   -4.9879   16.8599 O   0  0  0  0  0  0  0  0  0  0  0  0
   21.0629   -8.6022   13.3896 C   0  0  2  0  0  0  0  0  0  0  0  0
   20.9955   -7.6271   12.3479 O   0  0  0  0  0  0  0  0  0  0  0  0
   19.3816   -4.0059   12.1521 C   0  0  2  0  0  0  0  0  0  0  0  0
   19.9371   -2.8948   12.8744 O   0  0  0  0  0  0  0  0  0  0  0  0
   29.4896   -2.6651   14.9353 C   0  0  2  0  0  0  0  0  0  0  0  0
   28.9584   -1.3332   15.1894 O   0  0  0  0  0  0  0  0  0  0  0  0
   26.7488   -2.4411   16.7011 C   0  0  2  0  0  0  0  0  0  0  0  0
   27.1678   -3.8026   16.4056 O   0  0  0  0  0  0  0  0  0  0  0  0
   25.3347   -6.7763   18.4589 C   0  0  0  0  0  0  0  0  0  0  0  0
   25.3447   -8.2104   18.5140 O   0  0  0  0  0  0  0  0  0  0  0  0
   21.2689   -7.8168   14.6705 C   0  0  1  0  0  0  0  0  0  0  0  0
   22.4653   -7.2092   15.2036 O   0  0  0  0  0  0  0  0  0  0  0  0
   18.6478   -5.0177   13.0251 C   0  0  2  0  0  0  0  0  0  0  0  0
   18.5318   -6.3948   12.6352 O   0  0  0  0  0  0  0  0  0  0  0  0
   30.4267   -2.9528   16.0584 C   0  0  0  0  0  0  0  0  0  0  0  0
   29.6758   -2.9394   17.2484 O   0  0  0  0  0  0  0  0  0  0  0  0
   25.8783   -2.3451   17.9993 C   0  0  1  0  0  0  0  0  0  0  0  0
   26.7262   -2.7277   19.1146 O   0  0  0  0  0  0  0  0  0  0  0  0
   20.0274   -7.0500   15.2214 C   0  0  0  0  0  0  0  0  0  0  0  0
   18.7828   -7.8464   15.1855 N   0  0  0  0  0  0  0  0  0  0  0  0
   17.4470   -4.6519   13.8947 C   0  0  0  0  0  0  0  0  0  0  0  0
   16.7643   -5.8574   14.3297 O   0  0  0  0  0  0  0  0  0  0  0  0
  1  2  1  6  0  0  0
  1  8  1  0  0  0  0
  1 36  1  0  0  0  0
  3  4  1  1  0  0  0
  3 10  1  0  0  0  0
  3 47  1  0  0  0  0
  5 11  1  0  0  0  0
  5 30  1  0  0  0  0
  5 38  1  1  0  0  0
  6 21  1  6  0  0  0
  6 42  1  0  0  0  0
  7 15  1  0  0  0  0
  7 44  1  0  0  0  0
  7 32  1  1  0  0  0
  8  9  1  6  0  0  0
  8 17  1  0  0  0  0
 11 12  1  6  0  0  0
 11 20  1  0  0  0  0
 13  6  1  0  0  0  0
 13 14  1  6  0  0  0
 15 16  1  6  0  0  0
 15 24  1  0  0  0  0
 17 26  1  0  0  0  0
 18 10  1  0  0  0  0
 18 19  1  6  0  0  0
 20 21  1  6  0  0  0
 20 29  1  0  0  0  0
 22 13  1  0  0  0  0
 22 23  1  1  0  0  0
 24 25  1  6  0  0  0
 24 33  1  0  0  0  0
 26 27  1  6  0  0  0
 26 35  1  0  0  0  0
 28  2  1  6  0  0  0
 28 18  1  0  0  0  0
 29 30  1  0  0  0  0
 29 39  1  1  0  0  0
 31 22  1  0  0  0  0
 31 32  1  6  0  0  0
 31 41  1  0  0  0  0
 33 34  1  1  0  0  0
 33 43  1  0  0  0  0
 35 36  1  0  0  0  0
 35 45  1  1  0  0  0
 37 28  1  0  0  0  0
 37 38  1  6  0  0  0
 39 40  1  0  0  0  0
 41 42  1  0  0  0  0
 41 49  1  6  0  0  0
 43 44  1  0  0  0  0
 43 51  1  6  0  0  0
 45 46  1  0  0  0  0
 47 37  1  0  0  0  0
 47 48  1  1  0  0  0
 49 50  1  0  0  0  0
 51 52  1  0  0  0  0
M  END
>  <CHROM.1>
-172.80878806,178.30841667,-138.88102524,177.05695051,173.55022241,58.55123600
-52.94561892,154.99174786,179.04431914,-50.98152972,44.09768375,165.47670143
24.22875329,-4.65920761,14.62777851,0.30202177,-0.46978242,-0.40850280

>  <Name>
2esj_lig

>  <RI>
1.62275e+07

>  <Rbt.Current_Directory>
/home/itssahil/PROJECTS/Mol_Feturizer/New_Systems/rnas/2esj

>  <Rbt.Executable>
rbdock ($Id: //depot/dev/client3/rdock/2013.1/src/exe/rbdock.cxx#4 $)

>  <Rbt.Library>
libRbt.so (2013.1, Build901 2013/11/27)

>  <Rbt.Parameter_File>
/export/apps/rDock/src/rDock_2013.1_src/data/scripts/dock_solv.prm

>  <Rbt.Receptor>
prm/pocket_docking_5.prm

>  <SCORE>
-16.6184

>  <SCORE.INTER>
-9.8411

>  <SCORE.INTER.CONST>
1

>  <SCORE.INTER.POLAR>
-2.24116

>  <SCORE.INTER.ROT>
12

>  <SCORE.INTER.SOLV>
13.9604

>  <SCORE.INTER.VDW>
-15.3437

>  <SCORE.INTER.norm>
-0.189252

>  <SCORE.INTRA>
-6.77734

>  <SCORE.INTRA.DIHEDRAL>
-18.5116

>  <SCORE.INTRA.DIHEDRAL.0>
32.9766

>  <SCORE.INTRA.POLAR>
0

>  <SCORE.INTRA.POLAR.0>
0

>  <SCORE.INTRA.REPUL>
0

>  <SCORE.INTRA.REPUL.0>
0

>  <SCORE.INTRA.SOLV>
1.76954

>  <SCORE.INTRA.SOLV.lig_0>
-114.358

>  <SCORE.INTRA.VDW>
1.59368

>  <SCORE.INTRA.VDW.0>
-8.24257

>  <SCORE.INTRA.norm>
-0.130333

>  <SCORE.RESTR>
0

>  <SCORE.RESTR.CAVITY>
0

>  <SCORE.RESTR.norm>
0

>  <SCORE.SYSTEM>
0

>  <SCORE.SYSTEM.CONST>
0

>  <SCORE.SYSTEM.DIHEDRAL>
0

>  <SCORE.SYSTEM.SOLV>
0

>  <SCORE.SYSTEM.norm>
0

>  <SCORE.heavy>
52

>  <SCORE.norm>
-0.319585

>  <RMSD>
10.638

$$$$
2esj_lig
 OpenBabel11021811423D
libRbt.so/2013.1/901 2013/11/27
 52 56  0  0  0  0  0  0  0  0999 V2000
   29.2866   -2.3061   15.8254 C   0  0  2  0  0  0  0  0  0  0  0  0
   27.9611   -1.9819   16.2867 O   0  0  0  0  0  0  0  0  0  0  0  0
   26.7384   -5.6714   18.0702 C   0  0  2  0  0  0  0  0  0  0  0  0
   25.9706   -6.7752   18.6697 N   0  0  0  0  0  0  0  0  0  0  0  0
   25.3578   -4.0861   14.2192 C   0  0  1  0  0  0  0  0  0  0  0  0
   21.6228   -3.1800   14.8422 C   0  0  1  0  0  0  0  0  0  0  0  0
   18.2954   -6.5377   16.7722 C   0  0  1  0  0  0  0  0  0  0  0  0
   30.2525   -1.2120   16.3685 C   0  0  2  0  0  0  0  0  0  0  0  0
   30.1945   -1.0963   17.8254 N   0  0  0  0  0  0  0  0  0  0  0  0
   26.5107   -4.3374   18.8863 C   0  0  0  0  0  0  0  0  0  0  0  0
   24.6767   -2.7553   14.5407 C   0  0  2  0  0  0  0  0  0  0  0  0
   24.2016   -2.6949   15.9030 O   0  0  0  0  0  0  0  0  0  0  0  0
   22.0069   -3.9774   16.1681 C   0  0  2  0  0  0  0  0  0  0  0  0
   22.1591   -5.4306   15.8927 N   0  0  0  0  0  0  0  0  0  0  0  0
   17.8495   -6.2982   18.2100 C   0  0  1  0  0  0  0  0  0  0  0  0
   16.4135   -6.4027   18.2841 O   0  0  0  0  0  0  0  0  0  0  0  0
   29.9494    0.1734   15.7143 C   0  0  0  0  0  0  0  0  0  0  0  0
   27.3886   -3.1785   18.2638 C   0  0  2  0  0  0  0  0  0  0  0  0
   27.1849   -1.9241   18.9957 N   0  0  0  0  0  0  0  0  0  0  0  0
   23.5877   -2.7481   13.5072 C   0  0  2  0  0  0  0  0  0  0  0  0
   22.5450   -3.6110   13.8849 O   0  0  0  0  0  0  0  0  0  0  0  0
   20.9590   -3.6154   17.3109 C   0  0  1  0  0  0  0  0  0  0  0  0
   20.8691   -2.1912   17.4219 O   0  0  0  0  0  0  0  0  0  0  0  0
   18.4442   -7.2480   19.2428 C   0  0  1  0  0  0  0  0  0  0  0  0
   17.7421   -7.0307   20.4717 O   0  0  0  0  0  0  0  0  0  0  0  0
   29.9941    0.0187   14.1652 C   0  0  2  0  0  0  0  0  0  0  0  0
   29.8033    1.2580   13.5065 O   0  0  0  0  0  0  0  0  0  0  0  0
   27.0488   -2.9891   16.7625 C   0  0  2  0  0  0  0  0  0  0  0  0
   24.1899   -3.4163   12.2540 C   0  0  2  0  0  0  0  0  0  0  0  0
   25.1286   -4.3158   12.8220 O   0  0  0  0  0  0  0  0  0  0  0  0
   19.5018   -4.1121   16.9379 C   0  0  2  0  0  0  0  0  0  0  0  0
   19.6214   -5.5338   16.8693 O   0  0  0  0  0  0  0  0  0  0  0  0
   18.3414   -8.7240   18.8545 C   0  0  2  0  0  0  0  0  0  0  0  0
   19.2027   -9.4505   19.7462 O   0  0  0  0  0  0  0  0  0  0  0  0
   28.9237   -1.0199   13.7476 C   0  0  2  0  0  0  0  0  0  0  0  0
   29.2778   -2.2838   14.3786 O   0  0  0  0  0  0  0  0  0  0  0  0
   27.1377   -4.2996   15.9165 C   0  0  2  0  0  0  0  0  0  0  0  0
   26.7278   -4.0238   14.5482 O   0  0  0  0  0  0  0  0  0  0  0  0
   24.9059   -2.4939   11.2680 C   0  0  0  0  0  0  0  0  0  0  0  0
   26.0879   -2.0019   11.9165 O   0  0  0  0  0  0  0  0  0  0  0  0
   19.2648   -3.6536   15.5119 C   0  0  1  0  0  0  0  0  0  0  0  0
   20.1982   -3.4920   14.4223 O   0  0  0  0  0  0  0  0  0  0  0  0
   18.6471   -8.9358   17.3759 C   0  0  2  0  0  0  0  0  0  0  0  0
   18.3262   -7.9359   16.3966 O   0  0  0  0  0  0  0  0  0  0  0  0
   28.9079   -1.2855   12.2807 C   0  0  0  0  0  0  0  0  0  0  0  0
   30.0625   -2.0291   11.9742 O   0  0  0  0  0  0  0  0  0  0  0  0
   26.3026   -5.4475   16.5778 C   0  0  1  0  0  0  0  0  0  0  0  0
   26.5938   -6.6674   15.8453 O   0  0  0  0  0  0  0  0  0  0  0  0
   17.8465   -3.9256   14.9224 C   0  0  0  0  0  0  0  0  0  0  0  0
   16.9767   -2.7306   14.9119 N   0  0  0  0  0  0  0  0  0  0  0  0
   18.6106  -10.3075   16.7059 C   0  0  0  0  0  0  0  0  0  0  0  0
   19.3075  -10.2561   15.4329 O   0  0  0  0  0  0  0  0  0  0  0  0
  1  2  1  1  0  0  0
  1  8  1  0  0  0  0
  1 36  1  0  0  0  0
  3  4  1  1  0  0  0
  3 10  1  0  0  0  0
  3 47  1  0  0  0  0
  5 11  1  0  0  0  0
  5 30  1  0  0  0  0
  5 38  1  6  0  0  0
  6 21  1  6  0  0  0
  6 42  1  0  0  0  0
  7 15  1  0  0  0  0
  7 44  1  0  0  0  0
  7 32  1  1  0  0  0
  8  9  1  1  0  0  0
  8 17  1  0  0  0  0
 11 12  1  1  0  0  0
 11 20  1  0  0  0  0
 13  6  1  0  0  0  0
 13 14  1  6  0  0  0
 15 16  1  6  0  0  0
 15 24  1  0  0  0  0
 17 26  1  0  0  0  0
 18 10  1  0  0  0  0
 18 19  1  1  0  0  0
 20 21  1  1  0  0  0
 20 29  1  0  0  0  0
 22 13  1  0  0  0  0
 22 23  1  6  0  0  0
 24 25  1  1  0  0  0
 24 33  1  0  0  0  0
 26 27  1  6  0  0  0
 26 35  1  0  0  0  0
 28  2  1  6  0  0  0
 28 18  1  0  0  0  0
 29 30  1  0  0  0  0
 29 39  1  6  0  0  0
 31 22  1  0  0  0  0
 31 32  1  6  0  0  0
 31 41  1  0  0  0  0
 33 34  1  1  0  0  0
 33 43  1  0  0  0  0
 35 36  1  0  0  0  0
 35 45  1  6  0  0  0
 37 28  1  0  0  0  0
 37 38  1  6  0  0  0
 39 40  1  0  0  0  0
 41 42  1  0  0  0  0
 41 49  1  6  0  0  0
 43 44  1  0  0  0  0
 43 51  1  6  0  0  0
 45 46  1  0  0  0  0
 47 37  1  0  0  0  0
 47 48  1  6  0  0  0
 49 50  1  0  0  0  0
 51 52  1  0  0  0  0
M  END
>  <CHROM.1>
-138.96063893,84.78922716,-105.62386068,-71.22967639,78.66274474,85.73500463
67.38290767,168.85838923,71.97858272,-86.25359113,101.69088714,-163.47245829
23.73270839,-4.17298885,15.89148684,-0.46518106,0.25478013,2.20361332

>  <Name>
2esj_lig

>  <RI>
1.01272e+07

>  <Rbt.Current_Directory>
/home/itssahil/PROJECTS/Mol_Feturizer/New_Systems/rnas/2esj

>  <Rbt.Executable>
rbdock ($Id: //depot/dev/client3/rdock/2013.1/src/exe/rbdock.cxx#4 $)

>  <Rbt.Library>
libRbt.so (2013.1, Build901 2013/11/27)

>  <Rbt.Parameter_File>
/export/apps/rDock/src/rDock_2013.1_src/data/scripts/dock_solv.prm

>  <Rbt.Receptor>
prm/pocket_docking_3.prm

>  <SCORE>
5.02428

>  <SCORE.INTER>
2.43789

>  <SCORE.INTER.CONST>
1

>  <SCORE.INTER.POLAR>
-0.979796

>  <SCORE.INTER.ROT>
12

>  <SCORE.INTER.SOLV>
9.55747

>  <SCORE.INTER.VDW>
-9.89458

>  <SCORE.INTER.norm>
0.0468826

>  <SCORE.INTRA>
2.36743

>  <SCORE.INTRA.DIHEDRAL>
-4.08626

>  <SCORE.INTRA.DIHEDRAL.0>
32.9766

>  <SCORE.INTRA.POLAR>
0

>  <SCORE.INTRA.POLAR.0>
0

>  <SCORE.INTRA.REPUL>
0

>  <SCORE.INTRA.REPUL.0>
0

>  <SCORE.INTRA.SOLV>
0.474948

>  <SCORE.INTRA.SOLV.lig_0>
-114.358

>  <SCORE.INTRA.VDW>
4.17309

>  <SCORE.INTRA.VDW.0>
-8.24257

>  <SCORE.INTRA.norm>
0.0455275

>  <SCORE.RESTR>
0.218952

>  <SCORE.RESTR.CAVITY>
0.218952

>  <SCORE.RESTR.norm>
0.00421061

>  <SCORE.SYSTEM>
0

>  <SCORE.SYSTEM.CONST>
0

>  <SCORE.SYSTEM.DIHEDRAL>
0

>  <SCORE.SYSTEM.SOLV>
0

>  <SCORE.SYSTEM.norm>
0

>  <SCORE.heavy>
52

>  <SCORE.norm>
0.0966207

>  <RMSD>
10.649

$$$$
2esj_lig
 OpenBabel11021811423D
libRbt.so/2013.1/901 2013/11/27
 52 56  0  0  0  0  0  0  0  0999 V2000
   28.3726   -4.8784   18.2607 C   0  0  2  0  0  0  0  0  0  0  0  0
   29.5933   -4.4607   17.6201 O   0  0  0  0  0  0  0  0  0  0  0  0
   31.0337   -4.5775   13.5952 C   0  0  2  0  0  0  0  0  0  0  0  0
   31.5835   -4.9897   12.2932 N   0  0  0  0  0  0  0  0  0  0  0  0
   26.6871   -5.3173   14.6647 C   0  0  1  0  0  0  0  0  0  0  0  0
   23.1551   -6.3292   13.1173 C   0  0  1  0  0  0  0  0  0  0  0  0
   18.7330   -5.3182   10.3599 C   0  0  1  0  0  0  0  0  0  0  0  0
   28.1421   -3.9435   19.4846 C   0  0  2  0  0  0  0  0  0  0  0  0
   28.1032   -2.5321   19.1032 N   0  0  0  0  0  0  0  0  0  0  0  0
   32.0384   -4.9478   14.7575 C   0  0  0  0  0  0  0  0  0  0  0  0
   25.4147   -5.8689   15.3092 C   0  0  2  0  0  0  0  0  0  0  0  0
   25.2213   -7.2729   15.0321 O   0  0  0  0  0  0  0  0  0  0  0  0
   22.7928   -6.1634   11.5738 C   0  0  2  0  0  0  0  0  0  0  0  0
   22.5134   -4.7417   11.2400 N   0  0  0  0  0  0  0  0  0  0  0  0
   19.1227   -3.8769   10.0526 C   0  0  1  0  0  0  0  0  0  0  0  0
   18.8176   -3.5876    8.6736 O   0  0  0  0  0  0  0  0  0  0  0  0
   29.2398   -4.1687   20.5724 C   0  0  0  0  0  0  0  0  0  0  0  0
   31.4582   -4.4448   16.1402 C   0  0  2  0  0  0  0  0  0  0  0  0
   32.3668   -4.7885   17.2390 N   0  0  0  0  0  0  0  0  0  0  0  0
   24.3828   -4.9706   14.6909 C   0  0  2  0  0  0  0  0  0  0  0  0
   24.1266   -5.3556   13.3640 O   0  0  0  0  0  0  0  0  0  0  0  0
   21.6271   -7.1829   11.2039 C   0  0  1  0  0  0  0  0  0  0  0  0
   22.0042   -8.4939   11.6373 O   0  0  0  0  0  0  0  0  0  0  0  0
   18.4439   -2.8207   10.9162 C   0  0  1  0  0  0  0  0  0  0  0  0
   18.7413   -1.5453   10.3373 O   0  0  0  0  0  0  0  0  0  0  0  0
   29.2772   -5.6807   20.9440 C   0  0  2  0  0  0  0  0  0  0  0  0
   30.2011   -5.9446   21.9846 O   0  0  0  0  0  0  0  0  0  0  0  0
   30.0535   -5.0523   16.3907 C   0  0  2  0  0  0  0  0  0  0  0  0
   25.0528   -3.5877   14.5557 C   0  0  2  0  0  0  0  0  0  0  0  0
   26.4173   -3.9367   14.3844 O   0  0  0  0  0  0  0  0  0  0  0  0
   20.2901   -6.8393   11.9809 C   0  0  2  0  0  0  0  0  0  0  0  0
   19.9265   -5.5444   11.5000 O   0  0  0  0  0  0  0  0  0  0  0  0
   16.9270   -2.9896   11.0184 C   0  0  2  0  0  0  0  0  0  0  0  0
   16.4841   -2.1393   12.0887 O   0  0  0  0  0  0  0  0  0  0  0  0
   29.6117   -6.4890   19.6657 C   0  0  2  0  0  0  0  0  0  0  0  0
   28.5430   -6.2443   18.7071 O   0  0  0  0  0  0  0  0  0  0  0  0
   29.0412   -4.8257   15.2224 C   0  0  2  0  0  0  0  0  0  0  0  0
   27.7877   -5.4978   15.5280 O   0  0  0  0  0  0  0  0  0  0  0  0
   24.9179   -2.6458   15.7516 C   0  0  0  0  0  0  0  0  0  0  0  0
   25.5154   -1.3934   15.3852 O   0  0  0  0  0  0  0  0  0  0  0  0
   20.6971   -6.6375   13.4279 C   0  0  1  0  0  0  0  0  0  0  0  0
   21.9257   -6.1201   13.9822 O   0  0  0  0  0  0  0  0  0  0  0  0
   16.5370   -4.4547   11.1790 C   0  0  2  0  0  0  0  0  0  0  0  0
   17.3140   -5.5038   10.5812 O   0  0  0  0  0  0  0  0  0  0  0  0
   29.6275   -7.9622   19.8932 C   0  0  0  0  0  0  0  0  0  0  0  0
   30.2629   -8.5533   18.7855 O   0  0  0  0  0  0  0  0  0  0  0  0
   29.6550   -5.2835   13.8564 C   0  0  1  0  0  0  0  0  0  0  0  0
   28.7387   -4.8627   12.8111 O   0  0  0  0  0  0  0  0  0  0  0  0
   19.5416   -6.3855   14.4448 C   0  0  0  0  0  0  0  0  0  0  0  0
   19.4750   -4.9883   14.9225 N   0  0  0  0  0  0  0  0  0  0  0  0
   15.0883   -4.9232   11.2953 C   0  0  0  0  0  0  0  0  0  0  0  0
   14.4331   -4.2397   12.3963 O   0  0  0  0  0  0  0  0  0  0  0  0
  1  2  1  1  0  0  0
  1  8  1  0  0  0  0
  1 36  1  0  0  0  0
  3  4  1  6  0  0  0
  3 10  1  0  0  0  0
  3 47  1  0  0  0  0
  5 11  1  0  0  0  0
  5 30  1  0  0  0  0
  5 38  1  1  0  0  0
  6 21  1  1  0  0  0
  6 42  1  0  0  0  0
  7 15  1  0  0  0  0
  7 44  1  0  0  0  0
  7 32  1  1  0  0  0
  8  9  1  6  0  0  0
  8 17  1  0  0  0  0
 11 12  1  6  0  0  0
 11 20  1  0  0  0  0
 13  6  1  0  0  0  0
 13 14  1  1  0  0  0
 15 16  1  6  0  0  0
 15 24  1  0  0  0  0
 17 26  1  0  0  0  0
 18 10  1  0  0  0  0
 18 19  1  1  0  0  0
 20 21  1  6  0  0  0
 20 29  1  0  0  0  0
 22 13  1  0  0  0  0
 22 23  1  1  0  0  0
 24 25  1  6  0  0  0
 24 33  1  0  0  0  0
 26 27  1  1  0  0  0
 26 35  1  0  0  0  0
 28  2  1  1  0  0  0
 28 18  1  0  0  0  0
 29 30  1  0  0  0  0
 29 39  1  1  0  0  0
 31 22  1  0  0  0  0
 31 32  1  6  0  0  0
 31 41  1  0  0  0  0
 33 34  1  1  0  0  0
 33 43  1  0  0  0  0
 35 36  1  0  0  0  0
 35 45  1  1  0  0  0
 37 28  1  0  0  0  0
 37 38  1  1  0  0  0
 39 40  1  0  0  0  0
 41 42  1  0  0  0  0
 41 49  1  6  0  0  0
 43 44  1  0  0  0  0
 43 51  1  6  0  0  0
 45 46  1  0  0  0  0
 47 37  1  0  0  0  0
 47 48  1  6  0  0  0
 49 50  1  0  0  0  0
 51 52  1  0  0  0  0
M  END
>  <CHROM.1>
-175.29600079,-168.61969884,161.74486950,-165.71680293,87.48414878,-173.61435990
-175.71327450,101.73284948,-165.27380761,174.01730251,-107.38334403,-55.75647614
24.51367112,-5.02311040,14.48996581,0.50292481,-0.01860277,1.66282435

>  <Name>
2esj_lig

>  <RI>
2.18877e+07

>  <Rbt.Current_Directory>
/home/itssahil/PROJECTS/Mol_Feturizer/New_Systems/rnas/2esj

>  <Rbt.Executable>
rbdock ($Id: //depot/dev/client3/rdock/2013.1/src/exe/rbdock.cxx#4 $)

>  <Rbt.Library>
libRbt.so (2013.1, Build901 2013/11/27)

>  <Rbt.Parameter_File>
/export/apps/rDock/src/rDock_2013.1_src/data/scripts/dock_solv.prm

>  <Rbt.Receptor>
prm/pocket_docking_7.prm

>  <SCORE>
-18.5567

>  <SCORE.INTER>
-11.6751

>  <SCORE.INTER.CONST>
1

>  <SCORE.INTER.POLAR>
-0.848252

>  <SCORE.INTER.ROT>
12

>  <SCORE.INTER.SOLV>
8.13918

>  <SCORE.INTER.VDW>
-19.269

>  <SCORE.INTER.norm>
-0.224522

>  <SCORE.INTRA>
-6.88159

>  <SCORE.INTRA.DIHEDRAL>
-14.9347

>  <SCORE.INTRA.DIHEDRAL.0>
32.9766

>  <SCORE.INTRA.POLAR>
0

>  <SCORE.INTRA.POLAR.0>
0

>  <SCORE.INTRA.REPUL>
0

>  <SCORE.INTRA.REPUL.0>
0

>  <SCORE.INTRA.SOLV>
-3.66752

>  <SCORE.INTRA.SOLV.lig_0>
-114.358

>  <SCORE.INTRA.VDW>
2.41953

>  <SCORE.INTRA.VDW.0>
-8.24257

>  <SCORE.INTRA.norm>
-0.132338

>  <SCORE.RESTR>
0

>  <SCORE.RESTR.CAVITY>
0

>  <SCORE.RESTR.norm>
0

>  <SCORE.SYSTEM>
0

>  <SCORE.SYSTEM.CONST>
0

>  <SCORE.SYSTEM.DIHEDRAL>
0

>  <SCORE.SYSTEM.SOLV>
0

>  <SCORE.SYSTEM.norm>
0

>  <SCORE.heavy>
52

>  <SCORE.norm>
-0.35686

>  <RMSD>
10.675

$$$$
2esj_lig
 OpenBabel11021811423D
libRbt.so/2013.1/901 2013/11/27
 52 56  0  0  0  0  0  0  0  0999 V2000
   24.7447   -1.4541   12.4449 C   0  0  2  0  0  0  0  0  0  0  0  0
   25.3116   -0.1688   12.7634 O   0  0  0  0  0  0  0  0  0  0  0  0
   27.3353    1.3353   16.2174 C   0  0  2  0  0  0  0  0  0  0  0  0
   27.6724    1.8885   17.5394 N   0  0  0  0  0  0  0  0  0  0  0  0
   24.5279   -2.1008   15.8862 C   0  0  1  0  0  0  0  0  0  0  0  0
   20.9177   -3.1130   16.3949 C   0  0  1  0  0  0  0  0  0  0  0  0
   17.3531   -5.8935   18.4731 C   0  0  1  0  0  0  0  0  0  0  0  0
   24.9282   -1.6813   10.9153 C   0  0  2  0  0  0  0  0  0  0  0  0
   26.3291   -1.5858   10.5058 N   0  0  0  0  0  0  0  0  0  0  0  0
   26.3445    2.3015   15.4543 C   0  0  0  0  0  0  0  0  0  0  0  0
   23.8050   -3.4176   15.5999 C   0  0  2  0  0  0  0  0  0  0  0  0
   22.8452   -3.2969   14.5277 O   0  0  0  0  0  0  0  0  0  0  0  0
   19.7572   -2.3417   17.1691 C   0  0  2  0  0  0  0  0  0  0  0  0
   19.7683   -2.6747   18.6182 N   0  0  0  0  0  0  0  0  0  0  0  0
   16.8079   -5.3605   19.7930 C   0  0  1  0  0  0  0  0  0  0  0  0
   15.7303   -6.2089   20.2374 O   0  0  0  0  0  0  0  0  0  0  0  0
   24.0659   -0.6705   10.0945 C   0  0  0  0  0  0  0  0  0  0  0  0
   26.0410    1.7207   14.0148 C   0  0  2  0  0  0  0  0  0  0  0  0
   25.1116    2.5931   13.2897 N   0  0  0  0  0  0  0  0  0  0  0  0
   23.1960   -3.6936   16.9442 C   0  0  2  0  0  0  0  0  0  0  0  0
   22.0696   -2.8794   17.1508 O   0  0  0  0  0  0  0  0  0  0  0  0
   18.3740   -2.6102   16.4277 C   0  0  1  0  0  0  0  0  0  0  0  0
   18.5282   -2.3084   15.0371 O   0  0  0  0  0  0  0  0  0  0  0  0
   17.8244   -5.2597   20.9239 C   0  0  1  0  0  0  0  0  0  0  0  0
   17.0962   -4.9753   22.1236 O   0  0  0  0  0  0  0  0  0  0  0  0
   22.5848   -0.7748   10.5647 C   0  0  2  0  0  0  0  0  0  0  0  0
   21.7310    0.0626    9.8058 O   0  0  0  0  0  0  0  0  0  0  0  0
   25.4631    0.2855   14.1213 C   0  0  2  0  0  0  0  0  0  0  0  0
   24.2180   -3.1878   17.9831 C   0  0  2  0  0  0  0  0  0  0  0  0
   24.8471   -2.1252   17.2844 O   0  0  0  0  0  0  0  0  0  0  0  0
   17.9691   -4.1402   16.4951 C   0  0  2  0  0  0  0  0  0  0  0  0
   17.7910   -4.3960   17.8891 O   0  0  0  0  0  0  0  0  0  0  0  0
   18.6531   -6.5299   21.1231 C   0  0  2  0  0  0  0  0  0  0  0  0
   19.7497   -6.1815   21.9839 O   0  0  0  0  0  0  0  0  0  0  0  0
   22.5268   -0.4311   12.0739 C   0  0  2  0  0  0  0  0  0  0  0  0
   23.3360   -1.4190   12.7740 O   0  0  0  0  0  0  0  0  0  0  0  0
   26.3372   -0.6947   14.9675 C   0  0  2  0  0  0  0  0  0  0  0  0
   25.6681   -1.9828   15.0644 O   0  0  0  0  0  0  0  0  0  0  0  0
   25.2774   -4.1900   18.4401 C   0  0  0  0  0  0  0  0  0  0  0  0
   24.5915   -5.3137   19.0116 O   0  0  0  0  0  0  0  0  0  0  0  0
   19.2121   -4.9113   16.0946 C   0  0  1  0  0  0  0  0  0  0  0  0
   20.6059   -4.5951   16.2996 O   0  0  0  0  0  0  0  0  0  0  0  0
   19.0716   -7.1395   19.7898 C   0  0  2  0  0  0  0  0  0  0  0  0
   18.2401   -7.0282   18.6244 O   0  0  0  0  0  0  0  0  0  0  0  0
   21.1554   -0.5455   12.6471 C   0  0  0  0  0  0  0  0  0  0  0  0
   20.7445   -1.8827   12.4945 O   0  0  0  0  0  0  0  0  0  0  0  0
   26.6679   -0.0785   16.3686 C   0  0  1  0  0  0  0  0  0  0  0  0
   27.6331   -0.9562   17.0070 O   0  0  0  0  0  0  0  0  0  0  0  0
   19.0601   -6.4590   15.9758 C   0  0  0  0  0  0  0  0  0  0  0  0
   18.9778   -6.9348   14.5788 N   0  0  0  0  0  0  0  0  0  0  0  0
   19.8984   -8.4187   19.6815 C   0  0  0  0  0  0  0  0  0  0  0  0
   21.0986   -8.3031   20.4908 O   0  0  0  0  0  0  0  0  0  0  0  0
  1  2  1  6  0  0  0
  1  8  1  0  0  0  0
  1 36  1  0  0  0  0
  3  4  1  1  0  0  0
  3 10  1  0  0  0  0
  3 47  1  0  0  0  0
  5 11  1  0  0  0  0
  5 30  1  0  0  0  0
  5 38  1  6  0  0  0
  6 21  1  1  0  0  0
  6 42  1  0  0  0  0
  7 15  1  0  0  0  0
  7 44  1  0  0  0  0
  7 32  1  1  0  0  0
  8  9  1  6  0  0  0
  8 17  1  0  0  0  0
 11 12  1  6  0  0  0
 11 20  1  0  0  0  0
 13  6  1  0  0  0  0
 13 14  1  1  0  0  0
 15 16  1  1  0  0  0
 15 24  1  0  0  0  0
 17 26  1  0  0  0  0
 18 10  1  0  0  0  0
 18 19  1  1  0  0  0
 20 21  1  6  0  0  0
 20 29  1  0  0  0  0
 22 13  1  0  0  0  0
 22 23  1  6  0  0  0
 24 25  1  1  0  0  0
 24 33  1  0  0  0  0
 26 27  1  6  0  0  0
 26 35  1  0  0  0  0
 28  2  1  6  0  0  0
 28 18  1  0  0  0  0
 29 30  1  0  0  0  0
 29 39  1  6  0  0  0
 31 22  1  0  0  0  0
 31 32  1  1  0  0  0
 31 41  1  0  0  0  0
 33 34  1  1  0  0  0
 33 43  1  0  0  0  0
 35 36  1  0  0  0  0
 35 45  1  1  0  0  0
 37 28  1  0  0  0  0
 37 38  1  1  0  0  0
 39 40  1  0  0  0  0
 41 42  1  0  0  0  0
 41 49  1  1  0  0  0
 43 44  1  0  0  0  0
 43 51  1  1  0  0  0
 45 46  1  0  0  0  0
 47 37  1  0  0  0  0
 47 48  1  6  0  0  0
 49 50  1  0  0  0  0
 51 52  1  0  0  0  0
M  END
>  <CHROM.1>
-172.03031398,167.07259915,163.59000645,-158.42454940,69.35237608,-177.44661969
-59.01861950,179.99252279,61.17659346,-72.62230331,103.44517828,-52.59021824
22.08015656,-2.92586525,16.14669705,0.81121381,-0.43237491,-1.17442593

>  <Name>
2esj_lig

>  <RI>
1.62275e+07

>  <Rbt.Current_Directory>
/home/itssahil/PROJECTS/Mol_Feturizer/New_Systems/rnas/2esj

>  <Rbt.Executable>
rbdock ($Id: //depot/dev/client3/rdock/2013.1/src/exe/rbdock.cxx#4 $)

>  <Rbt.Library>
libRbt.so (2013.1, Build901 2013/11/27)

>  <Rbt.Parameter_File>
/export/apps/rDock/src/rDock_2013.1_src/data/scripts/dock_solv.prm

>  <Rbt.Receptor>
prm/pocket_docking_5.prm

>  <SCORE>
-17.5347

>  <SCORE.INTER>
-8.31147

>  <SCORE.INTER.CONST>
1

>  <SCORE.INTER.POLAR>
-0.817662

>  <SCORE.INTER.ROT>
12

>  <SCORE.INTER.SOLV>
15.0746

>  <SCORE.INTER.VDW>
-19.4403

>  <SCORE.INTER.norm>
-0.159836

>  <SCORE.INTRA>
-9.22319

>  <SCORE.INTRA.DIHEDRAL>
-22.0974

>  <SCORE.INTRA.DIHEDRAL.0>
32.9766

>  <SCORE.INTRA.POLAR>
0

>  <SCORE.INTRA.POLAR.0>
0

>  <SCORE.INTRA.REPUL>
0

>  <SCORE.INTRA.REPUL.0>
0

>  <SCORE.INTRA.SOLV>
-2.35658

>  <SCORE.INTRA.SOLV.lig_0>
-114.358

>  <SCORE.INTRA.VDW>
3.0038

>  <SCORE.INTRA.VDW.0>
-8.24257

>  <SCORE.INTRA.norm>
-0.177369

>  <SCORE.RESTR>
0

>  <SCORE.RESTR.CAVITY>
0

>  <SCORE.RESTR.norm>
0

>  <SCORE.SYSTEM>
0

>  <SCORE.SYSTEM.CONST>
0

>  <SCORE.SYSTEM.DIHEDRAL>
0

>  <SCORE.SYSTEM.SOLV>
0

>  <SCORE.SYSTEM.norm>
0

>  <SCORE.heavy>
52

>  <SCORE.norm>
-0.337205

>  <RMSD>
10.676

$$$$
2esj_lig
 OpenBabel11021811423D
libRbt.so/2013.1/901 2013/11/27
 52 56  0  0  0  0  0  0  0  0999 V2000
   27.0168   -3.3190   17.3791 C   0  0  2  0  0  0  0  0  0  0  0  0
   27.3741   -2.6054   18.5783 O   0  0  0  0  0  0  0  0  0  0  0  0
   25.4708    0.6779   20.5495 C   0  0  2  0  0  0  0  0  0  0  0  0
   25.0247    2.0136   20.9785 N   0  0  0  0  0  0  0  0  0  0  0  0
   23.7960   -1.8703   16.9752 C   0  0  1  0  0  0  0  0  0  0  0  0
   20.2459   -3.4423   15.2469 C   0  0  1  0  0  0  0  0  0  0  0  0
   17.3866   -6.4173   18.2912 C   0  0  1  0  0  0  0  0  0  0  0  0
   27.6083   -4.7549   17.4945 C   0  0  2  0  0  0  0  0  0  0  0  0
   27.1501   -5.4470   18.6987 N   0  0  0  0  0  0  0  0  0  0  0  0
   27.0459    0.5744   20.6257 C   0  0  0  0  0  0  0  0  0  0  0  0
   23.5439   -1.9035   15.4673 C   0  0  2  0  0  0  0  0  0  0  0  0
   22.9693   -0.6723   14.9779 O   0  0  0  0  0  0  0  0  0  0  0  0
   18.9684   -2.8249   15.9737 C   0  0  2  0  0  0  0  0  0  0  0  0
   19.1585   -2.7867   17.4479 N   0  0  0  0  0  0  0  0  0  0  0  0
   16.9100   -5.6245   19.5028 C   0  0  1  0  0  0  0  0  0  0  0  0
   15.9238   -6.3972   20.2161 O   0  0  0  0  0  0  0  0  0  0  0  0
   29.1694   -4.7185   17.4655 C   0  0  0  0  0  0  0  0  0  0  0  0
   27.5017   -0.8844   20.2185 C   0  0  2  0  0  0  0  0  0  0  0  0
   28.9626   -1.0033   20.2680 N   0  0  0  0  0  0  0  0  0  0  0  0
   22.6316   -3.0917   15.3681 C   0  0  2  0  0  0  0  0  0  0  0  0
   21.3342   -2.7526   15.7877 O   0  0  0  0  0  0  0  0  0  0  0  0
   17.6684   -3.6021   15.4829 C   0  0  1  0  0  0  0  0  0  0  0  0
   17.6492   -3.6140   14.0517 O   0  0  0  0  0  0  0  0  0  0  0  0
   18.0003   -5.2265   20.4903 C   0  0  1  0  0  0  0  0  0  0  0  0
   17.3480   -4.7109   21.6560 O   0  0  0  0  0  0  0  0  0  0  0  0
   29.6313   -3.9571   16.1878 C   0  0  2  0  0  0  0  0  0  0  0  0
   31.0417   -3.9534   16.0579 O   0  0  0  0  0  0  0  0  0  0  0  0
   26.9786   -1.2392   18.8023 C   0  0  2  0  0  0  0  0  0  0  0  0
   23.1207   -4.0904   16.4372 C   0  0  2  0  0  0  0  0  0  0  0  0
   23.6572   -3.2251   17.4253 O   0  0  0  0  0  0  0  0  0  0  0  0
   17.7012   -5.1223   15.9268 C   0  0  2  0  0  0  0  0  0  0  0  0
   17.6852   -5.0725   17.3543 O   0  0  0  0  0  0  0  0  0  0  0  0
   18.9192   -6.3813   20.8926 C   0  0  2  0  0  0  0  0  0  0  0  0
   20.0535   -5.7997   21.5559 O   0  0  0  0  0  0  0  0  0  0  0  0
   29.0599   -2.5186   16.2438 C   0  0  2  0  0  0  0  0  0  0  0  0
   27.6078   -2.6299   16.2522 O   0  0  0  0  0  0  0  0  0  0  0  0
   25.4391   -1.0431   18.6216 C   0  0  2  0  0  0  0  0  0  0  0  0
   25.0708   -1.3300   17.2438 O   0  0  0  0  0  0  0  0  0  0  0  0
   24.1948   -5.0854   15.9990 C   0  0  0  0  0  0  0  0  0  0  0  0
   24.4423   -5.9685   17.1029 O   0  0  0  0  0  0  0  0  0  0  0  0
   19.0807   -5.6292   15.5520 C   0  0  1  0  0  0  0  0  0  0  0  0
   20.3451   -4.9333   15.5116 O   0  0  0  0  0  0  0  0  0  0  0  0
   19.2735   -7.2572   19.6960 C   0  0  2  0  0  0  0  0  0  0  0  0
   18.3515   -7.4485   18.6120 O   0  0  0  0  0  0  0  0  0  0  0  0
   29.4007   -1.7070   15.0407 C   0  0  0  0  0  0  0  0  0  0  0  0
   30.7982   -1.5425   15.0249 O   0  0  0  0  0  0  0  0  0  0  0  0
   25.0024    0.3898   19.0781 C   0  0  1  0  0  0  0  0  0  0  0  0
   23.5505    0.4216   19.0629 O   0  0  0  0  0  0  0  0  0  0  0  0
   19.3498   -7.1472   15.7884 C   0  0  0  0  0  0  0  0  0  0  0  0
   20.7101   -7.5701   15.3942 N   0  0  0  0  0  0  0  0  0  0  0  0
   20.1680   -8.4902   19.8019 C   0  0  0  0  0  0  0  0  0  0  0  0
   21.5623   -8.0880   19.8564 O   0  0  0  0  0  0  0  0  0  0  0  0
  1  2  1  1  0  0  0
  1  8  1  0  0  0  0
  1 36  1  0  0  0  0
  3  4  1  6  0  0  0
  3 10  1  0  0  0  0
  3 47  1  0  0  0  0
  5 11  1  0  0  0  0
  5 30  1  0  0  0  0
  5 38  1  6  0  0  0
  6 21  1  1  0  0  0
  6 42  1  0  0  0  0
  7 15  1  0  0  0  0
  7 44  1  0  0  0  0
  7 32  1  6  0  0  0
  8  9  1  1  0  0  0
  8 17  1  0  0  0  0
 11 12  1  1  0  0  0
 11 20  1  0  0  0  0
 13  6  1  0  0  0  0
 13 14  1  1  0  0  0
 15 16  1  1  0  0  0
 15 24  1  0  0  0  0
 17 26  1  0  0  0  0
 18 10  1  0  0  0  0
 18 19  1  6  0  0  0
 20 21  1  1  0  0  0
 20 29  1  0  0  0  0
 22 13  1  0  0  0  0
 22 23  1  6  0  0  0
 24 25  1  1  0  0  0
 24 33  1  0  0  0  0
 26 27  1  1  0  0  0
 26 35  1  0  0  0  0
 28  2  1  1  0  0  0
 28 18  1  0  0  0  0
 29 30  1  0  0  0  0
 29 39  1  6  0  0  0
 31 22  1  0  0  0  0
 31 32  1  1  0  0  0
 31 41  1  0  0  0  0
 33 34  1  6  0  0  0
 33 43  1  0  0  0  0
 35 36  1  0  0  0  0
 35 45  1  6  0  0  0
 37 28  1  0  0  0  0
 37 38  1  6  0  0  0
 39 40  1  0  0  0  0
 41 42  1  0  0  0  0
 41 49  1  1  0  0  0
 43 44  1  0  0  0  0
 43 51  1  1  0  0  0
 45 46  1  0  0  0  0
 47 37  1  0  0  0  0
 47 48  1  1  0  0  0
 49 50  1  0  0  0  0
 51 52  1  0  0  0  0
M  END
>  <CHROM.1>
-179.77093305,171.85938706,178.52788049,-156.46117343,151.45286169,177.36079294
-176.32723895,166.77256026,-64.65065811,148.45726276,179.69704005,-78.89619623
23.03038483,-3.68826024,17.68253589,-0.17247651,-0.33355484,-2.21738585

>  <Name>
2esj_lig

>  <RI>
2.18877e+07

>  <Rbt.Current_Directory>
/home/itssahil/PROJECTS/Mol_Feturizer/New_Systems/rnas/2esj

>  <Rbt.Executable>
rbdock ($Id: //depot/dev/client3/rdock/2013.1/src/exe/rbdock.cxx#4 $)

>  <Rbt.Library>
libRbt.so (2013.1, Build901 2013/11/27)

>  <Rbt.Parameter_File>
/export/apps/rDock/src/rDock_2013.1_src/data/scripts/dock_solv.prm

>  <Rbt.Receptor>
prm/pocket_docking_7.prm

>  <SCORE>
-11.2779

>  <SCORE.INTER>
-2.82989

>  <SCORE.INTER.CONST>
1

>  <SCORE.INTER.POLAR>
0

>  <SCORE.INTER.ROT>
12

>  <SCORE.INTER.SOLV>
11.3031

>  <SCORE.INTER.VDW>
-17.2543

>  <SCORE.INTER.norm>
-0.054421

>  <SCORE.INTRA>
-8.44804

>  <SCORE.INTRA.DIHEDRAL>
-16.9857

>  <SCORE.INTRA.DIHEDRAL.0>
32.9766

>  <SCORE.INTRA.POLAR>
0

>  <SCORE.INTRA.POLAR.0>
0

>  <SCORE.INTRA.REPUL>
0

>  <SCORE.INTRA.REPUL.0>
0

>  <SCORE.INTRA.SOLV>
-1.87101

>  <SCORE.INTRA.SOLV.lig_0>
-114.358

>  <SCORE.INTRA.VDW>
0.980299

>  <SCORE.INTRA.VDW.0>
-8.24257

>  <SCORE.INTRA.norm>
-0.162462

>  <SCORE.RESTR>
0

>  <SCORE.RESTR.CAVITY>
0

>  <SCORE.RESTR.norm>
0

>  <SCORE.SYSTEM>
0

>  <SCORE.SYSTEM.CONST>
0

>  <SCORE.SYSTEM.DIHEDRAL>
0

>  <SCORE.SYSTEM.SOLV>
0

>  <SCORE.SYSTEM.norm>
0

>  <SCORE.heavy>
52

>  <SCORE.norm>
-0.216883

>  <RMSD>
10.699

$$$$
2esj_lig
 OpenBabel11021811423D
libRbt.so/2013.1/901 2013/11/27
 52 56  0  0  0  0  0  0  0  0999 V2000
   29.1520   -0.5776   14.2724 C   0  0  2  0  0  0  0  0  0  0  0  0
   29.8990   -0.7067   15.4971 O   0  0  0  0  0  0  0  0  0  0  0  0
   31.7936   -4.0868   17.3065 C   0  0  2  0  0  0  0  0  0  0  0  0
   32.0915   -5.3115   18.0672 N   0  0  0  0  0  0  0  0  0  0  0  0
   28.2745   -3.8781   14.5506 C   0  0  1  0  0  0  0  0  0  0  0  0
   24.8723   -5.8408   15.9126 C   0  0  1  0  0  0  0  0  0  0  0  0
   21.3243   -2.2798   16.1446 C   0  0  1  0  0  0  0  0  0  0  0  0
   29.2647    0.9047   13.8087 C   0  0  2  0  0  0  0  0  0  0  0  0
   30.6548    1.3300   13.6477 N   0  0  0  0  0  0  0  0  0  0  0  0
   31.1574   -2.9933   18.2537 C   0  0  0  0  0  0  0  0  0  0  0  0
   28.4015   -5.3583   14.9132 C   0  0  2  0  0  0  0  0  0  0  0  0
   28.3091   -6.2184   13.7569 O   0  0  0  0  0  0  0  0  0  0  0  0
   23.7146   -5.8712   14.8172 C   0  0  2  0  0  0  0  0  0  0  0  0
   23.7726   -4.6685   13.9447 N   0  0  0  0  0  0  0  0  0  0  0  0
   19.8650   -2.6822   16.3232 C   0  0  1  0  0  0  0  0  0  0  0  0
   19.2910   -1.9161   17.4012 O   0  0  0  0  0  0  0  0  0  0  0  0
   28.5309    1.8576   14.8050 C   0  0  0  0  0  0  0  0  0  0  0  0
   30.8993   -1.6662   17.4329 C   0  0  2  0  0  0  0  0  0  0  0  0
   30.2957   -0.6380   18.2869 N   0  0  0  0  0  0  0  0  0  0  0  0
   27.2626   -5.5020   15.8809 C   0  0  2  0  0  0  0  0  0  0  0  0
   26.0380   -5.5612   15.1945 O   0  0  0  0  0  0  0  0  0  0  0  0
   22.3189   -6.1066   15.5464 C   0  0  1  0  0  0  0  0  0  0  0  0
   22.4286   -7.2532   16.3961 O   0  0  0  0  0  0  0  0  0  0  0  0
   18.9837   -2.4979   15.0937 C   0  0  1  0  0  0  0  0  0  0  0  0
   17.6282   -2.6953   15.5109 O   0  0  0  0  0  0  0  0  0  0  0  0
   27.0615    1.3706   14.9772 C   0  0  2  0  0  0  0  0  0  0  0  0
   26.3137    2.2374   15.8111 O   0  0  0  0  0  0  0  0  0  0  0  0
   29.9904   -1.9544   16.2099 C   0  0  2  0  0  0  0  0  0  0  0  0
   27.1936   -4.1685   16.6534 C   0  0  2  0  0  0  0  0  0  0  0  0
   27.6784   -3.2452   15.6913 O   0  0  0  0  0  0  0  0  0  0  0  0
   21.9531   -4.8959   16.5002 C   0  0  2  0  0  0  0  0  0  0  0  0
   21.8186   -3.7809   15.6176 O   0  0  0  0  0  0  0  0  0  0  0  0
   19.1175   -1.1214   14.4400 C   0  0  2  0  0  0  0  0  0  0  0  0
   18.4877   -1.2090   13.1514 O   0  0  0  0  0  0  0  0  0  0  0  0
   27.0887   -0.0743   15.5346 C   0  0  2  0  0  0  0  0  0  0  0  0
   27.7702   -0.9046   14.5512 O   0  0  0  0  0  0  0  0  0  0  0  0
   30.5008   -3.1114   15.2923 C   0  0  2  0  0  0  0  0  0  0  0  0
   29.5397   -3.3462   14.2258 O   0  0  0  0  0  0  0  0  0  0  0  0
   28.0423   -4.0709   17.9207 C   0  0  0  0  0  0  0  0  0  0  0  0
   27.7898   -2.7880   18.5123 O   0  0  0  0  0  0  0  0  0  0  0  0
   23.2033   -4.6231   17.3143 C   0  0  1  0  0  0  0  0  0  0  0  0
   24.5940   -4.7763   16.9578 O   0  0  0  0  0  0  0  0  0  0  0  0
   20.5703   -0.6610   14.3981 C   0  0  2  0  0  0  0  0  0  0  0  0
   21.5021   -1.0362   15.4241 O   0  0  0  0  0  0  0  0  0  0  0  0
   25.7292   -0.6642   15.6961 C   0  0  0  0  0  0  0  0  0  0  0  0
   25.1231   -0.6812   14.4262 O   0  0  0  0  0  0  0  0  0  0  0  0
   30.7979   -4.3991   16.1324 C   0  0  1  0  0  0  0  0  0  0  0  0
   31.4452   -5.3504   15.2462 O   0  0  0  0  0  0  0  0  0  0  0  0
   23.0856   -3.5303   18.4210 C   0  0  0  0  0  0  0  0  0  0  0  0
   23.7459   -3.9062   19.6889 N   0  0  0  0  0  0  0  0  0  0  0  0
   21.0024    0.6805   13.8104 C   0  0  0  0  0  0  0  0  0  0  0  0
   20.3174    1.7642   14.4923 O   0  0  0  0  0  0  0  0  0  0  0  0
  1  2  1  1  0  0  0
  1  8  1  0  0  0  0
  1 36  1  0  0  0  0
  3  4  1  1  0  0  0
  3 10  1  0  0  0  0
  3 47  1  0  0  0  0
  5 11  1  0  0  0  0
  5 30  1  0  0  0  0
  5 38  1  1  0  0  0
  6 21  1  6  0  0  0
  6 42  1  0  0  0  0
  7 15  1  0  0  0  0
  7 44  1  0  0  0  0
  7 32  1  6  0  0  0
  8  9  1  1  0  0  0
  8 17  1  0  0  0  0
 11 12  1  6  0  0  0
 11 20  1  0  0  0  0
 13  6  1  0  0  0  0
 13 14  1  1  0  0  0
 15 16  1  1  0  0  0
 15 24  1  0  0  0  0
 17 26  1  0  0  0  0
 18 10  1  0  0  0  0
 18 19  1  1  0  0  0
 20 21  1  6  0  0  0
 20 29  1  0  0  0  0
 22 13  1  0  0  0  0
 22 23  1  1  0  0  0
 24 25  1  1  0  0  0
 24 33  1  0  0  0  0
 26 27  1  1  0  0  0
 26 35  1  0  0  0  0
 28  2  1  6  0  0  0
 28 18  1  0  0  0  0
 29 30  1  0  0  0  0
 29 39  1  1  0  0  0
 31 22  1  0  0  0  0
 31 32  1  6  0  0  0
 31 41  1  0  0  0  0
 33 34  1  6  0  0  0
 33 43  1  0  0  0  0
 35 36  1  0  0  0  0
 35 45  1  6  0  0  0
 37 28  1  0  0  0  0
 37 38  1  6  0  0  0
 39 40  1  0  0  0  0
 41 42  1  0  0  0  0
 41 49  1  6  0  0  0
 43 44  1  0  0  0  0
 43 51  1  1  0  0  0
 45 46  1  0  0  0  0
 47 37  1  0  0  0  0
 47 48  1  6  0  0  0
 49 50  1  0  0  0  0
 51 52  1  0  0  0  0
M  END
>  <CHROM.1>
179.23672169,-73.01439984,-178.28848370,-73.92663462,173.09720277,178.72034241
-177.46093019,175.39687639,60.01532242,-67.83422895,137.53345735,57.49502781
25.67636885,-2.65087732,15.75497289,-0.05891758,-0.05109558,-0.24835878

>  <Name>
2esj_lig

>  <RI>
0

>  <Rbt.Current_Directory>
/home/itssahil/PROJECTS/Mol_Feturizer/New_Systems/rnas/2esj

>  <Rbt.Executable>
rbdock ($Id: //depot/dev/client3/rdock/2013.1/src/exe/rbdock.cxx#4 $)

>  <Rbt.Library>
libRbt.so (2013.1, Build901 2013/11/27)

>  <Rbt.Parameter_File>
/export/apps/rDock/src/rDock_2013.1_src/data/scripts/dock_solv.prm

>  <Rbt.Receptor>
prm/pocket_docking_8.prm

>  <SCORE>
-9.21884

>  <SCORE.INTER>
1.88053

>  <SCORE.INTER.CONST>
1

>  <SCORE.INTER.POLAR>
0

>  <SCORE.INTER.ROT>
12

>  <SCORE.INTER.SOLV>
8.28115

>  <SCORE.INTER.VDW>
-13.1067

>  <SCORE.INTER.norm>
0.0361641

>  <SCORE.INTRA>
-11.0994

>  <SCORE.INTRA.DIHEDRAL>
-25.253

>  <SCORE.INTRA.DIHEDRAL.0>
32.9766

>  <SCORE.INTRA.POLAR>
0

>  <SCORE.INTRA.POLAR.0>
0

>  <SCORE.INTRA.REPUL>
0

>  <SCORE.INTRA.REPUL.0>
0

>  <SCORE.INTRA.SOLV>
-1.11028

>  <SCORE.INTRA.SOLV.lig_0>
-114.358

>  <SCORE.INTRA.VDW>
2.08227

>  <SCORE.INTRA.VDW.0>
-8.24257

>  <SCORE.INTRA.norm>
-0.213449

>  <SCORE.RESTR>
0

>  <SCORE.RESTR.CAVITY>
0

>  <SCORE.RESTR.norm>
0

>  <SCORE.SYSTEM>
0

>  <SCORE.SYSTEM.CONST>
0

>  <SCORE.SYSTEM.DIHEDRAL>
0

>  <SCORE.SYSTEM.SOLV>
0

>  <SCORE.SYSTEM.norm>
0

>  <SCORE.heavy>
52

>  <SCORE.norm>
-0.177285

>  <RMSD>
10.712

$$$$
2esj_lig
 OpenBabel11021811423D
libRbt.so/2013.1/901 2013/11/27
 52 56  0  0  0  0  0  0  0  0999 V2000
   25.2068   -3.6689    9.1185 C   0  0  2  0  0  0  0  0  0  0  0  0
   26.2859   -3.2034    9.9515 O   0  0  0  0  0  0  0  0  0  0  0  0
   26.7908   -3.4606   14.1902 C   0  0  2  0  0  0  0  0  0  0  0  0
   26.7708   -3.2166   15.6419 N   0  0  0  0  0  0  0  0  0  0  0  0
   23.0285   -4.8175   12.3378 C   0  0  1  0  0  0  0  0  0  0  0  0
   19.3750   -5.9332   14.2207 C   0  0  1  0  0  0  0  0  0  0  0  0
   18.6220   -6.0501   19.3500 C   0  0  1  0  0  0  0  0  0  0  0  0
   25.7461   -3.7604    7.6605 C   0  0  2  0  0  0  0  0  0  0  0  0
   26.9242   -4.6211    7.5593 N   0  0  0  0  0  0  0  0  0  0  0  0
   27.4373   -2.2317   13.4358 C   0  0  0  0  0  0  0  0  0  0  0  0
   21.6536   -4.1924   12.0979 C   0  0  2  0  0  0  0  0  0  0  0  0
   21.3927   -3.0803   12.9814 O   0  0  0  0  0  0  0  0  0  0  0  0
   18.9472   -4.6176   15.0130 C   0  0  2  0  0  0  0  0  0  0  0  0
   20.0323   -4.1655   15.9236 N   0  0  0  0  0  0  0  0  0  0  0  0
   18.7085   -4.6718   19.9954 C   0  0  1  0  0  0  0  0  0  0  0  0
   18.0846   -4.7171   21.2943 O   0  0  0  0  0  0  0  0  0  0  0  0
   26.0765   -2.3412    7.0985 C   0  0  0  0  0  0  0  0  0  0  0  0
   27.5042   -2.5369   11.8853 C   0  0  2  0  0  0  0  0  0  0  0  0
   28.0888   -1.4046   11.1592 N   0  0  0  0  0  0  0  0  0  0  0  0
   20.7677   -5.3827   12.3269 C   0  0  2  0  0  0  0  0  0  0  0  0
   20.6396   -5.6437   13.7016 O   0  0  0  0  0  0  0  0  0  0  0  0
   17.5413   -4.8715   15.7158 C   0  0  1  0  0  0  0  0  0  0  0  0
   16.6172   -5.3610   14.7385 O   0  0  0  0  0  0  0  0  0  0  0  0
   20.1190   -4.1220   20.1698 C   0  0  1  0  0  0  0  0  0  0  0  0
   20.0194   -2.9536   20.9915 O   0  0  0  0  0  0  0  0  0  0  0  0
   24.8153   -1.4383    7.2388 C   0  0  2  0  0  0  0  0  0  0  0  0
   25.0211   -0.1549    6.6762 O   0  0  0  0  0  0  0  0  0  0  0  0
   26.0902   -2.8589   11.3357 C   0  0  2  0  0  0  0  0  0  0  0  0
   21.5469   -6.5996   11.7868 C   0  0  2  0  0  0  0  0  0  0  0  0
   22.8932   -6.2040   11.9961 O   0  0  0  0  0  0  0  0  0  0  0  0
   17.6423   -6.0035   16.8194 C   0  0  2  0  0  0  0  0  0  0  0  0
   18.5424   -5.4684   17.7909 O   0  0  0  0  0  0  0  0  0  0  0  0
   21.0916   -5.1123   20.8126 C   0  0  2  0  0  0  0  0  0  0  0  0
   22.4132   -4.5812   20.6231 O   0  0  0  0  0  0  0  0  0  0  0  0
   24.4430   -1.3501    8.7397 C   0  0  2  0  0  0  0  0  0  0  0  0
   24.1338   -2.7005    9.1889 O   0  0  0  0  0  0  0  0  0  0  0  0
   25.3430   -3.9880   12.1153 C   0  0  2  0  0  0  0  0  0  0  0  0
   24.0059   -4.1545   11.5669 O   0  0  0  0  0  0  0  0  0  0  0  0
   21.3428   -6.9384   10.3106 C   0  0  0  0  0  0  0  0  0  0  0  0
   21.9569   -8.2131   10.0706 O   0  0  0  0  0  0  0  0  0  0  0  0
   18.3859   -7.1508   16.1630 C   0  0  1  0  0  0  0  0  0  0  0  0
   19.4167   -7.1305   15.1522 O   0  0  0  0  0  0  0  0  0  0  0  0
   20.8977   -6.5220   20.2652 C   0  0  2  0  0  0  0  0  0  0  0  0
   19.6060   -6.9892   19.8469 O   0  0  0  0  0  0  0  0  0  0  0  0
   23.2142   -0.5442    8.9908 C   0  0  0  0  0  0  0  0  0  0  0  0
   22.1492   -1.1811    8.3273 O   0  0  0  0  0  0  0  0  0  0  0  0
   25.3329   -3.6909   13.6528 C   0  0  1  0  0  0  0  0  0  0  0  0
   24.7995   -4.8686   14.3145 O   0  0  0  0  0  0  0  0  0  0  0  0
   18.5354   -8.4539   17.0071 C   0  0  0  0  0  0  0  0  0  0  0  0
   19.4790   -9.4282   16.4197 N   0  0  0  0  0  0  0  0  0  0  0  0
   21.7237   -7.7182   20.7327 C   0  0  0  0  0  0  0  0  0  0  0  0
   21.3960   -8.0387   22.1106 O   0  0  0  0  0  0  0  0  0  0  0  0
  1  2  1  1  0  0  0
  1  8  1  0  0  0  0
  1 36  1  0  0  0  0
  3  4  1  1  0  0  0
  3 10  1  0  0  0  0
  3 47  1  0  0  0  0
  5 11  1  0  0  0  0
  5 30  1  0  0  0  0
  5 38  1  6  0  0  0
  6 21  1  1  0  0  0
  6 42  1  0  0  0  0
  7 15  1  0  0  0  0
  7 44  1  0  0  0  0
  7 32  1  6  0  0  0
  8  9  1  1  0  0  0
  8 17  1  0  0  0  0
 11 12  1  1  0  0  0
 11 20  1  0  0  0  0
 13  6  1  0  0  0  0
 13 14  1  1  0  0  0
 15 16  1  1  0  0  0
 15 24  1  0  0  0  0
 17 26  1  0  0  0  0
 18 10  1  0  0  0  0
 18 19  1  6  0  0  0
 20 21  1  1  0  0  0
 20 29  1  0  0  0  0
 22 13  1  0  0  0  0
 22 23  1  6  0  0  0
 24 25  1  1  0  0  0
 24 33  1  0  0  0  0
 26 27  1  1  0  0  0
 26 35  1  0  0  0  0
 28  2  1  6  0  0  0
 28 18  1  0  0  0  0
 29 30  1  0  0  0  0
 29 39  1  6  0  0  0
 31 22  1  0  0  0  0
 31 32  1  1  0  0  0
 31 41  1  0  0  0  0
 33 34  1  6  0  0  0
 33 43  1  0  0  0  0
 35 36  1  0  0  0  0
 35 45  1  6  0  0  0
 37 28  1  0  0  0  0
 37 38  1  6  0  0  0
 39 40  1  0  0  0  0
 41 42  1  0  0  0  0
 41 49  1  1  0  0  0
 43 44  1  0  0  0  0
 43 51  1  1  0  0  0
 45 46  1  0  0  0  0
 47 37  1  0  0  0  0
 47 48  1  1  0  0  0
 49 50  1  0  0  0  0
 51 52  1  0  0  0  0
M  END
>  <CHROM.1>
172.72143085,144.86731867,-106.00810759,-137.24751891,135.58152537,175.05868359
-170.17218424,160.73676165,61.53359216,-161.52767461,-169.06029432,68.07366853
22.25327309,-4.59588213,14.03511651,1.00967382,-0.43501202,-1.50481898

>  <Name>
2esj_lig

>  <RI>
0

>  <Rbt.Current_Directory>
/home/itssahil/PROJECTS/Mol_Feturizer/New_Systems/rnas/2esj

>  <Rbt.Executable>
rbdock ($Id: //depot/dev/client3/rdock/2013.1/src/exe/rbdock.cxx#4 $)

>  <Rbt.Library>
libRbt.so (2013.1, Build901 2013/11/27)

>  <Rbt.Parameter_File>
/export/apps/rDock/src/rDock_2013.1_src/data/scripts/dock_solv.prm

>  <Rbt.Receptor>
prm/pocket_docking_8.prm

>  <SCORE>
-12.671

>  <SCORE.INTER>
-13.9014

>  <SCORE.INTER.CONST>
1

>  <SCORE.INTER.POLAR>
-0.925935

>  <SCORE.INTER.ROT>
12

>  <SCORE.INTER.SOLV>
16.2768

>  <SCORE.INTER.VDW>
-23.2067

>  <SCORE.INTER.norm>
-0.267334

>  <SCORE.INTRA>
1.23034

>  <SCORE.INTRA.DIHEDRAL>
-1.61919

>  <SCORE.INTRA.DIHEDRAL.0>
32.9766

>  <SCORE.INTRA.POLAR>
0

>  <SCORE.INTRA.POLAR.0>
0

>  <SCORE.INTRA.REPUL>
0

>  <SCORE.INTRA.REPUL.0>
0

>  <SCORE.INTRA.SOLV>
-3.64373

>  <SCORE.INTRA.SOLV.lig_0>
-114.358

>  <SCORE.INTRA.VDW>
3.8618

>  <SCORE.INTRA.VDW.0>
-8.24257

>  <SCORE.INTRA.norm>
0.0236604

>  <SCORE.RESTR>
0

>  <SCORE.RESTR.CAVITY>
0

>  <SCORE.RESTR.norm>
0

>  <SCORE.SYSTEM>
0

>  <SCORE.SYSTEM.CONST>
0

>  <SCORE.SYSTEM.DIHEDRAL>
0

>  <SCORE.SYSTEM.SOLV>
0

>  <SCORE.SYSTEM.norm>
0

>  <SCORE.heavy>
52

>  <SCORE.norm>
-0.243674

>  <RMSD>
10.724

$$$$
2esj_lig
 OpenBabel11021811423D
libRbt.so/2013.1/901 2013/11/27
 52 56  0  0  0  0  0  0  0  0999 V2000
   27.6991   -1.0986   12.4220 C   0  0  2  0  0  0  0  0  0  0  0  0
   28.3603   -2.1432   13.1613 O   0  0  0  0  0  0  0  0  0  0  0  0
   26.8062   -5.8229   14.6885 C   0  0  2  0  0  0  0  0  0  0  0  0
   26.1893   -6.8698   15.5196 N   0  0  0  0  0  0  0  0  0  0  0  0
   24.4503   -2.2114   13.9934 C   0  0  1  0  0  0  0  0  0  0  0  0
   21.2535   -0.8522   16.2654 C   0  0  1  0  0  0  0  0  0  0  0  0
   19.7168   -4.9993   18.6631 C   0  0  1  0  0  0  0  0  0  0  0  0
   28.7555   -0.4516   11.4783 C   0  0  2  0  0  0  0  0  0  0  0  0
   29.3826   -1.4334   10.5940 N   0  0  0  0  0  0  0  0  0  0  0  0
   28.0015   -5.1395   15.4642 C   0  0  0  0  0  0  0  0  0  0  0  0
   23.8816   -0.8315   13.6604 C   0  0  2  0  0  0  0  0  0  0  0  0
   24.6400    0.2374   14.2668 O   0  0  0  0  0  0  0  0  0  0  0  0
   21.4902   -1.7376   17.5697 C   0  0  2  0  0  0  0  0  0  0  0  0
   22.1243   -3.0377   17.2254 N   0  0  0  0  0  0  0  0  0  0  0  0
   19.4637   -6.2473   17.8252 C   0  0  1  0  0  0  0  0  0  0  0  0
   20.1987   -7.3525   18.3879 O   0  0  0  0  0  0  0  0  0  0  0  0
   29.8518    0.2981   12.3000 C   0  0  0  0  0  0  0  0  0  0  0  0
   28.6886   -4.0600   14.5346 C   0  0  2  0  0  0  0  0  0  0  0  0
   29.7945   -3.4004   15.2367 N   0  0  0  0  0  0  0  0  0  0  0  0
   22.4850   -0.9751   14.1923 C   0  0  2  0  0  0  0  0  0  0  0  0
   22.4786   -0.8693   15.5934 O   0  0  0  0  0  0  0  0  0  0  0  0
   20.1208   -1.8492   18.3743 C   0  0  1  0  0  0  0  0  0  0  0  0
   19.5956   -0.5335   18.5785 O   0  0  0  0  0  0  0  0  0  0  0  0
   18.0033   -6.6658   17.7052 C   0  0  1  0  0  0  0  0  0  0  0  0
   17.9830   -7.9625   17.0981 O   0  0  0  0  0  0  0  0  0  0  0  0
   29.1583    1.3198   13.2492 C   0  0  2  0  0  0  0  0  0  0  0  0
   30.1010    2.0917   13.9714 O   0  0  0  0  0  0  0  0  0  0  0  0
   27.6478   -3.0123   14.0613 C   0  0  2  0  0  0  0  0  0  0  0  0
   22.0800   -2.4396   13.9265 C   0  0  2  0  0  0  0  0  0  0  0  0
   23.3302   -3.1074   13.9913 O   0  0  0  0  0  0  0  0  0  0  0  0
   19.0219   -2.6280   17.5405 C   0  0  2  0  0  0  0  0  0  0  0  0
   19.5626   -3.9411   17.3858 O   0  0  0  0  0  0  0  0  0  0  0  0
   17.2659   -6.7215   19.0442 C   0  0  2  0  0  0  0  0  0  0  0  0
   15.8638   -6.8160   18.7443 O   0  0  0  0  0  0  0  0  0  0  0  0
   28.2130    0.5408   14.1972 C   0  0  2  0  0  0  0  0  0  0  0  0
   27.2132   -0.1165   13.3671 O   0  0  0  0  0  0  0  0  0  0  0  0
   26.3790   -3.6294   13.3902 C   0  0  2  0  0  0  0  0  0  0  0  0
   25.4413   -2.5687   13.0557 O   0  0  0  0  0  0  0  0  0  0  0  0
   21.4206   -2.7300   12.5788 C   0  0  0  0  0  0  0  0  0  0  0  0
   20.2219   -1.9444   12.5057 O   0  0  0  0  0  0  0  0  0  0  0  0
   19.0451   -2.0116   16.1551 C   0  0  1  0  0  0  0  0  0  0  0  0
   20.1433   -1.4388   15.4131 O   0  0  0  0  0  0  0  0  0  0  0  0
   17.6382   -5.5431   19.9371 C   0  0  2  0  0  0  0  0  0  0  0  0
   18.9469   -4.9542   19.8889 O   0  0  0  0  0  0  0  0  0  0  0  0
   27.4549    1.4279   15.1252 C   0  0  0  0  0  0  0  0  0  0  0  0
   26.7057    0.6003   15.9819 O   0  0  0  0  0  0  0  0  0  0  0  0
   25.7445   -4.7307   14.3050 C   0  0  1  0  0  0  0  0  0  0  0  0
   24.7008   -5.3817   13.5329 O   0  0  0  0  0  0  0  0  0  0  0  0
   17.9737   -2.5300   15.1470 C   0  0  0  0  0  0  0  0  0  0  0  0
   18.4595   -3.6319   14.2899 N   0  0  0  0  0  0  0  0  0  0  0  0
   17.0629   -5.3448   21.3377 C   0  0  0  0  0  0  0  0  0  0  0  0
   18.1384   -5.1288   22.2893 O   0  0  0  0  0  0  0  0  0  0  0  0
  1  2  1  1  0  0  0
  1  8  1  0  0  0  0
  1 36  1  0  0  0  0
  3  4  1  1  0  0  0
  3 10  1  0  0  0  0
  3 47  1  0  0  0  0
  5 11  1  0  0  0  0
  5 30  1  0  0  0  0
  5 38  1  6  0  0  0
  6 21  1  6  0  0  0
  6 42  1  0  0  0  0
  7 15  1  0  0  0  0
  7 44  1  0  0  0  0
  7 32  1  6  0  0  0
  8  9  1  1  0  0  0
  8 17  1  0  0  0  0
 11 12  1  1  0  0  0
 11 20  1  0  0  0  0
 13  6  1  0  0  0  0
 13 14  1  6  0  0  0
 15 16  1  1  0  0  0
 15 24  1  0  0  0  0
 17 26  1  0  0  0  0
 18 10  1  0  0  0  0
 18 19  1  1  0  0  0
 20 21  1  1  0  0  0
 20 29  1  0  0  0  0
 22 13  1  0  0  0  0
 22 23  1  6  0  0  0
 24 25  1  1  0  0  0
 24 33  1  0  0  0  0
 26 27  1  1  0  0  0
 26 35  1  0  0  0  0
 28  2  1  6  0  0  0
 28 18  1  0  0  0  0
 29 30  1  0  0  0  0
 29 39  1  6  0  0  0
 31 22  1  0  0  0  0
 31 32  1  6  0  0  0
 31 41  1  0  0  0  0
 33 34  1  6  0  0  0
 33 43  1  0  0  0  0
 35 36  1  0  0  0  0
 35 45  1  1  0  0  0
 37 28  1  0  0  0  0
 37 38  1  1  0  0  0
 39 40  1  0  0  0  0
 41 42  1  0  0  0  0
 41 49  1  6  0  0  0
 43 44  1  0  0  0  0
 43 51  1  1  0  0  0
 45 46  1  0  0  0  0
 47 37  1  0  0  0  0
 47 48  1  6  0  0  0
 49 50  1  0  0  0  0
 51 52  1  0  0  0  0
M  END
>  <CHROM.1>
-175.50757729,161.93036790,140.14670874,146.88592948,174.08689083,174.72810877
-60.06662329,69.42983702,-176.30575886,-91.59908749,-93.85639572,128.77569490
23.15968016,-2.88967132,15.58177674,-0.45934062,-0.37931199,2.87810060

>  <Name>
2esj_lig

>  <RI>
1.62275e+07

>  <Rbt.Current_Directory>
/home/itssahil/PROJECTS/Mol_Feturizer/New_Systems/rnas/2esj

>  <Rbt.Executable>
rbdock ($Id: //depot/dev/client3/rdock/2013.1/src/exe/rbdock.cxx#4 $)

>  <Rbt.Library>
libRbt.so (2013.1, Build901 2013/11/27)

>  <Rbt.Parameter_File>
/export/apps/rDock/src/rDock_2013.1_src/data/scripts/dock_solv.prm

>  <Rbt.Receptor>
prm/pocket_docking_5.prm

>  <SCORE>
-12.7196

>  <SCORE.INTER>
-11.3473

>  <SCORE.INTER.CONST>
1

>  <SCORE.INTER.POLAR>
-0.979796

>  <SCORE.INTER.ROT>
12

>  <SCORE.INTER.SOLV>
12.5585

>  <SCORE.INTER.VDW>
-20.0851

>  <SCORE.INTER.norm>
-0.218218

>  <SCORE.INTRA>
-1.37227

>  <SCORE.INTRA.DIHEDRAL>
-10.6045

>  <SCORE.INTRA.DIHEDRAL.0>
32.9766

>  <SCORE.INTRA.POLAR>
0

>  <SCORE.INTRA.POLAR.0>
0

>  <SCORE.INTRA.REPUL>
0

>  <SCORE.INTRA.REPUL.0>
0

>  <SCORE.INTRA.SOLV>
1.88923

>  <SCORE.INTRA.SOLV.lig_0>
-114.358

>  <SCORE.INTRA.VDW>
2.98538

>  <SCORE.INTRA.VDW.0>
-8.24257

>  <SCORE.INTRA.norm>
-0.0263898

>  <SCORE.RESTR>
0

>  <SCORE.RESTR.CAVITY>
0

>  <SCORE.RESTR.norm>
0

>  <SCORE.SYSTEM>
0

>  <SCORE.SYSTEM.CONST>
0

>  <SCORE.SYSTEM.DIHEDRAL>
0

>  <SCORE.SYSTEM.SOLV>
0

>  <SCORE.SYSTEM.norm>
0

>  <SCORE.heavy>
52

>  <SCORE.norm>
-0.244608

>  <RMSD>
10.727

$$$$
2esj_lig
 OpenBabel11021811423D
libRbt.so/2013.1/901 2013/11/27
 52 56  0  0  0  0  0  0  0  0999 V2000
   29.3695   -0.9127   16.2469 C   0  0  2  0  0  0  0  0  0  0  0  0
   30.0041   -1.1447   17.5190 O   0  0  0  0  0  0  0  0  0  0  0  0
   30.9453   -4.5949   19.8637 C   0  0  2  0  0  0  0  0  0  0  0  0
   30.8888   -5.7844   20.7294 N   0  0  0  0  0  0  0  0  0  0  0  0
   28.1252   -3.7783   16.3583 C   0  0  1  0  0  0  0  0  0  0  0  0
   24.6780   -3.9439   14.6178 C   0  0  1  0  0  0  0  0  0  0  0  0
   19.9425   -2.4307   14.5962 C   0  0  1  0  0  0  0  0  0  0  0  0
   29.8116    0.4963   15.7526 C   0  0  2  0  0  0  0  0  0  0  0  0
   31.2663    0.6217   15.6678 N   0  0  0  0  0  0  0  0  0  0  0  0
   30.2920   -3.3541   20.5924 C   0  0  0  0  0  0  0  0  0  0  0  0
   27.5568   -4.7556   15.3286 C   0  0  2  0  0  0  0  0  0  0  0  0
   27.3984   -4.1526   14.0260 O   0  0  0  0  0  0  0  0  0  0  0  0
   23.7174   -2.6877   14.8187 C   0  0  2  0  0  0  0  0  0  0  0  0
   22.9072   -2.8271   16.0577 N   0  0  0  0  0  0  0  0  0  0  0  0
   19.4155   -3.0090   15.9043 C   0  0  1  0  0  0  0  0  0  0  0  0
   19.0397   -1.9289   16.7822 O   0  0  0  0  0  0  0  0  0  0  0  0
   29.2358    1.6167   16.6758 C   0  0  0  0  0  0  0  0  0  0  0  0
   30.4151   -2.0736   19.6722 C   0  0  2  0  0  0  0  0  0  0  0  0
   29.8034   -0.9090   20.3206 N   0  0  0  0  0  0  0  0  0  0  0  0
   26.2652   -5.1341   15.9939 C   0  0  2  0  0  0  0  0  0  0  0  0
   25.3176   -4.1067   15.8495 O   0  0  0  0  0  0  0  0  0  0  0  0
   22.8756   -2.4621   13.4862 C   0  0  1  0  0  0  0  0  0  0  0  0
   23.7750   -2.4108   12.3739 O   0  0  0  0  0  0  0  0  0  0  0  0
   18.2187   -3.9426   15.7681 C   0  0  1  0  0  0  0  0  0  0  0  0
   17.7232   -4.1913   17.0882 O   0  0  0  0  0  0  0  0  0  0  0  0
   27.6903    1.4475   16.7682 C   0  0  2  0  0  0  0  0  0  0  0  0
   27.0921    2.4803   17.5308 O   0  0  0  0  0  0  0  0  0  0  0  0
   29.7549   -2.3329   18.2931 C   0  0  2  0  0  0  0  0  0  0  0  0
   26.5610   -5.1593   17.5076 C   0  0  2  0  0  0  0  0  0  0  0  0
   27.5864   -4.1856   17.6237 O   0  0  0  0  0  0  0  0  0  0  0  0
   21.9059   -3.6819   13.2013 C   0  0  2  0  0  0  0  0  0  0  0  0
   21.0049   -3.6815   14.3097 O   0  0  0  0  0  0  0  0  0  0  0  0
   17.0916   -3.3778   14.9016 C   0  0  2  0  0  0  0  0  0  0  0  0
   16.2006   -4.4678   14.6143 O   0  0  0  0  0  0  0  0  0  0  0  0
   27.3874    0.0501   17.3639 C   0  0  2  0  0  0  0  0  0  0  0  0
   27.9366   -0.9392   16.4471 O   0  0  0  0  0  0  0  0  0  0  0  0
   30.2710   -3.6172   17.5684 C   0  0  2  0  0  0  0  0  0  0  0  0
   29.5350   -3.8042   16.3275 O   0  0  0  0  0  0  0  0  0  0  0  0
   27.0558   -6.4859   18.0829 C   0  0  0  0  0  0  0  0  0  0  0  0
   26.0221   -7.4596   17.8750 O   0  0  0  0  0  0  0  0  0  0  0  0
   22.7548   -4.9278   13.3662 C   0  0  1  0  0  0  0  0  0  0  0  0
   23.8772   -5.1763   14.2397 O   0  0  0  0  0  0  0  0  0  0  0  0
   17.6369   -2.6708   13.6658 C   0  0  2  0  0  0  0  0  0  0  0  0
   18.9007   -1.9897   13.6921 O   0  0  0  0  0  0  0  0  0  0  0  0
   25.9284   -0.2425   17.4552 C   0  0  0  0  0  0  0  0  0  0  0  0
   25.3839    0.6246   18.4204 O   0  0  0  0  0  0  0  0  0  0  0  0
   30.1874   -4.8624   18.5142 C   0  0  1  0  0  0  0  0  0  0  0  0
   30.8595   -5.9595   17.8405 O   0  0  0  0  0  0  0  0  0  0  0  0
   22.0636   -6.2867   13.0371 C   0  0  0  0  0  0  0  0  0  0  0  0
   22.6868   -7.4416   13.7172 N   0  0  0  0  0  0  0  0  0  0  0  0
   16.7412   -2.0018   12.6256 C   0  0  0  0  0  0  0  0  0  0  0  0
   16.7905   -0.5591   12.7834 O   0  0  0  0  0  0  0  0  0  0  0  0
  1  2  1  1  0  0  0
  1  8  1  0  0  0  0
  1 36  1  0  0  0  0
  3  4  1  1  0  0  0
  3 10  1  0  0  0  0
  3 47  1  0  0  0  0
  5 11  1  0  0  0  0
  5 30  1  0  0  0  0
  5 38  1  1  0  0  0
  6 21  1  1  0  0  0
  6 42  1  0  0  0  0
  7 15  1  0  0  0  0
  7 44  1  0  0  0  0
  7 32  1  6  0  0  0
  8  9  1  1  0  0  0
  8 17  1  0  0  0  0
 11 12  1  6  0  0  0
 11 20  1  0  0  0  0
 13  6  1  0  0  0  0
 13 14  1  1  0  0  0
 15 16  1  1  0  0  0
 15 24  1  0  0  0  0
 17 26  1  0  0  0  0
 18 10  1  0  0  0  0
 18 19  1  1  0  0  0
 20 21  1  1  0  0  0
 20 29  1  0  0  0  0
 22 13  1  0  0  0  0
 22 23  1  6  0  0  0
 24 25  1  1  0  0  0
 24 33  1  0  0  0  0
 26 27  1  1  0  0  0
 26 35  1  0  0  0  0
 28  2  1  6  0  0  0
 28 18  1  0  0  0  0
 29 30  1  0  0  0  0
 29 39  1  6  0  0  0
 31 22  1  0  0  0  0
 31 32  1  1  0  0  0
 31 41  1  0  0  0  0
 33 34  1  6  0  0  0
 33 43  1  0  0  0  0
 35 36  1  0  0  0  0
 35 45  1  6  0  0  0
 37 28  1  0  0  0  0
 37 38  1  6  0  0  0
 39 40  1  0  0  0  0
 41 42  1  0  0  0  0
 41 49  1  1  0  0  0
 43 44  1  0  0  0  0
 43 51  1  1  0  0  0
 45 46  1  0  0  0  0
 47 37  1  0  0  0  0
 47 48  1  6  0  0  0
 49 50  1  0  0  0  0
 51 52  1  0  0  0  0
M  END
>  <CHROM.1>
176.72971355,-145.58883613,-178.78715141,-176.02634438,76.17307730,-170.13640737
-61.79847962,64.61853455,-67.62716503,-51.12629540,-156.07008582,104.59319172
25.05946582,-2.97010783,16.13934768,0.04986028,-0.33324738,-0.02811581

>  <Name>
2esj_lig

>  <RI>
0

>  <Rbt.Current_Directory>
/home/itssahil/PROJECTS/Mol_Feturizer/New_Systems/rnas/2esj

>  <Rbt.Executable>
rbdock ($Id: //depot/dev/client3/rdock/2013.1/src/exe/rbdock.cxx#4 $)

>  <Rbt.Library>
libRbt.so (2013.1, Build901 2013/11/27)

>  <Rbt.Parameter_File>
/export/apps/rDock/src/rDock_2013.1_src/data/scripts/dock_solv.prm

>  <Rbt.Receptor>
prm/pocket_docking_6.prm

>  <SCORE>
-7.18094

>  <SCORE.INTER>
1.05655

>  <SCORE.INTER.CONST>
1

>  <SCORE.INTER.POLAR>
-0.899253

>  <SCORE.INTER.ROT>
12

>  <SCORE.INTER.SOLV>
6.44613

>  <SCORE.INTER.VDW>
-10.0468

>  <SCORE.INTER.norm>
0.0203183

>  <SCORE.INTRA>
-8.23749

>  <SCORE.INTRA.DIHEDRAL>
-19.6993

>  <SCORE.INTRA.DIHEDRAL.0>
32.9766

>  <SCORE.INTRA.POLAR>
0

>  <SCORE.INTRA.POLAR.0>
0

>  <SCORE.INTRA.REPUL>
0

>  <SCORE.INTRA.REPUL.0>
0

>  <SCORE.INTRA.SOLV>
-2.24715

>  <SCORE.INTRA.SOLV.lig_0>
-114.358

>  <SCORE.INTRA.VDW>
2.73575

>  <SCORE.INTRA.VDW.0>
-8.24257

>  <SCORE.INTRA.norm>
-0.158413

>  <SCORE.RESTR>
0

>  <SCORE.RESTR.CAVITY>
0

>  <SCORE.RESTR.norm>
0

>  <SCORE.SYSTEM>
0

>  <SCORE.SYSTEM.CONST>
0

>  <SCORE.SYSTEM.DIHEDRAL>
0

>  <SCORE.SYSTEM.SOLV>
0

>  <SCORE.SYSTEM.norm>
0

>  <SCORE.heavy>
52

>  <SCORE.norm>
-0.138095

>  <RMSD>
10.732

$$$$
2esj_lig
 OpenBabel11021811423D
libRbt.so/2013.1/901 2013/11/27
 52 56  0  0  0  0  0  0  0  0999 V2000
   31.0942   -4.4412   16.6092 C   0  0  2  0  0  0  0  0  0  0  0  0
   29.9517   -3.6895   17.0615 O   0  0  0  0  0  0  0  0  0  0  0  0
   27.3865   -6.8766   18.3066 C   0  0  2  0  0  0  0  0  0  0  0  0
   26.3553   -7.6989   18.9606 N   0  0  0  0  0  0  0  0  0  0  0  0
   26.2730   -4.1105   14.9325 C   0  0  1  0  0  0  0  0  0  0  0  0
   23.2016   -4.1206   12.0060 C   0  0  1  0  0  0  0  0  0  0  0  0
   18.3535   -5.1249   12.7513 C   0  0  1  0  0  0  0  0  0  0  0  0
   32.1814   -3.4190   16.1642 C   0  0  2  0  0  0  0  0  0  0  0  0
   32.5316   -2.4833   17.2325 N   0  0  0  0  0  0  0  0  0  0  0  0
   28.3233   -6.2075   19.3892 C   0  0  0  0  0  0  0  0  0  0  0  0
   25.3608   -2.9059   14.6966 C   0  0  2  0  0  0  0  0  0  0  0  0
   24.2262   -2.8913   15.5898 O   0  0  0  0  0  0  0  0  0  0  0  0
   22.2227   -2.8844   12.2405 C   0  0  2  0  0  0  0  0  0  0  0  0
   21.6382   -2.9172   13.6073 N   0  0  0  0  0  0  0  0  0  0  0  0
   17.3226   -4.0704   13.1369 C   0  0  1  0  0  0  0  0  0  0  0  0
   16.0001   -4.5878   12.8881 O   0  0  0  0  0  0  0  0  0  0  0  0
   31.7192   -2.6295   14.8984 C   0  0  0  0  0  0  0  0  0  0  0  0
   29.4593   -5.3771   18.6670 C   0  0  2  0  0  0  0  0  0  0  0  0
   30.3359   -4.7338   19.6512 N   0  0  0  0  0  0  0  0  0  0  0  0
   25.0057   -3.1099   13.2522 C   0  0  2  0  0  0  0  0  0  0  0  0
   24.0447   -4.1265   13.1204 O   0  0  0  0  0  0  0  0  0  0  0  0
   21.1604   -2.8341   11.0555 C   0  0  1  0  0  0  0  0  0  0  0  0
   21.8584   -2.8720    9.8065 O   0  0  0  0  0  0  0  0  0  0  0  0
   17.3800   -3.6032   14.5864 C   0  0  1  0  0  0  0  0  0  0  0  0
   16.2113   -2.8103   14.8222 O   0  0  0  0  0  0  0  0  0  0  0  0
   31.3304   -3.6469   13.7852 C   0  0  2  0  0  0  0  0  0  0  0  0
   30.9736   -2.9965   12.5786 O   0  0  0  0  0  0  0  0  0  0  0  0
   28.8367   -4.3158   17.7230 C   0  0  2  0  0  0  0  0  0  0  0  0
   26.2663   -3.6990   12.5862 C   0  0  2  0  0  0  0  0  0  0  0  0
   26.8607   -4.4119   13.6593 O   0  0  0  0  0  0  0  0  0  0  0  0
   20.2227   -4.1108   11.0649 C   0  0  2  0  0  0  0  0  0  0  0  0
   19.5197   -4.0220   12.3052 O   0  0  0  0  0  0  0  0  0  0  0  0
   17.4299   -4.7468   15.6012 C   0  0  2  0  0  0  0  0  0  0  0  0
   17.7932   -4.1671   16.8648 O   0  0  0  0  0  0  0  0  0  0  0  0
   30.1780   -4.5348   14.3168 C   0  0  2  0  0  0  0  0  0  0  0  0
   30.6838   -5.2489   15.4809 O   0  0  0  0  0  0  0  0  0  0  0  0
   27.8059   -4.8947   16.7016 C   0  0  2  0  0  0  0  0  0  0  0  0
   27.2313   -3.8089   15.9224 O   0  0  0  0  0  0  0  0  0  0  0  0
   27.2734   -2.6948   12.0266 C   0  0  0  0  0  0  0  0  0  0  0  0
   26.5971   -1.9136   11.0307 O   0  0  0  0  0  0  0  0  0  0  0  0
   21.1518   -5.3010   11.2071 C   0  0  1  0  0  0  0  0  0  0  0  0
   22.4154   -5.4140   11.8965 O   0  0  0  0  0  0  0  0  0  0  0  0
   18.3537   -5.8671   15.1363 C   0  0  2  0  0  0  0  0  0  0  0  0
   18.5192   -6.1680   13.7421 O   0  0  0  0  0  0  0  0  0  0  0  0
   29.7530   -5.5838   13.3465 C   0  0  0  0  0  0  0  0  0  0  0  0
   29.3833   -4.9319   12.1555 O   0  0  0  0  0  0  0  0  0  0  0  0
   26.7200   -5.7545   17.4323 C   0  0  1  0  0  0  0  0  0  0  0  0
   25.9269   -6.4077   16.4059 O   0  0  0  0  0  0  0  0  0  0  0  0
   20.4883   -6.7110   11.1396 C   0  0  0  0  0  0  0  0  0  0  0  0
   19.4192   -6.8080   10.1236 N   0  0  0  0  0  0  0  0  0  0  0  0
   18.5897   -7.1413   15.9440 C   0  0  0  0  0  0  0  0  0  0  0  0
   19.4951   -6.8689   17.0463 O   0  0  0  0  0  0  0  0  0  0  0  0
  1  2  1  6  0  0  0
  1  8  1  0  0  0  0
  1 36  1  0  0  0  0
  3  4  1  1  0  0  0
  3 10  1  0  0  0  0
  3 47  1  0  0  0  0
  5 11  1  0  0  0  0
  5 30  1  0  0  0  0
  5 38  1  1  0  0  0
  6 21  1  1  0  0  0
  6 42  1  0  0  0  0
  7 15  1  0  0  0  0
  7 44  1  0  0  0  0
  7 32  1  1  0  0  0
  8  9  1  1  0  0  0
  8 17  1  0  0  0  0
 11 12  1  1  0  0  0
 11 20  1  0  0  0  0
 13  6  1  0  0  0  0
 13 14  1  1  0  0  0
 15 16  1  1  0  0  0
 15 24  1  0  0  0  0
 17 26  1  0  0  0  0
 18 10  1  0  0  0  0
 18 19  1  1  0  0  0
 20 21  1  1  0  0  0
 20 29  1  0  0  0  0
 22 13  1  0  0  0  0
 22 23  1  6  0  0  0
 24 25  1  1  0  0  0
 24 33  1  0  0  0  0
 26 27  1  6  0  0  0
 26 35  1  0  0  0  0
 28  2  1  6  0  0  0
 28 18  1  0  0  0  0
 29 30  1  0  0  0  0
 29 39  1  1  0  0  0
 31 22  1  0  0  0  0
 31 32  1  1  0  0  0
 31 41  1  0  0  0  0
 33 34  1  1  0  0  0
 33 43  1  0  0  0  0
 35 36  1  0  0  0  0
 35 45  1  6  0  0  0
 37 28  1  0  0  0  0
 37 38  1  1  0  0  0
 39 40  1  0  0  0  0
 41 42  1  0  0  0  0
 41 49  1  1  0  0  0
 43 44  1  0  0  0  0
 43 51  1  1  0  0  0
 45 46  1  0  0  0  0
 47 37  1  0  0  0  0
 47 48  1  6  0  0  0
 49 50  1  0  0  0  0
 51 52  1  0  0  0  0
M  END
>  <CHROM.1>
-170.86297666,154.15502351,-70.72391625,-130.90505002,154.51033860,39.93644057
-59.94183276,177.50138833,-56.98567767,179.83901840,39.69708534,-76.96280656
24.55384731,-4.47060752,14.45081147,0.19965221,0.10922128,1.89368931

>  <Name>
2esj_lig

>  <RI>
0

>  <Rbt.Current_Directory>
/home/itssahil/PROJECTS/Mol_Feturizer/New_Systems/rnas/2esj

>  <Rbt.Executable>
rbdock ($Id: //depot/dev/client3/rdock/2013.1/src/exe/rbdock.cxx#4 $)

>  <Rbt.Library>
libRbt.so (2013.1, Build901 2013/11/27)

>  <Rbt.Parameter_File>
/export/apps/rDock/src/rDock_2013.1_src/data/scripts/dock_solv.prm

>  <Rbt.Receptor>
prm/pocket_docking_4.prm

>  <SCORE>
-8.61316

>  <SCORE.INTER>
-5.6289

>  <SCORE.INTER.CONST>
1

>  <SCORE.INTER.POLAR>
-0.824621

>  <SCORE.INTER.ROT>
12

>  <SCORE.INTER.SOLV>
13.4083

>  <SCORE.INTER.VDW>
-17.0733

>  <SCORE.INTER.norm>
-0.108248

>  <SCORE.INTRA>
-3.03546

>  <SCORE.INTRA.DIHEDRAL>
-12.7527

>  <SCORE.INTRA.DIHEDRAL.0>
32.9766

>  <SCORE.INTRA.POLAR>
0

>  <SCORE.INTRA.POLAR.0>
0

>  <SCORE.INTRA.REPUL>
0

>  <SCORE.INTRA.REPUL.0>
0

>  <SCORE.INTRA.SOLV>
0.752846

>  <SCORE.INTRA.SOLV.lig_0>
-114.358

>  <SCORE.INTRA.VDW>
2.96446

>  <SCORE.INTRA.VDW.0>
-8.24257

>  <SCORE.INTRA.norm>
-0.0583742

>  <SCORE.RESTR>
0.0511999

>  <SCORE.RESTR.CAVITY>
0.0511999

>  <SCORE.RESTR.norm>
0.000984613

>  <SCORE.SYSTEM>
0

>  <SCORE.SYSTEM.CONST>
0

>  <SCORE.SYSTEM.DIHEDRAL>
0

>  <SCORE.SYSTEM.SOLV>
0

>  <SCORE.SYSTEM.norm>
0

>  <SCORE.heavy>
52

>  <SCORE.norm>
-0.165638

>  <RMSD>
10.741

$$$$
2esj_lig
 OpenBabel11021811423D
libRbt.so/2013.1/901 2013/11/27
 52 56  0  0  0  0  0  0  0  0999 V2000
   27.7417   -1.9733   11.6655 C   0  0  2  0  0  0  0  0  0  0  0  0
   26.8657   -3.0956   11.8851 O   0  0  0  0  0  0  0  0  0  0  0  0
   23.5696   -1.0723   13.7100 C   0  0  2  0  0  0  0  0  0  0  0  0
   22.2756   -0.7259   14.3206 N   0  0  0  0  0  0  0  0  0  0  0  0
   25.8442   -4.5794   15.2080 C   0  0  1  0  0  0  0  0  0  0  0  0
   24.5255   -8.2173   16.8183 C   0  0  1  0  0  0  0  0  0  0  0  0
   19.4660   -7.9829   17.3663 C   0  0  1  0  0  0  0  0  0  0  0  0
   28.8410   -2.4267   10.6601 C   0  0  2  0  0  0  0  0  0  0  0  0
   28.2736   -2.9293    9.4092 N   0  0  0  0  0  0  0  0  0  0  0  0
   23.3483   -1.7260   12.2883 C   0  0  0  0  0  0  0  0  0  0  0  0
   26.8741   -5.6119   15.6683 C   0  0  2  0  0  0  0  0  0  0  0  0
   27.3633   -6.4247   14.5796 O   0  0  0  0  0  0  0  0  0  0  0  0
   23.6016   -9.0019   15.7829 C   0  0  2  0  0  0  0  0  0  0  0  0
   22.7962   -8.0581   14.9634 N   0  0  0  0  0  0  0  0  0  0  0  0
   18.8373   -7.7648   15.9949 C   0  0  1  0  0  0  0  0  0  0  0  0
   17.4034   -7.8585   16.1109 O   0  0  0  0  0  0  0  0  0  0  0  0
   29.7651   -3.5126   11.2971 C   0  0  0  0  0  0  0  0  0  0  0  0
   24.7495   -2.0366   11.6236 C   0  0  2  0  0  0  0  0  0  0  0  0
   24.5719   -2.6573   10.3068 N   0  0  0  0  0  0  0  0  0  0  0  0
   26.0696   -6.3658   16.6873 C   0  0  2  0  0  0  0  0  0  0  0  0
   25.1688   -7.2393   16.0550 O   0  0  0  0  0  0  0  0  0  0  0  0
   22.7573  -10.0979   16.5709 C   0  0  1  0  0  0  0  0  0  0  0  0
   23.6502  -10.8892   17.3617 O   0  0  0  0  0  0  0  0  0  0  0  0
   19.1697   -6.4342   15.3305 C   0  0  1  0  0  0  0  0  0  0  0  0
   18.3182   -6.3079   14.1864 O   0  0  0  0  0  0  0  0  0  0  0  0
   30.3375   -2.9629   12.6372 C   0  0  2  0  0  0  0  0  0  0  0  0
   31.2482   -3.8699   13.2324 O   0  0  0  0  0  0  0  0  0  0  0  0
   25.5934   -2.9556   12.5446 C   0  0  2  0  0  0  0  0  0  0  0  0
   25.1613   -5.3201   17.3666 C   0  0  2  0  0  0  0  0  0  0  0  0
   24.9660   -4.3779   16.3240 O   0  0  0  0  0  0  0  0  0  0  0  0
   21.7522   -9.4275   17.5954 C   0  0  2  0  0  0  0  0  0  0  0  0
   20.8591   -8.6763   16.7716 O   0  0  0  0  0  0  0  0  0  0  0  0
   18.9742   -5.2230   16.2442 C   0  0  2  0  0  0  0  0  0  0  0  0
   19.6128   -4.1082   15.6007 O   0  0  0  0  0  0  0  0  0  0  0  0
   29.1509   -2.6448   13.5804 C   0  0  2  0  0  0  0  0  0  0  0  0
   28.3457   -1.6191   12.9319 O   0  0  0  0  0  0  0  0  0  0  0  0
   25.7517   -2.4252   14.0056 C   0  0  2  0  0  0  0  0  0  0  0  0
   26.4917   -3.3955   14.7977 O   0  0  0  0  0  0  0  0  0  0  0  0
   25.7385   -4.6087   18.5898 C   0  0  0  0  0  0  0  0  0  0  0  0
   24.6971   -3.7939   19.1475 O   0  0  0  0  0  0  0  0  0  0  0  0
   22.5672   -8.3994   18.3562 C   0  0  1  0  0  0  0  0  0  0  0  0
   23.6883   -7.5993   17.9230 O   0  0  0  0  0  0  0  0  0  0  0  0
   19.4738   -5.5020   17.6573 C   0  0  2  0  0  0  0  0  0  0  0  0
   19.4079   -6.8189   18.2260 O   0  0  0  0  0  0  0  0  0  0  0  0
   29.5802   -2.0637   14.8844 C   0  0  0  0  0  0  0  0  0  0  0  0
   28.4233   -1.8722   15.6623 O   0  0  0  0  0  0  0  0  0  0  0  0
   24.3569   -2.0765   14.6261 C   0  0  1  0  0  0  0  0  0  0  0  0
   24.6044   -1.4150   15.8951 O   0  0  0  0  0  0  0  0  0  0  0  0
   21.8363   -7.6545   19.5154 C   0  0  0  0  0  0  0  0  0  0  0  0
   22.5525   -7.7321   20.8060 N   0  0  0  0  0  0  0  0  0  0  0  0
   19.3963   -4.4764   18.7860 C   0  0  0  0  0  0  0  0  0  0  0  0
   20.2037   -3.3152   18.4568 O   0  0  0  0  0  0  0  0  0  0  0  0
  1  2  1  1  0  0  0
  1  8  1  0  0  0  0
  1 36  1  0  0  0  0
  3  4  1  1  0  0  0
  3 10  1  0  0  0  0
  3 47  1  0  0  0  0
  5 11  1  0  0  0  0
  5 30  1  0  0  0  0
  5 38  1  1  0  0  0
  6 21  1  6  0  0  0
  6 42  1  0  0  0  0
  7 15  1  0  0  0  0
  7 44  1  0  0  0  0
  7 32  1  6  0  0  0
  8  9  1  6  0  0  0
  8 17  1  0  0  0  0
 11 12  1  6  0  0  0
 11 20  1  0  0  0  0
 13  6  1  0  0  0  0
 13 14  1  1  0  0  0
 15 16  1  1  0  0  0
 15 24  1  0  0  0  0
 17 26  1  0  0  0  0
 18 10  1  0  0  0  0
 18 19  1  6  0  0  0
 20 21  1  6  0  0  0
 20 29  1  0  0  0  0
 22 13  1  0  0  0  0
 22 23  1  1  0  0  0
 24 25  1  6  0  0  0
 24 33  1  0  0  0  0
 26 27  1  1  0  0  0
 26 35  1  0  0  0  0
 28  2  1  6  0  0  0
 28 18  1  0  0  0  0
 29 30  1  0  0  0  0
 29 39  1  1  0  0  0
 31 22  1  0  0  0  0
 31 32  1  6  0  0  0
 31 41  1  0  0  0  0
 33 34  1  6  0  0  0
 33 43  1  0  0  0  0
 35 36  1  0  0  0  0
 35 45  1  1  0  0  0
 37 28  1  0  0  0  0
 37 38  1  1  0  0  0
 39 40  1  0  0  0  0
 41 42  1  0  0  0  0
 41 49  1  6  0  0  0
 43 44  1  0  0  0  0
 43 51  1  1  0  0  0
 45 46  1  0  0  0  0
 47 37  1  0  0  0  0
 47 48  1  1  0  0  0
 49 50  1  0  0  0  0
 51 52  1  0  0  0  0
M  END
>  <CHROM.1>
-167.24048658,164.08713126,-179.96603902,-163.63925635,167.22856227,63.60896884
-174.01480404,169.91602695,-177.69527307,-74.42007282,126.27023327,-62.76915258
24.15687637,-4.98692254,15.37749565,0.71606093,0.10266411,-0.65792438

>  <Name>
2esj_lig

>  <RI>
1.62275e+07

>  <Rbt.Current_Directory>
/home/itssahil/PROJECTS/Mol_Feturizer/New_Systems/rnas/2esj

>  <Rbt.Executable>
rbdock ($Id: //depot/dev/client3/rdock/2013.1/src/exe/rbdock.cxx#4 $)

>  <Rbt.Library>
libRbt.so (2013.1, Build901 2013/11/27)

>  <Rbt.Parameter_File>
/export/apps/rDock/src/rDock_2013.1_src/data/scripts/dock_solv.prm

>  <Rbt.Receptor>
prm/pocket_docking_5.prm

>  <SCORE>
-9.46931

>  <SCORE.INTER>
0.87841

>  <SCORE.INTER.CONST>
1

>  <SCORE.INTER.POLAR>
-0.838335

>  <SCORE.INTER.ROT>
12

>  <SCORE.INTER.SOLV>
7.55263

>  <SCORE.INTER.VDW>
-10.7375

>  <SCORE.INTER.norm>
0.0168925

>  <SCORE.INTRA>
-10.3477

>  <SCORE.INTRA.DIHEDRAL>
-22.0956

>  <SCORE.INTRA.DIHEDRAL.0>
32.9766

>  <SCORE.INTRA.POLAR>
0

>  <SCORE.INTRA.POLAR.0>
0

>  <SCORE.INTRA.REPUL>
0

>  <SCORE.INTRA.REPUL.0>
0

>  <SCORE.INTRA.SOLV>
-2.15114

>  <SCORE.INTRA.SOLV.lig_0>
-114.358

>  <SCORE.INTRA.VDW>
1.77566

>  <SCORE.INTRA.VDW.0>
-8.24257

>  <SCORE.INTRA.norm>
-0.198995

>  <SCORE.RESTR>
0

>  <SCORE.RESTR.CAVITY>
0

>  <SCORE.RESTR.norm>
0

>  <SCORE.SYSTEM>
0

>  <SCORE.SYSTEM.CONST>
0

>  <SCORE.SYSTEM.DIHEDRAL>
0

>  <SCORE.SYSTEM.SOLV>
0

>  <SCORE.SYSTEM.norm>
0

>  <SCORE.heavy>
52

>  <SCORE.norm>
-0.182102

>  <RMSD>
10.750

$$$$
2esj_lig
 OpenBabel11021811423D
libRbt.so/2013.1/901 2013/11/27
 52 56  0  0  0  0  0  0  0  0999 V2000
   29.2597   -2.0896   15.4954 C   0  0  2  0  0  0  0  0  0  0  0  0
   28.0165   -1.8490   16.1819 O   0  0  0  0  0  0  0  0  0  0  0  0
   27.2726   -5.7290   17.8190 C   0  0  2  0  0  0  0  0  0  0  0  0
   26.6834   -6.9017   18.4860 N   0  0  0  0  0  0  0  0  0  0  0  0
   24.8895   -3.7548   14.7138 C   0  0  1  0  0  0  0  0  0  0  0  0
   20.7465   -3.0915   15.4032 C   0  0  1  0  0  0  0  0  0  0  0  0
   18.2313   -5.4359   18.7360 C   0  0  1  0  0  0  0  0  0  0  0  0
   29.8503   -0.7051   15.0963 C   0  0  2  0  0  0  0  0  0  0  0  0
   30.0259    0.1752   16.2510 N   0  0  0  0  0  0  0  0  0  0  0  0
   27.3143   -4.4978   18.8089 C   0  0  0  0  0  0  0  0  0  0  0  0
   24.3533   -2.6255   15.5944 C   0  0  2  0  0  0  0  0  0  0  0  0
   24.2896   -2.9972   16.9884 O   0  0  0  0  0  0  0  0  0  0  0  0
   20.3744   -3.2276   16.9473 C   0  0  2  0  0  0  0  0  0  0  0  0
   20.8695   -4.5140   17.5051 N   0  0  0  0  0  0  0  0  0  0  0  0
   18.8063   -6.8472   18.7678 C   0  0  1  0  0  0  0  0  0  0  0  0
   19.5501   -7.0282   19.9895 O   0  0  0  0  0  0  0  0  0  0  0  0
   28.9536   -0.0042   14.0268 C   0  0  0  0  0  0  0  0  0  0  0  0
   28.0036   -3.2664   18.0948 C   0  0  2  0  0  0  0  0  0  0  0  0
   28.0428   -2.1045   18.9889 N   0  0  0  0  0  0  0  0  0  0  0  0
   23.0141   -2.3931   14.9566 C   0  0  2  0  0  0  0  0  0  0  0  0
   22.1080   -3.3984   15.3343 O   0  0  0  0  0  0  0  0  0  0  0  0
   18.8130   -2.9729   17.1273 C   0  0  1  0  0  0  0  0  0  0  0  0
   18.4694   -1.7377   16.4909 O   0  0  0  0  0  0  0  0  0  0  0  0
   17.7809   -7.9704   18.6705 C   0  0  1  0  0  0  0  0  0  0  0  0
   18.4665   -9.1953   18.9529 O   0  0  0  0  0  0  0  0  0  0  0  0
   28.7628   -0.9694   12.8195 C   0  0  2  0  0  0  0  0  0  0  0  0
   28.0205   -0.3660   11.7749 O   0  0  0  0  0  0  0  0  0  0  0  0
   27.2557   -2.9135   16.7829 C   0  0  2  0  0  0  0  0  0  0  0  0
   23.2199   -2.6243   13.4454 C   0  0  2  0  0  0  0  0  0  0  0  0
   24.2656   -3.5832   13.4337 O   0  0  0  0  0  0  0  0  0  0  0  0
   17.9571   -4.0877   16.3965 C   0  0  2  0  0  0  0  0  0  0  0  0
   18.2985   -5.2961   17.0773 O   0  0  0  0  0  0  0  0  0  0  0  0
   16.6030   -7.8150   19.6340 C   0  0  2  0  0  0  0  0  0  0  0  0
   15.5947   -8.7483   19.2135 O   0  0  0  0  0  0  0  0  0  0  0  0
   28.0799   -2.2619   13.3316 C   0  0  2  0  0  0  0  0  0  0  0  0
   28.9752   -2.8665   14.3081 O   0  0  0  0  0  0  0  0  0  0  0  0
   27.0729   -4.1196   15.8067 C   0  0  2  0  0  0  0  0  0  0  0  0
   26.2973   -3.6965   14.6509 O   0  0  0  0  0  0  0  0  0  0  0  0
   23.6399   -1.4077   12.6213 C   0  0  0  0  0  0  0  0  0  0  0  0
   23.6522   -1.8033   11.2418 O   0  0  0  0  0  0  0  0  0  0  0  0
   18.5542   -4.2190   15.0086 C   0  0  1  0  0  0  0  0  0  0  0  0
   19.9176   -4.0476   14.5654 O   0  0  0  0  0  0  0  0  0  0  0  0
   16.1273   -6.3683   19.7071 C   0  0  2  0  0  0  0  0  0  0  0  0
   17.0414   -5.2729   19.5452 O   0  0  0  0  0  0  0  0  0  0  0  0
   27.8888   -3.2845   12.2638 C   0  0  0  0  0  0  0  0  0  0  0  0
   26.6482   -3.0281   11.6512 O   0  0  0  0  0  0  0  0  0  0  0  0
   26.4359   -5.3439   16.5467 C   0  0  1  0  0  0  0  0  0  0  0  0
   26.4811   -6.4703   15.6311 O   0  0  0  0  0  0  0  0  0  0  0  0
   17.8256   -5.1897   14.0290 C   0  0  0  0  0  0  0  0  0  0  0  0
   18.3924   -6.5548   14.0264 N   0  0  0  0  0  0  0  0  0  0  0  0
   14.9721   -5.9152   20.5970 C   0  0  0  0  0  0  0  0  0  0  0  0
   15.4824   -5.4596   21.8779 O   0  0  0  0  0  0  0  0  0  0  0  0
  1  2  1  6  0  0  0
  1  8  1  0  0  0  0
  1 36  1  0  0  0  0
  3  4  1  1  0  0  0
  3 10  1  0  0  0  0
  3 47  1  0  0  0  0
  5 11  1  0  0  0  0
  5 30  1  0  0  0  0
  5 38  1  6  0  0  0
  6 21  1  1  0  0  0
  6 42  1  0  0  0  0
  7 15  1  0  0  0  0
  7 44  1  0  0  0  0
  7 32  1  6  0  0  0
  8  9  1  1  0  0  0
  8 17  1  0  0  0  0
 11 12  1  1  0  0  0
 11 20  1  0  0  0  0
 13  6  1  0  0  0  0
 13 14  1  6  0  0  0
 15 16  1  1  0  0  0
 15 24  1  0  0  0  0
 17 26  1  0  0  0  0
 18 10  1  0  0  0  0
 18 19  1  1  0  0  0
 20 21  1  1  0  0  0
 20 29  1  0  0  0  0
 22 13  1  0  0  0  0
 22 23  1  6  0  0  0
 24 25  1  1  0  0  0
 24 33  1  0  0  0  0
 26 27  1  6  0  0  0
 26 35  1  0  0  0  0
 28  2  1  6  0  0  0
 28 18  1  0  0  0  0
 29 30  1  0  0  0  0
 29 39  1  6  0  0  0
 31 22  1  0  0  0  0
 31 32  1  1  0  0  0
 31 41  1  0  0  0  0
 33 34  1  6  0  0  0
 33 43  1  0  0  0  0
 35 36  1  0  0  0  0
 35 45  1  6  0  0  0
 37 28  1  0  0  0  0
 37 38  1  6  0  0  0
 39 40  1  0  0  0  0
 41 42  1  0  0  0  0
 41 49  1  1  0  0  0
 43 44  1  0  0  0  0
 43 51  1  1  0  0  0
 45 46  1  0  0  0  0
 47 37  1  0  0  0  0
 47 48  1  6  0  0  0
 49 50  1  0  0  0  0
 51 52  1  0  0  0  0
M  END
>  <CHROM.1>
-175.00777456,74.23287391,-114.28036205,-175.52536413,150.39049265,76.34940196
-174.62627364,51.40236597,-88.38077327,-87.14098869,-93.90968751,93.20788099
22.99450705,-4.01210378,16.20606828,-0.46817739,0.14322304,2.07758546

>  <Name>
2esj_lig

>  <RI>
0

>  <Rbt.Current_Directory>
/home/itssahil/PROJECTS/Mol_Feturizer/New_Systems/rnas/2esj

>  <Rbt.Executable>
rbdock ($Id: //depot/dev/client3/rdock/2013.1/src/exe/rbdock.cxx#4 $)

>  <Rbt.Library>
libRbt.so (2013.1, Build901 2013/11/27)

>  <Rbt.Parameter_File>
/export/apps/rDock/src/rDock_2013.1_src/data/scripts/dock_solv.prm

>  <Rbt.Receptor>
prm/pocket_docking_2.prm

>  <SCORE>
1.95623

>  <SCORE.INTER>
-3.47177

>  <SCORE.INTER.CONST>
1

>  <SCORE.INTER.POLAR>
-0.824621

>  <SCORE.INTER.ROT>
12

>  <SCORE.INTER.SOLV>
12.8827

>  <SCORE.INTER.VDW>
-15.46

>  <SCORE.INTER.norm>
-0.0667648

>  <SCORE.INTRA>
-1.50659

>  <SCORE.INTRA.DIHEDRAL>
-7.98546

>  <SCORE.INTRA.DIHEDRAL.0>
32.9766

>  <SCORE.INTRA.POLAR>
0

>  <SCORE.INTRA.POLAR.0>
0

>  <SCORE.INTRA.REPUL>
0

>  <SCORE.INTRA.REPUL.0>
0

>  <SCORE.INTRA.SOLV>
0.0109016

>  <SCORE.INTRA.SOLV.lig_0>
-114.358

>  <SCORE.INTRA.VDW>
2.48069

>  <SCORE.INTRA.VDW.0>
-8.24257

>  <SCORE.INTRA.norm>
-0.028973

>  <SCORE.RESTR>
6.93459

>  <SCORE.RESTR.CAVITY>
6.93459

>  <SCORE.RESTR.norm>
0.133358

>  <SCORE.SYSTEM>
0

>  <SCORE.SYSTEM.CONST>
0

>  <SCORE.SYSTEM.DIHEDRAL>
0

>  <SCORE.SYSTEM.SOLV>
0

>  <SCORE.SYSTEM.norm>
0

>  <SCORE.heavy>
52

>  <SCORE.norm>
0.0376198

>  <RMSD>
10.755

$$$$
2esj_lig
 OpenBabel11021811423D
libRbt.so/2013.1/901 2013/11/27
 52 56  0  0  0  0  0  0  0  0999 V2000
   24.4935    0.7218   13.9331 C   0  0  2  0  0  0  0  0  0  0  0  0
   23.8809    0.5220   12.6448 O   0  0  0  0  0  0  0  0  0  0  0  0
   20.1314   -0.9885   11.2495 C   0  0  2  0  0  0  0  0  0  0  0  0
   18.9912   -1.8443   10.8822 N   0  0  0  0  0  0  0  0  0  0  0  0
   21.8151   -1.3165   15.3193 C   0  0  1  0  0  0  0  0  0  0  0  0
   22.5978   -5.0128   17.1447 C   0  0  1  0  0  0  0  0  0  0  0  0
   19.0713   -8.1715   17.7731 C   0  0  1  0  0  0  0  0  0  0  0  0
   25.5552    1.8503   13.7772 C   0  0  2  0  0  0  0  0  0  0  0  0
   24.9763    3.0859   13.2505 N   0  0  0  0  0  0  0  0  0  0  0  0
   21.4497   -1.4965   10.5413 C   0  0  0  0  0  0  0  0  0  0  0  0
   22.9999   -2.1577   14.8426 C   0  0  2  0  0  0  0  0  0  0  0  0
   22.6773   -2.9557   13.6831 O   0  0  0  0  0  0  0  0  0  0  0  0
   21.8164   -6.2788   16.5722 C   0  0  2  0  0  0  0  0  0  0  0  0
   20.4126   -5.9298   16.2281 N   0  0  0  0  0  0  0  0  0  0  0  0
   17.7730   -7.3741   17.7268 C   0  0  1  0  0  0  0  0  0  0  0  0
   17.0811   -7.6669   16.4964 O   0  0  0  0  0  0  0  0  0  0  0  0
   26.7330    1.3850   12.8633 C   0  0  0  0  0  0  0  0  0  0  0  0
   22.6500   -0.5312   10.9001 C   0  0  2  0  0  0  0  0  0  0  0  0
   23.8904   -0.9889   10.2653 N   0  0  0  0  0  0  0  0  0  0  0  0
   23.2845   -2.9569   16.0812 C   0  0  2  0  0  0  0  0  0  0  0  0
   22.3429   -3.9895   16.2279 O   0  0  0  0  0  0  0  0  0  0  0  0
   21.9776   -7.4906   17.5923 C   0  0  1  0  0  0  0  0  0  0  0  0
   23.3680   -7.6711   17.8802 O   0  0  0  0  0  0  0  0  0  0  0  0
   16.8105   -7.6299   18.8803 C   0  0  1  0  0  0  0  0  0  0  0  0
   15.5731   -6.9900   18.5490 O   0  0  0  0  0  0  0  0  0  0  0  0
   27.3164    0.0573   13.4313 C   0  0  2  0  0  0  0  0  0  0  0  0
   28.4417   -0.3823   12.6921 O   0  0  0  0  0  0  0  0  0  0  0  0
   22.8314   -0.4416   12.4377 C   0  0  2  0  0  0  0  0  0  0  0  0
   22.9938   -2.0152   17.2679 C   0  0  2  0  0  0  0  0  0  0  0  0
   21.9793   -1.1771   16.7374 O   0  0  0  0  0  0  0  0  0  0  0  0
   21.2867   -7.1728   18.9818 C   0  0  2  0  0  0  0  0  0  0  0  0
   19.9015   -7.0333   18.6623 O   0  0  0  0  0  0  0  0  0  0  0  0
   16.5567   -9.1133   19.1541 C   0  0  2  0  0  0  0  0  0  0  0  0
   15.9030   -9.1955   20.4311 O   0  0  0  0  0  0  0  0  0  0  0  0
   26.1898   -1.0056   13.4413 C   0  0  2  0  0  0  0  0  0  0  0  0
   25.1387   -0.5138   14.3213 O   0  0  0  0  0  0  0  0  0  0  0  0
   21.5304   -0.0593   13.2138 C   0  0  2  0  0  0  0  0  0  0  0  0
   21.7943   -0.0783   14.6444 O   0  0  0  0  0  0  0  0  0  0  0  0
   24.1585   -1.1535   17.7547 C   0  0  0  0  0  0  0  0  0  0  0  0
   23.6992   -0.4084   18.8920 O   0  0  0  0  0  0  0  0  0  0  0  0
   21.7585   -5.7836   19.3661 C   0  0  1  0  0  0  0  0  0  0  0  0
   22.0960   -4.6549   18.5315 O   0  0  0  0  0  0  0  0  0  0  0  0
   17.8412   -9.9284   19.0535 C   0  0  2  0  0  0  0  0  0  0  0  0
   18.8902   -9.5593   18.1450 O   0  0  0  0  0  0  0  0  0  0  0  0
   26.6239   -2.3121   14.0133 C   0  0  0  0  0  0  0  0  0  0  0  0
   26.9235   -2.0992   15.3716 O   0  0  0  0  0  0  0  0  0  0  0  0
   20.3428   -0.9950   12.8059 C   0  0  1  0  0  0  0  0  0  0  0  0
   19.1410   -0.4549   13.4168 O   0  0  0  0  0  0  0  0  0  0  0  0
   21.3035   -5.2580   20.7624 C   0  0  0  0  0  0  0  0  0  0  0  0
   22.2662   -5.5564   21.8436 N   0  0  0  0  0  0  0  0  0  0  0  0
   17.8879  -11.4395   19.2680 C   0  0  0  0  0  0  0  0  0  0  0  0
   17.1547  -11.7923   20.4708 O   0  0  0  0  0  0  0  0  0  0  0  0
  1  2  1  6  0  0  0
  1  8  1  0  0  0  0
  1 36  1  0  0  0  0
  3  4  1  1  0  0  0
  3 10  1  0  0  0  0
  3 47  1  0  0  0  0
  5 11  1  0  0  0  0
  5 30  1  0  0  0  0
  5 38  1  6  0  0  0
  6 21  1  6  0  0  0
  6 42  1  0  0  0  0
  7 15  1  0  0  0  0
  7 44  1  0  0  0  0
  7 32  1  1  0  0  0
  8  9  1  6  0  0  0
  8 17  1  0  0  0  0
 11 12  1  6  0  0  0
 11 20  1  0  0  0  0
 13  6  1  0  0  0  0
 13 14  1  1  0  0  0
 15 16  1  6  0  0  0
 15 24  1  0  0  0  0
 17 26  1  0  0  0  0
 18 10  1  0  0  0  0
 18 19  1  6  0  0  0
 20 21  1  1  0  0  0
 20 29  1  0  0  0  0
 22 13  1  0  0  0  0
 22 23  1  1  0  0  0
 24 25  1  6  0  0  0
 24 33  1  0  0  0  0
 26 27  1  6  0  0  0
 26 35  1  0  0  0  0
 28  2  1  6  0  0  0
 28 18  1  0  0  0  0
 29 30  1  0  0  0  0
 29 39  1  6  0  0  0
 31 22  1  0  0  0  0
 31 32  1  6  0  0  0
 31 41  1  0  0  0  0
 33 34  1  1  0  0  0
 33 43  1  0  0  0  0
 35 36  1  0  0  0  0
 35 45  1  1  0  0  0
 37 28  1  0  0  0  0
 37 38  1  1  0  0  0
 39 40  1  0  0  0  0
 41 42  1  0  0  0  0
 41 49  1  1  0  0  0
 43 44  1  0  0  0  0
 43 51  1  6  0  0  0
 45 46  1  0  0  0  0
 47 37  1  0  0  0  0
 47 48  1  1  0  0  0
 49 50  1  0  0  0  0
 51 52  1  0  0  0  0
M  END
>  <CHROM.1>
-178.91825897,66.59103597,-152.54937138,-175.94859386,166.28222452,-169.52883727
-177.26373838,50.54728777,65.06724189,-79.41949492,91.85271740,-47.07670568
21.79862064,-3.70837987,15.93024979,-0.97473050,0.43073796,2.26672111

>  <Name>
2esj_lig

>  <RI>
0

>  <Rbt.Current_Directory>
/home/itssahil/PROJECTS/Mol_Feturizer/New_Systems/rnas/2esj

>  <Rbt.Executable>
rbdock ($Id: //depot/dev/client3/rdock/2013.1/src/exe/rbdock.cxx#4 $)

>  <Rbt.Library>
libRbt.so (2013.1, Build901 2013/11/27)

>  <Rbt.Parameter_File>
/export/apps/rDock/src/rDock_2013.1_src/data/scripts/dock_solv.prm

>  <Rbt.Receptor>
prm/pocket_docking_6.prm

>  <SCORE>
-16.2417

>  <SCORE.INTER>
-7.02957

>  <SCORE.INTER.CONST>
1

>  <SCORE.INTER.POLAR>
-0.979796

>  <SCORE.INTER.ROT>
12

>  <SCORE.INTER.SOLV>
13.5538

>  <SCORE.INTER.VDW>
-17.5383

>  <SCORE.INTER.norm>
-0.135184

>  <SCORE.INTRA>
-9.2121

>  <SCORE.INTRA.DIHEDRAL>
-20.6441

>  <SCORE.INTRA.DIHEDRAL.0>
32.9766

>  <SCORE.INTRA.POLAR>
0

>  <SCORE.INTRA.POLAR.0>
0

>  <SCORE.INTRA.REPUL>
0

>  <SCORE.INTRA.REPUL.0>
0

>  <SCORE.INTRA.SOLV>
-1.66043

>  <SCORE.INTRA.SOLV.lig_0>
-114.358

>  <SCORE.INTRA.VDW>
1.94017

>  <SCORE.INTRA.VDW.0>
-8.24257

>  <SCORE.INTRA.norm>
-0.177156

>  <SCORE.RESTR>
0

>  <SCORE.RESTR.CAVITY>
0

>  <SCORE.RESTR.norm>
0

>  <SCORE.SYSTEM>
0

>  <SCORE.SYSTEM.CONST>
0

>  <SCORE.SYSTEM.DIHEDRAL>
0

>  <SCORE.SYSTEM.SOLV>
0

>  <SCORE.SYSTEM.norm>
0

>  <SCORE.heavy>
52

>  <SCORE.norm>
-0.31234

>  <RMSD>
10.760

$$$$
2esj_lig
 OpenBabel11021811423D
libRbt.so/2013.1/901 2013/11/27
 52 56  0  0  0  0  0  0  0  0999 V2000
   26.7559   -1.1089   13.1084 C   0  0  2  0  0  0  0  0  0  0  0  0
   27.1978   -1.6333   14.3751 O   0  0  0  0  0  0  0  0  0  0  0  0
   29.4568   -5.0314   13.0952 C   0  0  2  0  0  0  0  0  0  0  0  0
   30.4317   -6.1282   12.9772 N   0  0  0  0  0  0  0  0  0  0  0  0
   25.4799   -5.0314   15.5890 C   0  0  1  0  0  0  0  0  0  0  0  0
   22.0094   -7.2763   16.0360 C   0  0  1  0  0  0  0  0  0  0  0  0
   20.7800  -11.9341   17.3320 C   0  0  1  0  0  0  0  0  0  0  0  0
   25.5980   -0.1075   13.3940 C   0  0  2  0  0  0  0  0  0  0  0  0
   26.0001    0.9555   14.3146 N   0  0  0  0  0  0  0  0  0  0  0  0
   30.2036   -3.6443   13.2211 C   0  0  0  0  0  0  0  0  0  0  0  0
   25.2847   -5.7902   16.9023 C   0  0  2  0  0  0  0  0  0  0  0  0
   25.9813   -7.0550   16.9161 O   0  0  0  0  0  0  0  0  0  0  0  0
   21.8461   -8.2736   17.2688 C   0  0  2  0  0  0  0  0  0  0  0  0
   22.8934   -9.3289   17.2450 N   0  0  0  0  0  0  0  0  0  0  0  0
   19.3937  -12.4144   16.9186 C   0  0  1  0  0  0  0  0  0  0  0  0
   19.2580  -13.8109   17.2500 O   0  0  0  0  0  0  0  0  0  0  0  0
   24.3450   -0.8505   13.9571 C   0  0  0  0  0  0  0  0  0  0  0  0
   29.1414   -2.4743   13.2871 C   0  0  2  0  0  0  0  0  0  0  0  0
   29.8092   -1.1752   13.4180 N   0  0  0  0  0  0  0  0  0  0  0  0
   23.7884   -5.9102   16.9295 C   0  0  2  0  0  0  0  0  0  0  0  0
   23.3589   -6.9136   16.0446 O   0  0  0  0  0  0  0  0  0  0  0  0
   20.3484   -8.8129   17.3027 C   0  0  1  0  0  0  0  0  0  0  0  0
   19.4536   -7.6967   17.2575 O   0  0  0  0  0  0  0  0  0  0  0  0
   18.2288  -11.6648   17.5538 C   0  0  1  0  0  0  0  0  0  0  0  0
   17.0362  -12.3936   17.2426 O   0  0  0  0  0  0  0  0  0  0  0  0
   23.9513   -1.9907   12.9719 C   0  0  2  0  0  0  0  0  0  0  0  0
   22.7722   -2.6588   13.3837 O   0  0  0  0  0  0  0  0  0  0  0  0
   28.1613   -2.6993   14.4678 C   0  0  2  0  0  0  0  0  0  0  0  0
   23.2484   -4.6065   16.3062 C   0  0  2  0  0  0  0  0  0  0  0  0
   24.2840   -4.2623   15.3996 O   0  0  0  0  0  0  0  0  0  0  0  0
   20.0179   -9.6832   16.0210 C   0  0  2  0  0  0  0  0  0  0  0  0
   20.9022  -10.8009   16.1170 O   0  0  0  0  0  0  0  0  0  0  0  0
   18.3480  -11.5117   19.0711 C   0  0  2  0  0  0  0  0  0  0  0  0
   17.3694  -10.5380   19.4700 O   0  0  0  0  0  0  0  0  0  0  0  0
   25.1479   -2.9669   12.8525 C   0  0  2  0  0  0  0  0  0  0  0  0
   26.2691   -2.2127   12.3093 O   0  0  0  0  0  0  0  0  0  0  0  0
   27.4757   -4.1032   14.4712 C   0  0  2  0  0  0  0  0  0  0  0  0
   26.6412   -4.2339   15.6556 O   0  0  0  0  0  0  0  0  0  0  0  0
   23.0081   -3.4415   17.2657 C   0  0  0  0  0  0  0  0  0  0  0  0
   22.4969   -2.3445   16.4943 O   0  0  0  0  0  0  0  0  0  0  0  0
   20.5111   -8.8736   14.8372 C   0  0  1  0  0  0  0  0  0  0  0  0
   21.6258   -7.9614   14.7373 O   0  0  0  0  0  0  0  0  0  0  0  0
   19.7749  -11.1744   19.4888 C   0  0  2  0  0  0  0  0  0  0  0  0
   20.9045  -11.6629   18.7491 O   0  0  0  0  0  0  0  0  0  0  0  0
   24.9005   -4.0802   11.8923 C   0  0  0  0  0  0  0  0  0  0  0  0
   23.9444   -4.9337   12.4733 O   0  0  0  0  0  0  0  0  0  0  0  0
   28.5418   -5.2442   14.3541 C   0  0  1  0  0  0  0  0  0  0  0  0
   27.8189   -6.4902   14.1686 O   0  0  0  0  0  0  0  0  0  0  0  0
   20.2138   -9.4606   13.4231 C   0  0  0  0  0  0  0  0  0  0  0  0
   20.5974   -8.5551   12.3197 N   0  0  0  0  0  0  0  0  0  0  0  0
   20.1916  -10.9741   20.9441 C   0  0  0  0  0  0  0  0  0  0  0  0
   20.0055  -12.2077   21.6873 O   0  0  0  0  0  0  0  0  0  0  0  0
  1  2  1  1  0  0  0
  1  8  1  0  0  0  0
  1 36  1  0  0  0  0
  3  4  1  1  0  0  0
  3 10  1  0  0  0  0
  3 47  1  0  0  0  0
  5 11  1  0  0  0  0
  5 30  1  0  0  0  0
  5 38  1  1  0  0  0
  6 21  1  6  0  0  0
  6 42  1  0  0  0  0
  7 15  1  0  0  0  0
  7 44  1  0  0  0  0
  7 32  1  6  0  0  0
  8  9  1  1  0  0  0
  8 17  1  0  0  0  0
 11 12  1  6  0  0  0
 11 20  1  0  0  0  0
 13  6  1  0  0  0  0
 13 14  1  6  0  0  0
 15 16  1  1  0  0  0
 15 24  1  0  0  0  0
 17 26  1  0  0  0  0
 18 10  1  0  0  0  0
 18 19  1  1  0  0  0
 20 21  1  6  0  0  0
 20 29  1  0  0  0  0
 22 13  1  0  0  0  0
 22 23  1  6  0  0  0
 24 25  1  1  0  0  0
 24 33  1  0  0  0  0
 26 27  1  1  0  0  0
 26 35  1  0  0  0  0
 28  2  1  6  0  0  0
 28 18  1  0  0  0  0
 29 30  1  0  0  0  0
 29 39  1  1  0  0  0
 31 22  1  0  0  0  0
 31 32  1  1  0  0  0
 31 41  1  0  0  0  0
 33 34  1  6  0  0  0
 33 43  1  0  0  0  0
 35 36  1  0  0  0  0
 35 45  1  6  0  0  0
 37 28  1  0  0  0  0
 37 38  1  1  0  0  0
 39 40  1  0  0  0  0
 41 42  1  0  0  0  0
 41 49  1  6  0  0  0
 43 44  1  0  0  0  0
 43 51  1  1  0  0  0
 45 46  1  0  0  0  0
 47 37  1  0  0  0  0
 47 48  1  6  0  0  0
 49 50  1  0  0  0  0
 51 52  1  0  0  0  0
M  END
>  <CHROM.1>
173.03382397,142.31837524,-80.93909453,63.20258268,173.06576391,34.85100865
-179.31927371,65.98058505,-70.56794753,149.09545702,174.04516425,63.29874483
23.47693561,-6.48201792,15.60531386,0.89010368,0.12451606,-0.36451589

>  <Name>
2esj_lig

>  <RI>
1.62275e+07

>  <Rbt.Current_Directory>
/home/itssahil/PROJECTS/Mol_Feturizer/New_Systems/rnas/2esj

>  <Rbt.Executable>
rbdock ($Id: //depot/dev/client3/rdock/2013.1/src/exe/rbdock.cxx#4 $)

>  <Rbt.Library>
libRbt.so (2013.1, Build901 2013/11/27)

>  <Rbt.Parameter_File>
/export/apps/rDock/src/rDock_2013.1_src/data/scripts/dock_solv.prm

>  <Rbt.Receptor>
prm/pocket_docking_5.prm

>  <SCORE>
-4.34363

>  <SCORE.INTER>
1.44462

>  <SCORE.INTER.CONST>
1

>  <SCORE.INTER.POLAR>
0

>  <SCORE.INTER.ROT>
12

>  <SCORE.INTER.SOLV>
14.2176

>  <SCORE.INTER.VDW>
-15.3761

>  <SCORE.INTER.norm>
0.0277812

>  <SCORE.INTRA>
-5.78825

>  <SCORE.INTRA.DIHEDRAL>
-13.424

>  <SCORE.INTRA.DIHEDRAL.0>
32.9766

>  <SCORE.INTRA.POLAR>
0

>  <SCORE.INTRA.POLAR.0>
0

>  <SCORE.INTRA.REPUL>
0

>  <SCORE.INTRA.REPUL.0>
0

>  <SCORE.INTRA.SOLV>
0.204749

>  <SCORE.INTRA.SOLV.lig_0>
-114.358

>  <SCORE.INTRA.VDW>
0.821387

>  <SCORE.INTRA.VDW.0>
-8.24257

>  <SCORE.INTRA.norm>
-0.111313

>  <SCORE.RESTR>
0

>  <SCORE.RESTR.CAVITY>
0

>  <SCORE.RESTR.norm>
0

>  <SCORE.SYSTEM>
0

>  <SCORE.SYSTEM.CONST>
0

>  <SCORE.SYSTEM.DIHEDRAL>
0

>  <SCORE.SYSTEM.SOLV>
0

>  <SCORE.SYSTEM.norm>
0

>  <SCORE.heavy>
52

>  <SCORE.norm>
-0.0835314

>  <RMSD>
10.765

$$$$
2esj_lig
 OpenBabel11021811423D
libRbt.so/2013.1/901 2013/11/27
 52 56  0  0  0  0  0  0  0  0999 V2000
   27.1775   -0.8138   15.3465 C   0  0  2  0  0  0  0  0  0  0  0  0
   27.6497   -2.1728   15.2764 O   0  0  0  0  0  0  0  0  0  0  0  0
   28.0981   -5.6437   17.7341 C   0  0  2  0  0  0  0  0  0  0  0  0
   28.4339   -6.5895   18.8111 N   0  0  0  0  0  0  0  0  0  0  0  0
   24.4345   -2.5993   17.2894 C   0  0  1  0  0  0  0  0  0  0  0  0
   20.5326   -2.7518   15.6845 C   0  0  1  0  0  0  0  0  0  0  0  0
   17.3765   -5.7461   18.4708 C   0  0  1  0  0  0  0  0  0  0  0  0
   27.0285   -0.2936   13.8863 C   0  0  2  0  0  0  0  0  0  0  0  0
   26.1430   -1.1386   13.0855 N   0  0  0  0  0  0  0  0  0  0  0  0
   29.4054   -4.9371   17.1965 C   0  0  0  0  0  0  0  0  0  0  0  0
   24.1319   -2.0342   15.9010 C   0  0  2  0  0  0  0  0  0  0  0  0
   23.8813   -0.6122   15.9280 O   0  0  0  0  0  0  0  0  0  0  0  0
   19.4915   -2.0990   16.7000 C   0  0  2  0  0  0  0  0  0  0  0  0
   19.8394   -2.4286   18.1076 N   0  0  0  0  0  0  0  0  0  0  0  0
   17.3720   -5.1914   19.8906 C   0  0  1  0  0  0  0  0  0  0  0  0
   16.3196   -5.8265   20.6439 O   0  0  0  0  0  0  0  0  0  0  0  0
   28.4221   -0.1776   13.1910 C   0  0  0  0  0  0  0  0  0  0  0  0
   29.0324   -3.9701   16.0018 C   0  0  2  0  0  0  0  0  0  0  0  0
   30.2282   -3.2905   15.4928 N   0  0  0  0  0  0  0  0  0  0  0  0
   22.9390   -2.8632   15.5219 C   0  0  2  0  0  0  0  0  0  0  0  0
   21.7894   -2.4048   16.1873 O   0  0  0  0  0  0  0  0  0  0  0  0
   18.0161   -2.5037   16.2591 C   0  0  1  0  0  0  0  0  0  0  0  0
   17.8445   -2.1888   14.8735 O   0  0  0  0  0  0  0  0  0  0  0  0
   18.6745   -5.3666   20.6621 C   0  0  1  0  0  0  0  0  0  0  0  0
   18.4113   -5.0104   22.0237 O   0  0  0  0  0  0  0  0  0  0  0  0
   29.3525    0.7064   14.0734 C   0  0  2  0  0  0  0  0  0  0  0  0
   30.6128    0.9176   13.4626 O   0  0  0  0  0  0  0  0  0  0  0  0
   27.9735   -2.9322   16.4561 C   0  0  2  0  0  0  0  0  0  0  0  0
   23.1870   -4.2613   16.1249 C   0  0  2  0  0  0  0  0  0  0  0  0
   23.9632   -3.9539   17.2721 O   0  0  0  0  0  0  0  0  0  0  0  0
   17.7849   -4.0663   16.3786 C   0  0  2  0  0  0  0  0  0  0  0  0
   17.9295   -4.3378   17.7734 O   0  0  0  0  0  0  0  0  0  0  0  0
   19.2357   -6.7887   20.6095 C   0  0  2  0  0  0  0  0  0  0  0  0
   20.5855   -6.7224   21.0978 O   0  0  0  0  0  0  0  0  0  0  0  0
   29.4966    0.0305   15.4596 C   0  0  2  0  0  0  0  0  0  0  0  0
   28.1676   -0.0291   16.0521 O   0  0  0  0  0  0  0  0  0  0  0  0
   26.7012   -3.5608   17.1096 C   0  0  2  0  0  0  0  0  0  0  0  0
   25.8143   -2.5012   17.5647 O   0  0  0  0  0  0  0  0  0  0  0  0
   23.9498   -5.2550   15.2495 C   0  0  0  0  0  0  0  0  0  0  0  0
   24.0414   -6.4894   15.9758 O   0  0  0  0  0  0  0  0  0  0  0  0
   18.9848   -4.7105   15.7112 C   0  0  1  0  0  0  0  0  0  0  0  0
   20.3531   -4.2576   15.6264 O   0  0  0  0  0  0  0  0  0  0  0  0
   19.1019   -7.3915   19.2155 C   0  0  2  0  0  0  0  0  0  0  0  0
   18.0065   -7.0448   18.3543 O   0  0  0  0  0  0  0  0  0  0  0  0
   30.3330    0.8179   16.4097 C   0  0  0  0  0  0  0  0  0  0  0  0
   30.5024    0.0381   17.5688 O   0  0  0  0  0  0  0  0  0  0  0  0
   27.0955   -4.5526   18.2555 C   0  0  1  0  0  0  0  0  0  0  0  0
   25.8814   -5.2321   18.6723 O   0  0  0  0  0  0  0  0  0  0  0  0
   18.9621   -6.2658   15.5953 C   0  0  0  0  0  0  0  0  0  0  0  0
   19.6454   -6.7739   14.3872 N   0  0  0  0  0  0  0  0  0  0  0  0
   19.5685   -8.8040   18.8704 C   0  0  0  0  0  0  0  0  0  0  0  0
   19.6813   -8.9507   17.4301 O   0  0  0  0  0  0  0  0  0  0  0  0
  1  2  1  6  0  0  0
  1  8  1  0  0  0  0
  1 36  1  0  0  0  0
  3  4  1  1  0  0  0
  3 10  1  0  0  0  0
  3 47  1  0  0  0  0
  5 11  1  0  0  0  0
  5 30  1  0  0  0  0
  5 38  1  6  0  0  0
  6 21  1  1  0  0  0
  6 42  1  0  0  0  0
  7 15  1  0  0  0  0
  7 44  1  0  0  0  0
  7 32  1  6  0  0  0
  8  9  1  6  0  0  0
  8 17  1  0  0  0  0
 11 12  1  1  0  0  0
 11 20  1  0  0  0  0
 13  6  1  0  0  0  0
 13 14  1  1  0  0  0
 15 16  1  1  0  0  0
 15 24  1  0  0  0  0
 17 26  1  0  0  0  0
 18 10  1  0  0  0  0
 18 19  1  1  0  0  0
 20 21  1  1  0  0  0
 20 29  1  0  0  0  0
 22 13  1  0  0  0  0
 22 23  1  6  0  0  0
 24 25  1  1  0  0  0
 24 33  1  0  0  0  0
 26 27  1  6  0  0  0
 26 35  1  0  0  0  0
 28  2  1  6  0  0  0
 28 18  1  0  0  0  0
 29 30  1  0  0  0  0
 29 39  1  6  0  0  0
 31 22  1  0  0  0  0
 31 32  1  1  0  0  0
 31 41  1  0  0  0  0
 33 34  1  6  0  0  0
 33 43  1  0  0  0  0
 35 36  1  0  0  0  0
 35 45  1  1  0  0  0
 37 28  1  0  0  0  0
 37 38  1  1  0  0  0
 39 40  1  0  0  0  0
 41 42  1  0  0  0  0
 41 49  1  1  0  0  0
 43 44  1  0  0  0  0
 43 51  1  1  0  0  0
 45 46  1  0  0  0  0
 47 37  1  0  0  0  0
 47 48  1  6  0  0  0
 49 50  1  0  0  0  0
 51 52  1  0  0  0  0
M  END
>  <CHROM.1>
176.18312530,-85.70720768,178.56237952,-160.99106702,160.60062730,-153.06824452
-178.54497071,162.83627393,-173.87300747,134.81189681,147.71013088,-163.11226678
23.43326863,-3.68217007,16.88472262,0.46320554,-0.04487377,-0.66522950

>  <Name>
2esj_lig

>  <RI>
1.01272e+07

>  <Rbt.Current_Directory>
/home/itssahil/PROJECTS/Mol_Feturizer/New_Systems/rnas/2esj

>  <Rbt.Executable>
rbdock ($Id: //depot/dev/client3/rdock/2013.1/src/exe/rbdock.cxx#4 $)

>  <Rbt.Library>
libRbt.so (2013.1, Build901 2013/11/27)

>  <Rbt.Parameter_File>
/export/apps/rDock/src/rDock_2013.1_src/data/scripts/dock_solv.prm

>  <Rbt.Receptor>
prm/pocket_docking_3.prm

>  <SCORE>
-3.65304

>  <SCORE.INTER>
1.84305

>  <SCORE.INTER.CONST>
1

>  <SCORE.INTER.POLAR>
0

>  <SCORE.INTER.ROT>
12

>  <SCORE.INTER.SOLV>
10.3711

>  <SCORE.INTER.VDW>
-13.8283

>  <SCORE.INTER.norm>
0.0354433

>  <SCORE.INTRA>
-5.55849

>  <SCORE.INTRA.DIHEDRAL>
-10.7096

>  <SCORE.INTRA.DIHEDRAL.0>
32.9766

>  <SCORE.INTRA.POLAR>
0

>  <SCORE.INTRA.POLAR.0>
0

>  <SCORE.INTRA.REPUL>
0

>  <SCORE.INTRA.REPUL.0>
0

>  <SCORE.INTRA.SOLV>
-0.129787

>  <SCORE.INTRA.SOLV.lig_0>
-114.358

>  <SCORE.INTRA.VDW>
-0.138813

>  <SCORE.INTRA.VDW.0>
-8.24257

>  <SCORE.INTRA.norm>
-0.106894

>  <SCORE.RESTR>
0.0623923

>  <SCORE.RESTR.CAVITY>
0.0623923

>  <SCORE.RESTR.norm>
0.00119985

>  <SCORE.SYSTEM>
0

>  <SCORE.SYSTEM.CONST>
0

>  <SCORE.SYSTEM.DIHEDRAL>
0

>  <SCORE.SYSTEM.SOLV>
0

>  <SCORE.SYSTEM.norm>
0

>  <SCORE.heavy>
52

>  <SCORE.norm>
-0.0702509

>  <RMSD>
10.767

$$$$
2esj_lig
 OpenBabel11021811423D
libRbt.so/2013.1/901 2013/11/27
 52 56  0  0  0  0  0  0  0  0999 V2000
   29.1836   -3.4388   13.4866 C   0  0  2  0  0  0  0  0  0  0  0  0
   29.3005   -4.2551   14.6676 O   0  0  0  0  0  0  0  0  0  0  0  0
   26.7127   -6.3962   17.3147 C   0  0  2  0  0  0  0  0  0  0  0  0
   25.6879   -6.7799   18.2996 N   0  0  0  0  0  0  0  0  0  0  0  0
   25.1354   -4.7209   13.6598 C   0  0  1  0  0  0  0  0  0  0  0  0
   21.1727   -3.3888   14.2171 C   0  0  1  0  0  0  0  0  0  0  0  0
   18.2990   -5.8697   17.4881 C   0  0  1  0  0  0  0  0  0  0  0  0
   30.3946   -3.7709   12.5657 C   0  0  2  0  0  0  0  0  0  0  0  0
   30.4681   -5.1949   12.2400 N   0  0  0  0  0  0  0  0  0  0  0  0
   27.7020   -5.3329   17.9377 C   0  0  0  0  0  0  0  0  0  0  0  0
   24.6338   -3.3716   14.1758 C   0  0  2  0  0  0  0  0  0  0  0  0
   24.3742   -3.3874   15.5962 O   0  0  0  0  0  0  0  0  0  0  0  0
   21.3908   -3.0856   15.7669 C   0  0  2  0  0  0  0  0  0  0  0  0
   21.8921   -4.2892   16.4817 N   0  0  0  0  0  0  0  0  0  0  0  0
   17.4967   -5.1667   18.5771 C   0  0  1  0  0  0  0  0  0  0  0  0
   16.1551   -5.6941   18.5920 O   0  0  0  0  0  0  0  0  0  0  0  0
   31.7351   -3.3066   13.2188 C   0  0  0  0  0  0  0  0  0  0  0  0
   28.8292   -4.9777   16.8866 C   0  0  2  0  0  0  0  0  0  0  0  0
   29.7542   -3.9811   17.4360 N   0  0  0  0  0  0  0  0  0  0  0  0
   23.4084   -3.1921   13.3271 C   0  0  2  0  0  0  0  0  0  0  0  0
   22.3593   -3.9980   13.8007 O   0  0  0  0  0  0  0  0  0  0  0  0
   20.0554   -2.4564   16.3635 C   0  0  1  0  0  0  0  0  0  0  0  0
   19.6574   -1.3528   15.5435 O   0  0  0  0  0  0  0  0  0  0  0  0
   18.0655   -5.2878   19.9857 C   0  0  1  0  0  0  0  0  0  0  0  0
   17.0746   -4.7826   20.8873 O   0  0  0  0  0  0  0  0  0  0  0  0
   31.6232   -1.7950   13.5770 C   0  0  2  0  0  0  0  0  0  0  0  0
   32.8357   -1.2877   14.1048 O   0  0  0  0  0  0  0  0  0  0  0  0
   28.1965   -4.4591   15.5692 C   0  0  2  0  0  0  0  0  0  0  0  0
   23.7542   -3.7993   11.9518 C   0  0  2  0  0  0  0  0  0  0  0  0
   24.6810   -4.8146   12.3026 O   0  0  0  0  0  0  0  0  0  0  0  0
   18.8553   -3.4889   16.3098 C   0  0  2  0  0  0  0  0  0  0  0  0
   19.2712   -4.5566   17.1627 O   0  0  0  0  0  0  0  0  0  0  0  0
   18.4293   -6.7196   20.3827 C   0  0  2  0  0  0  0  0  0  0  0  0
   19.2241   -6.6318   21.5766 O   0  0  0  0  0  0  0  0  0  0  0  0
   30.4490   -1.6149   14.5709 C   0  0  2  0  0  0  0  0  0  0  0  0
   29.2366   -2.0507   13.8917 O   0  0  0  0  0  0  0  0  0  0  0  0
   27.1174   -5.4107   14.9601 C   0  0  2  0  0  0  0  0  0  0  0  0
   26.5390   -4.7951   13.7756 O   0  0  0  0  0  0  0  0  0  0  0  0
   24.3966   -2.8577   10.9338 C   0  0  0  0  0  0  0  0  0  0  0  0
   25.6734   -2.4622   11.4563 O   0  0  0  0  0  0  0  0  0  0  0  0
   18.8685   -4.0603   14.9050 C   0  0  1  0  0  0  0  0  0  0  0  0
   19.9773   -4.3011   14.0121 O   0  0  0  0  0  0  0  0  0  0  0  0
   19.1017   -7.4645   19.2350 C   0  0  2  0  0  0  0  0  0  0  0  0
   18.7660   -7.1872   17.8667 O   0  0  0  0  0  0  0  0  0  0  0  0
   30.2166   -0.1918   14.9494 C   0  0  0  0  0  0  0  0  0  0  0  0
   29.2136   -0.1762   15.9362 O   0  0  0  0  0  0  0  0  0  0  0  0
   26.0399   -5.7897   16.0314 C   0  0  1  0  0  0  0  0  0  0  0  0
   25.1965   -6.8178   15.4475 O   0  0  0  0  0  0  0  0  0  0  0  0
   17.7106   -5.0409   14.5441 C   0  0  0  0  0  0  0  0  0  0  0  0
   18.1303   -6.1402   13.6495 N   0  0  0  0  0  0  0  0  0  0  0  0
   19.5645   -8.9158   19.3415 C   0  0  0  0  0  0  0  0  0  0  0  0
   20.5721   -9.1901   18.3324 O   0  0  0  0  0  0  0  0  0  0  0  0
  1  2  1  1  0  0  0
  1  8  1  0  0  0  0
  1 36  1  0  0  0  0
  3  4  1  1  0  0  0
  3 10  1  0  0  0  0
  3 47  1  0  0  0  0
  5 11  1  0  0  0  0
  5 30  1  0  0  0  0
  5 38  1  6  0  0  0
  6 21  1  1  0  0  0
  6 42  1  0  0  0  0
  7 15  1  0  0  0  0
  7 44  1  0  0  0  0
  7 32  1  1  0  0  0
  8  9  1  1  0  0  0
  8 17  1  0  0  0  0
 11 12  1  1  0  0  0
 11 20  1  0  0  0  0
 13  6  1  0  0  0  0
 13 14  1  1  0  0  0
 15 16  1  1  0  0  0
 15 24  1  0  0  0  0
 17 26  1  0  0  0  0
 18 10  1  0  0  0  0
 18 19  1  1  0  0  0
 20 21  1  1  0  0  0
 20 29  1  0  0  0  0
 22 13  1  0  0  0  0
 22 23  1  6  0  0  0
 24 25  1  1  0  0  0
 24 33  1  0  0  0  0
 26 27  1  1  0  0  0
 26 35  1  0  0  0  0
 28  2  1  6  0  0  0
 28 18  1  0  0  0  0
 29 30  1  0  0  0  0
 29 39  1  6  0  0  0
 31 22  1  0  0  0  0
 31 32  1  1  0  0  0
 31 41  1  0  0  0  0
 33 34  1  1  0  0  0
 33 43  1  0  0  0  0
 35 36  1  0  0  0  0
 35 45  1  6  0  0  0
 37 28  1  0  0  0  0
 37 38  1  6  0  0  0
 39 40  1  0  0  0  0
 41 42  1  0  0  0  0
 41 49  1  1  0  0  0
 43 44  1  0  0  0  0
 43 51  1  1  0  0  0
 45 46  1  0  0  0  0
 47 37  1  0  0  0  0
 47 48  1  6  0  0  0
 49 50  1  0  0  0  0
 51 52  1  0  0  0  0
M  END
>  <CHROM.1>
-163.97322311,94.31538124,-89.46727917,-82.07328305,119.78608069,-162.23954694
64.47004558,177.13892816,-174.88771447,-129.59122792,-144.20333597,-158.95991626
23.90999505,-4.41118910,15.68502626,0.39869638,-0.03629812,-1.05093121

>  <Name>
2esj_lig

>  <RI>
0

>  <Rbt.Current_Directory>
/home/itssahil/PROJECTS/Mol_Feturizer/New_Systems/rnas/2esj

>  <Rbt.Executable>
rbdock ($Id: //depot/dev/client3/rdock/2013.1/src/exe/rbdock.cxx#4 $)

>  <Rbt.Library>
libRbt.so (2013.1, Build901 2013/11/27)

>  <Rbt.Parameter_File>
/export/apps/rDock/src/rDock_2013.1_src/data/scripts/dock_solv.prm

>  <Rbt.Receptor>
prm/pocket_docking_4.prm

>  <SCORE>
-6.78903

>  <SCORE.INTER>
-9.94387

>  <SCORE.INTER.CONST>
1

>  <SCORE.INTER.POLAR>
-1.80442

>  <SCORE.INTER.ROT>
12

>  <SCORE.INTER.SOLV>
13.5094

>  <SCORE.INTER.VDW>
-16.7177

>  <SCORE.INTER.norm>
-0.191228

>  <SCORE.INTRA>
3.15484

>  <SCORE.INTRA.DIHEDRAL>
-0.944422

>  <SCORE.INTRA.DIHEDRAL.0>
32.9766

>  <SCORE.INTRA.POLAR>
0

>  <SCORE.INTRA.POLAR.0>
0

>  <SCORE.INTRA.REPUL>
0.029758

>  <SCORE.INTRA.REPUL.0>
0

>  <SCORE.INTRA.SOLV>
-0.615486

>  <SCORE.INTRA.SOLV.lig_0>
-114.358

>  <SCORE.INTRA.VDW>
3.786

>  <SCORE.INTRA.VDW.0>
-8.24257

>  <SCORE.INTRA.norm>
0.06067

>  <SCORE.RESTR>
0

>  <SCORE.RESTR.CAVITY>
0

>  <SCORE.RESTR.norm>
0

>  <SCORE.SYSTEM>
0

>  <SCORE.SYSTEM.CONST>
0

>  <SCORE.SYSTEM.DIHEDRAL>
0

>  <SCORE.SYSTEM.SOLV>
0

>  <SCORE.SYSTEM.norm>
0

>  <SCORE.heavy>
52

>  <SCORE.norm>
-0.130558

>  <RMSD>
10.797

$$$$
2esj_lig
 OpenBabel11021811423D
libRbt.so/2013.1/901 2013/11/27
 52 56  0  0  0  0  0  0  0  0999 V2000
   25.4483   -2.3257   14.7287 C   0  0  2  0  0  0  0  0  0  0  0  0
   26.3560   -1.9360   15.7771 O   0  0  0  0  0  0  0  0  0  0  0  0
   25.9703    0.3837   19.3490 C   0  0  2  0  0  0  0  0  0  0  0  0
   25.8401    1.4749   20.3285 N   0  0  0  0  0  0  0  0  0  0  0  0
   22.6300   -1.8199   16.7592 C   0  0  1  0  0  0  0  0  0  0  0  0
   19.1516   -4.1707   16.9757 C   0  0  1  0  0  0  0  0  0  0  0  0
   19.7226   -8.5722   19.6450 C   0  0  1  0  0  0  0  0  0  0  0  0
   26.1878   -3.3593   13.8288 C   0  0  2  0  0  0  0  0  0  0  0  0
   26.6694   -4.5115   14.5903 N   0  0  0  0  0  0  0  0  0  0  0  0
   27.2569    0.5976   18.4566 C   0  0  0  0  0  0  0  0  0  0  0  0
   21.3232   -1.3079   16.1520 C   0  0  2  0  0  0  0  0  0  0  0  0
   20.6074   -0.4292   17.0469 O   0  0  0  0  0  0  0  0  0  0  0  0
   19.0134   -4.7234   18.4645 C   0  0  2  0  0  0  0  0  0  0  0  0
   20.3481   -5.0049   19.0562 N   0  0  0  0  0  0  0  0  0  0  0  0
   21.2382   -8.7034   19.7421 C   0  0  1  0  0  0  0  0  0  0  0  0
   21.6098   -8.8914   21.1223 O   0  0  0  0  0  0  0  0  0  0  0  0
   27.3784   -2.6886   13.0725 C   0  0  0  0  0  0  0  0  0  0  0  0
   27.4125   -0.6137   17.4515 C   0  0  2  0  0  0  0  0  0  0  0  0
   28.5934   -0.4327   16.6010 N   0  0  0  0  0  0  0  0  0  0  0  0
   20.6235   -2.6066   15.8728 C   0  0  2  0  0  0  0  0  0  0  0  0
   20.1020   -3.1497   17.0591 O   0  0  0  0  0  0  0  0  0  0  0  0
   18.0030   -5.9539   18.4675 C   0  0  1  0  0  0  0  0  0  0  0  0
   16.7919   -5.5597   17.8143 O   0  0  0  0  0  0  0  0  0  0  0  0
   21.8463   -9.8419   18.9319 C   0  0  1  0  0  0  0  0  0  0  0  0
   23.2178   -9.9572   19.3269 O   0  0  0  0  0  0  0  0  0  0  0  0
   26.8446   -1.4528   12.2893 C   0  0  2  0  0  0  0  0  0  0  0  0
   27.8610   -0.8400   11.5163 O   0  0  0  0  0  0  0  0  0  0  0  0
   26.1375   -0.7617   16.5811 C   0  0  2  0  0  0  0  0  0  0  0  0
   21.7279   -3.6015   15.4606 C   0  0  2  0  0  0  0  0  0  0  0  0
   22.8472   -3.1162   16.1850 O   0  0  0  0  0  0  0  0  0  0  0  0
   18.5707   -7.1704   17.6266 C   0  0  2  0  0  0  0  0  0  0  0  0
   19.7556   -7.5578   18.3240 O   0  0  0  0  0  0  0  0  0  0  0  0
   21.1455  -11.1863   19.1353 C   0  0  2  0  0  0  0  0  0  0  0  0
   21.6140  -12.0618   18.0967 O   0  0  0  0  0  0  0  0  0  0  0  0
   26.2252   -0.4616   13.3056 C   0  0  2  0  0  0  0  0  0  0  0  0
   25.1178   -1.1464   13.9580 O   0  0  0  0  0  0  0  0  0  0  0  0
   24.8110   -0.8577   17.4010 C   0  0  2  0  0  0  0  0  0  0  0  0
   23.6790   -0.9167   16.4892 O   0  0  0  0  0  0  0  0  0  0  0  0
   22.0737   -3.6572   13.9729 C   0  0  0  0  0  0  0  0  0  0  0  0
   20.8549   -3.8980   13.2545 O   0  0  0  0  0  0  0  0  0  0  0  0
   19.0457   -6.5759   16.3147 C   0  0  1  0  0  0  0  0  0  0  0  0
   19.6004   -5.2728   16.0339 O   0  0  0  0  0  0  0  0  0  0  0  0
   19.6302  -11.0254   19.1839 C   0  0  2  0  0  0  0  0  0  0  0  0
   19.0223   -9.8378   19.7149 O   0  0  0  0  0  0  0  0  0  0  0  0
   25.6357    0.7458   12.6597 C   0  0  0  0  0  0  0  0  0  0  0  0
   26.7017    1.5420   12.2016 O   0  0  0  0  0  0  0  0  0  0  0  0
   24.7018    0.3224   18.4245 C   0  0  1  0  0  0  0  0  0  0  0  0
   23.5522    0.0529   19.2700 O   0  0  0  0  0  0  0  0  0  0  0  0
   19.5640   -7.5842   15.2434 C   0  0  0  0  0  0  0  0  0  0  0  0
   18.9971   -7.3533   13.8980 N   0  0  0  0  0  0  0  0  0  0  0  0
   18.6740  -12.1984   19.3874 C   0  0  0  0  0  0  0  0  0  0  0  0
   17.3703  -11.7094   19.7997 O   0  0  0  0  0  0  0  0  0  0  0  0
  1  2  1  1  0  0  0
  1  8  1  0  0  0  0
  1 36  1  0  0  0  0
  3  4  1  1  0  0  0
  3 10  1  0  0  0  0
  3 47  1  0  0  0  0
  5 11  1  0  0  0  0
  5 30  1  0  0  0  0
  5 38  1  6  0  0  0
  6 21  1  1  0  0  0
  6 42  1  0  0  0  0
  7 15  1  0  0  0  0
  7 44  1  0  0  0  0
  7 32  1  6  0  0  0
  8  9  1  1  0  0  0
  8 17  1  0  0  0  0
 11 12  1  1  0  0  0
 11 20  1  0  0  0  0
 13  6  1  0  0  0  0
 13 14  1  6  0  0  0
 15 16  1  1  0  0  0
 15 24  1  0  0  0  0
 17 26  1  0  0  0  0
 18 10  1  0  0  0  0
 18 19  1  6  0  0  0
 20 21  1  1  0  0  0
 20 29  1  0  0  0  0
 22 13  1  0  0  0  0
 22 23  1  6  0  0  0
 24 25  1  1  0  0  0
 24 33  1  0  0  0  0
 26 27  1  1  0  0  0
 26 35  1  0  0  0  0
 28  2  1  1  0  0  0
 28 18  1  0  0  0  0
 29 30  1  0  0  0  0
 29 39  1  6  0  0  0
 31 22  1  0  0  0  0
 31 32  1  1  0  0  0
 31 41  1  0  0  0  0
 33 34  1  6  0  0  0
 33 43  1  0  0  0  0
 35 36  1  0  0  0  0
 35 45  1  6  0  0  0
 37 28  1  0  0  0  0
 37 38  1  6  0  0  0
 39 40  1  0  0  0  0
 41 42  1  0  0  0  0
 41 49  1  1  0  0  0
 43 44  1  0  0  0  0
 43 51  1  1  0  0  0
 45 46  1  0  0  0  0
 47 37  1  0  0  0  0
 47 48  1  1  0  0  0
 49 50  1  0  0  0  0
 51 52  1  0  0  0  0
M  END
>  <CHROM.1>
163.90169104,153.23521222,169.15670720,172.71218956,164.71074902,-173.21640440
-54.12484738,83.51368578,-71.94612236,137.65412660,132.17656301,162.35335836
22.57423551,-4.28670338,16.77014430,-0.18675094,-0.95462678,-2.17833260

>  <Name>
2esj_lig

>  <RI>
0

>  <Rbt.Current_Directory>
/home/itssahil/PROJECTS/Mol_Feturizer/New_Systems/rnas/2esj

>  <Rbt.Executable>
rbdock ($Id: //depot/dev/client3/rdock/2013.1/src/exe/rbdock.cxx#4 $)

>  <Rbt.Library>
libRbt.so (2013.1, Build901 2013/11/27)

>  <Rbt.Parameter_File>
/export/apps/rDock/src/rDock_2013.1_src/data/scripts/dock_solv.prm

>  <Rbt.Receptor>
prm/pocket_docking_6.prm

>  <SCORE>
-10.3401

>  <SCORE.INTER>
-4.16867

>  <SCORE.INTER.CONST>
1

>  <SCORE.INTER.POLAR>
-1.46818

>  <SCORE.INTER.ROT>
12

>  <SCORE.INTER.SOLV>
10.7378

>  <SCORE.INTER.VDW>
-13.0645

>  <SCORE.INTER.norm>
-0.0801667

>  <SCORE.INTRA>
-6.17138

>  <SCORE.INTRA.DIHEDRAL>
-12.5959

>  <SCORE.INTRA.DIHEDRAL.0>
32.9766

>  <SCORE.INTRA.POLAR>
0

>  <SCORE.INTRA.POLAR.0>
0

>  <SCORE.INTRA.REPUL>
0

>  <SCORE.INTRA.REPUL.0>
0

>  <SCORE.INTRA.SOLV>
-3.30471

>  <SCORE.INTRA.SOLV.lig_0>
-114.358

>  <SCORE.INTRA.VDW>
1.77892

>  <SCORE.INTRA.VDW.0>
-8.24257

>  <SCORE.INTRA.norm>
-0.11868

>  <SCORE.RESTR>
0

>  <SCORE.RESTR.CAVITY>
0

>  <SCORE.RESTR.norm>
0

>  <SCORE.SYSTEM>
0

>  <SCORE.SYSTEM.CONST>
0

>  <SCORE.SYSTEM.DIHEDRAL>
0

>  <SCORE.SYSTEM.SOLV>
0

>  <SCORE.SYSTEM.norm>
0

>  <SCORE.heavy>
52

>  <SCORE.norm>
-0.198847

>  <RMSD>
10.813

$$$$
2esj_lig
 OpenBabel11021811423D
libRbt.so/2013.1/901 2013/11/27
 52 56  0  0  0  0  0  0  0  0999 V2000
   29.6353   -1.8041   15.7423 C   0  0  2  0  0  0  0  0  0  0  0  0
   28.2367   -1.7536   16.0830 O   0  0  0  0  0  0  0  0  0  0  0  0
   27.8947   -5.4408   18.2221 C   0  0  2  0  0  0  0  0  0  0  0  0
   27.4486   -6.5505   19.0805 N   0  0  0  0  0  0  0  0  0  0  0  0
   25.0963   -4.1267   15.1555 C   0  0  1  0  0  0  0  0  0  0  0  0
   21.0919   -3.2892   15.6100 C   0  0  1  0  0  0  0  0  0  0  0  0
   17.1683   -5.2566   18.3838 C   0  0  1  0  0  0  0  0  0  0  0  0
   29.9240   -0.6215   14.7711 C   0  0  2  0  0  0  0  0  0  0  0  0
   29.5482    0.6702   15.3450 N   0  0  0  0  0  0  0  0  0  0  0  0
   27.9756   -4.1005   19.0553 C   0  0  0  0  0  0  0  0  0  0  0  0
   24.2440   -2.9747   14.6218 C   0  0  2  0  0  0  0  0  0  0  0  0
   24.0143   -1.9531   15.6162 O   0  0  0  0  0  0  0  0  0  0  0  0
   20.7291   -3.6419   17.1217 C   0  0  2  0  0  0  0  0  0  0  0  0
   20.7060   -5.1131   17.3365 N   0  0  0  0  0  0  0  0  0  0  0  0
   18.3077   -4.9908   19.3609 C   0  0  1  0  0  0  0  0  0  0  0  0
   17.7573   -4.6088   20.6375 O   0  0  0  0  0  0  0  0  0  0  0  0
   29.1918   -0.8289   13.4074 C   0  0  0  0  0  0  0  0  0  0  0  0
   28.5127   -2.9339   18.1322 C   0  0  2  0  0  0  0  0  0  0  0  0
   28.5845   -1.6737   18.8790 N   0  0  0  0  0  0  0  0  0  0  0  0
   23.0081   -3.7184   14.2052 C   0  0  2  0  0  0  0  0  0  0  0  0
   22.2305   -4.0487   15.3280 O   0  0  0  0  0  0  0  0  0  0  0  0
   19.3884   -2.8824   17.5224 C   0  0  1  0  0  0  0  0  0  0  0  0
   19.5302   -1.4942   17.2037 O   0  0  0  0  0  0  0  0  0  0  0  0
   19.2563   -6.1615   19.5889 C   0  0  1  0  0  0  0  0  0  0  0  0
   20.1003   -5.8139   20.6921 O   0  0  0  0  0  0  0  0  0  0  0  0
   29.5898   -2.2192   12.8289 C   0  0  2  0  0  0  0  0  0  0  0  0
   29.0197   -2.4409   11.5514 O   0  0  0  0  0  0  0  0  0  0  0  0
   27.6070   -2.7711   16.8839 C   0  0  2  0  0  0  0  0  0  0  0  0
   23.4946   -5.0824   13.6737 C   0  0  2  0  0  0  0  0  0  0  0  0
   24.6715   -5.2935   14.4374 O   0  0  0  0  0  0  0  0  0  0  0  0
   18.1556   -3.3970   16.6711 C   0  0  2  0  0  0  0  0  0  0  0  0
   18.0230   -4.7709   17.0388 O   0  0  0  0  0  0  0  0  0  0  0  0
   18.5450   -7.4816   19.8912 C   0  0  2  0  0  0  0  0  0  0  0  0
   19.5282   -8.5223   19.7689 O   0  0  0  0  0  0  0  0  0  0  0  0
   29.1612   -3.3097   13.8418 C   0  0  2  0  0  0  0  0  0  0  0  0
   29.8916   -3.0636   15.0775 O   0  0  0  0  0  0  0  0  0  0  0  0
   27.3861   -4.0910   16.0776 C   0  0  2  0  0  0  0  0  0  0  0  0
   26.4662   -3.8413   14.9786 O   0  0  0  0  0  0  0  0  0  0  0  0
   23.8380   -5.1503   12.1860 C   0  0  0  0  0  0  0  0  0  0  0  0
   24.9789   -4.3077   11.9667 O   0  0  0  0  0  0  0  0  0  0  0  0
   18.6271   -3.4044   15.2297 C   0  0  1  0  0  0  0  0  0  0  0  0
   19.9425   -3.6455   14.6854 O   0  0  0  0  0  0  0  0  0  0  0  0
   17.3178   -7.6710   19.0065 C   0  0  2  0  0  0  0  0  0  0  0  0
   16.5406   -6.5499   18.5582 O   0  0  0  0  0  0  0  0  0  0  0  0
   29.5372   -4.6868   13.4120 C   0  0  0  0  0  0  0  0  0  0  0  0
   29.1839   -5.5650   14.4533 O   0  0  0  0  0  0  0  0  0  0  0  0
   26.9034   -5.2452   17.0194 C   0  0  1  0  0  0  0  0  0  0  0  0
   26.9110   -6.4692   16.2377 O   0  0  0  0  0  0  0  0  0  0  0  0
   17.5617   -3.7771   14.1532 C   0  0  0  0  0  0  0  0  0  0  0  0
   16.8281   -5.0229   14.4607 N   0  0  0  0  0  0  0  0  0  0  0  0
   16.4080   -8.8941   19.0947 C   0  0  0  0  0  0  0  0  0  0  0  0
   17.1870  -10.1057   18.9105 O   0  0  0  0  0  0  0  0  0  0  0  0
  1  2  1  6  0  0  0
  1  8  1  0  0  0  0
  1 36  1  0  0  0  0
  3  4  1  1  0  0  0
  3 10  1  0  0  0  0
  3 47  1  0  0  0  0
  5 11  1  0  0  0  0
  5 30  1  0  0  0  0
  5 38  1  6  0  0  0
  6 21  1  6  0  0  0
  6 42  1  0  0  0  0
  7 15  1  0  0  0  0
  7 44  1  0  0  0  0
  7 32  1  6  0  0  0
  8  9  1  1  0  0  0
  8 17  1  0  0  0  0
 11 12  1  1  0  0  0
 11 20  1  0  0  0  0
 13  6  1  0  0  0  0
 13 14  1  6  0  0  0
 15 16  1  1  0  0  0
 15 24  1  0  0  0  0
 17 26  1  0  0  0  0
 18 10  1  0  0  0  0
 18 19  1  1  0  0  0
 20 21  1  1  0  0  0
 20 29  1  0  0  0  0
 22 13  1  0  0  0  0
 22 23  1  6  0  0  0
 24 25  1  1  0  0  0
 24 33  1  0  0  0  0
 26 27  1  6  0  0  0
 26 35  1  0  0  0  0
 28  2  1  6  0  0  0
 28 18  1  0  0  0  0
 29 30  1  0  0  0  0
 29 39  1  6  0  0  0
 31 22  1  0  0  0  0
 31 32  1  1  0  0  0
 31 41  1  0  0  0  0
 33 34  1  6  0  0  0
 33 43  1  0  0  0  0
 35 36  1  0  0  0  0
 35 45  1  6  0  0  0
 37 28  1  0  0  0  0
 37 38  1  6  0  0  0
 39 40  1  0  0  0  0
 41 42  1  0  0  0  0
 41 49  1  6  0  0  0
 43 44  1  0  0  0  0
 43 51  1  1  0  0  0
 45 46  1  0  0  0  0
 47 37  1  0  0  0  0
 47 48  1  6  0  0  0
 49 50  1  0  0  0  0
 51 52  1  0  0  0  0
M  END
>  <CHROM.1>
174.93694722,134.76777839,-163.66390767,-82.02831741,102.38846224,50.25848740
65.79398223,84.95935846,175.76456809,-95.68039429,-50.36436849,-55.97517792
23.49248761,-4.29466451,16.32330008,-0.38342125,0.10053335,2.09566006

>  <Name>
2esj_lig

>  <RI>
1.01272e+07

>  <Rbt.Current_Directory>
/home/itssahil/PROJECTS/Mol_Feturizer/New_Systems/rnas/2esj

>  <Rbt.Executable>
rbdock ($Id: //depot/dev/client3/rdock/2013.1/src/exe/rbdock.cxx#4 $)

>  <Rbt.Library>
libRbt.so (2013.1, Build901 2013/11/27)

>  <Rbt.Parameter_File>
/export/apps/rDock/src/rDock_2013.1_src/data/scripts/dock_solv.prm

>  <Rbt.Receptor>
prm/pocket_docking_3.prm

>  <SCORE>
-9.29963

>  <SCORE.INTER>
-10.2922

>  <SCORE.INTER.CONST>
1

>  <SCORE.INTER.POLAR>
-1.95959

>  <SCORE.INTER.ROT>
12

>  <SCORE.INTER.SOLV>
12.9836

>  <SCORE.INTER.VDW>
-16.2574

>  <SCORE.INTER.norm>
-0.197927

>  <SCORE.INTRA>
0.927953

>  <SCORE.INTRA.DIHEDRAL>
-5.01654

>  <SCORE.INTRA.DIHEDRAL.0>
32.9766

>  <SCORE.INTRA.POLAR>
0

>  <SCORE.INTRA.POLAR.0>
0

>  <SCORE.INTRA.REPUL>
0

>  <SCORE.INTRA.REPUL.0>
0

>  <SCORE.INTRA.SOLV>
1.43089

>  <SCORE.INTRA.SOLV.lig_0>
-114.358

>  <SCORE.INTRA.VDW>
2.72078

>  <SCORE.INTRA.VDW.0>
-8.24257

>  <SCORE.INTRA.norm>
0.0178453

>  <SCORE.RESTR>
0.064612

>  <SCORE.RESTR.CAVITY>
0.064612

>  <SCORE.RESTR.norm>
0.00124254

>  <SCORE.SYSTEM>
0

>  <SCORE.SYSTEM.CONST>
0

>  <SCORE.SYSTEM.DIHEDRAL>
0

>  <SCORE.SYSTEM.SOLV>
0

>  <SCORE.SYSTEM.norm>
0

>  <SCORE.heavy>
52

>  <SCORE.norm>
-0.178839

>  <RMSD>
10.814

$$$$
2esj_lig
 OpenBabel11021811423D
libRbt.so/2013.1/901 2013/11/27
 52 56  0  0  0  0  0  0  0  0999 V2000
   29.3824   -4.0539   17.8465 C   0  0  2  0  0  0  0  0  0  0  0  0
   30.3524   -4.5521   16.9053 O   0  0  0  0  0  0  0  0  0  0  0  0
   30.3609   -4.8190   12.6372 C   0  0  2  0  0  0  0  0  0  0  0  0
   30.1553   -5.2269   11.2377 N   0  0  0  0  0  0  0  0  0  0  0  0
   27.0504   -4.6922   15.7519 C   0  0  1  0  0  0  0  0  0  0  0  0
   24.6877   -6.3405   18.1149 C   0  0  1  0  0  0  0  0  0  0  0  0
   20.2283   -8.2582   20.2071 C   0  0  1  0  0  0  0  0  0  0  0  0
   30.1571   -3.5808   19.1118 C   0  0  2  0  0  0  0  0  0  0  0  0
   31.1749   -2.5793   18.7951 N   0  0  0  0  0  0  0  0  0  0  0  0
   31.0285   -5.9923   13.4588 C   0  0  0  0  0  0  0  0  0  0  0  0
   25.8214   -4.1413   16.4760 C   0  0  2  0  0  0  0  0  0  0  0  0
   26.0067   -4.0802   17.9069 O   0  0  0  0  0  0  0  0  0  0  0  0
   24.4698   -7.8754   18.4863 C   0  0  2  0  0  0  0  0  0  0  0  0
   23.4782   -8.5096   17.5777 N   0  0  0  0  0  0  0  0  0  0  0  0
   19.7421   -8.9577   18.9430 C   0  0  1  0  0  0  0  0  0  0  0  0
   18.7193   -9.9115   19.2930 O   0  0  0  0  0  0  0  0  0  0  0  0
   30.8151   -4.7912   19.8473 C   0  0  0  0  0  0  0  0  0  0  0  0
   31.2954   -5.5154   14.9430 C   0  0  2  0  0  0  0  0  0  0  0  0
   31.9033   -6.5922   15.7316 N   0  0  0  0  0  0  0  0  0  0  0  0
   24.7776   -5.1244   16.0310 C   0  0  2  0  0  0  0  0  0  0  0  0
   24.9083   -6.3334   16.7350 O   0  0  0  0  0  0  0  0  0  0  0  0
   24.1296   -7.9887   20.0376 C   0  0  1  0  0  0  0  0  0  0  0  0
   25.1278   -7.2836   20.7827 O   0  0  0  0  0  0  0  0  0  0  0  0
   19.1792   -8.0384   17.8657 C   0  0  1  0  0  0  0  0  0  0  0  0
   18.5652   -8.8717   16.8764 O   0  0  0  0  0  0  0  0  0  0  0  0
   29.7165   -5.8523   20.1522 C   0  0  2  0  0  0  0  0  0  0  0  0
   30.2314   -6.9466   20.8894 O   0  0  0  0  0  0  0  0  0  0  0  0
   29.9756   -5.0404   15.6043 C   0  0  2  0  0  0  0  0  0  0  0  0
   25.1399   -5.4970   14.5786 C   0  0  2  0  0  0  0  0  0  0  0  0
   26.5514   -5.3532   14.5808 O   0  0  0  0  0  0  0  0  0  0  0  0
   22.7545   -7.2815   20.3813 C   0  0  2  0  0  0  0  0  0  0  0  0
   21.7817   -8.0296   19.6503 O   0  0  0  0  0  0  0  0  0  0  0  0
   18.1527   -7.0320   18.3887 C   0  0  2  0  0  0  0  0  0  0  0  0
   17.9588   -6.0571   17.3511 O   0  0  0  0  0  0  0  0  0  0  0  0
   29.0953   -6.3108   18.8095 C   0  0  2  0  0  0  0  0  0  0  0  0
   28.4899   -5.1398   18.1905 O   0  0  0  0  0  0  0  0  0  0  0  0
   29.1999   -3.9623   14.7815 C   0  0  2  0  0  0  0  0  0  0  0  0
   27.9481   -3.6465   15.4521 O   0  0  0  0  0  0  0  0  0  0  0  0
   24.5434   -4.6169   13.4807 C   0  0  0  0  0  0  0  0  0  0  0  0
   23.1174   -4.6317   13.6418 O   0  0  0  0  0  0  0  0  0  0  0  0
   22.8129   -5.9229   19.7099 C   0  0  1  0  0  0  0  0  0  0  0  0
   23.4665   -5.5200   18.4872 O   0  0  0  0  0  0  0  0  0  0  0  0
   18.5785   -6.4445   19.7296 C   0  0  2  0  0  0  0  0  0  0  0  0
   19.3407   -7.2131   20.6731 O   0  0  0  0  0  0  0  0  0  0  0  0
   27.9918   -7.2981   18.9829 C   0  0  0  0  0  0  0  0  0  0  0  0
   28.5706   -8.5066   19.4127 O   0  0  0  0  0  0  0  0  0  0  0  0
   28.9912   -4.4334   13.3027 C   0  0  1  0  0  0  0  0  0  0  0  0
   28.4442   -3.3075   12.5662 O   0  0  0  0  0  0  0  0  0  0  0  0
   21.6112   -4.9650   19.9767 C   0  0  0  0  0  0  0  0  0  0  0  0
   21.6729   -3.7141   19.1917 N   0  0  0  0  0  0  0  0  0  0  0  0
   17.7422   -5.4205   20.4937 C   0  0  0  0  0  0  0  0  0  0  0  0
   18.4565   -4.9830   21.6799 O   0  0  0  0  0  0  0  0  0  0  0  0
  1  2  1  6  0  0  0
  1  8  1  0  0  0  0
  1 36  1  0  0  0  0
  3  4  1  6  0  0  0
  3 10  1  0  0  0  0
  3 47  1  0  0  0  0
  5 11  1  0  0  0  0
  5 30  1  0  0  0  0
  5 38  1  6  0  0  0
  6 21  1  6  0  0  0
  6 42  1  0  0  0  0
  7 15  1  0  0  0  0
  7 44  1  0  0  0  0
  7 32  1  6  0  0  0
  8  9  1  6  0  0  0
  8 17  1  0  0  0  0
 11 12  1  1  0  0  0
 11 20  1  0  0  0  0
 13  6  1  0  0  0  0
 13 14  1  6  0  0  0
 15 16  1  1  0  0  0
 15 24  1  0  0  0  0
 17 26  1  0  0  0  0
 18 10  1  0  0  0  0
 18 19  1  1  0  0  0
 20 21  1  1  0  0  0
 20 29  1  0  0  0  0
 22 13  1  0  0  0  0
 22 23  1  1  0  0  0
 24 25  1  6  0  0  0
 24 33  1  0  0  0  0
 26 27  1  6  0  0  0
 26 35  1  0  0  0  0
 28  2  1  1  0  0  0
 28 18  1  0  0  0  0
 29 30  1  0  0  0  0
 29 39  1  6  0  0  0
 31 22  1  0  0  0  0
 31 32  1  6  0  0  0
 31 41  1  0  0  0  0
 33 34  1  6  0  0  0
 33 43  1  0  0  0  0
 35 36  1  0  0  0  0
 35 45  1  1  0  0  0
 37 28  1  0  0  0  0
 37 38  1  1  0  0  0
 39 40  1  0  0  0  0
 41 42  1  0  0  0  0
 41 49  1  6  0  0  0
 43 44  1  0  0  0  0
 43 51  1  1  0  0  0
 45 46  1  0  0  0  0
 47 37  1  0  0  0  0
 47 48  1  6  0  0  0
 49 50  1  0  0  0  0
 51 52  1  0  0  0  0
M  END
>  <CHROM.1>
-178.37229465,178.88467846,162.90184141,174.38811999,64.76832434,-178.22023371
-56.53164379,147.31843346,-70.49345342,-55.27406139,-174.53491097,-175.84011609
25.25310170,-5.91743678,17.55000262,-0.36048375,0.13152924,1.80466937

>  <Name>
2esj_lig

>  <RI>
0

>  <Rbt.Current_Directory>
/home/itssahil/PROJECTS/Mol_Feturizer/New_Systems/rnas/2esj

>  <Rbt.Executable>
rbdock ($Id: //depot/dev/client3/rdock/2013.1/src/exe/rbdock.cxx#4 $)

>  <Rbt.Library>
libRbt.so (2013.1, Build901 2013/11/27)

>  <Rbt.Parameter_File>
/export/apps/rDock/src/rDock_2013.1_src/data/scripts/dock_solv.prm

>  <Rbt.Receptor>
prm/pocket_docking_6.prm

>  <SCORE>
-10.5497

>  <SCORE.INTER>
-0.549953

>  <SCORE.INTER.CONST>
1

>  <SCORE.INTER.POLAR>
0

>  <SCORE.INTER.ROT>
12

>  <SCORE.INTER.SOLV>
10.9733

>  <SCORE.INTER.VDW>
-15.6244

>  <SCORE.INTER.norm>
-0.010576

>  <SCORE.INTRA>
-9.99974

>  <SCORE.INTRA.DIHEDRAL>
-21.8659

>  <SCORE.INTRA.DIHEDRAL.0>
32.9766

>  <SCORE.INTRA.POLAR>
0

>  <SCORE.INTRA.POLAR.0>
0

>  <SCORE.INTRA.REPUL>
0

>  <SCORE.INTRA.REPUL.0>
0

>  <SCORE.INTRA.SOLV>
-1.96944

>  <SCORE.INTRA.SOLV.lig_0>
-114.358

>  <SCORE.INTRA.VDW>
1.91795

>  <SCORE.INTRA.VDW.0>
-8.24257

>  <SCORE.INTRA.norm>
-0.192303

>  <SCORE.RESTR>
0

>  <SCORE.RESTR.CAVITY>
0

>  <SCORE.RESTR.norm>
0

>  <SCORE.SYSTEM>
0

>  <SCORE.SYSTEM.CONST>
0

>  <SCORE.SYSTEM.DIHEDRAL>
0

>  <SCORE.SYSTEM.SOLV>
0

>  <SCORE.SYSTEM.norm>
0

>  <SCORE.heavy>
52

>  <SCORE.norm>
-0.202879

>  <RMSD>
10.828

$$$$
2esj_lig
 OpenBabel11021811423D
libRbt.so/2013.1/901 2013/11/27
 52 56  0  0  0  0  0  0  0  0999 V2000
   28.0861   -2.4353   16.1291 C   0  0  2  0  0  0  0  0  0  0  0  0
   28.4310   -1.4023   15.1863 O   0  0  0  0  0  0  0  0  0  0  0  0
   26.2558    1.0415   12.4323 C   0  0  2  0  0  0  0  0  0  0  0  0
   25.4834    1.5525   11.2879 N   0  0  0  0  0  0  0  0  0  0  0  0
   24.6817   -2.4760   14.5142 C   0  0  1  0  0  0  0  0  0  0  0  0
   22.8304   -5.5604   12.4531 C   0  0  1  0  0  0  0  0  0  0  0  0
   18.0855   -5.6253   14.2366 C   0  0  1  0  0  0  0  0  0  0  0  0
   29.1501   -2.4066   17.2658 C   0  0  2  0  0  0  0  0  0  0  0  0
   29.2427   -1.0938   17.9040 N   0  0  0  0  0  0  0  0  0  0  0  0
   27.5952    0.3673   11.9335 C   0  0  0  0  0  0  0  0  0  0  0  0
   25.5408   -3.2890   13.5450 C   0  0  2  0  0  0  0  0  0  0  0  0
   25.6834   -2.6433   12.2612 O   0  0  0  0  0  0  0  0  0  0  0  0
   21.6577   -5.0332   11.5106 C   0  0  2  0  0  0  0  0  0  0  0  0
   21.0370   -3.8021   12.0673 N   0  0  0  0  0  0  0  0  0  0  0  0
   17.2941   -4.4043   13.7822 C   0  0  1  0  0  0  0  0  0  0  0  0
   15.9156   -4.5608   14.1740 O   0  0  0  0  0  0  0  0  0  0  0  0
   30.5524   -2.8344   16.7275 C   0  0  0  0  0  0  0  0  0  0  0  0
   28.4384   -0.1220   13.1791 C   0  0  2  0  0  0  0  0  0  0  0  0
   29.6822   -0.7647   12.7424 N   0  0  0  0  0  0  0  0  0  0  0  0
   24.7670   -4.5750   13.5056 C   0  0  2  0  0  0  0  0  0  0  0  0
   23.6227   -4.4366   12.7021 O   0  0  0  0  0  0  0  0  0  0  0  0
   20.6447   -6.2287   11.2279 C   0  0  1  0  0  0  0  0  0  0  0  0
   21.3845   -7.3610   10.7595 O   0  0  0  0  0  0  0  0  0  0  0  0
   17.7888   -3.0689   14.3250 C   0  0  1  0  0  0  0  0  0  0  0  0
   16.8021   -2.0856   13.9937 O   0  0  0  0  0  0  0  0  0  0  0  0
   30.4226   -4.2224   16.0330 C   0  0  2  0  0  0  0  0  0  0  0  0
   31.6765   -4.7077   15.5877 O   0  0  0  0  0  0  0  0  0  0  0  0
   27.6029   -1.0971   14.0486 C   0  0  2  0  0  0  0  0  0  0  0  0
   24.2030   -4.7726   14.9278 C   0  0  2  0  0  0  0  0  0  0  0  0
   24.0438   -3.4340   15.3702 O   0  0  0  0  0  0  0  0  0  0  0  0
   19.9247   -6.7031   12.5567 C   0  0  2  0  0  0  0  0  0  0  0  0
   19.1721   -5.5634   12.9753 O   0  0  0  0  0  0  0  0  0  0  0  0
   18.0201   -3.0656   15.8371 C   0  0  2  0  0  0  0  0  0  0  0  0
   18.7658   -1.8758   16.1420 O   0  0  0  0  0  0  0  0  0  0  0  0
   29.4143   -4.0909   14.8647 C   0  0  2  0  0  0  0  0  0  0  0  0
   28.1328   -3.7071   15.4404 O   0  0  0  0  0  0  0  0  0  0  0  0
   26.2091   -0.5369   14.4783 C   0  0  2  0  0  0  0  0  0  0  0  0
   25.4834   -1.5558   15.2210 O   0  0  0  0  0  0  0  0  0  0  0  0
   25.0923   -5.5290   15.9141 C   0  0  0  0  0  0  0  0  0  0  0  0
   25.3178   -6.8399   15.3754 O   0  0  0  0  0  0  0  0  0  0  0  0
   21.0273   -6.8640   13.5856 C   0  0  1  0  0  0  0  0  0  0  0  0
   22.2668   -6.1394   13.7377 O   0  0  0  0  0  0  0  0  0  0  0  0
   18.6814   -4.3574   16.3046 C   0  0  2  0  0  0  0  0  0  0  0  0
   18.4294   -5.6067   15.6432 O   0  0  0  0  0  0  0  0  0  0  0  0
   29.1736   -5.3784   14.1527 C   0  0  0  0  0  0  0  0  0  0  0  0
   28.2751   -5.1175   13.1015 O   0  0  0  0  0  0  0  0  0  0  0  0
   25.4126   -0.0119   13.2364 C   0  0  1  0  0  0  0  0  0  0  0  0
   24.2282    0.6617   13.7391 O   0  0  0  0  0  0  0  0  0  0  0  0
   20.6019   -7.4295   14.9755 C   0  0  0  0  0  0  0  0  0  0  0  0
   20.8212   -8.8852   15.1085 N   0  0  0  0  0  0  0  0  0  0  0  0
   19.0226   -4.6369   17.7665 C   0  0  0  0  0  0  0  0  0  0  0  0
   18.2532   -5.7709   18.2470 O   0  0  0  0  0  0  0  0  0  0  0  0
  1  2  1  6  0  0  0
  1  8  1  0  0  0  0
  1 36  1  0  0  0  0
  3  4  1  6  0  0  0
  3 10  1  0  0  0  0
  3 47  1  0  0  0  0
  5 11  1  0  0  0  0
  5 30  1  0  0  0  0
  5 38  1  1  0  0  0
  6 21  1  1  0  0  0
  6 42  1  0  0  0  0
  7 15  1  0  0  0  0
  7 44  1  0  0  0  0
  7 32  1  6  0  0  0
  8  9  1  6  0  0  0
  8 17  1  0  0  0  0
 11 12  1  6  0  0  0
 11 20  1  0  0  0  0
 13  6  1  0  0  0  0
 13 14  1  1  0  0  0
 15 16  1  1  0  0  0
 15 24  1  0  0  0  0
 17 26  1  0  0  0  0
 18 10  1  0  0  0  0
 18 19  1  6  0  0  0
 20 21  1  6  0  0  0
 20 29  1  0  0  0  0
 22 13  1  0  0  0  0
 22 23  1  1  0  0  0
 24 25  1  1  0  0  0
 24 33  1  0  0  0  0
 26 27  1  6  0  0  0
 26 35  1  0  0  0  0
 28  2  1  1  0  0  0
 28 18  1  0  0  0  0
 29 30  1  0  0  0  0
 29 39  1  1  0  0  0
 31 22  1  0  0  0  0
 31 32  1  1  0  0  0
 31 41  1  0  0  0  0
 33 34  1  6  0  0  0
 33 43  1  0  0  0  0
 35 36  1  0  0  0  0
 35 45  1  1  0  0  0
 37 28  1  0  0  0  0
 37 38  1  6  0  0  0
 39 40  1  0  0  0  0
 41 42  1  0  0  0  0
 41 49  1  1  0  0  0
 43 44  1  0  0  0  0
 43 51  1  1  0  0  0
 45 46  1  0  0  0  0
 47 37  1  0  0  0  0
 47 48  1  1  0  0  0
 49 50  1  0  0  0  0
 51 52  1  0  0  0  0
M  END
>  <CHROM.1>
-176.01433489,60.93784562,-179.33368096,-158.09977552,174.81518853,-170.50567265
-60.46887001,172.18790179,-178.46610653,-88.14816356,96.77048357,116.13978805
23.81981410,-3.68575290,14.32441679,-0.26744331,0.08600643,2.92168496

>  <Name>
2esj_lig

>  <RI>
2.18877e+07

>  <Rbt.Current_Directory>
/home/itssahil/PROJECTS/Mol_Feturizer/New_Systems/rnas/2esj

>  <Rbt.Executable>
rbdock ($Id: //depot/dev/client3/rdock/2013.1/src/exe/rbdock.cxx#4 $)

>  <Rbt.Library>
libRbt.so (2013.1, Build901 2013/11/27)

>  <Rbt.Parameter_File>
/export/apps/rDock/src/rDock_2013.1_src/data/scripts/dock_solv.prm

>  <Rbt.Receptor>
prm/pocket_docking_7.prm

>  <SCORE>
-13.3445

>  <SCORE.INTER>
-4.27049

>  <SCORE.INTER.CONST>
1

>  <SCORE.INTER.POLAR>
-0.979796

>  <SCORE.INTER.ROT>
12

>  <SCORE.INTER.SOLV>
8.15298

>  <SCORE.INTER.VDW>
-13.8987

>  <SCORE.INTER.norm>
-0.0821249

>  <SCORE.INTRA>
-9.07396

>  <SCORE.INTRA.DIHEDRAL>
-20.1248

>  <SCORE.INTRA.DIHEDRAL.0>
32.9766

>  <SCORE.INTRA.POLAR>
0

>  <SCORE.INTRA.POLAR.0>
0

>  <SCORE.INTRA.REPUL>
0

>  <SCORE.INTRA.REPUL.0>
0

>  <SCORE.INTRA.SOLV>
-2.33767

>  <SCORE.INTRA.SOLV.lig_0>
-114.358

>  <SCORE.INTRA.VDW>
2.15725

>  <SCORE.INTRA.VDW.0>
-8.24257

>  <SCORE.INTRA.norm>
-0.174499

>  <SCORE.RESTR>
0

>  <SCORE.RESTR.CAVITY>
0

>  <SCORE.RESTR.norm>
0

>  <SCORE.SYSTEM>
0

>  <SCORE.SYSTEM.CONST>
0

>  <SCORE.SYSTEM.DIHEDRAL>
0

>  <SCORE.SYSTEM.SOLV>
0

>  <SCORE.SYSTEM.norm>
0

>  <SCORE.heavy>
52

>  <SCORE.norm>
-0.256624

>  <RMSD>
10.831

$$$$
2esj_lig
 OpenBabel11021811423D
libRbt.so/2013.1/901 2013/11/27
 52 56  0  0  0  0  0  0  0  0999 V2000
   27.9141   -0.0752   14.7081 C   0  0  2  0  0  0  0  0  0  0  0  0
   26.6630    0.5899   14.9674 O   0  0  0  0  0  0  0  0  0  0  0  0
   25.6071   -1.1750   18.7168 C   0  0  2  0  0  0  0  0  0  0  0  0
   25.0533   -1.4510   20.0527 N   0  0  0  0  0  0  0  0  0  0  0  0
   22.9173   -1.5515   15.1914 C   0  0  1  0  0  0  0  0  0  0  0  0
   19.8523   -4.2132   14.5255 C   0  0  1  0  0  0  0  0  0  0  0  0
   18.4602   -6.7611   18.7085 C   0  0  1  0  0  0  0  0  0  0  0  0
   28.3055    0.2223   13.2305 C   0  0  2  0  0  0  0  0  0  0  0  0
   28.3830    1.6570   12.9567 N   0  0  0  0  0  0  0  0  0  0  0  0
   26.4362    0.1703   18.7335 C   0  0  0  0  0  0  0  0  0  0  0  0
   21.9662   -1.2114   14.0433 C   0  0  2  0  0  0  0  0  0  0  0  0
   20.9551   -0.2559   14.4307 O   0  0  0  0  0  0  0  0  0  0  0  0
   18.3811   -4.0007   15.1014 C   0  0  2  0  0  0  0  0  0  0  0  0
   18.4187   -3.3430   16.4344 N   0  0  0  0  0  0  0  0  0  0  0  0
   17.2551   -7.6852   18.5773 C   0  0  1  0  0  0  0  0  0  0  0  0
   17.5806   -8.9711   19.1421 O   0  0  0  0  0  0  0  0  0  0  0  0
   27.3027   -0.4526   12.2416 C   0  0  0  0  0  0  0  0  0  0  0  0
   27.0718    0.4191   17.3067 C   0  0  2  0  0  0  0  0  0  0  0  0
   27.8365    1.6704   17.2913 N   0  0  0  0  0  0  0  0  0  0  0  0
   21.4319   -2.5760   13.7168 C   0  0  2  0  0  0  0  0  0  0  0  0
   20.4759   -2.9708   14.6679 O   0  0  0  0  0  0  0  0  0  0  0  0
   17.6034   -5.3893   15.0580 C   0  0  1  0  0  0  0  0  0  0  0  0
   17.7034   -5.9346   13.7384 O   0  0  0  0  0  0  0  0  0  0  0  0
   15.9779   -7.1882   19.2437 C   0  0  1  0  0  0  0  0  0  0  0  0
   15.0413   -8.2710   19.2244 O   0  0  0  0  0  0  0  0  0  0  0  0
   27.2205   -1.9732   12.5683 C   0  0  2  0  0  0  0  0  0  0  0  0
   26.3842   -2.6632   11.6569 O   0  0  0  0  0  0  0  0  0  0  0  0
   25.9663    0.4483   16.2195 C   0  0  2  0  0  0  0  0  0  0  0  0
   22.6048   -3.5532   13.9384 C   0  0  2  0  0  0  0  0  0  0  0  0
   23.3413   -2.9023   14.9616 O   0  0  0  0  0  0  0  0  0  0  0  0
   18.2723   -6.4571   16.0181 C   0  0  2  0  0  0  0  0  0  0  0  0
   18.1243   -5.8976   17.3241 O   0  0  0  0  0  0  0  0  0  0  0  0
   16.1779   -6.7167   20.6851 C   0  0  2  0  0  0  0  0  0  0  0  0
   14.9886   -6.0022   21.0587 O   0  0  0  0  0  0  0  0  0  0  0  0
   26.7274   -2.1326   14.0279 C   0  0  2  0  0  0  0  0  0  0  0  0
   27.7142   -1.4969   14.8898 O   0  0  0  0  0  0  0  0  0  0  0  0
   25.0305   -0.8028   16.2252 C   0  0  2  0  0  0  0  0  0  0  0  0
   23.9903   -0.6366   15.2218 O   0  0  0  0  0  0  0  0  0  0  0  0
   23.5181   -3.8040   12.7391 C   0  0  0  0  0  0  0  0  0  0  0  0
   24.3483   -4.9309   13.0560 O   0  0  0  0  0  0  0  0  0  0  0  0
   19.7580   -6.4045   15.7180 C   0  0  1  0  0  0  0  0  0  0  0  0
   20.5815   -5.2939   15.3023 O   0  0  0  0  0  0  0  0  0  0  0  0
   17.4655   -5.9145   20.8376 C   0  0  2  0  0  0  0  0  0  0  0  0
   18.6205   -6.1965   20.0325 O   0  0  0  0  0  0  0  0  0  0  0  0
   26.6554   -3.5549   14.4685 C   0  0  0  0  0  0  0  0  0  0  0  0
   26.1622   -3.5639   15.7864 O   0  0  0  0  0  0  0  0  0  0  0  0
   24.4528   -1.0602   17.6577 C   0  0  1  0  0  0  0  0  0  0  0  0
   23.7609   -2.3365   17.6190 O   0  0  0  0  0  0  0  0  0  0  0  0
   20.6530   -7.4432   16.4616 C   0  0  0  0  0  0  0  0  0  0  0  0
   20.9384   -8.6518   15.6600 N   0  0  0  0  0  0  0  0  0  0  0  0
   17.9278   -5.3263   22.1687 C   0  0  0  0  0  0  0  0  0  0  0  0
   18.9891   -6.1434   22.7298 O   0  0  0  0  0  0  0  0  0  0  0  0
  1  2  1  6  0  0  0
  1  8  1  0  0  0  0
  1 36  1  0  0  0  0
  3  4  1  1  0  0  0
  3 10  1  0  0  0  0
  3 47  1  0  0  0  0
  5 11  1  0  0  0  0
  5 30  1  0  0  0  0
  5 38  1  6  0  0  0
  6 21  1  1  0  0  0
  6 42  1  0  0  0  0
  7 15  1  0  0  0  0
  7 44  1  0  0  0  0
  7 32  1  6  0  0  0
  8  9  1  1  0  0  0
  8 17  1  0  0  0  0
 11 12  1  1  0  0  0
 11 20  1  0  0  0  0
 13  6  1  0  0  0  0
 13 14  1  1  0  0  0
 15 16  1  1  0  0  0
 15 24  1  0  0  0  0
 17 26  1  0  0  0  0
 18 10  1  0  0  0  0
 18 19  1  1  0  0  0
 20 21  1  1  0  0  0
 20 29  1  0  0  0  0
 22 13  1  0  0  0  0
 22 23  1  6  0  0  0
 24 25  1  1  0  0  0
 24 33  1  0  0  0  0
 26 27  1  6  0  0  0
 26 35  1  0  0  0  0
 28  2  1  6  0  0  0
 28 18  1  0  0  0  0
 29 30  1  0  0  0  0
 29 39  1  6  0  0  0
 31 22  1  0  0  0  0
 31 32  1  1  0  0  0
 31 41  1  0  0  0  0
 33 34  1  6  0  0  0
 33 43  1  0  0  0  0
 35 36  1  0  0  0  0
 35 45  1  1  0  0  0
 37 28  1  0  0  0  0
 37 38  1  6  0  0  0
 39 40  1  0  0  0  0
 41 42  1  0  0  0  0
 41 49  1  1  0  0  0
 43 44  1  0  0  0  0
 43 51  1  1  0  0  0
 45 46  1  0  0  0  0
 47 37  1  0  0  0  0
 47 48  1  6  0  0  0
 49 50  1  0  0  0  0
 51 52  1  0  0  0  0
M  END
>  <CHROM.1>
175.73680541,-178.57250438,-147.19623317,-70.64297748,179.37481553,38.01652559
-167.91984685,170.15535519,-178.37080246,-170.47720672,96.40128051,102.72467188
22.17845196,-3.50075985,16.29973741,-0.25309373,0.62481810,1.38766774

>  <Name>
2esj_lig

>  <RI>
0

>  <Rbt.Current_Directory>
/home/itssahil/PROJECTS/Mol_Feturizer/New_Systems/rnas/2esj

>  <Rbt.Executable>
rbdock ($Id: //depot/dev/client3/rdock/2013.1/src/exe/rbdock.cxx#4 $)

>  <Rbt.Library>
libRbt.so (2013.1, Build901 2013/11/27)

>  <Rbt.Parameter_File>
/export/apps/rDock/src/rDock_2013.1_src/data/scripts/dock_solv.prm

>  <Rbt.Receptor>
prm/pocket_docking_4.prm

>  <SCORE>
-15.0329

>  <SCORE.INTER>
-7.56043

>  <SCORE.INTER.CONST>
1

>  <SCORE.INTER.POLAR>
-0.610366

>  <SCORE.INTER.ROT>
12

>  <SCORE.INTER.SOLV>
12.3907

>  <SCORE.INTER.VDW>
-18.736

>  <SCORE.INTER.norm>
-0.145393

>  <SCORE.INTRA>
-7.47248

>  <SCORE.INTRA.DIHEDRAL>
-18.3335

>  <SCORE.INTRA.DIHEDRAL.0>
32.9766

>  <SCORE.INTRA.POLAR>
0

>  <SCORE.INTRA.POLAR.0>
0

>  <SCORE.INTRA.REPUL>
0

>  <SCORE.INTRA.REPUL.0>
0

>  <SCORE.INTRA.SOLV>
-2.19798

>  <SCORE.INTRA.SOLV.lig_0>
-114.358

>  <SCORE.INTRA.VDW>
2.79328

>  <SCORE.INTRA.VDW.0>
-8.24257

>  <SCORE.INTRA.norm>
-0.143702

>  <SCORE.RESTR>
0

>  <SCORE.RESTR.CAVITY>
0

>  <SCORE.RESTR.norm>
0

>  <SCORE.SYSTEM>
0

>  <SCORE.SYSTEM.CONST>
0

>  <SCORE.SYSTEM.DIHEDRAL>
0

>  <SCORE.SYSTEM.SOLV>
0

>  <SCORE.SYSTEM.norm>
0

>  <SCORE.heavy>
52

>  <SCORE.norm>
-0.289095

>  <RMSD>
10.857

$$$$
2esj_lig
 OpenBabel11021811423D
libRbt.so/2013.1/901 2013/11/27
 52 56  0  0  0  0  0  0  0  0999 V2000
   23.2892   -4.0142   13.2619 C   0  0  2  0  0  0  0  0  0  0  0  0
   24.6933   -4.2653   13.0615 O   0  0  0  0  0  0  0  0  0  0  0  0
   28.0236   -5.0906   15.6142 C   0  0  2  0  0  0  0  0  0  0  0  0
   29.1319   -5.0014   16.5791 N   0  0  0  0  0  0  0  0  0  0  0  0
   23.6101   -5.6258   16.8187 C   0  0  1  0  0  0  0  0  0  0  0  0
   21.3358   -7.8093   19.6543 C   0  0  1  0  0  0  0  0  0  0  0  0
   21.3800  -13.0339   19.1879 C   0  0  1  0  0  0  0  0  0  0  0  0
   22.5645   -4.3028   11.9141 C   0  0  2  0  0  0  0  0  0  0  0  0
   22.8128   -5.6612   11.4321 N   0  0  0  0  0  0  0  0  0  0  0  0
   28.2152   -4.0299   14.4584 C   0  0  0  0  0  0  0  0  0  0  0  0
   22.5638   -4.9599   17.7133 C   0  0  2  0  0  0  0  0  0  0  0  0
   23.1415   -4.3970   18.9111 O   0  0  0  0  0  0  0  0  0  0  0  0
   22.2428   -9.0333   20.1236 C   0  0  2  0  0  0  0  0  0  0  0  0
   22.9957   -9.6105   18.9786 N   0  0  0  0  0  0  0  0  0  0  0  0
   22.2215  -13.0956   17.9185 C   0  0  1  0  0  0  0  0  0  0  0  0
   23.2850  -14.0516   18.1013 O   0  0  0  0  0  0  0  0  0  0  0  0
   22.9848   -3.2679   10.8226 C   0  0  0  0  0  0  0  0  0  0  0  0
   27.0482   -4.1807   13.4015 C   0  0  2  0  0  0  0  0  0  0  0  0
   27.1952   -3.1971   12.3237 N   0  0  0  0  0  0  0  0  0  0  0  0
   21.6384   -6.1162   17.9598 C   0  0  2  0  0  0  0  0  0  0  0  0
   22.1908   -6.9956   18.9063 O   0  0  0  0  0  0  0  0  0  0  0  0
   21.3381  -10.0699   20.9249 C   0  0  1  0  0  0  0  0  0  0  0  0
   20.6275   -9.3678   21.9500 O   0  0  0  0  0  0  0  0  0  0  0  0
   21.4625  -13.4726   16.6519 C   0  0  1  0  0  0  0  0  0  0  0  0
   22.4364  -13.7107   15.6297 O   0  0  0  0  0  0  0  0  0  0  0  0
   22.7327   -1.8310   11.3682 C   0  0  2  0  0  0  0  0  0  0  0  0
   23.0210   -0.8410   10.3972 O   0  0  0  0  0  0  0  0  0  0  0  0
   25.6688   -4.0228   14.0924 C   0  0  2  0  0  0  0  0  0  0  0  0
   21.6266   -6.9344   16.6522 C   0  0  2  0  0  0  0  0  0  0  0  0
   22.9253   -6.6862   16.1375 O   0  0  0  0  0  0  0  0  0  0  0  0
   20.2295  -10.7112   19.9928 C   0  0  2  0  0  0  0  0  0  0  0  0
   20.9717  -11.4290   19.0058 O   0  0  0  0  0  0  0  0  0  0  0  0
   20.5787  -14.7113   16.8085 C   0  0  2  0  0  0  0  0  0  0  0  0
   19.7103  -14.7510   15.6644 O   0  0  0  0  0  0  0  0  0  0  0  0
   23.5833   -1.6392   12.6484 C   0  0  2  0  0  0  0  0  0  0  0  0
   23.1276   -2.6220   13.6218 O   0  0  0  0  0  0  0  0  0  0  0  0
   25.4588   -4.9619   15.3232 C   0  0  2  0  0  0  0  0  0  0  0  0
   24.1707   -4.6783   15.9370 O   0  0  0  0  0  0  0  0  0  0  0  0
   20.5841   -6.5352   15.6084 C   0  0  0  0  0  0  0  0  0  0  0  0
   20.8440   -5.1736   15.2365 O   0  0  0  0  0  0  0  0  0  0  0  0
   19.5900   -9.5494   19.2571 C   0  0  1  0  0  0  0  0  0  0  0  0
   20.1641   -8.2979   18.8226 O   0  0  0  0  0  0  0  0  0  0  0  0
   19.8514  -14.7137   18.1484 C   0  0  2  0  0  0  0  0  0  0  0  0
   20.4421  -14.1294   19.3195 O   0  0  0  0  0  0  0  0  0  0  0  0
   23.3844   -0.3074   13.2881 C   0  0  0  0  0  0  0  0  0  0  0  0
   24.2473   -0.2393   14.3976 O   0  0  0  0  0  0  0  0  0  0  0  0
   26.6500   -4.8339   16.3316 C   0  0  1  0  0  0  0  0  0  0  0  0
   26.4763   -5.8690   17.3355 O   0  0  0  0  0  0  0  0  0  0  0  0
   18.3793   -9.8935   18.3359 C   0  0  0  0  0  0  0  0  0  0  0  0
   17.3930  -10.7904   18.9743 N   0  0  0  0  0  0  0  0  0  0  0  0
   18.9078  -15.8332   18.5821 C   0  0  0  0  0  0  0  0  0  0  0  0
   19.5933  -17.1118   18.5184 O   0  0  0  0  0  0  0  0  0  0  0  0
  1  2  1  6  0  0  0
  1  8  1  0  0  0  0
  1 36  1  0  0  0  0
  3  4  1  1  0  0  0
  3 10  1  0  0  0  0
  3 47  1  0  0  0  0
  5 11  1  0  0  0  0
  5 30  1  0  0  0  0
  5 38  1  6  0  0  0
  6 21  1  6  0  0  0
  6 42  1  0  0  0  0
  7 15  1  0  0  0  0
  7 44  1  0  0  0  0
  7 32  1  6  0  0  0
  8  9  1  6  0  0  0
  8 17  1  0  0  0  0
 11 12  1  1  0  0  0
 11 20  1  0  0  0  0
 13  6  1  0  0  0  0
 13 14  1  6  0  0  0
 15 16  1  1  0  0  0
 15 24  1  0  0  0  0
 17 26  1  0  0  0  0
 18 10  1  0  0  0  0
 18 19  1  6  0  0  0
 20 21  1  1  0  0  0
 20 29  1  0  0  0  0
 22 13  1  0  0  0  0
 22 23  1  1  0  0  0
 24 25  1  6  0  0  0
 24 33  1  0  0  0  0
 26 27  1  6  0  0  0
 26 35  1  0  0  0  0
 28  2  1  6  0  0  0
 28 18  1  0  0  0  0
 29 30  1  0  0  0  0
 29 39  1  6  0  0  0
 31 22  1  0  0  0  0
 31 32  1  6  0  0  0
 31 41  1  0  0  0  0
 33 34  1  6  0  0  0
 33 43  1  0  0  0  0
 35 36  1  0  0  0  0
 35 45  1  1  0  0  0
 37 28  1  0  0  0  0
 37 38  1  1  0  0  0
 39 40  1  0  0  0  0
 41 42  1  0  0  0  0
 41 49  1  6  0  0  0
 43 44  1  0  0  0  0
 43 51  1  1  0  0  0
 45 46  1  0  0  0  0
 47 37  1  0  0  0  0
 47 48  1  1  0  0  0
 49 50  1  0  0  0  0
 51 52  1  0  0  0  0
M  END
>  <CHROM.1>
176.43275361,159.76284868,156.99228419,-174.93274657,155.19996938,-170.46710328
60.59057167,91.55172761,-177.57590305,162.83924655,46.15179803,55.28419474
22.64756671,-7.58805735,16.39603881,0.84792396,-1.01338291,-1.10676099

>  <Name>
2esj_lig

>  <RI>
0

>  <Rbt.Current_Directory>
/home/itssahil/PROJECTS/Mol_Feturizer/New_Systems/rnas/2esj

>  <Rbt.Executable>
rbdock ($Id: //depot/dev/client3/rdock/2013.1/src/exe/rbdock.cxx#4 $)

>  <Rbt.Library>
libRbt.so (2013.1, Build901 2013/11/27)

>  <Rbt.Parameter_File>
/export/apps/rDock/src/rDock_2013.1_src/data/scripts/dock_solv.prm

>  <Rbt.Receptor>
prm/pocket_docking_6.prm

>  <SCORE>
-10.0749

>  <SCORE.INTER>
-2.32406

>  <SCORE.INTER.CONST>
1

>  <SCORE.INTER.POLAR>
-1.48095

>  <SCORE.INTER.ROT>
12

>  <SCORE.INTER.SOLV>
11.5592

>  <SCORE.INTER.VDW>
-12.0659

>  <SCORE.INTER.norm>
-0.0446934

>  <SCORE.INTRA>
-7.76565

>  <SCORE.INTRA.DIHEDRAL>
-15.5233

>  <SCORE.INTRA.DIHEDRAL.0>
32.9766

>  <SCORE.INTRA.POLAR>
0

>  <SCORE.INTRA.POLAR.0>
0

>  <SCORE.INTRA.REPUL>
0

>  <SCORE.INTRA.REPUL.0>
0

>  <SCORE.INTRA.SOLV>
-2.71345

>  <SCORE.INTRA.SOLV.lig_0>
-114.358

>  <SCORE.INTRA.VDW>
1.35273

>  <SCORE.INTRA.VDW.0>
-8.24257

>  <SCORE.INTRA.norm>
-0.149339

>  <SCORE.RESTR>
0.0147586

>  <SCORE.RESTR.CAVITY>
0.0147586

>  <SCORE.RESTR.norm>
0.000283819

>  <SCORE.SYSTEM>
0

>  <SCORE.SYSTEM.CONST>
0

>  <SCORE.SYSTEM.DIHEDRAL>
0

>  <SCORE.SYSTEM.SOLV>
0

>  <SCORE.SYSTEM.norm>
0

>  <SCORE.heavy>
52

>  <SCORE.norm>
-0.193749

>  <RMSD>
10.889

$$$$
2esj_lig
 OpenBabel11021811423D
libRbt.so/2013.1/901 2013/11/27
 52 56  0  0  0  0  0  0  0  0999 V2000
   25.8123    1.1035   13.5787 C   0  0  2  0  0  0  0  0  0  0  0  0
   27.1988    0.8427   13.2879 O   0  0  0  0  0  0  0  0  0  0  0  0
   29.3551   -0.8627   10.0123 C   0  0  2  0  0  0  0  0  0  0  0  0
   29.9426   -1.7760    9.0183 N   0  0  0  0  0  0  0  0  0  0  0  0
   24.9819   -0.9563   11.1985 C   0  0  1  0  0  0  0  0  0  0  0  0
   22.5668   -4.2934   11.7223 C   0  0  1  0  0  0  0  0  0  0  0  0
   18.1790   -5.5472   14.1268 C   0  0  1  0  0  0  0  0  0  0  0  0
   25.7608    2.2736   14.6050 C   0  0  2  0  0  0  0  0  0  0  0  0
   26.4506    3.4678   14.1178 N   0  0  0  0  0  0  0  0  0  0  0  0
   29.7307   -1.3283   11.4751 C   0  0  0  0  0  0  0  0  0  0  0  0
   23.5752   -0.9147   10.6001 C   0  0  2  0  0  0  0  0  0  0  0  0
   22.6351   -0.2240   11.4513 O   0  0  0  0  0  0  0  0  0  0  0  0
   21.1910   -4.3178   10.9174 C   0  0  2  0  0  0  0  0  0  0  0  0
   20.2752   -3.2466   11.3915 N   0  0  0  0  0  0  0  0  0  0  0  0
   17.2196   -4.4153   13.7776 C   0  0  1  0  0  0  0  0  0  0  0  0
   15.8936   -4.7639   14.2232 O   0  0  0  0  0  0  0  0  0  0  0  0
   26.3628    1.8370   15.9784 C   0  0  0  0  0  0  0  0  0  0  0  0
   29.1414   -0.3031   12.5255 C   0  0  2  0  0  0  0  0  0  0  0  0
   29.4649   -0.7202   13.8939 N   0  0  0  0  0  0  0  0  0  0  0  0
   23.3010   -2.3823   10.4424 C   0  0  2  0  0  0  0  0  0  0  0  0
   22.9814   -2.9595   11.6830 O   0  0  0  0  0  0  0  0  0  0  0  0
   20.5878   -5.7903   10.9692 C   0  0  1  0  0  0  0  0  0  0  0  0
   21.5938   -6.7175   10.5487 O   0  0  0  0  0  0  0  0  0  0  0  0
   17.5729   -3.0564   14.3700 C   0  0  1  0  0  0  0  0  0  0  0  0
   16.4559   -2.1906   14.1394 O   0  0  0  0  0  0  0  0  0  0  0  0
   25.6285    0.5521   16.4639 C   0  0  2  0  0  0  0  0  0  0  0  0
   26.0734    0.1436   17.7450 O   0  0  0  0  0  0  0  0  0  0  0  0
   27.6063   -0.1707   12.3498 C   0  0  2  0  0  0  0  0  0  0  0  0
   24.6515   -3.0267   10.0675 C   0  0  2  0  0  0  0  0  0  0  0  0
   25.5773   -2.1684   10.7150 O   0  0  0  0  0  0  0  0  0  0  0  0
   20.2076   -6.2078   12.4492 C   0  0  2  0  0  0  0  0  0  0  0  0
   19.1817   -5.2866   12.8222 O   0  0  0  0  0  0  0  0  0  0  0  0
   17.8812   -3.0980   15.8677 C   0  0  2  0  0  0  0  0  0  0  0  0
   18.4888   -1.8398   16.2033 O   0  0  0  0  0  0  0  0  0  0  0  0
   25.8391   -0.5592   15.4057 C   0  0  2  0  0  0  0  0  0  0  0  0
   25.2421   -0.0915   14.1624 O   0  0  0  0  0  0  0  0  0  0  0  0
   27.1566    0.1716   10.8932 C   0  0  2  0  0  0  0  0  0  0  0  0
   25.7035    0.1968   10.8263 O   0  0  0  0  0  0  0  0  0  0  0  0
   24.9827   -3.0958    8.5772 C   0  0  0  0  0  0  0  0  0  0  0  0
   26.2003   -3.8430    8.4391 O   0  0  0  0  0  0  0  0  0  0  0  0
   21.4100   -5.8452   13.2993 C   0  0  1  0  0  0  0  0  0  0  0  0
   22.3624   -4.7706   13.1483 O   0  0  0  0  0  0  0  0  0  0  0  0
   18.7211   -4.3171   16.2321 C   0  0  2  0  0  0  0  0  0  0  0  0
   18.5915   -5.5543   15.5150 O   0  0  0  0  0  0  0  0  0  0  0  0
   25.1361   -1.8294   15.7444 C   0  0  0  0  0  0  0  0  0  0  0  0
   25.7713   -2.3746   16.8755 O   0  0  0  0  0  0  0  0  0  0  0  0
   27.7917   -0.8245    9.8653 C   0  0  1  0  0  0  0  0  0  0  0  0
   27.4856   -0.3240    8.5367 O   0  0  0  0  0  0  0  0  0  0  0  0
   21.3430   -6.2496   14.8042 C   0  0  0  0  0  0  0  0  0  0  0  0
   22.2962   -7.3194   15.1670 N   0  0  0  0  0  0  0  0  0  0  0  0
   19.1708   -4.6226   17.6591 C   0  0  0  0  0  0  0  0  0  0  0  0
   19.8842   -3.4834   18.2086 O   0  0  0  0  0  0  0  0  0  0  0  0
  1  2  1  1  0  0  0
  1  8  1  0  0  0  0
  1 36  1  0  0  0  0
  3  4  1  6  0  0  0
  3 10  1  0  0  0  0
  3 47  1  0  0  0  0
  5 11  1  0  0  0  0
  5 30  1  0  0  0  0
  5 38  1  6  0  0  0
  6 21  1  1  0  0  0
  6 42  1  0  0  0  0
  7 15  1  0  0  0  0
  7 44  1  0  0  0  0
  7 32  1  6  0  0  0
  8  9  1  6  0  0  0
  8 17  1  0  0  0  0
 11 12  1  1  0  0  0
 11 20  1  0  0  0  0
 13  6  1  0  0  0  0
 13 14  1  1  0  0  0
 15 16  1  1  0  0  0
 15 24  1  0  0  0  0
 17 26  1  0  0  0  0
 18 10  1  0  0  0  0
 18 19  1  1  0  0  0
 20 21  1  1  0  0  0
 20 29  1  0  0  0  0
 22 13  1  0  0  0  0
 22 23  1  1  0  0  0
 24 25  1  1  0  0  0
 24 33  1  0  0  0  0
 26 27  1  1  0  0  0
 26 35  1  0  0  0  0
 28  2  1  1  0  0  0
 28 18  1  0  0  0  0
 29 30  1  0  0  0  0
 29 39  1  6  0  0  0
 31 22  1  0  0  0  0
 31 32  1  1  0  0  0
 31 41  1  0  0  0  0
 33 34  1  6  0  0  0
 33 43  1  0  0  0  0
 35 36  1  0  0  0  0
 35 45  1  1  0  0  0
 37 28  1  0  0  0  0
 37 38  1  1  0  0  0
 39 40  1  0  0  0  0
 41 42  1  0  0  0  0
 41 49  1  1  0  0  0
 43 44  1  0  0  0  0
 43 51  1  1  0  0  0
 45 46  1  0  0  0  0
 47 37  1  0  0  0  0
 47 48  1  6  0  0  0
 49 50  1  0  0  0  0
 51 52  1  0  0  0  0
M  END
>  <CHROM.1>
-178.83755709,-159.70298392,-64.23780489,-169.22291763,173.83241024,-169.88050646
-174.23716735,163.68801791,-68.09803512,-57.74986286,111.35111054,-54.94878751
23.39988926,-2.37667743,13.06163884,-0.02819836,0.52567656,1.08672854

>  <Name>
2esj_lig

>  <RI>
0

>  <Rbt.Current_Directory>
/home/itssahil/PROJECTS/Mol_Feturizer/New_Systems/rnas/2esj

>  <Rbt.Executable>
rbdock ($Id: //depot/dev/client3/rdock/2013.1/src/exe/rbdock.cxx#4 $)

>  <Rbt.Library>
libRbt.so (2013.1, Build901 2013/11/27)

>  <Rbt.Parameter_File>
/export/apps/rDock/src/rDock_2013.1_src/data/scripts/dock_solv.prm

>  <Rbt.Receptor>
prm/pocket_docking_8.prm

>  <SCORE>
-16.2374

>  <SCORE.INTER>
-5.97749

>  <SCORE.INTER.CONST>
1

>  <SCORE.INTER.POLAR>
-0.979796

>  <SCORE.INTER.ROT>
12

>  <SCORE.INTER.SOLV>
8.81887

>  <SCORE.INTER.VDW>
-15.2586

>  <SCORE.INTER.norm>
-0.114952

>  <SCORE.INTRA>
-10.2599

>  <SCORE.INTRA.DIHEDRAL>
-22.9817

>  <SCORE.INTRA.DIHEDRAL.0>
32.9766

>  <SCORE.INTRA.POLAR>
0

>  <SCORE.INTRA.POLAR.0>
0

>  <SCORE.INTRA.REPUL>
0

>  <SCORE.INTRA.REPUL.0>
0

>  <SCORE.INTRA.SOLV>
-2.70788

>  <SCORE.INTRA.SOLV.lig_0>
-114.358

>  <SCORE.INTRA.VDW>
2.58489

>  <SCORE.INTRA.VDW.0>
-8.24257

>  <SCORE.INTRA.norm>
-0.197306

>  <SCORE.RESTR>
0

>  <SCORE.RESTR.CAVITY>
0

>  <SCORE.RESTR.norm>
0

>  <SCORE.SYSTEM>
0

>  <SCORE.SYSTEM.CONST>
0

>  <SCORE.SYSTEM.DIHEDRAL>
0

>  <SCORE.SYSTEM.SOLV>
0

>  <SCORE.SYSTEM.norm>
0

>  <SCORE.heavy>
52

>  <SCORE.norm>
-0.312257

>  <RMSD>
10.897

$$$$
2esj_lig
 OpenBabel11021811423D
libRbt.so/2013.1/901 2013/11/27
 52 56  0  0  0  0  0  0  0  0999 V2000
   28.2829    0.6163   15.1805 C   0  0  2  0  0  0  0  0  0  0  0  0
   27.5810   -0.6317   15.3378 O   0  0  0  0  0  0  0  0  0  0  0  0
   29.9978   -3.1129   12.8296 C   0  0  2  0  0  0  0  0  0  0  0  0
   30.6174   -4.2467   12.1241 N   0  0  0  0  0  0  0  0  0  0  0  0
   25.5257   -2.6170   13.1655 C   0  0  1  0  0  0  0  0  0  0  0  0
   22.1331   -3.8305   14.5377 C   0  0  1  0  0  0  0  0  0  0  0  0
   19.4474   -7.2660   17.2979 C   0  0  1  0  0  0  0  0  0  0  0  0
   27.6036    1.6575   16.1182 C   0  0  2  0  0  0  0  0  0  0  0  0
   27.5818    1.2154   17.5122 N   0  0  0  0  0  0  0  0  0  0  0  0
   30.0815   -3.3271   14.3931 C   0  0  0  0  0  0  0  0  0  0  0  0
   24.0916   -2.2177   12.8155 C   0  0  2  0  0  0  0  0  0  0  0  0
   23.4522   -1.4755   13.8765 O   0  0  0  0  0  0  0  0  0  0  0  0
   22.2414   -4.6868   15.8780 C   0  0  2  0  0  0  0  0  0  0  0  0
   22.4423   -6.1288   15.5762 N   0  0  0  0  0  0  0  0  0  0  0  0
   17.9569   -6.9509   17.3502 C   0  0  1  0  0  0  0  0  0  0  0  0
   17.2426   -8.1153   17.8113 O   0  0  0  0  0  0  0  0  0  0  0  0
   26.1511    1.9742   15.6398 C   0  0  0  0  0  0  0  0  0  0  0  0
   29.4649   -2.0731   15.1339 C   0  0  2  0  0  0  0  0  0  0  0  0
   29.5181   -2.2528   16.5885 N   0  0  0  0  0  0  0  0  0  0  0  0
   23.4871   -3.5672   12.5561 C   0  0  2  0  0  0  0  0  0  0  0  0
   23.2276   -4.2313   13.7669 O   0  0  0  0  0  0  0  0  0  0  0  0
   20.9864   -4.3614   16.8022 C   0  0  1  0  0  0  0  0  0  0  0  0
   20.8795   -2.9422   16.9543 O   0  0  0  0  0  0  0  0  0  0  0  0
   17.5703   -5.7778   18.2428 C   0  0  1  0  0  0  0  0  0  0  0  0
   16.1428   -5.7827   18.3540 O   0  0  0  0  0  0  0  0  0  0  0  0
   26.1986    2.4196   14.1481 C   0  0  2  0  0  0  0  0  0  0  0  0
   24.9199    2.7974   13.6703 O   0  0  0  0  0  0  0  0  0  0  0  0
   28.0035   -1.8364   14.6721 C   0  0  2  0  0  0  0  0  0  0  0  0
   24.5999   -4.4097   11.8992 C   0  0  2  0  0  0  0  0  0  0  0  0
   25.7709   -3.8466   12.4689 O   0  0  0  0  0  0  0  0  0  0  0  0
   19.6325   -4.8260   16.1237 C   0  0  2  0  0  0  0  0  0  0  0  0
   19.7601   -6.2449   16.0192 O   0  0  0  0  0  0  0  0  0  0  0  0
   18.1879   -5.8374   19.6411 C   0  0  2  0  0  0  0  0  0  0  0  0
   17.9964   -4.5438   20.2367 O   0  0  0  0  0  0  0  0  0  0  0  0
   26.8008    1.2628   13.3126 C   0  0  2  0  0  0  0  0  0  0  0  0
   28.1537    1.0348   13.8013 O   0  0  0  0  0  0  0  0  0  0  0  0
   27.8311   -1.7348   13.1226 C   0  0  2  0  0  0  0  0  0  0  0  0
   26.4202   -1.5900   12.7988 O   0  0  0  0  0  0  0  0  0  0  0  0
   24.6957   -4.3419   10.3754 C   0  0  0  0  0  0  0  0  0  0  0  0
   25.0393   -2.9937   10.0234 O   0  0  0  0  0  0  0  0  0  0  0  0
   19.6875   -4.3057   14.7002 C   0  0  1  0  0  0  0  0  0  0  0  0
   20.8210   -4.1090   13.8278 O   0  0  0  0  0  0  0  0  0  0  0  0
   19.6409   -6.2963   19.5917 C   0  0  2  0  0  0  0  0  0  0  0  0
   20.0991   -7.2176   18.5902 O   0  0  0  0  0  0  0  0  0  0  0  0
   26.9394    1.5969   11.8663 C   0  0  0  0  0  0  0  0  0  0  0  0
   27.4438    0.4554   11.2161 O   0  0  0  0  0  0  0  0  0  0  0  0
   28.4927   -2.9603   12.4066 C   0  0  1  0  0  0  0  0  0  0  0  0
   28.4604   -2.6931   10.9795 O   0  0  0  0  0  0  0  0  0  0  0  0
   18.4158   -4.5373   13.8274 C   0  0  0  0  0  0  0  0  0  0  0  0
   18.2611   -5.9361   13.3758 N   0  0  0  0  0  0  0  0  0  0  0  0
   20.5062   -6.4584   20.8394 C   0  0  0  0  0  0  0  0  0  0  0  0
   19.7212   -7.0371   21.9153 O   0  0  0  0  0  0  0  0  0  0  0  0
  1  2  1  6  0  0  0
  1  8  1  0  0  0  0
  1 36  1  0  0  0  0
  3  4  1  6  0  0  0
  3 10  1  0  0  0  0
  3 47  1  0  0  0  0
  5 11  1  0  0  0  0
  5 30  1  0  0  0  0
  5 38  1  6  0  0  0
  6 21  1  6  0  0  0
  6 42  1  0  0  0  0
  7 15  1  0  0  0  0
  7 44  1  0  0  0  0
  7 32  1  6  0  0  0
  8  9  1  1  0  0  0
  8 17  1  0  0  0  0
 11 12  1  1  0  0  0
 11 20  1  0  0  0  0
 13  6  1  0  0  0  0
 13 14  1  6  0  0  0
 15 16  1  1  0  0  0
 15 24  1  0  0  0  0
 17 26  1  0  0  0  0
 18 10  1  0  0  0  0
 18 19  1  1  0  0  0
 20 21  1  1  0  0  0
 20 29  1  0  0  0  0
 22 13  1  0  0  0  0
 22 23  1  6  0  0  0
 24 25  1  1  0  0  0
 24 33  1  0  0  0  0
 26 27  1  6  0  0  0
 26 35  1  0  0  0  0
 28  2  1  1  0  0  0
 28 18  1  0  0  0  0
 29 30  1  0  0  0  0
 29 39  1  6  0  0  0
 31 22  1  0  0  0  0
 31 32  1  6  0  0  0
 31 41  1  0  0  0  0
 33 34  1  6  0  0  0
 33 43  1  0  0  0  0
 35 36  1  0  0  0  0
 35 45  1  6  0  0  0
 37 28  1  0  0  0  0
 37 38  1  1  0  0  0
 39 40  1  0  0  0  0
 41 42  1  0  0  0  0
 41 49  1  6  0  0  0
 43 44  1  0  0  0  0
 43 51  1  1  0  0  0
 45 46  1  0  0  0  0
 47 37  1  0  0  0  0
 47 48  1  6  0  0  0
 49 50  1  0  0  0  0
 51 52  1  0  0  0  0
M  END
>  <CHROM.1>
-176.11237014,176.20592234,-174.40869178,66.18498348,75.34170264,57.71790225
64.30467581,81.52923487,-177.74223825,-61.19417337,-74.60973534,39.75943522
23.73214676,-3.16602590,15.02539181,-0.22903111,0.62497982,1.23836875

>  <Name>
2esj_lig

>  <RI>
0

>  <Rbt.Current_Directory>
/home/itssahil/PROJECTS/Mol_Feturizer/New_Systems/rnas/2esj

>  <Rbt.Executable>
rbdock ($Id: //depot/dev/client3/rdock/2013.1/src/exe/rbdock.cxx#4 $)

>  <Rbt.Library>
libRbt.so (2013.1, Build901 2013/11/27)

>  <Rbt.Parameter_File>
/export/apps/rDock/src/rDock_2013.1_src/data/scripts/dock_solv.prm

>  <Rbt.Receptor>
prm/pocket_docking_6.prm

>  <SCORE>
-15.7402

>  <SCORE.INTER>
-5.29443

>  <SCORE.INTER.CONST>
1

>  <SCORE.INTER.POLAR>
-1.79407

>  <SCORE.INTER.ROT>
12

>  <SCORE.INTER.SOLV>
11.0388

>  <SCORE.INTER.VDW>
-12.829

>  <SCORE.INTER.norm>
-0.101816

>  <SCORE.INTRA>
-10.4458

>  <SCORE.INTRA.DIHEDRAL>
-23.9454

>  <SCORE.INTRA.DIHEDRAL.0>
32.9766

>  <SCORE.INTRA.POLAR>
0

>  <SCORE.INTRA.POLAR.0>
0

>  <SCORE.INTRA.REPUL>
0.00429262

>  <SCORE.INTRA.REPUL.0>
0

>  <SCORE.INTRA.SOLV>
-0.140869

>  <SCORE.INTRA.SOLV.lig_0>
-114.358

>  <SCORE.INTRA.VDW>
1.57584

>  <SCORE.INTRA.VDW.0>
-8.24257

>  <SCORE.INTRA.norm>
-0.200881

>  <SCORE.RESTR>
0

>  <SCORE.RESTR.CAVITY>
0

>  <SCORE.RESTR.norm>
0

>  <SCORE.SYSTEM>
0

>  <SCORE.SYSTEM.CONST>
0

>  <SCORE.SYSTEM.DIHEDRAL>
0

>  <SCORE.SYSTEM.SOLV>
0

>  <SCORE.SYSTEM.norm>
0

>  <SCORE.heavy>
52

>  <SCORE.norm>
-0.302697

>  <RMSD>
10.937

$$$$
2esj_lig
 OpenBabel11021811423D
libRbt.so/2013.1/901 2013/11/27
 52 56  0  0  0  0  0  0  0  0999 V2000
   26.3394   -4.3026   13.5636 C   0  0  2  0  0  0  0  0  0  0  0  0
   26.5950   -2.9717   13.0756 O   0  0  0  0  0  0  0  0  0  0  0  0
   26.1358   -0.9082    9.3582 C   0  0  2  0  0  0  0  0  0  0  0  0
   26.2660   -0.4298    7.9720 N   0  0  0  0  0  0  0  0  0  0  0  0
   24.0931   -4.7110   11.8145 C   0  0  1  0  0  0  0  0  0  0  0  0
   20.6345   -4.2323   13.7883 C   0  0  1  0  0  0  0  0  0  0  0  0
   18.4536   -5.7391   17.7947 C   0  0  1  0  0  0  0  0  0  0  0  0
   26.0442   -4.1938   15.0888 C   0  0  2  0  0  0  0  0  0  0  0  0
   24.9342   -3.2851   15.3741 N   0  0  0  0  0  0  0  0  0  0  0  0
   27.5181   -0.7837   10.1140 C   0  0  0  0  0  0  0  0  0  0  0  0
   22.7462   -4.1323   11.3794 C   0  0  2  0  0  0  0  0  0  0  0  0
   22.5158   -2.8111   11.9149 O   0  0  0  0  0  0  0  0  0  0  0  0
   20.7134   -4.3860   15.3731 C   0  0  2  0  0  0  0  0  0  0  0  0
   20.7677   -5.8181   15.7692 N   0  0  0  0  0  0  0  0  0  0  0  0
   18.6527   -7.2392   17.6122 C   0  0  1  0  0  0  0  0  0  0  0  0
   19.6295   -7.7066   18.5641 O   0  0  0  0  0  0  0  0  0  0  0  0
   27.3166   -3.7386   15.8715 C   0  0  0  0  0  0  0  0  0  0  0  0
   27.3443   -1.2460   11.6166 C   0  0  2  0  0  0  0  0  0  0  0  0
   28.6179   -1.1528   12.3378 N   0  0  0  0  0  0  0  0  0  0  0  0
   21.8130   -5.1830   11.9078 C   0  0  2  0  0  0  0  0  0  0  0  0
   21.6570   -5.0487   13.2977 O   0  0  0  0  0  0  0  0  0  0  0  0
   19.5301   -3.5498   16.0331 C   0  0  1  0  0  0  0  0  0  0  0  0
   19.5615   -2.2157   15.5154 O   0  0  0  0  0  0  0  0  0  0  0  0
   17.3966   -8.0870   17.7724 C   0  0  1  0  0  0  0  0  0  0  0  0
   17.8116   -9.4570   17.8049 O   0  0  0  0  0  0  0  0  0  0  0  0
   28.4887   -4.7069   15.5332 C   0  0  2  0  0  0  0  0  0  0  0  0
   29.6574   -4.3972   16.2709 O   0  0  0  0  0  0  0  0  0  0  0  0
   26.7942   -2.6947   11.6767 C   0  0  2  0  0  0  0  0  0  0  0  0
   22.5528   -6.5267   11.7431 C   0  0  2  0  0  0  0  0  0  0  0  0
   23.9102   -6.1327   11.8662 O   0  0  0  0  0  0  0  0  0  0  0  0
   18.1141   -4.1354   15.6316 C   0  0  2  0  0  0  0  0  0  0  0  0
   18.1050   -5.4494   16.1916 O   0  0  0  0  0  0  0  0  0  0  0  0
   16.5957   -7.7699   19.0366 C   0  0  2  0  0  0  0  0  0  0  0  0
   15.3151   -8.4046   18.8888 O   0  0  0  0  0  0  0  0  0  0  0  0
   28.7452   -4.6475   14.0068 C   0  0  2  0  0  0  0  0  0  0  0  0
   27.5283   -5.0981   13.3457 O   0  0  0  0  0  0  0  0  0  0  0  0
   25.4882   -2.9177   10.8487 C   0  0  2  0  0  0  0  0  0  0  0  0
   25.1050   -4.3197   10.9133 O   0  0  0  0  0  0  0  0  0  0  0  0
   22.3557   -7.2541   10.4136 C   0  0  0  0  0  0  0  0  0  0  0  0
   20.9464   -7.4614   10.2389 O   0  0  0  0  0  0  0  0  0  0  0  0
   18.1632   -4.3330   14.1287 C   0  0  1  0  0  0  0  0  0  0  0  0
   19.2762   -4.6720   13.2738 O   0  0  0  0  0  0  0  0  0  0  0  0
   16.5259   -6.2685   19.2924 C   0  0  2  0  0  0  0  0  0  0  0  0
   17.6020   -5.3960   18.9147 O   0  0  0  0  0  0  0  0  0  0  0  0
   29.8219   -5.5760   13.5585 C   0  0  0  0  0  0  0  0  0  0  0  0
   31.0212   -5.1539   14.1617 O   0  0  0  0  0  0  0  0  0  0  0  0
   25.6660   -2.4069    9.3791 C   0  0  1  0  0  0  0  0  0  0  0  0
   24.3625   -2.4697    8.7418 O   0  0  0  0  0  0  0  0  0  0  0  0
   16.8433   -4.8099   13.4482 C   0  0  0  0  0  0  0  0  0  0  0  0
   15.6730   -4.7765   14.3504 N   0  0  0  0  0  0  0  0  0  0  0  0
   15.7993   -5.6604   20.4899 C   0  0  0  0  0  0  0  0  0  0  0  0
   16.7217   -5.4994   21.5998 O   0  0  0  0  0  0  0  0  0  0  0  0
  1  2  1  1  0  0  0
  1  8  1  0  0  0  0
  1 36  1  0  0  0  0
  3  4  1  6  0  0  0
  3 10  1  0  0  0  0
  3 47  1  0  0  0  0
  5 11  1  0  0  0  0
  5 30  1  0  0  0  0
  5 38  1  6  0  0  0
  6 21  1  6  0  0  0
  6 42  1  0  0  0  0
  7 15  1  0  0  0  0
  7 44  1  0  0  0  0
  7 32  1  6  0  0  0
  8  9  1  6  0  0  0
  8 17  1  0  0  0  0
 11 12  1  1  0  0  0
 11 20  1  0  0  0  0
 13  6  1  0  0  0  0
 13 14  1  6  0  0  0
 15 16  1  1  0  0  0
 15 24  1  0  0  0  0
 17 26  1  0  0  0  0
 18 10  1  0  0  0  0
 18 19  1  6  0  0  0
 20 21  1  1  0  0  0
 20 29  1  0  0  0  0
 22 13  1  0  0  0  0
 22 23  1  6  0  0  0
 24 25  1  1  0  0  0
 24 33  1  0  0  0  0
 26 27  1  1  0  0  0
 26 35  1  0  0  0  0
 28  2  1  1  0  0  0
 28 18  1  0  0  0  0
 29 30  1  0  0  0  0
 29 39  1  6  0  0  0
 31 22  1  0  0  0  0
 31 32  1  1  0  0  0
 31 41  1  0  0  0  0
 33 34  1  6  0  0  0
 33 43  1  0  0  0  0
 35 36  1  0  0  0  0
 35 45  1  1  0  0  0
 37 28  1  0  0  0  0
 37 38  1  6  0  0  0
 39 40  1  0  0  0  0
 41 42  1  0  0  0  0
 41 49  1  1  0  0  0
 43 44  1  0  0  0  0
 43 51  1  1  0  0  0
 45 46  1  0  0  0  0
 47 37  1  0  0  0  0
 47 48  1  6  0  0  0
 49 50  1  0  0  0  0
 51 52  1  0  0  0  0
M  END
>  <CHROM.1>
-174.68827152,67.61931721,177.01214578,-165.07738129,89.98294988,-167.66665162
-56.88177318,52.45068987,-63.81291152,99.68362642,9.85944518,91.61033659
22.48513587,-4.69179567,14.23194327,-0.58418340,0.10500577,1.90557726

>  <Name>
2esj_lig

>  <RI>
2.18877e+07

>  <Rbt.Current_Directory>
/home/itssahil/PROJECTS/Mol_Feturizer/New_Systems/rnas/2esj

>  <Rbt.Executable>
rbdock ($Id: //depot/dev/client3/rdock/2013.1/src/exe/rbdock.cxx#4 $)

>  <Rbt.Library>
libRbt.so (2013.1, Build901 2013/11/27)

>  <Rbt.Parameter_File>
/export/apps/rDock/src/rDock_2013.1_src/data/scripts/dock_solv.prm

>  <Rbt.Receptor>
prm/pocket_docking_7.prm

>  <SCORE>
-20.9672

>  <SCORE.INTER>
-15.5787

>  <SCORE.INTER.CONST>
1

>  <SCORE.INTER.POLAR>
-0.979796

>  <SCORE.INTER.ROT>
12

>  <SCORE.INTER.SOLV>
17.6344

>  <SCORE.INTER.VDW>
-24.5979

>  <SCORE.INTER.norm>
-0.29959

>  <SCORE.INTRA>
-5.38848

>  <SCORE.INTRA.DIHEDRAL>
-15.4211

>  <SCORE.INTRA.DIHEDRAL.0>
32.9766

>  <SCORE.INTRA.POLAR>
0

>  <SCORE.INTRA.POLAR.0>
0

>  <SCORE.INTRA.REPUL>
0

>  <SCORE.INTRA.REPUL.0>
0

>  <SCORE.INTRA.SOLV>
-0.968047

>  <SCORE.INTRA.SOLV.lig_0>
-114.358

>  <SCORE.INTRA.VDW>
2.8061

>  <SCORE.INTRA.VDW.0>
-8.24257

>  <SCORE.INTRA.norm>
-0.103625

>  <SCORE.RESTR>
0

>  <SCORE.RESTR.CAVITY>
0

>  <SCORE.RESTR.norm>
0

>  <SCORE.SYSTEM>
0

>  <SCORE.SYSTEM.CONST>
0

>  <SCORE.SYSTEM.DIHEDRAL>
0

>  <SCORE.SYSTEM.SOLV>
0

>  <SCORE.SYSTEM.norm>
0

>  <SCORE.heavy>
52

>  <SCORE.norm>
-0.403215

>  <RMSD>
10.938

$$$$
2esj_lig
 OpenBabel11021811423D
libRbt.so/2013.1/901 2013/11/27
 52 56  0  0  0  0  0  0  0  0999 V2000
   30.1390   -0.0152   16.1613 C   0  0  2  0  0  0  0  0  0  0  0  0
   30.3398   -1.4062   16.4770 O   0  0  0  0  0  0  0  0  0  0  0  0
   30.2764   -3.1603   12.5774 C   0  0  2  0  0  0  0  0  0  0  0  0
   30.4997   -4.0124   11.3978 N   0  0  0  0  0  0  0  0  0  0  0  0
   27.2535   -3.8787   16.1145 C   0  0  1  0  0  0  0  0  0  0  0  0
   23.2038   -4.9247   16.9064 C   0  0  1  0  0  0  0  0  0  0  0  0
   19.9937   -7.9146   13.9729 C   0  0  1  0  0  0  0  0  0  0  0  0
   29.6011    0.6838   17.4446 C   0  0  2  0  0  0  0  0  0  0  0  0
   30.4965    0.5072   18.5876 N   0  0  0  0  0  0  0  0  0  0  0  0
   31.6525   -2.6078   13.1240 C   0  0  0  0  0  0  0  0  0  0  0  0
   26.8294   -5.0884   16.9483 C   0  0  2  0  0  0  0  0  0  0  0  0
   26.7256   -6.2927   16.1582 O   0  0  0  0  0  0  0  0  0  0  0  0
   23.1237   -6.5121   17.0290 C   0  0  2  0  0  0  0  0  0  0  0  0
   23.6785   -7.1705   15.8167 N   0  0  0  0  0  0  0  0  0  0  0  0
   21.0857   -8.4150   13.0345 C   0  0  1  0  0  0  0  0  0  0  0  0
   20.5997   -9.5645   12.3127 O   0  0  0  0  0  0  0  0  0  0  0  0
   28.1729    0.1647   17.8049 C   0  0  0  0  0  0  0  0  0  0  0  0
   31.3880   -1.6483   14.3532 C   0  0  2  0  0  0  0  0  0  0  0  0
   32.6520   -1.1319   14.8885 N   0  0  0  0  0  0  0  0  0  0  0  0
   25.5216   -4.5973   17.4982 C   0  0  2  0  0  0  0  0  0  0  0  0
   24.5193   -4.6614   16.5155 O   0  0  0  0  0  0  0  0  0  0  0  0
   21.6313   -6.9275   17.3967 C   0  0  1  0  0  0  0  0  0  0  0  0
   21.2091   -6.1737   18.5379 O   0  0  0  0  0  0  0  0  0  0  0  0
   21.5861   -7.3972   12.0166 C   0  0  1  0  0  0  0  0  0  0  0  0
   22.4170   -8.1014   11.0871 O   0  0  0  0  0  0  0  0  0  0  0  0
   27.2458    0.3420   16.5660 C   0  0  2  0  0  0  0  0  0  0  0  0
   25.9111   -0.0389   16.8482 O   0  0  0  0  0  0  0  0  0  0  0  0
   30.5966   -2.3924   15.4599 C   0  0  2  0  0  0  0  0  0  0  0  0
   25.7074   -3.0857   17.7440 C   0  0  2  0  0  0  0  0  0  0  0  0
   26.6530   -2.7388   16.7447 O   0  0  0  0  0  0  0  0  0  0  0  0
   20.6231   -6.5518   16.2341 C   0  0  2  0  0  0  0  0  0  0  0  0
   21.0523   -7.3449   15.1262 O   0  0  0  0  0  0  0  0  0  0  0  0
   20.4665   -6.6840   11.2563 C   0  0  2  0  0  0  0  0  0  0  0  0
   21.0663   -5.5639   10.5854 O   0  0  0  0  0  0  0  0  0  0  0  0
   27.8372   -0.4785   15.3929 C   0  0  2  0  0  0  0  0  0  0  0  0
   29.1553    0.0689   15.1033 O   0  0  0  0  0  0  0  0  0  0  0  0
   29.2794   -3.0677   14.9600 C   0  0  2  0  0  0  0  0  0  0  0  0
   28.6603   -3.7967   16.0562 O   0  0  0  0  0  0  0  0  0  0  0  0
   26.2481   -2.6801   19.1147 C   0  0  0  0  0  0  0  0  0  0  0  0
   27.4546   -3.4236   19.3409 O   0  0  0  0  0  0  0  0  0  0  0  0
   20.9460   -5.1183   15.8587 C   0  0  1  0  0  0  0  0  0  0  0  0
   22.2065   -4.4147   15.8825 O   0  0  0  0  0  0  0  0  0  0  0  0
   19.3098   -6.3165   12.1791 C   0  0  2  0  0  0  0  0  0  0  0  0
   18.9707   -7.1313   13.3117 O   0  0  0  0  0  0  0  0  0  0  0  0
   27.0529   -0.3446   14.1322 C   0  0  0  0  0  0  0  0  0  0  0  0
   27.6635   -1.1658   13.1663 O   0  0  0  0  0  0  0  0  0  0  0  0
   29.5558   -3.9727   13.7123 C   0  0  1  0  0  0  0  0  0  0  0  0
   28.2669   -4.4010   13.1981 O   0  0  0  0  0  0  0  0  0  0  0  0
   20.0203   -4.4550   14.7929 C   0  0  0  0  0  0  0  0  0  0  0  0
   20.7570   -3.9140   13.6314 N   0  0  0  0  0  0  0  0  0  0  0  0
   18.0495   -5.6051   11.6922 C   0  0  0  0  0  0  0  0  0  0  0  0
   18.4052   -4.3579   11.0389 O   0  0  0  0  0  0  0  0  0  0  0  0
  1  2  1  1  0  0  0
  1  8  1  0  0  0  0
  1 36  1  0  0  0  0
  3  4  1  6  0  0  0
  3 10  1  0  0  0  0
  3 47  1  0  0  0  0
  5 11  1  0  0  0  0
  5 30  1  0  0  0  0
  5 38  1  1  0  0  0
  6 21  1  6  0  0  0
  6 42  1  0  0  0  0
  7 15  1  0  0  0  0
  7 44  1  0  0  0  0
  7 32  1  1  0  0  0
  8  9  1  1  0  0  0
  8 17  1  0  0  0  0
 11 12  1  6  0  0  0
 11 20  1  0  0  0  0
 13  6  1  0  0  0  0
 13 14  1  6  0  0  0
 15 16  1  6  0  0  0
 15 24  1  0  0  0  0
 17 26  1  0  0  0  0
 18 10  1  0  0  0  0
 18 19  1  1  0  0  0
 20 21  1  6  0  0  0
 20 29  1  0  0  0  0
 22 13  1  0  0  0  0
 22 23  1  1  0  0  0
 24 25  1  6  0  0  0
 24 33  1  0  0  0  0
 26 27  1  1  0  0  0
 26 35  1  0  0  0  0
 28  2  1  1  0  0  0
 28 18  1  0  0  0  0
 29 30  1  0  0  0  0
 29 39  1  1  0  0  0
 31 22  1  0  0  0  0
 31 32  1  6  0  0  0
 31 41  1  0  0  0  0
 33 34  1  1  0  0  0
 33 43  1  0  0  0  0
 35 36  1  0  0  0  0
 35 45  1  6  0  0  0
 37 28  1  0  0  0  0
 37 38  1  1  0  0  0
 39 40  1  0  0  0  0
 41 42  1  0  0  0  0
 41 49  1  6  0  0  0
 43 44  1  0  0  0  0
 43 51  1  6  0  0  0
 45 46  1  0  0  0  0
 47 37  1  0  0  0  0
 47 48  1  6  0  0  0
 49 50  1  0  0  0  0
 51 52  1  0  0  0  0
M  END
>  <CHROM.1>
168.39265716,157.42075453,-83.43167634,170.71874733,147.51250205,32.27955908
52.85057932,148.72924886,-178.08704972,146.93312196,-124.87455278,-56.27353010
25.22548964,-4.03242479,15.04768132,0.34379608,0.44613359,1.28990467

>  <Name>
2esj_lig

>  <RI>
0

>  <Rbt.Current_Directory>
/home/itssahil/PROJECTS/Mol_Feturizer/New_Systems/rnas/2esj

>  <Rbt.Executable>
rbdock ($Id: //depot/dev/client3/rdock/2013.1/src/exe/rbdock.cxx#4 $)

>  <Rbt.Library>
libRbt.so (2013.1, Build901 2013/11/27)

>  <Rbt.Parameter_File>
/export/apps/rDock/src/rDock_2013.1_src/data/scripts/dock_solv.prm

>  <Rbt.Receptor>
prm/pocket_docking_4.prm

>  <SCORE>
1.95601

>  <SCORE.INTER>
3.15886

>  <SCORE.INTER.CONST>
1

>  <SCORE.INTER.POLAR>
-0.824621

>  <SCORE.INTER.ROT>
12

>  <SCORE.INTER.SOLV>
5.38332

>  <SCORE.INTER.VDW>
-8.53979

>  <SCORE.INTER.norm>
0.0607473

>  <SCORE.INTRA>
-1.21732

>  <SCORE.INTRA.DIHEDRAL>
-7.07525

>  <SCORE.INTRA.DIHEDRAL.0>
32.9766

>  <SCORE.INTRA.POLAR>
0

>  <SCORE.INTRA.POLAR.0>
0

>  <SCORE.INTRA.REPUL>
0

>  <SCORE.INTRA.REPUL.0>
0

>  <SCORE.INTRA.SOLV>
5.50481

>  <SCORE.INTRA.SOLV.lig_0>
-114.358

>  <SCORE.INTRA.VDW>
-0.432095

>  <SCORE.INTRA.VDW.0>
-8.24257

>  <SCORE.INTRA.norm>
-0.02341

>  <SCORE.RESTR>
0.0144667

>  <SCORE.RESTR.CAVITY>
0.0144667

>  <SCORE.RESTR.norm>
0.000278206

>  <SCORE.SYSTEM>
0

>  <SCORE.SYSTEM.CONST>
0

>  <SCORE.SYSTEM.DIHEDRAL>
0

>  <SCORE.SYSTEM.SOLV>
0

>  <SCORE.SYSTEM.norm>
0

>  <SCORE.heavy>
52

>  <SCORE.norm>
0.0376156

>  <RMSD>
10.941

$$$$
2esj_lig
 OpenBabel11021811423D
libRbt.so/2013.1/901 2013/11/27
 52 56  0  0  0  0  0  0  0  0999 V2000
   24.3006   -3.3127   16.4168 C   0  0  2  0  0  0  0  0  0  0  0  0
   24.6749   -3.0623   15.0486 O   0  0  0  0  0  0  0  0  0  0  0  0
   22.7395   -2.8166   11.2431 C   0  0  2  0  0  0  0  0  0  0  0  0
   22.0060   -3.1052    9.9997 N   0  0  0  0  0  0  0  0  0  0  0  0
   21.2284   -4.1338   15.2738 C   0  0  1  0  0  0  0  0  0  0  0  0
   19.7262   -7.1764   17.5955 C   0  0  1  0  0  0  0  0  0  0  0  0
   14.9804   -7.3348   19.3246 C   0  0  1  0  0  0  0  0  0  0  0  0
   24.3260   -1.9481   17.1668 C   0  0  2  0  0  0  0  0  0  0  0  0
   23.4579   -0.9540   16.5365 N   0  0  0  0  0  0  0  0  0  0  0  0
   23.9774   -3.7881   11.3884 C   0  0  0  0  0  0  0  0  0  0  0  0
   20.3608   -4.1037   16.5327 C   0  0  2  0  0  0  0  0  0  0  0  0
   21.1319   -4.3017   17.7375 O   0  0  0  0  0  0  0  0  0  0  0  0
   18.2996   -7.8391   17.3368 C   0  0  2  0  0  0  0  0  0  0  0  0
   17.3265   -6.8337   16.8337 N   0  0  0  0  0  0  0  0  0  0  0  0
   14.3678   -6.1167   20.0061 C   0  0  1  0  0  0  0  0  0  0  0  0
   13.0502   -5.8860   19.4685 O   0  0  0  0  0  0  0  0  0  0  0  0
   25.7826   -1.3935   17.2655 C   0  0  0  0  0  0  0  0  0  0  0  0
   24.7861   -3.4243   12.6981 C   0  0  2  0  0  0  0  0  0  0  0  0
   25.9343   -4.3215   12.8639 N   0  0  0  0  0  0  0  0  0  0  0  0
   19.3972   -5.2140   16.2280 C   0  0  2  0  0  0  0  0  0  0  0  0
   20.0076   -6.4639   16.4269 O   0  0  0  0  0  0  0  0  0  0  0  0
   17.8452   -8.6170   18.6497 C   0  0  1  0  0  0  0  0  0  0  0  0
   18.8984   -9.4982   19.0532 O   0  0  0  0  0  0  0  0  0  0  0  0
   14.2474   -6.2110   21.5224 C   0  0  1  0  0  0  0  0  0  0  0  0
   13.4484   -5.1036   21.9533 O   0  0  0  0  0  0  0  0  0  0  0  0
   26.6906   -2.4778   17.9177 C   0  0  2  0  0  0  0  0  0  0  0  0
   28.0142   -2.0110   18.1088 O   0  0  0  0  0  0  0  0  0  0  0  0
   23.8620   -3.4944   13.9416 C   0  0  2  0  0  0  0  0  0  0  0  0
   19.1528   -5.1557   14.7060 C   0  0  2  0  0  0  0  0  0  0  0  0
   20.3853   -4.6393   14.2292 O   0  0  0  0  0  0  0  0  0  0  0  0
   17.6247   -7.6234   19.8635 C   0  0  2  0  0  0  0  0  0  0  0  0
   16.5486   -6.7846   19.4408 O   0  0  0  0  0  0  0  0  0  0  0  0
   13.6127   -7.5143   22.0106 C   0  0  2  0  0  0  0  0  0  0  0  0
   13.8530   -7.5906   23.4253 O   0  0  0  0  0  0  0  0  0  0  0  0
   26.6556   -3.7440   17.0263 C   0  0  2  0  0  0  0  0  0  0  0  0
   25.2768   -4.2118   16.9934 O   0  0  0  0  0  0  0  0  0  0  0  0
   22.5549   -2.6478   13.8155 C   0  0  2  0  0  0  0  0  0  0  0  0
   21.7316   -2.8454   14.9985 O   0  0  0  0  0  0  0  0  0  0  0  0
   18.0109   -4.2564   14.2336 C   0  0  0  0  0  0  0  0  0  0  0  0
   17.9782   -3.1100   15.0963 O   0  0  0  0  0  0  0  0  0  0  0  0
   18.8508   -6.7310   19.8909 C   0  0  1  0  0  0  0  0  0  0  0  0
   19.6816   -6.2631   18.8067 O   0  0  0  0  0  0  0  0  0  0  0  0
   14.1237   -8.7150   21.2221 C   0  0  2  0  0  0  0  0  0  0  0  0
   14.4930   -8.5976   19.8394 O   0  0  0  0  0  0  0  0  0  0  0  0
   27.4569   -4.8719   17.5813 C   0  0  0  0  0  0  0  0  0  0  0  0
   26.9864   -6.0569   16.9858 O   0  0  0  0  0  0  0  0  0  0  0  0
   21.7969   -2.9874   12.4880 C   0  0  1  0  0  0  0  0  0  0  0  0
   20.7128   -2.0300   12.3553 O   0  0  0  0  0  0  0  0  0  0  0  0
   18.9418   -5.7133   21.0693 C   0  0  0  0  0  0  0  0  0  0  0  0
   18.3238   -6.2055   22.3185 N   0  0  0  0  0  0  0  0  0  0  0  0
   13.6554  -10.1445   21.4845 C   0  0  0  0  0  0  0  0  0  0  0  0
   12.2670  -10.2924   21.0857 O   0  0  0  0  0  0  0  0  0  0  0  0
  1  2  1  6  0  0  0
  1  8  1  0  0  0  0
  1 36  1  0  0  0  0
  3  4  1  6  0  0  0
  3 10  1  0  0  0  0
  3 47  1  0  0  0  0
  5 11  1  0  0  0  0
  5 30  1  0  0  0  0
  5 38  1  6  0  0  0
  6 21  1  6  0  0  0
  6 42  1  0  0  0  0
  7 15  1  0  0  0  0
  7 44  1  0  0  0  0
  7 32  1  1  0  0  0
  8  9  1  6  0  0  0
  8 17  1  0  0  0  0
 11 12  1  1  0  0  0
 11 20  1  0  0  0  0
 13  6  1  0  0  0  0
 13 14  1  1  0  0  0
 15 16  1  6  0  0  0
 15 24  1  0  0  0  0
 17 26  1  0  0  0  0
 18 10  1  0  0  0  0
 18 19  1  1  0  0  0
 20 21  1  6  0  0  0
 20 29  1  0  0  0  0
 22 13  1  0  0  0  0
 22 23  1  1  0  0  0
 24 25  1  6  0  0  0
 24 33  1  0  0  0  0
 26 27  1  6  0  0  0
 26 35  1  0  0  0  0
 28  2  1  1  0  0  0
 28 18  1  0  0  0  0
 29 30  1  0  0  0  0
 29 39  1  1  0  0  0
 31 22  1  0  0  0  0
 31 32  1  6  0  0  0
 31 41  1  0  0  0  0
 33 34  1  1  0  0  0
 33 43  1  0  0  0  0
 35 36  1  0  0  0  0
 35 45  1  1  0  0  0
 37 28  1  0  0  0  0
 37 38  1  1  0  0  0
 39 40  1  0  0  0  0
 41 42  1  0  0  0  0
 41 49  1  6  0  0  0
 43 44  1  0  0  0  0
 43 51  1  6  0  0  0
 45 46  1  0  0  0  0
 47 37  1  0  0  0  0
 47 48  1  6  0  0  0
 49 50  1  0  0  0  0
 51 52  1  0  0  0  0
M  END
>  <CHROM.1>
-126.67710501,-178.31129659,78.66671207,135.01667630,101.75502695,-163.46481031
35.66419596,71.35225842,159.48484403,-62.99564753,32.26193978,68.83221632
20.07368219,-5.20046128,17.25526250,-0.60352507,0.25066756,1.87818632

>  <Name>
2esj_lig

>  <RI>
0

>  <Rbt.Current_Directory>
/home/itssahil/PROJECTS/Mol_Feturizer/New_Systems/rnas/2esj

>  <Rbt.Executable>
rbdock ($Id: //depot/dev/client3/rdock/2013.1/src/exe/rbdock.cxx#4 $)

>  <Rbt.Library>
libRbt.so (2013.1, Build901 2013/11/27)

>  <Rbt.Parameter_File>
/export/apps/rDock/src/rDock_2013.1_src/data/scripts/dock_solv.prm

>  <Rbt.Receptor>
prm/pocket_docking_2.prm

>  <SCORE>
13.7741

>  <SCORE.INTER>
3.40797

>  <SCORE.INTER.CONST>
1

>  <SCORE.INTER.POLAR>
-0.150213

>  <SCORE.INTER.ROT>
12

>  <SCORE.INTER.SOLV>
24.221

>  <SCORE.INTER.VDW>
-16.901

>  <SCORE.INTER.norm>
0.0655379

>  <SCORE.INTRA>
2.49436

>  <SCORE.INTRA.DIHEDRAL>
-2.35506

>  <SCORE.INTRA.DIHEDRAL.0>
32.9766

>  <SCORE.INTRA.POLAR>
0

>  <SCORE.INTRA.POLAR.0>
0

>  <SCORE.INTRA.REPUL>
0

>  <SCORE.INTRA.REPUL.0>
0

>  <SCORE.INTRA.SOLV>
1.93342

>  <SCORE.INTRA.SOLV.lig_0>
-114.358

>  <SCORE.INTRA.VDW>
2.70518

>  <SCORE.INTRA.VDW.0>
-8.24257

>  <SCORE.INTRA.norm>
0.0479685

>  <SCORE.RESTR>
7.87173

>  <SCORE.RESTR.CAVITY>
7.87173

>  <SCORE.RESTR.norm>
0.151379

>  <SCORE.SYSTEM>
0

>  <SCORE.SYSTEM.CONST>
0

>  <SCORE.SYSTEM.DIHEDRAL>
0

>  <SCORE.SYSTEM.SOLV>
0

>  <SCORE.SYSTEM.norm>
0

>  <SCORE.heavy>
52

>  <SCORE.norm>
0.264886

>  <RMSD>
10.945

$$$$
2esj_lig
 OpenBabel11021811423D
libRbt.so/2013.1/901 2013/11/27
 52 56  0  0  0  0  0  0  0  0999 V2000
   30.5518   -2.8819   19.0613 C   0  0  2  0  0  0  0  0  0  0  0  0
   29.5037   -3.8668   18.9829 O   0  0  0  0  0  0  0  0  0  0  0  0
   26.2155   -5.1542   21.3949 C   0  0  2  0  0  0  0  0  0  0  0  0
   25.0227   -5.2184   22.2555 N   0  0  0  0  0  0  0  0  0  0  0  0
   26.0895   -4.6401   16.8070 C   0  0  1  0  0  0  0  0  0  0  0  0
   24.0640   -6.2824   13.5338 C   0  0  1  0  0  0  0  0  0  0  0  0
   19.0407   -6.7215   11.7281 C   0  0  1  0  0  0  0  0  0  0  0  0
   30.1115   -1.6596   18.2027 C   0  0  2  0  0  0  0  0  0  0  0  0
   28.8214   -1.1191   18.6302 N   0  0  0  0  0  0  0  0  0  0  0  0
   27.3338   -4.2663   22.0719 C   0  0  0  0  0  0  0  0  0  0  0  0
   25.4919   -3.7021   15.7575 C   0  0  2  0  0  0  0  0  0  0  0  0
   24.1952   -3.1977   16.1444 O   0  0  0  0  0  0  0  0  0  0  0  0
   23.2603   -5.2824   12.5876 C   0  0  2  0  0  0  0  0  0  0  0  0
   22.1971   -4.5692   13.3439 N   0  0  0  0  0  0  0  0  0  0  0  0
   19.2805   -6.1535   10.3340 C   0  0  1  0  0  0  0  0  0  0  0  0
   18.4133   -6.8206    9.3952 O   0  0  0  0  0  0  0  0  0  0  0  0
   30.0534   -2.0347   16.6878 C   0  0  0  0  0  0  0  0  0  0  0  0
   28.6273   -4.2577   21.1617 C   0  0  2  0  0  0  0  0  0  0  0  0
   29.6774   -3.4284   21.7618 N   0  0  0  0  0  0  0  0  0  0  0  0
   25.4687   -4.6088   14.5610 C   0  0  2  0  0  0  0  0  0  0  0  0
   24.4034   -5.5203   14.6548 O   0  0  0  0  0  0  0  0  0  0  0  0
   22.7546   -6.0785   11.3048 C   0  0  1  0  0  0  0  0  0  0  0  0
   23.8657   -6.7638   10.7179 O   0  0  0  0  0  0  0  0  0  0  0  0
   19.0577   -4.6523   10.1955 C   0  0  1  0  0  0  0  0  0  0  0  0
   19.0943   -4.3460    8.7973 O   0  0  0  0  0  0  0  0  0  0  0  0
   31.4293   -2.6285   16.2634 C   0  0  2  0  0  0  0  0  0  0  0  0
   31.4723   -2.9202   14.8781 O   0  0  0  0  0  0  0  0  0  0  0  0
   28.2836   -3.7476   19.7381 C   0  0  2  0  0  0  0  0  0  0  0  0
   26.7277   -5.4927   14.6761 C   0  0  2  0  0  0  0  0  0  0  0  0
   26.9061   -5.5698   16.0816 O   0  0  0  0  0  0  0  0  0  0  0  0
   21.7113   -7.2042   11.6968 C   0  0  2  0  0  0  0  0  0  0  0  0
   20.6064   -6.4843   12.2456 O   0  0  0  0  0  0  0  0  0  0  0  0
   17.7318   -4.1687   10.7858 C   0  0  2  0  0  0  0  0  0  0  0  0
   17.8081   -2.7359   10.8633 O   0  0  0  0  0  0  0  0  0  0  0  0
   31.7015   -3.8896   17.1205 C   0  0  2  0  0  0  0  0  0  0  0  0
   31.7578   -3.4631   18.5119 O   0  0  0  0  0  0  0  0  0  0  0  0
   27.1012   -4.5067   19.0549 C   0  0  2  0  0  0  0  0  0  0  0  0
   26.8159   -3.9008   17.7634 O   0  0  0  0  0  0  0  0  0  0  0  0
   28.0030   -4.9484   14.0335 C   0  0  0  0  0  0  0  0  0  0  0  0
   28.9577   -6.0191   13.9929 O   0  0  0  0  0  0  0  0  0  0  0  0
   22.3315   -7.9501   12.8626 C   0  0  1  0  0  0  0  0  0  0  0  0
   23.2022   -7.4733   13.9110 O   0  0  0  0  0  0  0  0  0  0  0  0
   17.4280   -4.8534   12.1137 C   0  0  2  0  0  0  0  0  0  0  0  0
   17.8544   -6.1996   12.3741 O   0  0  0  0  0  0  0  0  0  0  0  0
   33.0219   -4.5186   16.8319 C   0  0  0  0  0  0  0  0  0  0  0  0
   33.0883   -5.7165   17.5673 O   0  0  0  0  0  0  0  0  0  0  0  0
   25.8484   -4.5470   19.9936 C   0  0  1  0  0  0  0  0  0  0  0  0
   24.8744   -5.4273   19.3726 O   0  0  0  0  0  0  0  0  0  0  0  0
   21.5486   -9.1933   13.3862 C   0  0  0  0  0  0  0  0  0  0  0  0
   22.0026   -9.6556   14.7146 N   0  0  0  0  0  0  0  0  0  0  0  0
   16.1653   -4.5736   12.9255 C   0  0  0  0  0  0  0  0  0  0  0  0
   16.1653   -5.3774   14.1349 O   0  0  0  0  0  0  0  0  0  0  0  0
  1  2  1  6  0  0  0
  1  8  1  0  0  0  0
  1 36  1  0  0  0  0
  3  4  1  1  0  0  0
  3 10  1  0  0  0  0
  3 47  1  0  0  0  0
  5 11  1  0  0  0  0
  5 30  1  0  0  0  0
  5 38  1  1  0  0  0
  6 21  1  1  0  0  0
  6 42  1  0  0  0  0
  7 15  1  0  0  0  0
  7 44  1  0  0  0  0
  7 32  1  1  0  0  0
  8  9  1  1  0  0  0
  8 17  1  0  0  0  0
 11 12  1  1  0  0  0
 11 20  1  0  0  0  0
 13  6  1  0  0  0  0
 13 14  1  1  0  0  0
 15 16  1  6  0  0  0
 15 24  1  0  0  0  0
 17 26  1  0  0  0  0
 18 10  1  0  0  0  0
 18 19  1  1  0  0  0
 20 21  1  1  0  0  0
 20 29  1  0  0  0  0
 22 13  1  0  0  0  0
 22 23  1  1  0  0  0
 24 25  1  6  0  0  0
 24 33  1  0  0  0  0
 26 27  1  6  0  0  0
 26 35  1  0  0  0  0
 28  2  1  6  0  0  0
 28 18  1  0  0  0  0
 29 30  1  0  0  0  0
 29 39  1  6  0  0  0
 31 22  1  0  0  0  0
 31 32  1  1  0  0  0
 31 41  1  0  0  0  0
 33 34  1  1  0  0  0
 33 43  1  0  0  0  0
 35 36  1  0  0  0  0
 35 45  1  6  0  0  0
 37 28  1  0  0  0  0
 37 38  1  6  0  0  0
 39 40  1  0  0  0  0
 41 42  1  0  0  0  0
 41 49  1  1  0  0  0
 43 44  1  0  0  0  0
 43 51  1  6  0  0  0
 45 46  1  0  0  0  0
 47 37  1  0  0  0  0
 47 48  1  6  0  0  0
 49 50  1  0  0  0  0
 51 52  1  0  0  0  0
M  END
>  <CHROM.1>
-77.46267615,160.55046970,-77.11488602,-66.92074562,168.41658116,-80.98454155
-167.71385706,128.66702010,-174.13714517,160.90219815,-164.93173841,179.97921504
24.84724149,-4.94192643,15.30576755,0.59525252,0.10902187,1.45631649

>  <Name>
2esj_lig

>  <RI>
2.18877e+07

>  <Rbt.Current_Directory>
/home/itssahil/PROJECTS/Mol_Feturizer/New_Systems/rnas/2esj

>  <Rbt.Executable>
rbdock ($Id: //depot/dev/client3/rdock/2013.1/src/exe/rbdock.cxx#4 $)

>  <Rbt.Library>
libRbt.so (2013.1, Build901 2013/11/27)

>  <Rbt.Parameter_File>
/export/apps/rDock/src/rDock_2013.1_src/data/scripts/dock_solv.prm

>  <Rbt.Receptor>
prm/pocket_docking_7.prm

>  <SCORE>
-13.6431

>  <SCORE.INTER>
-10.5284

>  <SCORE.INTER.CONST>
1

>  <SCORE.INTER.POLAR>
-1.52041

>  <SCORE.INTER.ROT>
12

>  <SCORE.INTER.SOLV>
10.5653

>  <SCORE.INTER.VDW>
-17.0727

>  <SCORE.INTER.norm>
-0.202469

>  <SCORE.INTRA>
-3.11469

>  <SCORE.INTRA.DIHEDRAL>
-12.0964

>  <SCORE.INTRA.DIHEDRAL.0>
32.9766

>  <SCORE.INTRA.POLAR>
0

>  <SCORE.INTRA.POLAR.0>
0

>  <SCORE.INTRA.REPUL>
0

>  <SCORE.INTRA.REPUL.0>
0

>  <SCORE.INTRA.SOLV>
-0.973809

>  <SCORE.INTRA.SOLV.lig_0>
-114.358

>  <SCORE.INTRA.VDW>
3.42043

>  <SCORE.INTRA.VDW.0>
-8.24257

>  <SCORE.INTRA.norm>
-0.059898

>  <SCORE.RESTR>
0

>  <SCORE.RESTR.CAVITY>
0

>  <SCORE.RESTR.norm>
0

>  <SCORE.SYSTEM>
0

>  <SCORE.SYSTEM.CONST>
0

>  <SCORE.SYSTEM.DIHEDRAL>
0

>  <SCORE.SYSTEM.SOLV>
0

>  <SCORE.SYSTEM.norm>
0

>  <SCORE.heavy>
52

>  <SCORE.norm>
-0.262367

>  <RMSD>
10.954

$$$$
2esj_lig
 OpenBabel11021811423D
libRbt.so/2013.1/901 2013/11/27
 52 56  0  0  0  0  0  0  0  0999 V2000
   23.0338   -1.9735   13.2836 C   0  0  2  0  0  0  0  0  0  0  0  0
   22.5956   -2.9707   14.2262 O   0  0  0  0  0  0  0  0  0  0  0  0
   24.0564   -1.2085   17.8386 C   0  0  2  0  0  0  0  0  0  0  0  0
   24.3605   -0.8896   19.2433 N   0  0  0  0  0  0  0  0  0  0  0  0
   24.3026   -5.3920   16.0541 C   0  0  1  0  0  0  0  0  0  0  0  0
   23.3645   -9.2221   15.9088 C   0  0  1  0  0  0  0  0  0  0  0  0
   19.3228  -12.2500   16.5902 C   0  0  1  0  0  0  0  0  0  0  0  0
   22.2985   -2.2455   11.9381 C   0  0  2  0  0  0  0  0  0  0  0  0
   20.8442   -2.2486   12.0930 N   0  0  0  0  0  0  0  0  0  0  0  0
   22.4930   -1.2598   17.6134 C   0  0  0  0  0  0  0  0  0  0  0  0
   25.1256   -6.6272   15.6863 C   0  0  2  0  0  0  0  0  0  0  0  0
   24.7608   -7.1683   14.3981 O   0  0  0  0  0  0  0  0  0  0  0  0
   21.7983   -9.3109   15.6254 C   0  0  2  0  0  0  0  0  0  0  0  0
   21.0186   -9.1711   16.8838 N   0  0  0  0  0  0  0  0  0  0  0  0
   18.9772  -11.8697   18.0252 C   0  0  1  0  0  0  0  0  0  0  0  0
   17.6252  -11.3712   18.0705 O   0  0  0  0  0  0  0  0  0  0  0  0
   22.7676   -3.5961   11.3098 C   0  0  0  0  0  0  0  0  0  0  0  0
   22.1860   -1.5446   16.0882 C   0  0  2  0  0  0  0  0  0  0  0  0
   20.7397   -1.6108   15.8545 N   0  0  0  0  0  0  0  0  0  0  0  0
   24.8045   -7.5256   16.8456 C   0  0  2  0  0  0  0  0  0  0  0  0
   23.5217   -8.0798   16.6982 O   0  0  0  0  0  0  0  0  0  0  0  0
   21.4980  -10.6335   14.7914 C   0  0  1  0  0  0  0  0  0  0  0  0
   22.3596  -10.6657   13.6489 O   0  0  0  0  0  0  0  0  0  0  0  0
   19.0977  -12.9963   19.0443 C   0  0  1  0  0  0  0  0  0  0  0  0
   18.5155  -12.5268   20.2653 O   0  0  0  0  0  0  0  0  0  0  0  0
   24.3193   -3.5771   11.1770 C   0  0  2  0  0  0  0  0  0  0  0  0
   24.8078   -4.7447   10.5412 O   0  0  0  0  0  0  0  0  0  0  0  0
   22.8671   -2.8625   15.6361 C   0  0  2  0  0  0  0  0  0  0  0  0
   24.6728   -6.6007   18.0731 C   0  0  2  0  0  0  0  0  0  0  0  0
   24.2101   -5.3951   17.4854 O   0  0  0  0  0  0  0  0  0  0  0  0
   21.8406  -11.9347   15.6273 C   0  0  2  0  0  0  0  0  0  0  0  0
   20.9421  -11.8871   16.7367 O   0  0  0  0  0  0  0  0  0  0  0  0
   18.4041  -14.2910   18.6170 C   0  0  2  0  0  0  0  0  0  0  0  0
   18.8632  -15.3227   19.5055 O   0  0  0  0  0  0  0  0  0  0  0  0
   24.9277   -3.4004   12.5904 C   0  0  2  0  0  0  0  0  0  0  0  0
   24.4622   -2.1199   13.1047 O   0  0  0  0  0  0  0  0  0  0  0  0
   24.3983   -2.9278   15.9395 C   0  0  2  0  0  0  0  0  0  0  0  0
   24.9170   -4.2287   15.5458 O   0  0  0  0  0  0  0  0  0  0  0  0
   25.9552   -6.3219   18.8564 C   0  0  0  0  0  0  0  0  0  0  0  0
   26.4642   -7.5828   19.3155 O   0  0  0  0  0  0  0  0  0  0  0  0
   23.2205  -11.6964   16.2097 C   0  0  1  0  0  0  0  0  0  0  0  0
   23.8508  -10.4667   16.6283 O   0  0  0  0  0  0  0  0  0  0  0  0
   18.6345  -14.5875   17.1393 C   0  0  2  0  0  0  0  0  0  0  0  0
   18.7825  -13.5295   16.1799 O   0  0  0  0  0  0  0  0  0  0  0  0
   26.4163   -3.3202   12.5802 C   0  0  0  0  0  0  0  0  0  0  0  0
   26.8448   -3.2610   13.9192 O   0  0  0  0  0  0  0  0  0  0  0  0
   24.6835   -2.5931   17.4425 C   0  0  1  0  0  0  0  0  0  0  0  0
   26.1239   -2.4843   17.5926 O   0  0  0  0  0  0  0  0  0  0  0  0
   23.8522  -12.8807   17.0042 C   0  0  0  0  0  0  0  0  0  0  0  0
   24.0882  -14.0824   16.1767 N   0  0  0  0  0  0  0  0  0  0  0  0
   18.0520  -15.8104   16.4344 C   0  0  0  0  0  0  0  0  0  0  0  0
   18.5865  -17.0245   17.0250 O   0  0  0  0  0  0  0  0  0  0  0  0
  1  2  1  1  0  0  0
  1  8  1  0  0  0  0
  1 36  1  0  0  0  0
  3  4  1  1  0  0  0
  3 10  1  0  0  0  0
  3 47  1  0  0  0  0
  5 11  1  0  0  0  0
  5 30  1  0  0  0  0
  5 38  1  1  0  0  0
  6 21  1  1  0  0  0
  6 42  1  0  0  0  0
  7 15  1  0  0  0  0
  7 44  1  0  0  0  0
  7 32  1  1  0  0  0
  8  9  1  1  0  0  0
  8 17  1  0  0  0  0
 11 12  1  6  0  0  0
 11 20  1  0  0  0  0
 13  6  1  0  0  0  0
 13 14  1  1  0  0  0
 15 16  1  6  0  0  0
 15 24  1  0  0  0  0
 17 26  1  0  0  0  0
 18 10  1  0  0  0  0
 18 19  1  1  0  0  0
 20 21  1  6  0  0  0
 20 29  1  0  0  0  0
 22 13  1  0  0  0  0
 22 23  1  6  0  0  0
 24 25  1  1  0  0  0
 24 33  1  0  0  0  0
 26 27  1  1  0  0  0
 26 35  1  0  0  0  0
 28  2  1  6  0  0  0
 28 18  1  0  0  0  0
 29 30  1  0  0  0  0
 29 39  1  6  0  0  0
 31 22  1  0  0  0  0
 31 32  1  1  0  0  0
 31 41  1  0  0  0  0
 33 34  1  1  0  0  0
 33 43  1  0  0  0  0
 35 36  1  0  0  0  0
 35 45  1  6  0  0  0
 37 28  1  0  0  0  0
 37 38  1  1  0  0  0
 39 40  1  0  0  0  0
 41 42  1  0  0  0  0
 41 49  1  1  0  0  0
 43 44  1  0  0  0  0
 43 51  1  6  0  0  0
 45 46  1  0  0  0  0
 47 37  1  0  0  0  0
 47 48  1  6  0  0  0
 49 50  1  0  0  0  0
 51 52  1  0  0  0  0
M  END
>  <CHROM.1>
-167.36774878,-171.55354591,-164.11923729,-174.52054050,83.50624891,60.21516828
-59.22926186,75.14691472,-175.75035959,-54.00006391,62.94204194,-62.62648481
22.63406555,-7.53608391,15.99329862,0.50940733,-1.13702057,-1.26099238

>  <Name>
2esj_lig

>  <RI>
0

>  <Rbt.Current_Directory>
/home/itssahil/PROJECTS/Mol_Feturizer/New_Systems/rnas/2esj

>  <Rbt.Executable>
rbdock ($Id: //depot/dev/client3/rdock/2013.1/src/exe/rbdock.cxx#4 $)

>  <Rbt.Library>
libRbt.so (2013.1, Build901 2013/11/27)

>  <Rbt.Parameter_File>
/export/apps/rDock/src/rDock_2013.1_src/data/scripts/dock_solv.prm

>  <Rbt.Receptor>
prm/pocket_docking_6.prm

>  <SCORE>
-17.7541

>  <SCORE.INTER>
-7.65743

>  <SCORE.INTER.CONST>
1

>  <SCORE.INTER.POLAR>
-0.883939

>  <SCORE.INTER.ROT>
12

>  <SCORE.INTER.SOLV>
14.5221

>  <SCORE.INTER.VDW>
-18.5992

>  <SCORE.INTER.norm>
-0.147258

>  <SCORE.INTRA>
-10.0967

>  <SCORE.INTRA.DIHEDRAL>
-21.947

>  <SCORE.INTRA.DIHEDRAL.0>
32.9766

>  <SCORE.INTRA.POLAR>
0

>  <SCORE.INTRA.POLAR.0>
0

>  <SCORE.INTRA.REPUL>
0

>  <SCORE.INTRA.REPUL.0>
0

>  <SCORE.INTRA.SOLV>
-1.95141

>  <SCORE.INTRA.SOLV.lig_0>
-114.358

>  <SCORE.INTRA.VDW>
1.85251

>  <SCORE.INTRA.VDW.0>
-8.24257

>  <SCORE.INTRA.norm>
-0.194167

>  <SCORE.RESTR>
0

>  <SCORE.RESTR.CAVITY>
0

>  <SCORE.RESTR.norm>
0

>  <SCORE.SYSTEM>
0

>  <SCORE.SYSTEM.CONST>
0

>  <SCORE.SYSTEM.DIHEDRAL>
0

>  <SCORE.SYSTEM.SOLV>
0

>  <SCORE.SYSTEM.norm>
0

>  <SCORE.heavy>
52

>  <SCORE.norm>
-0.341426

>  <RMSD>
10.983

$$$$
2esj_lig
 OpenBabel11021811423D
libRbt.so/2013.1/901 2013/11/27
 52 56  0  0  0  0  0  0  0  0999 V2000
   25.5938   -0.4026   17.3605 C   0  0  2  0  0  0  0  0  0  0  0  0
   25.6335    0.9589   16.8921 O   0  0  0  0  0  0  0  0  0  0  0  0
   25.9556    2.9602   13.1266 C   0  0  2  0  0  0  0  0  0  0  0  0
   26.4192    3.4950   11.8357 N   0  0  0  0  0  0  0  0  0  0  0  0
   24.1109   -1.2850   14.8540 C   0  0  1  0  0  0  0  0  0  0  0  0
   20.1300   -2.7817   15.1155 C   0  0  1  0  0  0  0  0  0  0  0  0
   18.5898   -6.1472   18.6857 C   0  0  1  0  0  0  0  0  0  0  0  0
   24.7435   -0.4249   18.6649 C   0  0  2  0  0  0  0  0  0  0  0  0
   23.4023    0.1215   18.4606 N   0  0  0  0  0  0  0  0  0  0  0  0
   26.9435    3.3864   14.2841 C   0  0  0  0  0  0  0  0  0  0  0  0
   23.0264   -1.1443   13.7851 C   0  0  2  0  0  0  0  0  0  0  0  0
   22.2542    0.0661   13.9402 O   0  0  0  0  0  0  0  0  0  0  0  0
   19.4482   -2.2574   16.4577 C   0  0  2  0  0  0  0  0  0  0  0  0
   20.3087   -2.5351   17.6381 N   0  0  0  0  0  0  0  0  0  0  0  0
   17.0868   -6.1082   18.9367 C   0  0  1  0  0  0  0  0  0  0  0  0
   16.5680   -7.4532   18.9151 O   0  0  0  0  0  0  0  0  0  0  0  0
   25.4633    0.3521   19.8126 C   0  0  0  0  0  0  0  0  0  0  0  0
   26.3980    2.8536   15.6698 C   0  0  2  0  0  0  0  0  0  0  0  0
   27.3051    3.2247   16.7608 N   0  0  0  0  0  0  0  0  0  0  0  0
   22.2473   -2.4065   14.0174 C   0  0  2  0  0  0  0  0  0  0  0  0
   21.4337   -2.2802   15.1560 O   0  0  0  0  0  0  0  0  0  0  0  0
   17.9705   -2.8429   16.5498 C   0  0  1  0  0  0  0  0  0  0  0  0
   17.2829   -2.5580   15.3271 O   0  0  0  0  0  0  0  0  0  0  0  0
   16.6627   -5.4614   20.2498 C   0  0  1  0  0  0  0  0  0  0  0  0
   15.2658   -5.7257   20.4201 O   0  0  0  0  0  0  0  0  0  0  0  0
   26.8955   -0.2322   19.9946 C   0  0  2  0  0  0  0  0  0  0  0  0
   27.5796    0.3771   21.0748 O   0  0  0  0  0  0  0  0  0  0  0  0
   26.2113    1.3148   15.6222 C   0  0  2  0  0  0  0  0  0  0  0  0
   23.2848   -3.4761   14.4166 C   0  0  2  0  0  0  0  0  0  0  0  0
   24.2831   -2.6949   15.0539 O   0  0  0  0  0  0  0  0  0  0  0  0
   17.9809   -4.4214   16.6815 C   0  0  2  0  0  0  0  0  0  0  0  0
   18.6416   -4.6666   17.9239 O   0  0  0  0  0  0  0  0  0  0  0  0
   17.4289   -5.9796   21.4681 C   0  0  2  0  0  0  0  0  0  0  0  0
   17.1514   -5.0759   22.5503 O   0  0  0  0  0  0  0  0  0  0  0  0
   27.6656   -0.0598   18.6618 C   0  0  2  0  0  0  0  0  0  0  0  0
   26.9494   -0.8200   17.6469 O   0  0  0  0  0  0  0  0  0  0  0  0
   25.3399    0.8130   14.4265 C   0  0  2  0  0  0  0  0  0  0  0  0
   25.2937   -0.6411   14.4351 O   0  0  0  0  0  0  0  0  0  0  0  0
   23.9170   -4.2712   13.2748 C   0  0  0  0  0  0  0  0  0  0  0  0
   24.7732   -5.2627   13.8607 O   0  0  0  0  0  0  0  0  0  0  0  0
   18.9325   -4.9161   15.6091 C   0  0  1  0  0  0  0  0  0  0  0  0
   20.1188   -4.2984   15.0652 O   0  0  0  0  0  0  0  0  0  0  0  0
   18.9122   -6.1555   21.1626 C   0  0  2  0  0  0  0  0  0  0  0  0
   19.3659   -6.5204   19.8501 O   0  0  0  0  0  0  0  0  0  0  0  0
   29.0423   -0.6301   18.7042 C   0  0  0  0  0  0  0  0  0  0  0  0
   29.8026    0.1674   19.5796 O   0  0  0  0  0  0  0  0  0  0  0  0
   25.8670    1.3929   13.0708 C   0  0  1  0  0  0  0  0  0  0  0  0
   24.8979    1.0418   12.0476 O   0  0  0  0  0  0  0  0  0  0  0  0
   19.0521   -6.4628   15.4476 C   0  0  0  0  0  0  0  0  0  0  0  0
   20.2810   -6.8857   14.7435 N   0  0  0  0  0  0  0  0  0  0  0  0
   19.9190   -6.6690   22.1894 C   0  0  0  0  0  0  0  0  0  0  0  0
   21.2714   -6.3894   21.7404 O   0  0  0  0  0  0  0  0  0  0  0  0
  1  2  1  1  0  0  0
  1  8  1  0  0  0  0
  1 36  1  0  0  0  0
  3  4  1  6  0  0  0
  3 10  1  0  0  0  0
  3 47  1  0  0  0  0
  5 11  1  0  0  0  0
  5 30  1  0  0  0  0
  5 38  1  6  0  0  0
  6 21  1  1  0  0  0
  6 42  1  0  0  0  0
  7 15  1  0  0  0  0
  7 44  1  0  0  0  0
  7 32  1  1  0  0  0
  8  9  1  6  0  0  0
  8 17  1  0  0  0  0
 11 12  1  1  0  0  0
 11 20  1  0  0  0  0
 13  6  1  0  0  0  0
 13 14  1  1  0  0  0
 15 16  1  1  0  0  0
 15 24  1  0  0  0  0
 17 26  1  0  0  0  0
 18 10  1  0  0  0  0
 18 19  1  1  0  0  0
 20 21  1  1  0  0  0
 20 29  1  0  0  0  0
 22 13  1  0  0  0  0
 22 23  1  6  0  0  0
 24 25  1  1  0  0  0
 24 33  1  0  0  0  0
 26 27  1  1  0  0  0
 26 35  1  0  0  0  0
 28  2  1  1  0  0  0
 28 18  1  0  0  0  0
 29 30  1  0  0  0  0
 29 39  1  6  0  0  0
 31 22  1  0  0  0  0
 31 32  1  1  0  0  0
 31 41  1  0  0  0  0
 33 34  1  1  0  0  0
 33 43  1  0  0  0  0
 35 36  1  0  0  0  0
 35 45  1  1  0  0  0
 37 28  1  0  0  0  0
 37 38  1  6  0  0  0
 39 40  1  0  0  0  0
 41 42  1  0  0  0  0
 41 49  1  1  0  0  0
 43 44  1  0  0  0  0
 43 51  1  1  0  0  0
 45 46  1  0  0  0  0
 47 37  1  0  0  0  0
 47 48  1  6  0  0  0
 49 50  1  0  0  0  0
 51 52  1  0  0  0  0
M  END
>  <CHROM.1>
-172.83236569,72.93836835,-171.02948444,-64.53045962,138.28423156,-165.28238381
-176.14097116,165.29742930,-68.53812820,105.84632314,-160.56572584,-164.63019208
22.51312956,-2.26409453,16.93298706,-0.44733159,0.59061879,1.83100901

>  <Name>
2esj_lig

>  <RI>
0

>  <Rbt.Current_Directory>
/home/itssahil/PROJECTS/Mol_Feturizer/New_Systems/rnas/2esj

>  <Rbt.Executable>
rbdock ($Id: //depot/dev/client3/rdock/2013.1/src/exe/rbdock.cxx#4 $)

>  <Rbt.Library>
libRbt.so (2013.1, Build901 2013/11/27)

>  <Rbt.Parameter_File>
/export/apps/rDock/src/rDock_2013.1_src/data/scripts/dock_solv.prm

>  <Rbt.Receptor>
prm/pocket_docking_8.prm

>  <SCORE>
-15.7478

>  <SCORE.INTER>
-10.4441

>  <SCORE.INTER.CONST>
1

>  <SCORE.INTER.POLAR>
0

>  <SCORE.INTER.ROT>
12

>  <SCORE.INTER.SOLV>
18.142

>  <SCORE.INTER.VDW>
-24.61

>  <SCORE.INTER.norm>
-0.200847

>  <SCORE.INTRA>
-5.30377

>  <SCORE.INTRA.DIHEDRAL>
-12.214

>  <SCORE.INTRA.DIHEDRAL.0>
32.9766

>  <SCORE.INTRA.POLAR>
0

>  <SCORE.INTRA.POLAR.0>
0

>  <SCORE.INTRA.REPUL>
0

>  <SCORE.INTRA.REPUL.0>
0

>  <SCORE.INTRA.SOLV>
-3.30221

>  <SCORE.INTRA.SOLV.lig_0>
-114.358

>  <SCORE.INTRA.VDW>
2.45433

>  <SCORE.INTRA.VDW.0>
-8.24257

>  <SCORE.INTRA.norm>
-0.101996

>  <SCORE.RESTR>
0

>  <SCORE.RESTR.CAVITY>
0

>  <SCORE.RESTR.norm>
0

>  <SCORE.SYSTEM>
0

>  <SCORE.SYSTEM.CONST>
0

>  <SCORE.SYSTEM.DIHEDRAL>
0

>  <SCORE.SYSTEM.SOLV>
0

>  <SCORE.SYSTEM.norm>
0

>  <SCORE.heavy>
52

>  <SCORE.norm>
-0.302843

>  <RMSD>
10.983

$$$$
2esj_lig
 OpenBabel11021811423D
libRbt.so/2013.1/901 2013/11/27
 52 56  0  0  0  0  0  0  0  0999 V2000
   26.8164   -2.3717   12.6145 C   0  0  2  0  0  0  0  0  0  0  0  0
   25.9678   -1.2106   12.6948 O   0  0  0  0  0  0  0  0  0  0  0  0
   22.0815    0.0280   13.9796 C   0  0  2  0  0  0  0  0  0  0  0  0
   20.6356    0.1357   14.2348 N   0  0  0  0  0  0  0  0  0  0  0  0
   24.1457   -3.7881   14.8511 C   0  0  1  0  0  0  0  0  0  0  0  0
   22.7539   -7.5403   14.1236 C   0  0  1  0  0  0  0  0  0  0  0  0
   19.7686   -8.2762   17.9336 C   0  0  1  0  0  0  0  0  0  0  0  0
   28.2850   -1.8708   12.4829 C   0  0  2  0  0  0  0  0  0  0  0  0
   28.6696   -0.9887   13.5843 N   0  0  0  0  0  0  0  0  0  0  0  0
   22.3598   -0.0614   12.4266 C   0  0  0  0  0  0  0  0  0  0  0  0
   24.4142   -4.3046   13.4370 C   0  0  2  0  0  0  0  0  0  0  0  0
   23.4520   -3.8126   12.4792 O   0  0  0  0  0  0  0  0  0  0  0  0
   21.2135   -7.7536   13.7733 C   0  0  2  0  0  0  0  0  0  0  0  0
   20.3776   -6.6719   14.3582 N   0  0  0  0  0  0  0  0  0  0  0  0
   19.2238   -9.6699   18.2242 C   0  0  1  0  0  0  0  0  0  0  0  0
   19.6287  -10.0699   19.5488 O   0  0  0  0  0  0  0  0  0  0  0  0
   28.5052   -1.1427   11.1189 C   0  0  0  0  0  0  0  0  0  0  0  0
   23.9195   -0.1167   12.1697 C   0  0  2  0  0  0  0  0  0  0  0  0
   24.2049   -0.2137   10.7344 N   0  0  0  0  0  0  0  0  0  0  0  0
   24.3500   -5.7864   13.6699 C   0  0  2  0  0  0  0  0  0  0  0  0
   23.0153   -6.2077   13.7943 O   0  0  0  0  0  0  0  0  0  0  0  0
   20.7887   -9.2309   14.1880 C   0  0  1  0  0  0  0  0  0  0  0  0
   21.7128  -10.1579   13.6087 O   0  0  0  0  0  0  0  0  0  0  0  0
   17.7090   -9.8088   18.1332 C   0  0  1  0  0  0  0  0  0  0  0  0
   17.3693  -11.0957   18.6611 O   0  0  0  0  0  0  0  0  0  0  0  0
   28.0671   -2.0926    9.9650 C   0  0  2  0  0  0  0  0  0  0  0  0
   28.3128   -1.5228    8.6918 O   0  0  0  0  0  0  0  0  0  0  0  0
   24.5507   -1.3131   12.9281 C   0  0  2  0  0  0  0  0  0  0  0  0
   24.9477   -6.0202   15.0726 C   0  0  2  0  0  0  0  0  0  0  0  0
   24.6191   -4.8110   15.7382 O   0  0  0  0  0  0  0  0  0  0  0  0
   20.8890   -9.4434   15.7545 C   0  0  2  0  0  0  0  0  0  0  0  0
   19.9328   -8.5303   16.2954 O   0  0  0  0  0  0  0  0  0  0  0  0
   16.9436   -8.7285   18.8995 C   0  0  2  0  0  0  0  0  0  0  0  0
   15.5747   -8.8027   18.4690 O   0  0  0  0  0  0  0  0  0  0  0  0
   26.5687   -2.4348   10.1573 C   0  0  2  0  0  0  0  0  0  0  0  0
   26.4424   -3.1220   11.4350 O   0  0  0  0  0  0  0  0  0  0  0  0
   24.2144   -1.3526   14.4533 C   0  0  2  0  0  0  0  0  0  0  0  0
   24.7904   -2.5491   15.0474 O   0  0  0  0  0  0  0  0  0  0  0  0
   26.4584   -6.2408   15.1411 C   0  0  0  0  0  0  0  0  0  0  0  0
   27.0907   -5.0789   14.5843 O   0  0  0  0  0  0  0  0  0  0  0  0
   22.2460   -8.8982   16.1562 C   0  0  1  0  0  0  0  0  0  0  0  0
   23.0119   -7.8108   15.5944 O   0  0  0  0  0  0  0  0  0  0  0  0
   17.5838   -7.3563   18.7209 C   0  0  2  0  0  0  0  0  0  0  0  0
   19.0015   -7.2111   18.5456 O   0  0  0  0  0  0  0  0  0  0  0  0
   26.0491   -3.3823    9.1303 C   0  0  0  0  0  0  0  0  0  0  0  0
   24.6751   -3.5597    9.3768 O   0  0  0  0  0  0  0  0  0  0  0  0
   22.6696   -1.2457   14.6864 C   0  0  1  0  0  0  0  0  0  0  0  0
   22.4602   -1.0936   16.1155 O   0  0  0  0  0  0  0  0  0  0  0  0
   22.6509   -9.0781   17.6517 C   0  0  0  0  0  0  0  0  0  0  0  0
   23.9732   -8.5020   17.9747 N   0  0  0  0  0  0  0  0  0  0  0  0
   17.0393   -6.0909   19.3797 C   0  0  0  0  0  0  0  0  0  0  0  0
   15.7007   -5.8136   18.8899 O   0  0  0  0  0  0  0  0  0  0  0  0
  1  2  1  6  0  0  0
  1  8  1  0  0  0  0
  1 36  1  0  0  0  0
  3  4  1  6  0  0  0
  3 10  1  0  0  0  0
  3 47  1  0  0  0  0
  5 11  1  0  0  0  0
  5 30  1  0  0  0  0
  5 38  1  1  0  0  0
  6 21  1  1  0  0  0
  6 42  1  0  0  0  0
  7 15  1  0  0  0  0
  7 44  1  0  0  0  0
  7 32  1  6  0  0  0
  8  9  1  1  0  0  0
  8 17  1  0  0  0  0
 11 12  1  6  0  0  0
 11 20  1  0  0  0  0
 13  6  1  0  0  0  0
 13 14  1  1  0  0  0
 15 16  1  1  0  0  0
 15 24  1  0  0  0  0
 17 26  1  0  0  0  0
 18 10  1  0  0  0  0
 18 19  1  6  0  0  0
 20 21  1  1  0  0  0
 20 29  1  0  0  0  0
 22 13  1  0  0  0  0
 22 23  1  6  0  0  0
 24 25  1  1  0  0  0
 24 33  1  0  0  0  0
 26 27  1  6  0  0  0
 26 35  1  0  0  0  0
 28  2  1  1  0  0  0
 28 18  1  0  0  0  0
 29 30  1  0  0  0  0
 29 39  1  6  0  0  0
 31 22  1  0  0  0  0
 31 32  1  1  0  0  0
 31 41  1  0  0  0  0
 33 34  1  6  0  0  0
 33 43  1  0  0  0  0
 35 36  1  0  0  0  0
 35 45  1  6  0  0  0
 37 28  1  0  0  0  0
 37 38  1  6  0  0  0
 39 40  1  0  0  0  0
 41 42  1  0  0  0  0
 41 49  1  1  0  0  0
 43 44  1  0  0  0  0
 43 51  1  1  0  0  0
 45 46  1  0  0  0  0
 47 37  1  0  0  0  0
 47 48  1  1  0  0  0
 49 50  1  0  0  0  0
 51 52  1  0  0  0  0
M  END
>  <CHROM.1>
-175.07884547,76.07620647,-164.36694692,-67.82173062,-174.86229212,-148.05533263
59.05407044,-173.98264114,-177.26296095,-77.58120048,-178.96757991,-62.65346055
22.82212643,-5.10445189,14.66417726,-0.73861041,-0.55384749,2.93421934

>  <Name>
2esj_lig

>  <RI>
0

>  <Rbt.Current_Directory>
/home/itssahil/PROJECTS/Mol_Feturizer/New_Systems/rnas/2esj

>  <Rbt.Executable>
rbdock ($Id: //depot/dev/client3/rdock/2013.1/src/exe/rbdock.cxx#4 $)

>  <Rbt.Library>
libRbt.so (2013.1, Build901 2013/11/27)

>  <Rbt.Parameter_File>
/export/apps/rDock/src/rDock_2013.1_src/data/scripts/dock_solv.prm

>  <Rbt.Receptor>
prm/pocket_docking_8.prm

>  <SCORE>
-13.163

>  <SCORE.INTER>
-6.80858

>  <SCORE.INTER.CONST>
1

>  <SCORE.INTER.POLAR>
-0.97765

>  <SCORE.INTER.ROT>
12

>  <SCORE.INTER.SOLV>
12.0855

>  <SCORE.INTER.VDW>
-16.9087

>  <SCORE.INTER.norm>
-0.130934

>  <SCORE.INTRA>
-6.35446

>  <SCORE.INTRA.DIHEDRAL>
-19.5362

>  <SCORE.INTRA.DIHEDRAL.0>
32.9766

>  <SCORE.INTRA.POLAR>
0

>  <SCORE.INTRA.POLAR.0>
0

>  <SCORE.INTRA.REPUL>
0

>  <SCORE.INTRA.REPUL.0>
0

>  <SCORE.INTRA.SOLV>
0.715637

>  <SCORE.INTRA.SOLV.lig_0>
-114.358

>  <SCORE.INTRA.VDW>
3.05584

>  <SCORE.INTRA.VDW.0>
-8.24257

>  <SCORE.INTRA.norm>
-0.122201

>  <SCORE.RESTR>
0

>  <SCORE.RESTR.CAVITY>
0

>  <SCORE.RESTR.norm>
0

>  <SCORE.SYSTEM>
0

>  <SCORE.SYSTEM.CONST>
0

>  <SCORE.SYSTEM.DIHEDRAL>
0

>  <SCORE.SYSTEM.SOLV>
0

>  <SCORE.SYSTEM.norm>
0

>  <SCORE.heavy>
52

>  <SCORE.norm>
-0.253135

>  <RMSD>
10.997

$$$$
2esj_lig
 OpenBabel11021811423D
libRbt.so/2013.1/901 2013/11/27
 52 56  0  0  0  0  0  0  0  0999 V2000
   28.9433   -3.1132   14.6085 C   0  0  2  0  0  0  0  0  0  0  0  0
   28.0627   -2.0487   15.0164 O   0  0  0  0  0  0  0  0  0  0  0  0
   26.8858    1.8689   13.7694 C   0  0  2  0  0  0  0  0  0  0  0  0
   26.5185    3.0625   12.9898 N   0  0  0  0  0  0  0  0  0  0  0  0
   24.1640   -1.7820   15.0867 C   0  0  1  0  0  0  0  0  0  0  0  0
   20.5982   -2.9959   15.8860 C   0  0  1  0  0  0  0  0  0  0  0  0
   16.8653   -5.4718   18.6015 C   0  0  1  0  0  0  0  0  0  0  0  0
   28.1798   -3.9781   13.5625 C   0  0  2  0  0  0  0  0  0  0  0  0
   27.7156   -3.1869   12.4233 N   0  0  0  0  0  0  0  0  0  0  0  0
   28.3103    1.3436   13.3309 C   0  0  0  0  0  0  0  0  0  0  0  0
   23.4796   -3.1302   14.8575 C   0  0  2  0  0  0  0  0  0  0  0  0
   22.4623   -3.0644   13.8348 O   0  0  0  0  0  0  0  0  0  0  0  0
   19.4803   -2.2087   16.7058 C   0  0  2  0  0  0  0  0  0  0  0  0
   19.6598   -2.3962   18.1699 N   0  0  0  0  0  0  0  0  0  0  0  0
   17.4775   -5.1953   19.9698 C   0  0  1  0  0  0  0  0  0  0  0  0
   16.5119   -5.5101   20.9930 O   0  0  0  0  0  0  0  0  0  0  0  0
   26.9719   -4.7148   14.2237 C   0  0  0  0  0  0  0  0  0  0  0  0
   28.7128    0.0984   14.2190 C   0  0  2  0  0  0  0  0  0  0  0  0
   30.0271   -0.4175   13.8226 N   0  0  0  0  0  0  0  0  0  0  0  0
   22.9515   -3.4071   16.2354 C   0  0  2  0  0  0  0  0  0  0  0  0
   21.8060   -2.6336   16.4881 O   0  0  0  0  0  0  0  0  0  0  0  0
   18.0463   -2.6156   16.1463 C   0  0  1  0  0  0  0  0  0  0  0  0
   18.0389   -2.4455   14.7251 O   0  0  0  0  0  0  0  0  0  0  0  0
   18.7570   -5.9637   20.2779 C   0  0  1  0  0  0  0  0  0  0  0  0
   19.0474   -5.7636   21.6656 O   0  0  0  0  0  0  0  0  0  0  0  0
   27.4879   -5.5303   15.4461 C   0  0  2  0  0  0  0  0  0  0  0  0
   26.4535   -6.2873   16.0488 O   0  0  0  0  0  0  0  0  0  0  0  0
   27.6393   -1.0153   14.1076 C   0  0  2  0  0  0  0  0  0  0  0  0
   24.0046   -2.8451   17.2125 C   0  0  2  0  0  0  0  0  0  0  0  0
   24.5550   -1.7709   16.4667 O   0  0  0  0  0  0  0  0  0  0  0  0
   17.7405   -4.1491   16.3991 C   0  0  2  0  0  0  0  0  0  0  0  0
   17.7218   -4.2744   17.8219 O   0  0  0  0  0  0  0  0  0  0  0  0
   18.6597   -7.4632   19.9915 C   0  0  2  0  0  0  0  0  0  0  0  0
   19.9993   -7.9819   20.0262 O   0  0  0  0  0  0  0  0  0  0  0  0
   28.1341   -4.5454   16.4518 C   0  0  2  0  0  0  0  0  0  0  0  0
   29.2564   -3.9103   15.7750 O   0  0  0  0  0  0  0  0  0  0  0  0
   26.1845   -0.5340   14.4124 C   0  0  2  0  0  0  0  0  0  0  0  0
   25.2551   -1.6339   14.2054 O   0  0  0  0  0  0  0  0  0  0  0  0
   25.1246   -3.7981   17.6286 C   0  0  0  0  0  0  0  0  0  0  0  0
   26.0227   -3.0661   18.4756 O   0  0  0  0  0  0  0  0  0  0  0  0
   18.9787   -4.8952   15.9403 C   0  0  1  0  0  0  0  0  0  0  0  0
   20.3653   -4.4935   15.9634 O   0  0  0  0  0  0  0  0  0  0  0  0
   17.9146   -7.7368   18.6898 C   0  0  2  0  0  0  0  0  0  0  0  0
   16.8601   -6.8735   18.2377 O   0  0  0  0  0  0  0  0  0  0  0  0
   28.7092   -5.2247   17.6477 C   0  0  0  0  0  0  0  0  0  0  0  0
   29.1588   -4.2221   18.5269 O   0  0  0  0  0  0  0  0  0  0  0  0
   25.8253    0.7294   13.5597 C   0  0  1  0  0  0  0  0  0  0  0  0
   24.5466    1.2226   14.0402 O   0  0  0  0  0  0  0  0  0  0  0  0
   18.9058   -6.4526   15.9832 C   0  0  0  0  0  0  0  0  0  0  0  0
   20.2139   -7.1071   15.7699 N   0  0  0  0  0  0  0  0  0  0  0  0
   17.6578   -9.1446   18.1571 C   0  0  0  0  0  0  0  0  0  0  0  0
   16.8854   -9.9066   19.1222 O   0  0  0  0  0  0  0  0  0  0  0  0
  1  2  1  1  0  0  0
  1  8  1  0  0  0  0
  1 36  1  0  0  0  0
  3  4  1  6  0  0  0
  3 10  1  0  0  0  0
  3 47  1  0  0  0  0
  5 11  1  0  0  0  0
  5 30  1  0  0  0  0
  5 38  1  6  0  0  0
  6 21  1  1  0  0  0
  6 42  1  0  0  0  0
  7 15  1  0  0  0  0
  7 44  1  0  0  0  0
  7 32  1  6  0  0  0
  8  9  1  6  0  0  0
  8 17  1  0  0  0  0
 11 12  1  6  0  0  0
 11 20  1  0  0  0  0
 13  6  1  0  0  0  0
 13 14  1  1  0  0  0
 15 16  1  1  0  0  0
 15 24  1  0  0  0  0
 17 26  1  0  0  0  0
 18 10  1  0  0  0  0
 18 19  1  6  0  0  0
 20 21  1  6  0  0  0
 20 29  1  0  0  0  0
 22 13  1  0  0  0  0
 22 23  1  6  0  0  0
 24 25  1  1  0  0  0
 24 33  1  0  0  0  0
 26 27  1  1  0  0  0
 26 35  1  0  0  0  0
 28  2  1  1  0  0  0
 28 18  1  0  0  0  0
 29 30  1  0  0  0  0
 29 39  1  6  0  0  0
 31 22  1  0  0  0  0
 31 32  1  1  0  0  0
 31 41  1  0  0  0  0
 33 34  1  6  0  0  0
 33 43  1  0  0  0  0
 35 36  1  0  0  0  0
 35 45  1  1  0  0  0
 37 28  1  0  0  0  0
 37 38  1  6  0  0  0
 39 40  1  0  0  0  0
 41 42  1  0  0  0  0
 41 49  1  1  0  0  0
 43 44  1  0  0  0  0
 43 51  1  1  0  0  0
 45 46  1  0  0  0  0
 47 37  1  0  0  0  0
 47 48  1  1  0  0  0
 49 50  1  0  0  0  0
 51 52  1  0  0  0  0
M  END
>  <CHROM.1>
-65.93133579,-169.23718929,163.73560730,169.92015680,74.91338762,-89.03602675
177.15234101,154.37423395,-175.12637696,141.80724918,-169.16174608,59.51759465
23.04749586,-3.66195502,16.38134854,-0.56114676,-0.10472530,2.60227014

>  <Name>
2esj_lig

>  <RI>
1.62275e+07

>  <Rbt.Current_Directory>
/home/itssahil/PROJECTS/Mol_Feturizer/New_Systems/rnas/2esj

>  <Rbt.Executable>
rbdock ($Id: //depot/dev/client3/rdock/2013.1/src/exe/rbdock.cxx#4 $)

>  <Rbt.Library>
libRbt.so (2013.1, Build901 2013/11/27)

>  <Rbt.Parameter_File>
/export/apps/rDock/src/rDock_2013.1_src/data/scripts/dock_solv.prm

>  <Rbt.Receptor>
prm/pocket_docking_5.prm

>  <SCORE>
-11.9684

>  <SCORE.INTER>
-6.8944

>  <SCORE.INTER.CONST>
1

>  <SCORE.INTER.POLAR>
-0.916766

>  <SCORE.INTER.ROT>
12

>  <SCORE.INTER.SOLV>
11.5865

>  <SCORE.INTER.VDW>
-17.0025

>  <SCORE.INTER.norm>
-0.132585

>  <SCORE.INTRA>
-5.07398

>  <SCORE.INTRA.DIHEDRAL>
-13.4054

>  <SCORE.INTRA.DIHEDRAL.0>
32.9766

>  <SCORE.INTRA.POLAR>
0

>  <SCORE.INTRA.POLAR.0>
0

>  <SCORE.INTRA.REPUL>
0

>  <SCORE.INTRA.REPUL.0>
0

>  <SCORE.INTRA.SOLV>
1.89274

>  <SCORE.INTRA.SOLV.lig_0>
-114.358

>  <SCORE.INTRA.VDW>
0.682338

>  <SCORE.INTRA.VDW.0>
-8.24257

>  <SCORE.INTRA.norm>
-0.0975766

>  <SCORE.RESTR>
0

>  <SCORE.RESTR.CAVITY>
0

>  <SCORE.RESTR.norm>
0

>  <SCORE.SYSTEM>
0

>  <SCORE.SYSTEM.CONST>
0

>  <SCORE.SYSTEM.DIHEDRAL>
0

>  <SCORE.SYSTEM.SOLV>
0

>  <SCORE.SYSTEM.norm>
0

>  <SCORE.heavy>
52

>  <SCORE.norm>
-0.230161

>  <RMSD>
11.060

$$$$
2esj_lig
 OpenBabel11021811423D
libRbt.so/2013.1/901 2013/11/27
 52 56  0  0  0  0  0  0  0  0999 V2000
   28.5410    0.9383   13.2182 C   0  0  2  0  0  0  0  0  0  0  0  0
   28.0116   -0.3869   13.0220 O   0  0  0  0  0  0  0  0  0  0  0  0
   25.6845    0.2963    9.4998 C   0  0  2  0  0  0  0  0  0  0  0  0
   24.8870    0.1469    8.2715 N   0  0  0  0  0  0  0  0  0  0  0  0
   24.6575   -2.0588   13.1349 C   0  0  1  0  0  0  0  0  0  0  0  0
   23.7802   -6.1059   13.4385 C   0  0  1  0  0  0  0  0  0  0  0  0
   19.0714   -6.9941   11.5074 C   0  0  1  0  0  0  0  0  0  0  0  0
   29.4299    0.9034   14.4963 C   0  0  2  0  0  0  0  0  0  0  0  0
   30.4901   -0.1001   14.4057 N   0  0  0  0  0  0  0  0  0  0  0  0
   27.0762   -0.4359    9.3433 C   0  0  0  0  0  0  0  0  0  0  0  0
   25.7732   -2.9927   13.6057 C   0  0  2  0  0  0  0  0  0  0  0  0
   26.6657   -3.3680   12.5344 O   0  0  0  0  0  0  0  0  0  0  0  0
   23.6104   -6.8674   12.0484 C   0  0  2  0  0  0  0  0  0  0  0  0
   23.0573   -5.9617   11.0069 N   0  0  0  0  0  0  0  0  0  0  0  0
   19.1609   -6.2528   10.1785 C   0  0  1  0  0  0  0  0  0  0  0  0
   17.9901   -6.5492    9.3911 O   0  0  0  0  0  0  0  0  0  0  0  0
   28.5642    0.6462   15.7704 C   0  0  0  0  0  0  0  0  0  0  0  0
   27.9417   -0.2144   10.6485 C   0  0  2  0  0  0  0  0  0  0  0  0
   29.2350   -0.8963   10.5343 N   0  0  0  0  0  0  0  0  0  0  0  0
   24.9635   -4.1290   14.1602 C   0  0  2  0  0  0  0  0  0  0  0  0
   24.4535   -4.9237   13.1197 O   0  0  0  0  0  0  0  0  0  0  0  0
   22.7782   -8.2033   12.2889 C   0  0  1  0  0  0  0  0  0  0  0  0
   23.3855   -8.9410   13.3547 O   0  0  0  0  0  0  0  0  0  0  0  0
   19.2850   -4.7377   10.2852 C   0  0  1  0  0  0  0  0  0  0  0  0
   19.1174   -4.2053    8.9666 O   0  0  0  0  0  0  0  0  0  0  0  0
   27.4301    1.7120   15.8315 C   0  0  2  0  0  0  0  0  0  0  0  0
   26.6504    1.5846   17.0071 O   0  0  0  0  0  0  0  0  0  0  0  0
   27.1741   -0.7178   11.8985 C   0  0  2  0  0  0  0  0  0  0  0  0
   23.7096   -3.4872   14.7890 C   0  0  2  0  0  0  0  0  0  0  0  0
   23.5334   -2.3332   13.9825 O   0  0  0  0  0  0  0  0  0  0  0  0
   21.3023   -7.8869   12.7693 C   0  0  2  0  0  0  0  0  0  0  0  0
   20.7184   -7.1831   11.6719 O   0  0  0  0  0  0  0  0  0  0  0  0
   18.2592   -4.0997   11.2236 C   0  0  2  0  0  0  0  0  0  0  0  0
   18.6935   -2.7506   11.4604 O   0  0  0  0  0  0  0  0  0  0  0  0
   26.5635    1.5758   14.5549 C   0  0  2  0  0  0  0  0  0  0  0  0
   27.4287    1.8429   13.4143 O   0  0  0  0  0  0  0  0  0  0  0  0
   25.7376   -0.1223   12.0496 C   0  0  2  0  0  0  0  0  0  0  0  0
   25.0841   -0.7164   13.2057 O   0  0  0  0  0  0  0  0  0  0  0  0
   23.8212   -3.0679   16.2544 C   0  0  0  0  0  0  0  0  0  0  0  0
   24.0405   -4.2563   17.0286 O   0  0  0  0  0  0  0  0  0  0  0  0
   21.4431   -6.8647   13.8807 C   0  0  1  0  0  0  0  0  0  0  0  0
   22.4268   -5.8238   14.0644 O   0  0  0  0  0  0  0  0  0  0  0  0
   18.0675   -4.9282   12.4890 C   0  0  2  0  0  0  0  0  0  0  0  0
   18.1985   -6.3580   12.4721 O   0  0  0  0  0  0  0  0  0  0  0  0
   25.4678    2.5841   14.4820 C   0  0  0  0  0  0  0  0  0  0  0  0
   24.6497    2.2398   13.3900 O   0  0  0  0  0  0  0  0  0  0  0  0
   24.9159   -0.3074   10.7295 C   0  0  1  0  0  0  0  0  0  0  0  0
   23.6787    0.4372   10.8855 O   0  0  0  0  0  0  0  0  0  0  0  0
   20.1293   -6.4492   14.6116 C   0  0  0  0  0  0  0  0  0  0  0  0
   20.1672   -6.6918   16.0692 N   0  0  0  0  0  0  0  0  0  0  0  0
   17.0963   -4.5382   13.6009 C   0  0  0  0  0  0  0  0  0  0  0  0
   17.5576   -3.3297   14.2608 O   0  0  0  0  0  0  0  0  0  0  0  0
  1  2  1  1  0  0  0
  1  8  1  0  0  0  0
  1 36  1  0  0  0  0
  3  4  1  6  0  0  0
  3 10  1  0  0  0  0
  3 47  1  0  0  0  0
  5 11  1  0  0  0  0
  5 30  1  0  0  0  0
  5 38  1  1  0  0  0
  6 21  1  6  0  0  0
  6 42  1  0  0  0  0
  7 15  1  0  0  0  0
  7 44  1  0  0  0  0
  7 32  1  1  0  0  0
  8  9  1  6  0  0  0
  8 17  1  0  0  0  0
 11 12  1  6  0  0  0
 11 20  1  0  0  0  0
 13  6  1  0  0  0  0
 13 14  1  6  0  0  0
 15 16  1  6  0  0  0
 15 24  1  0  0  0  0
 17 26  1  0  0  0  0
 18 10  1  0  0  0  0
 18 19  1  6  0  0  0
 20 21  1  6  0  0  0
 20 29  1  0  0  0  0
 22 13  1  0  0  0  0
 22 23  1  1  0  0  0
 24 25  1  6  0  0  0
 24 33  1  0  0  0  0
 26 27  1  1  0  0  0
 26 35  1  0  0  0  0
 28  2  1  1  0  0  0
 28 18  1  0  0  0  0
 29 30  1  0  0  0  0
 29 39  1  1  0  0  0
 31 22  1  0  0  0  0
 31 32  1  6  0  0  0
 31 41  1  0  0  0  0
 33 34  1  1  0  0  0
 33 43  1  0  0  0  0
 35 36  1  0  0  0  0
 35 45  1  1  0  0  0
 37 28  1  0  0  0  0
 37 38  1  1  0  0  0
 39 40  1  0  0  0  0
 41 42  1  0  0  0  0
 41 49  1  6  0  0  0
 43 44  1  0  0  0  0
 43 51  1  6  0  0  0
 45 46  1  0  0  0  0
 47 37  1  0  0  0  0
 47 48  1  1  0  0  0
 49 50  1  0  0  0  0
 51 52  1  0  0  0  0
M  END
>  <CHROM.1>
-178.10619686,89.93175789,-169.11285559,-177.79846078,173.87044649,51.13286202
-63.33492981,162.83844400,-171.85418124,-72.23833579,122.18610202,-67.51639027
23.64002754,-2.91095504,12.82874198,0.35592114,-0.63654955,-0.84700318

>  <Name>
2esj_lig

>  <RI>
0

>  <Rbt.Current_Directory>
/home/itssahil/PROJECTS/Mol_Feturizer/New_Systems/rnas/2esj

>  <Rbt.Executable>
rbdock ($Id: //depot/dev/client3/rdock/2013.1/src/exe/rbdock.cxx#4 $)

>  <Rbt.Library>
libRbt.so (2013.1, Build901 2013/11/27)

>  <Rbt.Parameter_File>
/export/apps/rDock/src/rDock_2013.1_src/data/scripts/dock_solv.prm

>  <Rbt.Receptor>
prm/pocket_docking_6.prm

>  <SCORE>
-13.2522

>  <SCORE.INTER>
-4.17619

>  <SCORE.INTER.CONST>
1

>  <SCORE.INTER.POLAR>
-0.690562

>  <SCORE.INTER.ROT>
12

>  <SCORE.INTER.SOLV>
10.25

>  <SCORE.INTER.VDW>
-15.4989

>  <SCORE.INTER.norm>
-0.0803113

>  <SCORE.INTRA>
-9.07603

>  <SCORE.INTRA.DIHEDRAL>
-20.6517

>  <SCORE.INTRA.DIHEDRAL.0>
32.9766

>  <SCORE.INTRA.POLAR>
0

>  <SCORE.INTRA.POLAR.0>
0

>  <SCORE.INTRA.REPUL>
0

>  <SCORE.INTRA.REPUL.0>
0

>  <SCORE.INTRA.SOLV>
-1.74432

>  <SCORE.INTRA.SOLV.lig_0>
-114.358

>  <SCORE.INTRA.VDW>
2.12198

>  <SCORE.INTRA.VDW.0>
-8.24257

>  <SCORE.INTRA.norm>
-0.174539

>  <SCORE.RESTR>
0

>  <SCORE.RESTR.CAVITY>
0

>  <SCORE.RESTR.norm>
0

>  <SCORE.SYSTEM>
0

>  <SCORE.SYSTEM.CONST>
0

>  <SCORE.SYSTEM.DIHEDRAL>
0

>  <SCORE.SYSTEM.SOLV>
0

>  <SCORE.SYSTEM.norm>
0

>  <SCORE.heavy>
52

>  <SCORE.norm>
-0.25485

>  <RMSD>
11.114

$$$$
2esj_lig
 OpenBabel11021811423D
libRbt.so/2013.1/901 2013/11/27
 52 56  0  0  0  0  0  0  0  0999 V2000
   29.9975   -1.3748   12.4042 C   0  0  2  0  0  0  0  0  0  0  0  0
   29.3392   -2.6480   12.2614 O   0  0  0  0  0  0  0  0  0  0  0  0
   25.3435   -1.2940   11.5619 C   0  0  2  0  0  0  0  0  0  0  0  0
   23.9084   -1.2010   11.2468 N   0  0  0  0  0  0  0  0  0  0  0  0
   26.6847   -4.3023   14.5036 C   0  0  1  0  0  0  0  0  0  0  0  0
   25.1912   -8.1145   15.3709 C   0  0  1  0  0  0  0  0  0  0  0  0
   20.0411   -8.2387   14.4513 C   0  0  1  0  0  0  0  0  0  0  0  0
   31.5248   -1.6490   12.5354 C   0  0  2  0  0  0  0  0  0  0  0  0
   32.0495   -2.4109   11.4025 N   0  0  0  0  0  0  0  0  0  0  0  0
   26.1280   -1.9544   10.3594 C   0  0  0  0  0  0  0  0  0  0  0  0
   27.6061   -5.3276   15.1658 C   0  0  2  0  0  0  0  0  0  0  0  0
   28.4440   -6.0130   14.2101 O   0  0  0  0  0  0  0  0  0  0  0  0
   24.5826   -8.7777   14.0552 C   0  0  2  0  0  0  0  0  0  0  0  0
   23.9840   -7.7477   13.1654 N   0  0  0  0  0  0  0  0  0  0  0  0
   20.0480   -7.1895   13.3455 C   0  0  1  0  0  0  0  0  0  0  0  0
   18.7724   -7.2010   12.6739 O   0  0  0  0  0  0  0  0  0  0  0  0
   31.8444   -2.3952   13.8696 C   0  0  0  0  0  0  0  0  0  0  0  0
   27.6739   -1.9916   10.6916 C   0  0  2  0  0  0  0  0  0  0  0  0
   28.4243   -2.6132    9.5955 N   0  0  0  0  0  0  0  0  0  0  0  0
   26.5952   -6.2077   15.8423 C   0  0  2  0  0  0  0  0  0  0  0  0
   25.9781   -7.0567   14.9080 O   0  0  0  0  0  0  0  0  0  0  0  0
   23.5984   -9.9557   14.4778 C   0  0  1  0  0  0  0  0  0  0  0  0
   24.2845  -10.8309   15.3790 O   0  0  0  0  0  0  0  0  0  0  0  0
   20.3259   -5.7629   13.8035 C   0  0  1  0  0  0  0  0  0  0  0  0
   20.0600   -4.9017   12.6908 O   0  0  0  0  0  0  0  0  0  0  0  0
   31.2559   -1.5770   15.0570 C   0  0  2  0  0  0  0  0  0  0  0  0
   31.5769   -2.1588   16.3079 O   0  0  0  0  0  0  0  0  0  0  0  0
   27.9240   -2.7547   12.0183 C   0  0  2  0  0  0  0  0  0  0  0  0
   25.4596   -5.2706   16.3025 C   0  0  2  0  0  0  0  0  0  0  0  0
   25.5096   -4.2444   15.3240 O   0  0  0  0  0  0  0  0  0  0  0  0
   22.3477   -9.4052   15.2790 C   0  0  2  0  0  0  0  0  0  0  0  0
   21.6709   -8.5662   14.3418 O   0  0  0  0  0  0  0  0  0  0  0  0
   19.4786   -5.3230   14.9987 C   0  0  2  0  0  0  0  0  0  0  0  0
   20.0625   -4.1092   15.4992 O   0  0  0  0  0  0  0  0  0  0  0  0
   29.7242   -1.4613   14.8580 C   0  0  2  0  0  0  0  0  0  0  0  0
   29.5030   -0.7450   13.6095 O   0  0  0  0  0  0  0  0  0  0  0  0
   27.0857   -2.2278   13.2269 C   0  0  2  0  0  0  0  0  0  0  0  0
   27.3401   -3.0583   14.3939 O   0  0  0  0  0  0  0  0  0  0  0  0
   25.6079   -4.6523   17.6922 C   0  0  0  0  0  0  0  0  0  0  0  0
   24.4010   -3.9291   17.9747 O   0  0  0  0  0  0  0  0  0  0  0  0
   22.9135   -8.4692   16.3298 C   0  0  1  0  0  0  0  0  0  0  0  0
   24.0841   -7.6252   16.2863 O   0  0  0  0  0  0  0  0  0  0  0  0
   19.3552   -6.4337   16.0358 C   0  0  2  0  0  0  0  0  0  0  0  0
   19.3478   -7.8170   15.6507 O   0  0  0  0  0  0  0  0  0  0  0  0
   29.0566   -0.6524   15.9174 C   0  0  0  0  0  0  0  0  0  0  0  0
   27.6746   -0.6688   15.6527 O   0  0  0  0  0  0  0  0  0  0  0  0
   25.5654   -2.1511   12.8594 C   0  0  1  0  0  0  0  0  0  0  0  0
   24.8921   -1.4759   13.9549 O   0  0  0  0  0  0  0  0  0  0  0  0
   21.8917   -7.8598   17.3384 C   0  0  0  0  0  0  0  0  0  0  0  0
   22.3877   -7.8313   18.7305 N   0  0  0  0  0  0  0  0  0  0  0  0
   18.5583   -6.2809   17.3293 C   0  0  0  0  0  0  0  0  0  0  0  0
   19.1067   -5.1963   18.1242 O   0  0  0  0  0  0  0  0  0  0  0  0
  1  2  1  1  0  0  0
  1  8  1  0  0  0  0
  1 36  1  0  0  0  0
  3  4  1  6  0  0  0
  3 10  1  0  0  0  0
  3 47  1  0  0  0  0
  5 11  1  0  0  0  0
  5 30  1  0  0  0  0
  5 38  1  1  0  0  0
  6 21  1  6  0  0  0
  6 42  1  0  0  0  0
  7 15  1  0  0  0  0
  7 44  1  0  0  0  0
  7 32  1  1  0  0  0
  8  9  1  6  0  0  0
  8 17  1  0  0  0  0
 11 12  1  6  0  0  0
 11 20  1  0  0  0  0
 13  6  1  0  0  0  0
 13 14  1  1  0  0  0
 15 16  1  1  0  0  0
 15 24  1  0  0  0  0
 17 26  1  0  0  0  0
 18 10  1  0  0  0  0
 18 19  1  6  0  0  0
 20 21  1  6  0  0  0
 20 29  1  0  0  0  0
 22 13  1  0  0  0  0
 22 23  1  1  0  0  0
 24 25  1  6  0  0  0
 24 33  1  0  0  0  0
 26 27  1  1  0  0  0
 26 35  1  0  0  0  0
 28  2  1  1  0  0  0
 28 18  1  0  0  0  0
 29 30  1  0  0  0  0
 29 39  1  1  0  0  0
 31 22  1  0  0  0  0
 31 32  1  6  0  0  0
 31 41  1  0  0  0  0
 33 34  1  1  0  0  0
 33 43  1  0  0  0  0
 35 36  1  0  0  0  0
 35 45  1  1  0  0  0
 37 28  1  0  0  0  0
 37 38  1  1  0  0  0
 39 40  1  0  0  0  0
 41 42  1  0  0  0  0
 41 49  1  6  0  0  0
 43 44  1  0  0  0  0
 43 51  1  6  0  0  0
 45 46  1  0  0  0  0
 47 37  1  0  0  0  0
 47 48  1  1  0  0  0
 49 50  1  0  0  0  0
 51 52  1  0  0  0  0
M  END
>  <CHROM.1>
-175.36907959,144.47818333,176.01740554,172.16364659,168.35707186,59.20596025
-174.53052785,155.05163123,-177.72736966,-79.51491049,138.22630795,-60.44015551
25.08892459,-4.78897712,14.47794992,0.57052185,-0.17573496,-0.64481624

>  <Name>
2esj_lig

>  <RI>
1.62275e+07

>  <Rbt.Current_Directory>
/home/itssahil/PROJECTS/Mol_Feturizer/New_Systems/rnas/2esj

>  <Rbt.Executable>
rbdock ($Id: //depot/dev/client3/rdock/2013.1/src/exe/rbdock.cxx#4 $)

>  <Rbt.Library>
libRbt.so (2013.1, Build901 2013/11/27)

>  <Rbt.Parameter_File>
/export/apps/rDock/src/rDock_2013.1_src/data/scripts/dock_solv.prm

>  <Rbt.Receptor>
prm/pocket_docking_5.prm

>  <SCORE>
-8.7251

>  <SCORE.INTER>
-0.59492

>  <SCORE.INTER.CONST>
1

>  <SCORE.INTER.POLAR>
-0.824621

>  <SCORE.INTER.ROT>
12

>  <SCORE.INTER.SOLV>
7.90622

>  <SCORE.INTER.VDW>
-11.8833

>  <SCORE.INTER.norm>
-0.0114408

>  <SCORE.INTRA>
-8.13018

>  <SCORE.INTRA.DIHEDRAL>
-17.6147

>  <SCORE.INTRA.DIHEDRAL.0>
32.9766

>  <SCORE.INTRA.POLAR>
0

>  <SCORE.INTRA.POLAR.0>
0

>  <SCORE.INTRA.REPUL>
0

>  <SCORE.INTRA.REPUL.0>
0

>  <SCORE.INTRA.SOLV>
-1.79557

>  <SCORE.INTRA.SOLV.lig_0>
-114.358

>  <SCORE.INTRA.VDW>
1.57493

>  <SCORE.INTRA.VDW.0>
-8.24257

>  <SCORE.INTRA.norm>
-0.15635

>  <SCORE.RESTR>
0

>  <SCORE.RESTR.CAVITY>
0

>  <SCORE.RESTR.norm>
0

>  <SCORE.SYSTEM>
0

>  <SCORE.SYSTEM.CONST>
0

>  <SCORE.SYSTEM.DIHEDRAL>
0

>  <SCORE.SYSTEM.SOLV>
0

>  <SCORE.SYSTEM.norm>
0

>  <SCORE.heavy>
52

>  <SCORE.norm>
-0.16779

>  <RMSD>
11.146

$$$$
2esj_lig
 OpenBabel11021811423D
libRbt.so/2013.1/901 2013/11/27
 52 56  0  0  0  0  0  0  0  0999 V2000
   26.0750    0.3093   12.3518 C   0  0  2  0  0  0  0  0  0  0  0  0
   25.9996    1.2751   11.2858 O   0  0  0  0  0  0  0  0  0  0  0  0
   22.9832    1.7266    8.2882 C   0  0  2  0  0  0  0  0  0  0  0  0
   22.1758    1.6448    7.0599 N   0  0  0  0  0  0  0  0  0  0  0  0
   22.8745   -1.4686   11.5762 C   0  0  1  0  0  0  0  0  0  0  0  0
   20.3879   -4.5253   12.6779 C   0  0  1  0  0  0  0  0  0  0  0  0
   21.6222   -7.8426   16.2513 C   0  0  1  0  0  0  0  0  0  0  0  0
   26.9249    0.9385   13.4950 C   0  0  2  0  0  0  0  0  0  0  0  0
   26.3777    2.2153   13.9528 N   0  0  0  0  0  0  0  0  0  0  0  0
   24.4482    2.2138    7.9507 C   0  0  0  0  0  0  0  0  0  0  0  0
   23.1683   -2.9181   11.9651 C   0  0  2  0  0  0  0  0  0  0  0  0
   22.9021   -3.8420   10.8877 O   0  0  0  0  0  0  0  0  0  0  0  0
   20.1294   -4.9218   14.2001 C   0  0  2  0  0  0  0  0  0  0  0  0
   21.3333   -4.6598   15.0325 N   0  0  0  0  0  0  0  0  0  0  0  0
   22.9981   -7.3282   16.6586 C   0  0  1  0  0  0  0  0  0  0  0  0
   22.9688   -6.9472   18.0487 O   0  0  0  0  0  0  0  0  0  0  0  0
   28.4088    1.1280   13.0466 C   0  0  0  0  0  0  0  0  0  0  0  0
   25.2820    2.3524    9.2876 C   0  0  2  0  0  0  0  0  0  0  0  0
   26.6518    2.7909    9.0006 N   0  0  0  0  0  0  0  0  0  0  0  0
   22.2587   -3.0737   13.1494 C   0  0  2  0  0  0  0  0  0  0  0  0
   20.9278   -3.2374   12.7297 O   0  0  0  0  0  0  0  0  0  0  0  0
   19.5826   -6.4160   14.2594 C   0  0  1  0  0  0  0  0  0  0  0  0
   18.4702   -6.5373   13.3669 O   0  0  0  0  0  0  0  0  0  0  0  0
   24.1450   -8.3128   16.4647 C   0  0  1  0  0  0  0  0  0  0  0  0
   25.2950   -7.7558   17.1107 O   0  0  0  0  0  0  0  0  0  0  0  0
   28.9604   -0.2385   12.5424 C   0  0  2  0  0  0  0  0  0  0  0  0
   30.3300   -0.1563   12.1909 O   0  0  0  0  0  0  0  0  0  0  0  0
   25.2959    1.0069   10.0586 C   0  0  2  0  0  0  0  0  0  0  0  0
   22.2591   -1.7071   13.8651 C   0  0  2  0  0  0  0  0  0  0  0  0
   22.4795   -0.8104   12.7878 O   0  0  0  0  0  0  0  0  0  0  0  0
   20.6660   -7.4493   13.7419 C   0  0  2  0  0  0  0  0  0  0  0  0
   21.7429   -7.3257   14.6722 O   0  0  0  0  0  0  0  0  0  0  0  0
   23.8665   -9.7040   17.0364 C   0  0  2  0  0  0  0  0  0  0  0  0
   24.8762  -10.5806   16.5104 O   0  0  0  0  0  0  0  0  0  0  0  0
   28.0918   -0.7042   11.3475 C   0  0  2  0  0  0  0  0  0  0  0  0
   26.7324   -0.8744   11.8412 O   0  0  0  0  0  0  0  0  0  0  0  0
   23.8780    0.4058   10.3215 C   0  0  2  0  0  0  0  0  0  0  0  0
   24.0113   -0.8848   10.9794 O   0  0  0  0  0  0  0  0  0  0  0  0
   23.3366   -1.4953   14.9280 C   0  0  0  0  0  0  0  0  0  0  0  0
   24.6115   -1.5851   14.2752 O   0  0  0  0  0  0  0  0  0  0  0  0
   21.1868   -6.8783   12.4370 C   0  0  1  0  0  0  0  0  0  0  0  0
   21.3457   -5.5040   12.0238 O   0  0  0  0  0  0  0  0  0  0  0  0
   22.4371  -10.1506   16.7500 C   0  0  2  0  0  0  0  0  0  0  0  0
   21.3607   -9.2035   16.6719 O   0  0  0  0  0  0  0  0  0  0  0  0
   28.5012   -2.0332   10.8103 C   0  0  0  0  0  0  0  0  0  0  0  0
   27.6728   -2.3162    9.7085 O   0  0  0  0  0  0  0  0  0  0  0  0
   23.0520    0.3248    8.9935 C   0  0  1  0  0  0  0  0  0  0  0  0
   21.6971   -0.0554    9.3528 O   0  0  0  0  0  0  0  0  0  0  0  0
   22.2057   -7.7602   11.6515 C   0  0  0  0  0  0  0  0  0  0  0  0
   23.4507   -7.0455   11.2994 N   0  0  0  0  0  0  0  0  0  0  0  0
   21.8757  -11.4936   17.2112 C   0  0  0  0  0  0  0  0  0  0  0  0
   21.8854  -11.5631   18.6617 O   0  0  0  0  0  0  0  0  0  0  0  0
  1  2  1  6  0  0  0
  1  8  1  0  0  0  0
  1 36  1  0  0  0  0
  3  4  1  6  0  0  0
  3 10  1  0  0  0  0
  3 47  1  0  0  0  0
  5 11  1  0  0  0  0
  5 30  1  0  0  0  0
  5 38  1  1  0  0  0
  6 21  1  1  0  0  0
  6 42  1  0  0  0  0
  7 15  1  0  0  0  0
  7 44  1  0  0  0  0
  7 32  1  6  0  0  0
  8  9  1  6  0  0  0
  8 17  1  0  0  0  0
 11 12  1  6  0  0  0
 11 20  1  0  0  0  0
 13  6  1  0  0  0  0
 13 14  1  1  0  0  0
 15 16  1  1  0  0  0
 15 24  1  0  0  0  0
 17 26  1  0  0  0  0
 18 10  1  0  0  0  0
 18 19  1  6  0  0  0
 20 21  1  6  0  0  0
 20 29  1  0  0  0  0
 22 13  1  0  0  0  0
 22 23  1  6  0  0  0
 24 25  1  1  0  0  0
 24 33  1  0  0  0  0
 26 27  1  6  0  0  0
 26 35  1  0  0  0  0
 28  2  1  1  0  0  0
 28 18  1  0  0  0  0
 29 30  1  0  0  0  0
 29 39  1  1  0  0  0
 31 22  1  0  0  0  0
 31 32  1  1  0  0  0
 31 41  1  0  0  0  0
 33 34  1  6  0  0  0
 33 43  1  0  0  0  0
 35 36  1  0  0  0  0
 35 45  1  1  0  0  0
 37 28  1  0  0  0  0
 37 38  1  6  0  0  0
 39 40  1  0  0  0  0
 41 42  1  0  0  0  0
 41 49  1  1  0  0  0
 43 44  1  0  0  0  0
 43 51  1  1  0  0  0
 45 46  1  0  0  0  0
 47 37  1  0  0  0  0
 47 48  1  1  0  0  0
 49 50  1  0  0  0  0
 51 52  1  0  0  0  0
M  END
>  <CHROM.1>
179.19653539,169.14791299,74.43339571,-175.81129163,99.17381680,171.99636160
62.02091271,69.33476783,-177.92735143,166.01115540,-127.44275914,62.30381321
23.70221365,-3.48808022,12.96506633,-1.24132570,0.35493246,2.49459643

>  <Name>
2esj_lig

>  <RI>
0

>  <Rbt.Current_Directory>
/home/itssahil/PROJECTS/Mol_Feturizer/New_Systems/rnas/2esj

>  <Rbt.Executable>
rbdock ($Id: //depot/dev/client3/rdock/2013.1/src/exe/rbdock.cxx#4 $)

>  <Rbt.Library>
libRbt.so (2013.1, Build901 2013/11/27)

>  <Rbt.Parameter_File>
/export/apps/rDock/src/rDock_2013.1_src/data/scripts/dock_solv.prm

>  <Rbt.Receptor>
prm/pocket_docking_8.prm

>  <SCORE>
-6.31825

>  <SCORE.INTER>
0.0850953

>  <SCORE.INTER.CONST>
1

>  <SCORE.INTER.POLAR>
-0.824621

>  <SCORE.INTER.ROT>
12

>  <SCORE.INTER.SOLV>
9.89834

>  <SCORE.INTER.VDW>
-12.094

>  <SCORE.INTER.norm>
0.00163645

>  <SCORE.INTRA>
-6.40334

>  <SCORE.INTRA.DIHEDRAL>
-19.3682

>  <SCORE.INTRA.DIHEDRAL.0>
32.9766

>  <SCORE.INTRA.POLAR>
0

>  <SCORE.INTRA.POLAR.0>
0

>  <SCORE.INTRA.REPUL>
0

>  <SCORE.INTRA.REPUL.0>
0

>  <SCORE.INTRA.SOLV>
0.862262

>  <SCORE.INTRA.SOLV.lig_0>
-114.358

>  <SCORE.INTRA.VDW>
2.84963

>  <SCORE.INTRA.VDW.0>
-8.24257

>  <SCORE.INTRA.norm>
-0.123141

>  <SCORE.RESTR>
0

>  <SCORE.RESTR.CAVITY>
0

>  <SCORE.RESTR.norm>
0

>  <SCORE.SYSTEM>
0

>  <SCORE.SYSTEM.CONST>
0

>  <SCORE.SYSTEM.DIHEDRAL>
0

>  <SCORE.SYSTEM.SOLV>
0

>  <SCORE.SYSTEM.norm>
0

>  <SCORE.heavy>
52

>  <SCORE.norm>
-0.121505

>  <RMSD>
11.170

$$$$
2esj_lig
 OpenBabel11021811423D
libRbt.so/2013.1/901 2013/11/27
 52 56  0  0  0  0  0  0  0  0999 V2000
   29.6234   -1.5026   15.2011 C   0  0  2  0  0  0  0  0  0  0  0  0
   28.7292   -2.6314   15.1687 O   0  0  0  0  0  0  0  0  0  0  0  0
   27.5739   -5.7291   17.8811 C   0  0  2  0  0  0  0  0  0  0  0  0
   27.1238   -6.4978   19.0533 N   0  0  0  0  0  0  0  0  0  0  0  0
   24.5534   -3.6013   15.3404 C   0  0  1  0  0  0  0  0  0  0  0  0
   20.6640   -3.3213   15.4186 C   0  0  1  0  0  0  0  0  0  0  0  0
   18.4576   -5.7199   19.0150 C   0  0  1  0  0  0  0  0  0  0  0  0
   28.7738   -0.2413   15.5366 C   0  0  2  0  0  0  0  0  0  0  0  0
   28.0354   -0.3890   16.7904 N   0  0  0  0  0  0  0  0  0  0  0  0
   28.8244   -4.8385   18.2558 C   0  0  0  0  0  0  0  0  0  0  0  0
   23.6101   -2.4596   14.9592 C   0  0  2  0  0  0  0  0  0  0  0  0
   22.9911   -1.8487   16.1120 O   0  0  0  0  0  0  0  0  0  0  0  0
   20.7295   -3.7699   16.9469 C   0  0  2  0  0  0  0  0  0  0  0  0
   20.8850   -5.2440   17.0651 N   0  0  0  0  0  0  0  0  0  0  0  0
   18.2968   -7.1884   18.6393 C   0  0  1  0  0  0  0  0  0  0  0  0
   19.1302   -7.9912   19.4993 O   0  0  0  0  0  0  0  0  0  0  0  0
   27.7843    0.0894   14.3744 C   0  0  0  0  0  0  0  0  0  0  0  0
   29.3295   -4.0664   16.9711 C   0  0  2  0  0  0  0  0  0  0  0  0
   30.4830   -3.2207   17.2952 N   0  0  0  0  0  0  0  0  0  0  0  0
   22.6533   -3.1843   14.0573 C   0  0  2  0  0  0  0  0  0  0  0  0
   21.7524   -3.9542   14.8123 O   0  0  0  0  0  0  0  0  0  0  0  0
   19.4767   -3.1616   17.7185 C   0  0  1  0  0  0  0  0  0  0  0  0
   19.4159   -1.7542   17.4649 O   0  0  0  0  0  0  0  0  0  0  0  0
   16.8748   -7.7299   18.7230 C   0  0  1  0  0  0  0  0  0  0  0  0
   16.9535   -9.1516   18.5715 O   0  0  0  0  0  0  0  0  0  0  0  0
   28.5909    0.2184   13.0483 C   0  0  2  0  0  0  0  0  0  0  0  0
   27.7628    0.5947   11.9626 O   0  0  0  0  0  0  0  0  0  0  0  0
   28.1847   -3.2109   16.3690 C   0  0  2  0  0  0  0  0  0  0  0  0
   23.4964   -4.2315   13.3007 C   0  0  2  0  0  0  0  0  0  0  0  0
   24.5187   -4.5216   14.2408 O   0  0  0  0  0  0  0  0  0  0  0  0
   18.1150   -3.7580   17.1712 C   0  0  2  0  0  0  0  0  0  0  0  0
   18.1959   -5.1523   17.4708 O   0  0  0  0  0  0  0  0  0  0  0  0
   16.1653   -7.3987   20.0372 C   0  0  2  0  0  0  0  0  0  0  0  0
   14.7716   -7.6896   19.8431 O   0  0  0  0  0  0  0  0  0  0  0  0
   29.3065   -1.1287   12.7796 C   0  0  2  0  0  0  0  0  0  0  0  0
   30.2195   -1.3626   13.8899 O   0  0  0  0  0  0  0  0  0  0  0  0
   26.8717   -4.0087   16.0849 C   0  0  2  0  0  0  0  0  0  0  0  0
   25.8464   -3.0995   15.5963 O   0  0  0  0  0  0  0  0  0  0  0  0
   24.1314   -3.7748   11.9877 C   0  0  0  0  0  0  0  0  0  0  0  0
   24.6058   -4.9457   11.3067 O   0  0  0  0  0  0  0  0  0  0  0  0
   18.2023   -3.6598   15.6603 C   0  0  1  0  0  0  0  0  0  0  0  0
   19.3508   -3.7491   14.7899 O   0  0  0  0  0  0  0  0  0  0  0  0
   16.4516   -5.9689   20.4824 C   0  0  2  0  0  0  0  0  0  0  0  0
   17.7056   -5.3332   20.1907 O   0  0  0  0  0  0  0  0  0  0  0  0
   30.1526   -1.1065   11.5523 C   0  0  0  0  0  0  0  0  0  0  0  0
   30.7091   -2.3900   11.4004 O   0  0  0  0  0  0  0  0  0  0  0  0
   26.4178   -4.8053   17.3544 C   0  0  1  0  0  0  0  0  0  0  0  0
   25.3163   -5.6623   16.9528 O   0  0  0  0  0  0  0  0  0  0  0  0
   16.9326   -4.0895   14.8627 C   0  0  0  0  0  0  0  0  0  0  0  0
   17.0384   -3.8355   13.4105 N   0  0  0  0  0  0  0  0  0  0  0  0
   15.8835   -5.3664   21.7653 C   0  0  0  0  0  0  0  0  0  0  0  0
   14.4496   -5.5882   21.8245 O   0  0  0  0  0  0  0  0  0  0  0  0
  1  2  1  6  0  0  0
  1  8  1  0  0  0  0
  1 36  1  0  0  0  0
  3  4  1  1  0  0  0
  3 10  1  0  0  0  0
  3 47  1  0  0  0  0
  5 11  1  0  0  0  0
  5 30  1  0  0  0  0
  5 38  1  6  0  0  0
  6 21  1  6  0  0  0
  6 42  1  0  0  0  0
  7 15  1  0  0  0  0
  7 44  1  0  0  0  0
  7 32  1  6  0  0  0
  8  9  1  1  0  0  0
  8 17  1  0  0  0  0
 11 12  1  1  0  0  0
 11 20  1  0  0  0  0
 13  6  1  0  0  0  0
 13 14  1  6  0  0  0
 15 16  1  1  0  0  0
 15 24  1  0  0  0  0
 17 26  1  0  0  0  0
 18 10  1  0  0  0  0
 18 19  1  1  0  0  0
 20 21  1  1  0  0  0
 20 29  1  0  0  0  0
 22 13  1  0  0  0  0
 22 23  1  6  0  0  0
 24 25  1  1  0  0  0
 24 33  1  0  0  0  0
 26 27  1  6  0  0  0
 26 35  1  0  0  0  0
 28  2  1  6  0  0  0
 28 18  1  0  0  0  0
 29 30  1  0  0  0  0
 29 39  1  6  0  0  0
 31 22  1  0  0  0  0
 31 32  1  6  0  0  0
 31 41  1  0  0  0  0
 33 34  1  6  0  0  0
 33 43  1  0  0  0  0
 35 36  1  0  0  0  0
 35 45  1  6  0  0  0
 37 28  1  0  0  0  0
 37 38  1  1  0  0  0
 39 40  1  0  0  0  0
 41 42  1  0  0  0  0
 41 49  1  6  0  0  0
 43 44  1  0  0  0  0
 43 51  1  1  0  0  0
 45 46  1  0  0  0  0
 47 37  1  0  0  0  0
 47 48  1  6  0  0  0
 49 50  1  0  0  0  0
 51 52  1  0  0  0  0
M  END
>  <CHROM.1>
-74.20390073,174.91707245,-127.84034992,174.97539287,79.26824627,-77.53141186
-167.35157578,55.87649509,-178.23904089,-176.80215137,173.98128707,-50.31677758
23.08004360,-3.94133827,16.26229255,-0.46447575,0.09151259,2.10505913

>  <Name>
2esj_lig

>  <RI>
0

>  <Rbt.Current_Directory>
/home/itssahil/PROJECTS/Mol_Feturizer/New_Systems/rnas/2esj

>  <Rbt.Executable>
rbdock ($Id: //depot/dev/client3/rdock/2013.1/src/exe/rbdock.cxx#4 $)

>  <Rbt.Library>
libRbt.so (2013.1, Build901 2013/11/27)

>  <Rbt.Parameter_File>
/export/apps/rDock/src/rDock_2013.1_src/data/scripts/dock_solv.prm

>  <Rbt.Receptor>
prm/pocket_docking_4.prm

>  <SCORE>
-7.83221

>  <SCORE.INTER>
-3.71625

>  <SCORE.INTER.CONST>
1

>  <SCORE.INTER.POLAR>
0

>  <SCORE.INTER.ROT>
12

>  <SCORE.INTER.SOLV>
8.4423

>  <SCORE.INTER.VDW>
-16.8916

>  <SCORE.INTER.norm>
-0.0714663

>  <SCORE.INTRA>
-4.14179

>  <SCORE.INTRA.DIHEDRAL>
-15.9306

>  <SCORE.INTRA.DIHEDRAL.0>
32.9766

>  <SCORE.INTRA.POLAR>
0

>  <SCORE.INTRA.POLAR.0>
0

>  <SCORE.INTRA.REPUL>
0

>  <SCORE.INTRA.REPUL.0>
0

>  <SCORE.INTRA.SOLV>
0.363039

>  <SCORE.INTRA.SOLV.lig_0>
-114.358

>  <SCORE.INTRA.VDW>
3.64196

>  <SCORE.INTRA.VDW.0>
-8.24257

>  <SCORE.INTRA.norm>
-0.0796499

>  <SCORE.RESTR>
0.025834

>  <SCORE.RESTR.CAVITY>
0.025834

>  <SCORE.RESTR.norm>
0.000496808

>  <SCORE.SYSTEM>
0

>  <SCORE.SYSTEM.CONST>
0

>  <SCORE.SYSTEM.DIHEDRAL>
0

>  <SCORE.SYSTEM.SOLV>
0

>  <SCORE.SYSTEM.norm>
0

>  <SCORE.heavy>
52

>  <SCORE.norm>
-0.150619

>  <RMSD>
11.179

$$$$
2esj_lig
 OpenBabel11021811423D
libRbt.so/2013.1/901 2013/11/27
 52 56  0  0  0  0  0  0  0  0999 V2000
   30.9795   -3.6187   14.5223 C   0  0  2  0  0  0  0  0  0  0  0  0
   29.8425   -4.2441   13.8971 O   0  0  0  0  0  0  0  0  0  0  0  0
   27.6190   -0.7661   12.7799 C   0  0  2  0  0  0  0  0  0  0  0  0
   26.6066    0.1682   12.2608 N   0  0  0  0  0  0  0  0  0  0  0  0
   26.6545   -4.4420   15.2886 C   0  0  1  0  0  0  0  0  0  0  0  0
   24.3793   -7.9245   14.6829 C   0  0  1  0  0  0  0  0  0  0  0  0
   19.7555   -7.2941   12.5680 C   0  0  1  0  0  0  0  0  0  0  0  0
   32.1033   -4.6912   14.6311 C   0  0  2  0  0  0  0  0  0  0  0  0
   32.4443   -5.2691   13.3315 N   0  0  0  0  0  0  0  0  0  0  0  0
   28.1078   -1.7383   11.6338 C   0  0  0  0  0  0  0  0  0  0  0  0
   27.3275   -5.8138   15.3487 C   0  0  2  0  0  0  0  0  0  0  0  0
   27.9474   -6.1783   14.0964 O   0  0  0  0  0  0  0  0  0  0  0  0
   23.6510   -7.8924   13.2653 C   0  0  2  0  0  0  0  0  0  0  0  0
   23.2248   -6.5118   12.9145 N   0  0  0  0  0  0  0  0  0  0  0  0
   20.6926   -6.4866   11.6773 C   0  0  1  0  0  0  0  0  0  0  0  0
   20.4398   -6.8208   10.2979 O   0  0  0  0  0  0  0  0  0  0  0  0
   31.6972   -5.8250   15.6254 C   0  0  0  0  0  0  0  0  0  0  0  0
   29.2364   -2.6940   12.1947 C   0  0  2  0  0  0  0  0  0  0  0  0
   29.6985   -3.6169   11.1529 N   0  0  0  0  0  0  0  0  0  0  0  0
   26.1593   -6.6755   15.7321 C   0  0  2  0  0  0  0  0  0  0  0  0
   25.3284   -6.9007   14.6216 O   0  0  0  0  0  0  0  0  0  0  0  0
   22.4867   -8.9784   13.2574 C   0  0  1  0  0  0  0  0  0  0  0  0
   23.0256  -10.2374   13.6736 O   0  0  0  0  0  0  0  0  0  0  0  0
   20.5852   -4.9734   11.8221 C   0  0  1  0  0  0  0  0  0  0  0  0
   21.3496   -4.3911   10.7605 O   0  0  0  0  0  0  0  0  0  0  0  0
   31.3170   -5.1829   16.9924 C   0  0  2  0  0  0  0  0  0  0  0  0
   31.0112   -6.1633   17.9679 O   0  0  0  0  0  0  0  0  0  0  0  0
   28.7153   -3.4837   13.4234 C   0  0  2  0  0  0  0  0  0  0  0  0
   25.2939   -5.8177   16.6781 C   0  0  2  0  0  0  0  0  0  0  0  0
   25.5540   -4.5051   16.2064 O   0  0  0  0  0  0  0  0  0  0  0  0
   21.3573   -8.6232   14.3098 C   0  0  2  0  0  0  0  0  0  0  0  0
   20.8211   -7.3833   13.8455 O   0  0  0  0  0  0  0  0  0  0  0  0
   19.1497   -4.4484   11.7601 C   0  0  2  0  0  0  0  0  0  0  0  0
   19.1838   -3.0867   12.2176 O   0  0  0  0  0  0  0  0  0  0  0  0
   30.1287   -4.2161   16.7635 C   0  0  2  0  0  0  0  0  0  0  0  0
   30.5831   -3.1823   15.8438 O   0  0  0  0  0  0  0  0  0  0  0  0
   28.1056   -2.5870   14.5483 C   0  0  2  0  0  0  0  0  0  0  0  0
   27.5822   -3.4301   15.6121 O   0  0  0  0  0  0  0  0  0  0  0  0
   25.6299   -5.8960   18.1670 C   0  0  0  0  0  0  0  0  0  0  0  0
   26.9576   -5.3789   18.3383 O   0  0  0  0  0  0  0  0  0  0  0  0
   22.0864   -8.2949   15.5986 C   0  0  1  0  0  0  0  0  0  0  0  0
   23.3825   -7.6926   15.8034 O   0  0  0  0  0  0  0  0  0  0  0  0
   18.1918   -5.3466   12.5348 C   0  0  2  0  0  0  0  0  0  0  0  0
   18.4100   -6.7624   12.6321 O   0  0  0  0  0  0  0  0  0  0  0  0
   29.7074   -3.5039   18.0035 C   0  0  0  0  0  0  0  0  0  0  0  0
   30.7932   -2.7149   18.4264 O   0  0  0  0  0  0  0  0  0  0  0  0
   27.0274   -1.6141   13.9624 C   0  0  1  0  0  0  0  0  0  0  0  0
   26.6573   -0.6939   15.0233 O   0  0  0  0  0  0  0  0  0  0  0  0
   21.1951   -8.0058   16.8455 C   0  0  0  0  0  0  0  0  0  0  0  0
   21.9684   -7.5984   18.0374 N   0  0  0  0  0  0  0  0  0  0  0  0
   16.6929   -5.0735   12.6375 C   0  0  0  0  0  0  0  0  0  0  0  0
   16.1557   -5.6995   13.8326 O   0  0  0  0  0  0  0  0  0  0  0  0
  1  2  1  1  0  0  0
  1  8  1  0  0  0  0
  1 36  1  0  0  0  0
  3  4  1  6  0  0  0
  3 10  1  0  0  0  0
  3 47  1  0  0  0  0
  5 11  1  0  0  0  0
  5 30  1  0  0  0  0
  5 38  1  1  0  0  0
  6 21  1  6  0  0  0
  6 42  1  0  0  0  0
  7 15  1  0  0  0  0
  7 44  1  0  0  0  0
  7 32  1  1  0  0  0
  8  9  1  6  0  0  0
  8 17  1  0  0  0  0
 11 12  1  6  0  0  0
 11 20  1  0  0  0  0
 13  6  1  0  0  0  0
 13 14  1  1  0  0  0
 15 16  1  6  0  0  0
 15 24  1  0  0  0  0
 17 26  1  0  0  0  0
 18 10  1  0  0  0  0
 18 19  1  6  0  0  0
 20 21  1  6  0  0  0
 20 29  1  0  0  0  0
 22 13  1  0  0  0  0
 22 23  1  1  0  0  0
 24 25  1  6  0  0  0
 24 33  1  0  0  0  0
 26 27  1  1  0  0  0
 26 35  1  0  0  0  0
 28  2  1  1  0  0  0
 28 18  1  0  0  0  0
 29 30  1  0  0  0  0
 29 39  1  1  0  0  0
 31 22  1  0  0  0  0
 31 32  1  6  0  0  0
 31 41  1  0  0  0  0
 33 34  1  1  0  0  0
 33 43  1  0  0  0  0
 35 36  1  0  0  0  0
 35 45  1  1  0  0  0
 37 28  1  0  0  0  0
 37 38  1  1  0  0  0
 39 40  1  0  0  0  0
 41 42  1  0  0  0  0
 41 49  1  1  0  0  0
 43 44  1  0  0  0  0
 43 51  1  6  0  0  0
 45 46  1  0  0  0  0
 47 37  1  0  0  0  0
 47 48  1  1  0  0  0
 49 50  1  0  0  0  0
 51 52  1  0  0  0  0
M  END
>  <CHROM.1>
-168.54411837,105.76275707,-179.36542398,-116.42056750,164.72539603,69.64187502
63.58840278,77.76337424,62.59364957,-54.20023044,-175.81093528,-155.77070259
25.25936108,-5.19820761,14.40558768,0.03559729,-0.32489423,-0.72422030

>  <Name>
2esj_lig

>  <RI>
1.62275e+07

>  <Rbt.Current_Directory>
/home/itssahil/PROJECTS/Mol_Feturizer/New_Systems/rnas/2esj

>  <Rbt.Executable>
rbdock ($Id: //depot/dev/client3/rdock/2013.1/src/exe/rbdock.cxx#4 $)

>  <Rbt.Library>
libRbt.so (2013.1, Build901 2013/11/27)

>  <Rbt.Parameter_File>
/export/apps/rDock/src/rDock_2013.1_src/data/scripts/dock_solv.prm

>  <Rbt.Receptor>
prm/pocket_docking_5.prm

>  <SCORE>
-12.3532

>  <SCORE.INTER>
-9.5322

>  <SCORE.INTER.CONST>
1

>  <SCORE.INTER.POLAR>
-1.78924

>  <SCORE.INTER.ROT>
12

>  <SCORE.INTER.SOLV>
8.96192

>  <SCORE.INTER.VDW>
-14.978

>  <SCORE.INTER.norm>
-0.183312

>  <SCORE.INTRA>
-2.82105

>  <SCORE.INTRA.DIHEDRAL>
-10.3121

>  <SCORE.INTRA.DIHEDRAL.0>
32.9766

>  <SCORE.INTRA.POLAR>
0

>  <SCORE.INTRA.POLAR.0>
0

>  <SCORE.INTRA.REPUL>
0

>  <SCORE.INTRA.REPUL.0>
0

>  <SCORE.INTRA.SOLV>
1.63924

>  <SCORE.INTRA.SOLV.lig_0>
-114.358

>  <SCORE.INTRA.VDW>
1.51536

>  <SCORE.INTRA.VDW.0>
-8.24257

>  <SCORE.INTRA.norm>
-0.0542509

>  <SCORE.RESTR>
0

>  <SCORE.RESTR.CAVITY>
0

>  <SCORE.RESTR.norm>
0

>  <SCORE.SYSTEM>
0

>  <SCORE.SYSTEM.CONST>
0

>  <SCORE.SYSTEM.DIHEDRAL>
0

>  <SCORE.SYSTEM.SOLV>
0

>  <SCORE.SYSTEM.norm>
0

>  <SCORE.heavy>
52

>  <SCORE.norm>
-0.237562

>  <RMSD>
11.190

$$$$
2esj_lig
 OpenBabel11021811423D
libRbt.so/2013.1/901 2013/11/27
 52 56  0  0  0  0  0  0  0  0999 V2000
   31.5032   -3.3177   18.2238 C   0  0  2  0  0  0  0  0  0  0  0  0
   30.4875   -4.1940   17.6990 O   0  0  0  0  0  0  0  0  0  0  0  0
   28.3731   -7.5457   19.3063 C   0  0  2  0  0  0  0  0  0  0  0  0
   27.5407   -8.4417   20.1258 N   0  0  0  0  0  0  0  0  0  0  0  0
   26.6518   -4.6758   16.1618 C   0  0  1  0  0  0  0  0  0  0  0  0
   23.7988   -4.6593   13.0313 C   0  0  1  0  0  0  0  0  0  0  0  0
   18.9320   -5.8133   13.3796 C   0  0  1  0  0  0  0  0  0  0  0  0
   31.5931   -2.0846   17.2771 C   0  0  2  0  0  0  0  0  0  0  0  0
   30.3068   -1.4039   17.1313 N   0  0  0  0  0  0  0  0  0  0  0  0
   29.5009   -6.8815   20.1919 C   0  0  0  0  0  0  0  0  0  0  0  0
   25.9322   -3.3970   15.7310 C   0  0  2  0  0  0  0  0  0  0  0  0
   24.7651   -3.1241   16.5365 O   0  0  0  0  0  0  0  0  0  0  0  0
   22.7620   -3.4543   13.1507 C   0  0  2  0  0  0  0  0  0  0  0  0
   22.0638   -3.4780   14.4633 N   0  0  0  0  0  0  0  0  0  0  0  0
   18.3071   -4.9878   14.4984 C   0  0  1  0  0  0  0  0  0  0  0  0
   16.8960   -5.2749   14.5672 O   0  0  0  0  0  0  0  0  0  0  0  0
   32.1358   -2.4989   15.8724 C   0  0  0  0  0  0  0  0  0  0  0  0
   30.4202   -5.9697   19.2835 C   0  0  2  0  0  0  0  0  0  0  0  0
   31.4686   -5.3297   20.0849 N   0  0  0  0  0  0  0  0  0  0  0  0
   25.6291   -3.7229   14.2972 C   0  0  2  0  0  0  0  0  0  0  0  0
   24.5429   -4.6103   14.2131 O   0  0  0  0  0  0  0  0  0  0  0  0
   21.8042   -3.4685   11.8789 C   0  0  1  0  0  0  0  0  0  0  0  0
   22.6077   -3.5088   10.6950 O   0  0  0  0  0  0  0  0  0  0  0  0
   18.9012   -5.2132   15.8835 C   0  0  1  0  0  0  0  0  0  0  0  0
   18.0490   -4.5488   16.8229 O   0  0  0  0  0  0  0  0  0  0  0  0
   33.4926   -3.2412   16.0562 C   0  0  2  0  0  0  0  0  0  0  0  0
   34.0809   -3.5788   14.8128 O   0  0  0  0  0  0  0  0  0  0  0  0
   29.5682   -4.8986   18.5543 C   0  0  2  0  0  0  0  0  0  0  0  0
   26.8277   -4.5507   13.7894 C   0  0  2  0  0  0  0  0  0  0  0  0
   27.2580   -5.2032   14.9736 O   0  0  0  0  0  0  0  0  0  0  0  0
   20.9130   -4.7775   11.8404 C   0  0  2  0  0  0  0  0  0  0  0  0
   20.1036   -4.6867   13.0139 O   0  0  0  0  0  0  0  0  0  0  0  0
   19.0267   -6.6885   16.2680 C   0  0  2  0  0  0  0  0  0  0  0  0
   19.8709   -6.7462   17.4293 O   0  0  0  0  0  0  0  0  0  0  0  0
   33.2475   -4.4960   16.9306 C   0  0  2  0  0  0  0  0  0  0  0  0
   32.7603   -4.0343   18.2230 O   0  0  0  0  0  0  0  0  0  0  0  0
   28.3590   -5.4797   17.7536 C   0  0  2  0  0  0  0  0  0  0  0  0
   27.5891   -4.3889   17.1758 O   0  0  0  0  0  0  0  0  0  0  0  0
   27.9944   -3.7644   13.1927 C   0  0  0  0  0  0  0  0  0  0  0  0
   28.4493   -2.8405   14.1922 O   0  0  0  0  0  0  0  0  0  0  0  0
   21.8664   -5.9301   12.0909 C   0  0  1  0  0  0  0  0  0  0  0  0
   23.0693   -5.9823   12.8878 O   0  0  0  0  0  0  0  0  0  0  0  0
   19.5142   -7.5325   15.0956 C   0  0  2  0  0  0  0  0  0  0  0  0
   19.1781   -7.1938   13.7413 O   0  0  0  0  0  0  0  0  0  0  0  0
   34.4937   -5.2636   17.2138 C   0  0  0  0  0  0  0  0  0  0  0  0
   34.9210   -5.8365   16.0016 O   0  0  0  0  0  0  0  0  0  0  0  0
   27.4915   -6.4189   18.6579 C   0  0  1  0  0  0  0  0  0  0  0  0
   26.5155   -7.0630   17.7966 O   0  0  0  0  0  0  0  0  0  0  0  0
   21.2594   -7.3642   12.0026 C   0  0  0  0  0  0  0  0  0  0  0  0
   21.5310   -8.0377   10.7152 N   0  0  0  0  0  0  0  0  0  0  0  0
   19.7223   -9.0425   15.1859 C   0  0  0  0  0  0  0  0  0  0  0  0
   18.4444   -9.7093   15.3630 O   0  0  0  0  0  0  0  0  0  0  0  0
  1  2  1  6  0  0  0
  1  8  1  0  0  0  0
  1 36  1  0  0  0  0
  3  4  1  1  0  0  0
  3 10  1  0  0  0  0
  3 47  1  0  0  0  0
  5 11  1  0  0  0  0
  5 30  1  0  0  0  0
  5 38  1  1  0  0  0
  6 21  1  1  0  0  0
  6 42  1  0  0  0  0
  7 15  1  0  0  0  0
  7 44  1  0  0  0  0
  7 32  1  1  0  0  0
  8  9  1  6  0  0  0
  8 17  1  0  0  0  0
 11 12  1  1  0  0  0
 11 20  1  0  0  0  0
 13  6  1  0  0  0  0
 13 14  1  1  0  0  0
 15 16  1  1  0  0  0
 15 24  1  0  0  0  0
 17 26  1  0  0  0  0
 18 10  1  0  0  0  0
 18 19  1  1  0  0  0
 20 21  1  1  0  0  0
 20 29  1  0  0  0  0
 22 13  1  0  0  0  0
 22 23  1  6  0  0  0
 24 25  1  1  0  0  0
 24 33  1  0  0  0  0
 26 27  1  6  0  0  0
 26 35  1  0  0  0  0
 28  2  1  6  0  0  0
 28 18  1  0  0  0  0
 29 30  1  0  0  0  0
 29 39  1  1  0  0  0
 31 22  1  0  0  0  0
 31 32  1  1  0  0  0
 31 41  1  0  0  0  0
 33 34  1  1  0  0  0
 33 43  1  0  0  0  0
 35 36  1  0  0  0  0
 35 45  1  1  0  0  0
 37 28  1  0  0  0  0
 37 38  1  1  0  0  0
 39 40  1  0  0  0  0
 41 42  1  0  0  0  0
 41 49  1  1  0  0  0
 43 44  1  0  0  0  0
 43 51  1  1  0  0  0
 45 46  1  0  0  0  0
 47 37  1  0  0  0  0
 47 48  1  6  0  0  0
 49 50  1  0  0  0  0
 51 52  1  0  0  0  0
M  END
>  <CHROM.1>
-140.74995636,178.35277911,-82.97964273,-168.69938241,156.79304776,-69.93225423
57.18001818,176.92855460,-68.47380459,165.05586524,99.90844337,67.04669083
25.60029822,-5.13048284,15.59202566,0.16479835,0.24987975,2.08924869

>  <Name>
2esj_lig

>  <RI>
0

>  <Rbt.Current_Directory>
/home/itssahil/PROJECTS/Mol_Feturizer/New_Systems/rnas/2esj

>  <Rbt.Executable>
rbdock ($Id: //depot/dev/client3/rdock/2013.1/src/exe/rbdock.cxx#4 $)

>  <Rbt.Library>
libRbt.so (2013.1, Build901 2013/11/27)

>  <Rbt.Parameter_File>
/export/apps/rDock/src/rDock_2013.1_src/data/scripts/dock_solv.prm

>  <Rbt.Receptor>
prm/pocket_docking_8.prm

>  <SCORE>
-7.79497

>  <SCORE.INTER>
-4.00724

>  <SCORE.INTER.CONST>
1

>  <SCORE.INTER.POLAR>
-1.57138

>  <SCORE.INTER.ROT>
12

>  <SCORE.INTER.SOLV>
13.9105

>  <SCORE.INTER.VDW>
-13.6704

>  <SCORE.INTER.norm>
-0.0770623

>  <SCORE.INTRA>
-3.78773

>  <SCORE.INTRA.DIHEDRAL>
-15.4316

>  <SCORE.INTRA.DIHEDRAL.0>
32.9766

>  <SCORE.INTRA.POLAR>
0

>  <SCORE.INTRA.POLAR.0>
0

>  <SCORE.INTRA.REPUL>
0.0047223

>  <SCORE.INTRA.REPUL.0>
0

>  <SCORE.INTRA.SOLV>
0.582729

>  <SCORE.INTRA.SOLV.lig_0>
-114.358

>  <SCORE.INTRA.VDW>
3.61311

>  <SCORE.INTRA.VDW.0>
-8.24257

>  <SCORE.INTRA.norm>
-0.072841

>  <SCORE.RESTR>
0

>  <SCORE.RESTR.CAVITY>
0

>  <SCORE.RESTR.norm>
0

>  <SCORE.SYSTEM>
0

>  <SCORE.SYSTEM.CONST>
0

>  <SCORE.SYSTEM.DIHEDRAL>
0

>  <SCORE.SYSTEM.SOLV>
0

>  <SCORE.SYSTEM.norm>
0

>  <SCORE.heavy>
52

>  <SCORE.norm>
-0.149903

>  <RMSD>
11.190

$$$$
2esj_lig
 OpenBabel11021811423D
libRbt.so/2013.1/901 2013/11/27
 52 56  0  0  0  0  0  0  0  0999 V2000
   10.6479    1.3955   10.8415 C   0  0  2  0  0  0  0  0  0  0  0  0
   11.6434    0.6823   10.0830 O   0  0  0  0  0  0  0  0  0  0  0  0
    9.0837   -1.4500    7.4017 C   0  0  2  0  0  0  0  0  0  0  0  0
    8.5373   -2.2743    6.3112 N   0  0  0  0  0  0  0  0  0  0  0  0
   12.7682   -2.2306   10.2186 C   0  0  1  0  0  0  0  0  0  0  0  0
   16.3960   -0.7851   10.7302 C   0  0  1  0  0  0  0  0  0  0  0  0
   20.6041    0.1454    8.0997 C   0  0  1  0  0  0  0  0  0  0  0  0
   11.3906    2.2045   11.9455 C   0  0  2  0  0  0  0  0  0  0  0  0
   12.4000    3.1041   11.3878 N   0  0  0  0  0  0  0  0  0  0  0  0
    9.9691   -0.2800    6.8148 C   0  0  0  0  0  0  0  0  0  0  0  0
   13.5027   -1.7465   11.4695 C   0  0  2  0  0  0  0  0  0  0  0  0
   13.6461   -0.3100   11.5025 O   0  0  0  0  0  0  0  0  0  0  0  0
   16.3018    0.2137    9.4913 C   0  0  2  0  0  0  0  0  0  0  0  0
   16.5778   -0.4932    8.2126 N   0  0  0  0  0  0  0  0  0  0  0  0
   20.1671   -0.5847    6.8350 C   0  0  1  0  0  0  0  0  0  0  0  0
   21.2012   -0.4648    5.8376 O   0  0  0  0  0  0  0  0  0  0  0  0
   12.0512    1.2478   12.9883 C   0  0  0  0  0  0  0  0  0  0  0  0
   10.4982    0.6286    7.9964 C   0  0  2  0  0  0  0  0  0  0  0  0
   11.3352    1.7160    7.4789 N   0  0  0  0  0  0  0  0  0  0  0  0
   14.7985   -2.4924   11.3322 C   0  0  2  0  0  0  0  0  0  0  0  0
   15.6158   -1.8850   10.3639 O   0  0  0  0  0  0  0  0  0  0  0  0
   17.2276    1.4777    9.7747 C   0  0  1  0  0  0  0  0  0  0  0  0
   16.8961    2.0153   11.0591 O   0  0  0  0  0  0  0  0  0  0  0  0
   19.8547   -2.0656    7.0131 C   0  0  1  0  0  0  0  0  0  0  0  0
   19.6988   -2.6258    5.7047 O   0  0  0  0  0  0  0  0  0  0  0  0
   10.9621    0.2862   13.5494 C   0  0  2  0  0  0  0  0  0  0  0  0
   11.4780   -0.5611   14.5605 O   0  0  0  0  0  0  0  0  0  0  0  0
   11.2920   -0.2236    9.0205 C   0  0  2  0  0  0  0  0  0  0  0  0
   14.4365   -3.8577   10.7121 C   0  0  2  0  0  0  0  0  0  0  0  0
   13.2930   -3.5353    9.9366 O   0  0  0  0  0  0  0  0  0  0  0  0
   18.7555    1.0681    9.8595 C   0  0  2  0  0  0  0  0  0  0  0  0
   19.0591    0.5697    8.5557 O   0  0  0  0  0  0  0  0  0  0  0  0
   20.9375   -2.8375    7.7693 C   0  0  2  0  0  0  0  0  0  0  0  0
   20.3706   -4.1087    8.1264 O   0  0  0  0  0  0  0  0  0  0  0  0
   10.3742   -0.5266   12.3692 C   0  0  2  0  0  0  0  0  0  0  0  0
    9.7645    0.4244   11.4502 O   0  0  0  0  0  0  0  0  0  0  0  0
   10.5157   -1.4704    9.5531 C   0  0  2  0  0  0  0  0  0  0  0  0
   11.3758   -2.2351   10.4430 O   0  0  0  0  0  0  0  0  0  0  0  0
   14.0850   -4.9782   11.6902 C   0  0  0  0  0  0  0  0  0  0  0  0
   13.2325   -4.4188   12.7002 O   0  0  0  0  0  0  0  0  0  0  0  0
   18.8066   -0.1370   10.7789 C   0  0  1  0  0  0  0  0  0  0  0  0
   17.8369   -1.1862   10.9874 O   0  0  0  0  0  0  0  0  0  0  0  0
   21.4743   -2.0362    8.9500 C   0  0  2  0  0  0  0  0  0  0  0  0
   21.5434   -0.6025    8.9094 O   0  0  0  0  0  0  0  0  0  0  0  0
    9.2818   -1.4524   12.7839 C   0  0  0  0  0  0  0  0  0  0  0  0
    9.8136   -2.3266   13.7500 O   0  0  0  0  0  0  0  0  0  0  0  0
    9.9578   -2.3279    8.3675 C   0  0  1  0  0  0  0  0  0  0  0  0
    9.0947   -3.3450    8.9418 O   0  0  0  0  0  0  0  0  0  0  0  0
   20.2248   -0.6879   11.1222 C   0  0  0  0  0  0  0  0  0  0  0  0
   20.6280   -0.4379   12.5221 N   0  0  0  0  0  0  0  0  0  0  0  0
   22.5708   -2.5536    9.8783 C   0  0  0  0  0  0  0  0  0  0  0  0
   23.0201   -1.4882   10.7568 O   0  0  0  0  0  0  0  0  0  0  0  0
  1  2  1  6  0  0  0
  1  8  1  0  0  0  0
  1 36  1  0  0  0  0
  3  4  1  6  0  0  0
  3 10  1  0  0  0  0
  3 47  1  0  0  0  0
  5 11  1  0  0  0  0
  5 30  1  0  0  0  0
  5 38  1  1  0  0  0
  6 21  1  6  0  0  0
  6 42  1  0  0  0  0
  7 15  1  0  0  0  0
  7 44  1  0  0  0  0
  7 32  1  1  0  0  0
  8  9  1  6  0  0  0
  8 17  1  0  0  0  0
 11 12  1  6  0  0  0
 11 20  1  0  0  0  0
 13  6  1  0  0  0  0
 13 14  1  6  0  0  0
 15 16  1  6  0  0  0
 15 24  1  0  0  0  0
 17 26  1  0  0  0  0
 18 10  1  0  0  0  0
 18 19  1  6  0  0  0
 20 21  1  6  0  0  0
 20 29  1  0  0  0  0
 22 13  1  0  0  0  0
 22 23  1  1  0  0  0
 24 25  1  6  0  0  0
 24 33  1  0  0  0  0
 26 27  1  1  0  0  0
 26 35  1  0  0  0  0
 28  2  1  1  0  0  0
 28 18  1  0  0  0  0
 29 30  1  0  0  0  0
 29 39  1  1  0  0  0
 31 22  1  0  0  0  0
 31 32  1  6  0  0  0
 31 41  1  0  0  0  0
 33 34  1  1  0  0  0
 33 43  1  0  0  0  0
 35 36  1  0  0  0  0
 35 45  1  1  0  0  0
 37 28  1  0  0  0  0
 37 38  1  6  0  0  0
 39 40  1  0  0  0  0
 41 42  1  0  0  0  0
 41 49  1  6  0  0  0
 43 44  1  0  0  0  0
 43 51  1  6  0  0  0
 45 46  1  0  0  0  0
 47 37  1  0  0  0  0
 47 48  1  1  0  0  0
 49 50  1  0  0  0  0
 51 52  1  0  0  0  0
M  END
>  <CHROM.1>
176.73973105,123.29534222,-139.99532535,166.72239301,82.79394252,59.06293782
43.15483016,173.95794764,-58.53733279,-30.62485263,109.35043404,170.46433787
14.97197185,-0.98674895,9.99783754,-2.96720087,-0.00363190,-1.80239993

>  <Name>
2esj_lig

>  <RI>
0

>  <Rbt.Current_Directory>
/home/itssahil/PROJECTS/Mol_Feturizer/New_Systems/rnas/2esj

>  <Rbt.Executable>
rbdock ($Id: //depot/dev/client3/rdock/2013.1/src/exe/rbdock.cxx#4 $)

>  <Rbt.Library>
libRbt.so (2013.1, Build901 2013/11/27)

>  <Rbt.Parameter_File>
/export/apps/rDock/src/rDock_2013.1_src/data/scripts/dock_solv.prm

>  <Rbt.Receptor>
prm/blind_docking_40.prm

>  <SCORE>
26.8494

>  <SCORE.INTER>
6.01741

>  <SCORE.INTER.CONST>
1

>  <SCORE.INTER.POLAR>
-1.35902

>  <SCORE.INTER.ROT>
12

>  <SCORE.INTER.SOLV>
29.0243

>  <SCORE.INTER.VDW>
-12.7331

>  <SCORE.INTER.norm>
0.115719

>  <SCORE.INTRA>
4.63196

>  <SCORE.INTRA.DIHEDRAL>
-7.53674

>  <SCORE.INTRA.DIHEDRAL.0>
32.9766

>  <SCORE.INTRA.POLAR>
0

>  <SCORE.INTRA.POLAR.0>
0

>  <SCORE.INTRA.REPUL>
0

>  <SCORE.INTRA.REPUL.0>
0

>  <SCORE.INTRA.SOLV>
1.71928

>  <SCORE.INTRA.SOLV.lig_0>
-114.358

>  <SCORE.INTRA.VDW>
7.54069

>  <SCORE.INTRA.VDW.0>
-8.24257

>  <SCORE.INTRA.norm>
0.0890762

>  <SCORE.RESTR>
16.2

>  <SCORE.RESTR.CAVITY>
16.2

>  <SCORE.RESTR.norm>
0.311539

>  <SCORE.SYSTEM>
0

>  <SCORE.SYSTEM.CONST>
0

>  <SCORE.SYSTEM.DIHEDRAL>
0

>  <SCORE.SYSTEM.SOLV>
0

>  <SCORE.SYSTEM.norm>
0

>  <SCORE.heavy>
52

>  <SCORE.norm>
0.516335

>  <RMSD>
11.200

$$$$
2esj_lig
 OpenBabel11021811423D
libRbt.so/2013.1/901 2013/11/27
 52 56  0  0  0  0  0  0  0  0999 V2000
   26.2892   -0.6151   13.6856 C   0  0  2  0  0  0  0  0  0  0  0  0
   27.5132   -0.4164   12.9527 O   0  0  0  0  0  0  0  0  0  0  0  0
   30.6820   -3.1445   12.0560 C   0  0  2  0  0  0  0  0  0  0  0  0
   31.9024   -3.9671   12.0906 N   0  0  0  0  0  0  0  0  0  0  0  0
   26.8260   -4.3501   14.2022 C   0  0  1  0  0  0  0  0  0  0  0  0
   24.8011   -7.7844   15.5724 C   0  0  1  0  0  0  0  0  0  0  0  0
   19.6638   -8.0355   16.0333 C   0  0  1  0  0  0  0  0  0  0  0  0
   25.2096    0.3134   13.0553 C   0  0  2  0  0  0  0  0  0  0  0  0
   25.0351    0.0671   11.6242 N   0  0  0  0  0  0  0  0  0  0  0  0
   31.0437   -1.6175   12.2430 C   0  0  0  0  0  0  0  0  0  0  0  0
   25.9890   -4.5386   15.4681 C   0  0  2  0  0  0  0  0  0  0  0  0
   26.7592   -5.0841   16.5611 O   0  0  0  0  0  0  0  0  0  0  0  0
   23.5102   -8.1932   14.7312 C   0  0  2  0  0  0  0  0  0  0  0  0
   22.7200   -6.9934   14.3477 N   0  0  0  0  0  0  0  0  0  0  0  0
   19.3838   -6.6229   15.5337 C   0  0  1  0  0  0  0  0  0  0  0  0
   18.4483   -6.6846   14.4385 O   0  0  0  0  0  0  0  0  0  0  0  0
   25.5581    1.8166   13.2959 C   0  0  0  0  0  0  0  0  0  0  0  0
   29.7281   -0.7450   12.1438 C   0  0  2  0  0  0  0  0  0  0  0  0
   30.0348    0.6773   12.3278 N   0  0  0  0  0  0  0  0  0  0  0  0
   24.9158   -5.4535   14.9532 C   0  0  2  0  0  0  0  0  0  0  0  0
   25.4043   -6.7653   14.8306 O   0  0  0  0  0  0  0  0  0  0  0  0
   22.7000   -9.3038   15.5344 C   0  0  1  0  0  0  0  0  0  0  0  0
   23.5952  -10.3622   15.8910 O   0  0  0  0  0  0  0  0  0  0  0  0
   18.8248   -5.6624   16.5765 C   0  0  1  0  0  0  0  0  0  0  0  0
   18.4076   -4.4810   15.8834 O   0  0  0  0  0  0  0  0  0  0  0  0
   25.7616    2.0478   14.8226 C   0  0  2  0  0  0  0  0  0  0  0  0
   26.0056    3.4107   15.1210 O   0  0  0  0  0  0  0  0  0  0  0  0
   28.6877   -1.2135   13.1940 C   0  0  2  0  0  0  0  0  0  0  0  0
   24.6501   -5.0164   13.4979 C   0  0  2  0  0  0  0  0  0  0  0  0
   25.9182   -4.5165   13.1042 O   0  0  0  0  0  0  0  0  0  0  0  0
   22.1384   -8.7344   16.9017 C   0  0  2  0  0  0  0  0  0  0  0  0
   21.2268   -7.7077   16.5075 O   0  0  0  0  0  0  0  0  0  0  0  0
   17.6446   -6.2296   17.3673 C   0  0  2  0  0  0  0  0  0  0  0  0
   17.4403   -5.3597   18.4925 O   0  0  0  0  0  0  0  0  0  0  0  0
   26.9228    1.1420   15.3025 C   0  0  2  0  0  0  0  0  0  0  0  0
   26.5228   -0.2376   15.0629 O   0  0  0  0  0  0  0  0  0  0  0  0
   28.3721   -2.7429   13.1434 C   0  0  2  0  0  0  0  0  0  0  0  0
   27.4479   -3.0843   14.2138 O   0  0  0  0  0  0  0  0  0  0  0  0
   23.5933   -3.9312   13.2949 C   0  0  0  0  0  0  0  0  0  0  0  0
   24.0280   -2.7653   14.0100 O   0  0  0  0  0  0  0  0  0  0  0  0
   23.3030   -8.0163   17.5561 C   0  0  1  0  0  0  0  0  0  0  0  0
   24.4089   -7.3062   16.9583 O   0  0  0  0  0  0  0  0  0  0  0  0
   17.8703   -7.6913   17.7375 C   0  0  2  0  0  0  0  0  0  0  0  0
   18.6220   -8.5696   16.8857 O   0  0  0  0  0  0  0  0  0  0  0  0
   27.1774    1.2453   16.7678 C   0  0  0  0  0  0  0  0  0  0  0  0
   27.6262    2.5536   17.0268 O   0  0  0  0  0  0  0  0  0  0  0  0
   29.6909   -3.5859   13.1918 C   0  0  1  0  0  0  0  0  0  0  0  0
   29.3254   -4.9698   12.9453 O   0  0  0  0  0  0  0  0  0  0  0  0
   23.0499   -7.4419   18.9840 C   0  0  0  0  0  0  0  0  0  0  0  0
   23.1010   -8.4680   20.0465 N   0  0  0  0  0  0  0  0  0  0  0  0
   16.8531   -8.5192   18.5196 C   0  0  0  0  0  0  0  0  0  0  0  0
   16.2072   -7.6919   19.5231 O   0  0  0  0  0  0  0  0  0  0  0  0
  1  2  1  6  0  0  0
  1  8  1  0  0  0  0
  1 36  1  0  0  0  0
  3  4  1  1  0  0  0
  3 10  1  0  0  0  0
  3 47  1  0  0  0  0
  5 11  1  0  0  0  0
  5 30  1  0  0  0  0
  5 38  1  1  0  0  0
  6 21  1  6  0  0  0
  6 42  1  0  0  0  0
  7 15  1  0  0  0  0
  7 44  1  0  0  0  0
  7 32  1  1  0  0  0
  8  9  1  6  0  0  0
  8 17  1  0  0  0  0
 11 12  1  1  0  0  0
 11 20  1  0  0  0  0
 13  6  1  0  0  0  0
 13 14  1  1  0  0  0
 15 16  1  6  0  0  0
 15 24  1  0  0  0  0
 17 26  1  0  0  0  0
 18 10  1  0  0  0  0
 18 19  1  1  0  0  0
 20 21  1  6  0  0  0
 20 29  1  0  0  0  0
 22 13  1  0  0  0  0
 22 23  1  1  0  0  0
 24 25  1  6  0  0  0
 24 33  1  0  0  0  0
 26 27  1  6  0  0  0
 26 35  1  0  0  0  0
 28  2  1  6  0  0  0
 28 18  1  0  0  0  0
 29 30  1  0  0  0  0
 29 39  1  1  0  0  0
 31 22  1  0  0  0  0
 31 32  1  6  0  0  0
 31 41  1  0  0  0  0
 33 34  1  1  0  0  0
 33 43  1  0  0  0  0
 35 36  1  0  0  0  0
 35 45  1  1  0  0  0
 37 28  1  0  0  0  0
 37 38  1  1  0  0  0
 39 40  1  0  0  0  0
 41 42  1  0  0  0  0
 41 49  1  1  0  0  0
 43 44  1  0  0  0  0
 43 51  1  6  0  0  0
 45 46  1  0  0  0  0
 47 37  1  0  0  0  0
 47 48  1  6  0  0  0
 49 50  1  0  0  0  0
 51 52  1  0  0  0  0
M  END
>  <CHROM.1>
-174.11173767,175.49377383,81.81887248,-170.21898078,119.32629650,176.28311117
60.03675338,81.86513654,-65.41718584,167.82744005,78.17466424,-36.83442815
24.35356842,-4.25728804,15.14901067,0.65987233,0.35900888,-0.05407611

>  <Name>
2esj_lig

>  <RI>
1.62275e+07

>  <Rbt.Current_Directory>
/home/itssahil/PROJECTS/Mol_Feturizer/New_Systems/rnas/2esj

>  <Rbt.Executable>
rbdock ($Id: //depot/dev/client3/rdock/2013.1/src/exe/rbdock.cxx#4 $)

>  <Rbt.Library>
libRbt.so (2013.1, Build901 2013/11/27)

>  <Rbt.Parameter_File>
/export/apps/rDock/src/rDock_2013.1_src/data/scripts/dock_solv.prm

>  <Rbt.Receptor>
prm/pocket_docking_5.prm

>  <SCORE>
-9.19772

>  <SCORE.INTER>
-4.12704

>  <SCORE.INTER.CONST>
1

>  <SCORE.INTER.POLAR>
-0.796922

>  <SCORE.INTER.ROT>
12

>  <SCORE.INTER.SOLV>
6.81302

>  <SCORE.INTER.VDW>
-13.966

>  <SCORE.INTER.norm>
-0.0793661

>  <SCORE.INTRA>
-5.07165

>  <SCORE.INTRA.DIHEDRAL>
-14.7625

>  <SCORE.INTRA.DIHEDRAL.0>
32.9766

>  <SCORE.INTRA.POLAR>
0

>  <SCORE.INTRA.POLAR.0>
0

>  <SCORE.INTRA.REPUL>
0

>  <SCORE.INTRA.REPUL.0>
0

>  <SCORE.INTRA.SOLV>
-0.609395

>  <SCORE.INTRA.SOLV.lig_0>
-114.358

>  <SCORE.INTRA.VDW>
2.61428

>  <SCORE.INTRA.VDW.0>
-8.24257

>  <SCORE.INTRA.norm>
-0.0975317

>  <SCORE.RESTR>
0.000965699

>  <SCORE.RESTR.CAVITY>
0.000965699

>  <SCORE.RESTR.norm>
1.85711e-05

>  <SCORE.SYSTEM>
0

>  <SCORE.SYSTEM.CONST>
0

>  <SCORE.SYSTEM.DIHEDRAL>
0

>  <SCORE.SYSTEM.SOLV>
0

>  <SCORE.SYSTEM.norm>
0

>  <SCORE.heavy>
52

>  <SCORE.norm>
-0.176879

>  <RMSD>
11.205

$$$$
2esj_lig
 OpenBabel11021811423D
libRbt.so/2013.1/901 2013/11/27
 52 56  0  0  0  0  0  0  0  0999 V2000
   29.8563    1.3112   16.9794 C   0  0  2  0  0  0  0  0  0  0  0  0
   29.5412   -0.0845   16.8131 O   0  0  0  0  0  0  0  0  0  0  0  0
   26.9960    0.1654   13.3857 C   0  0  2  0  0  0  0  0  0  0  0  0
   26.1219   -0.1322   12.2391 N   0  0  0  0  0  0  0  0  0  0  0  0
   26.2955   -1.7206   17.3857 C   0  0  1  0  0  0  0  0  0  0  0  0
   25.5570   -5.6298   18.3714 C   0  0  1  0  0  0  0  0  0  0  0  0
   24.1848   -9.4376   15.3023 C   0  0  1  0  0  0  0  0  0  0  0  0
   31.0237    1.4091   18.0053 C   0  0  2  0  0  0  0  0  0  0  0  0
   32.1912    0.6316   17.5909 N   0  0  0  0  0  0  0  0  0  0  0  0
   28.3741   -0.5937   13.2370 C   0  0  0  0  0  0  0  0  0  0  0  0
   27.4750   -2.4859   17.9872 C   0  0  2  0  0  0  0  0  0  0  0  0
   28.3837   -2.9783   16.9786 O   0  0  0  0  0  0  0  0  0  0  0  0
   26.1295   -6.9099   17.6133 C   0  0  2  0  0  0  0  0  0  0  0  0
   26.1763   -6.6846   16.1443 N   0  0  0  0  0  0  0  0  0  0  0  0
   24.1074   -8.7246   13.9572 C   0  0  1  0  0  0  0  0  0  0  0  0
   25.0169   -9.3557   13.0337 O   0  0  0  0  0  0  0  0  0  0  0  0
   30.5586    0.9516   19.4243 C   0  0  0  0  0  0  0  0  0  0  0  0
   29.3209   -0.2156   14.4462 C   0  0  2  0  0  0  0  0  0  0  0  0
   30.6036   -0.9185   14.3392 N   0  0  0  0  0  0  0  0  0  0  0  0
   26.7478   -3.5621   18.7402 C   0  0  2  0  0  0  0  0  0  0  0  0
   26.2857   -4.5535   17.8582 O   0  0  0  0  0  0  0  0  0  0  0  0
   25.3060   -8.1933   18.0712 C   0  0  1  0  0  0  0  0  0  0  0  0
   25.2916   -8.2477   19.5014 O   0  0  0  0  0  0  0  0  0  0  0  0
   22.7265   -8.6976   13.3133 C   0  0  1  0  0  0  0  0  0  0  0  0
   22.8918   -8.2099   11.9772 O   0  0  0  0  0  0  0  0  0  0  0  0
   29.3023    1.7769   19.8322 C   0  0  2  0  0  0  0  0  0  0  0  0
   28.8717    1.4663   21.1453 O   0  0  0  0  0  0  0  0  0  0  0  0
   28.6337   -0.5482   15.7960 C   0  0  2  0  0  0  0  0  0  0  0  0
   25.4576   -2.9064   19.2741 C   0  0  2  0  0  0  0  0  0  0  0  0
   25.1983   -1.9202   18.2877 O   0  0  0  0  0  0  0  0  0  0  0  0
   23.7884   -8.0953   17.6276 C   0  0  2  0  0  0  0  0  0  0  0  0
   23.8394   -8.0775   16.2002 O   0  0  0  0  0  0  0  0  0  0  0  0
   22.0382  -10.0631   13.2729 C   0  0  2  0  0  0  0  0  0  0  0  0
   20.6607   -9.8258   12.9397 O   0  0  0  0  0  0  0  0  0  0  0  0
   28.1873    1.5155   18.7895 C   0  0  2  0  0  0  0  0  0  0  0  0
   28.6829    1.9786   17.5007 O   0  0  0  0  0  0  0  0  0  0  0  0
   27.2104    0.0750   15.9597 C   0  0  2  0  0  0  0  0  0  0  0  0
   26.6309   -0.3606   17.2209 O   0  0  0  0  0  0  0  0  0  0  0  0
   25.5505   -2.2382   20.6454 C   0  0  0  0  0  0  0  0  0  0  0  0
   24.2339   -1.7880   20.9971 O   0  0  0  0  0  0  0  0  0  0  0  0
   23.3304   -6.7085   18.0365 C   0  0  1  0  0  0  0  0  0  0  0  0
   24.0707   -5.4710   18.1087 O   0  0  0  0  0  0  0  0  0  0  0  0
   22.2454  -10.8325   14.5727 C   0  0  2  0  0  0  0  0  0  0  0  0
   23.4463  -10.6826   15.3456 O   0  0  0  0  0  0  0  0  0  0  0  0
   26.9449    2.2958   19.0542 C   0  0  0  0  0  0  0  0  0  0  0  0
   26.3690    1.7853   20.2322 O   0  0  0  0  0  0  0  0  0  0  0  0
   26.3063   -0.2694   14.7283 C   0  0  1  0  0  0  0  0  0  0  0  0
   25.0824    0.5005   14.8651 O   0  0  0  0  0  0  0  0  0  0  0  0
   21.8232   -6.3797   17.8064 C   0  0  0  0  0  0  0  0  0  0  0  0
   21.2194   -5.5963   18.9047 N   0  0  0  0  0  0  0  0  0  0  0  0
   21.6797  -12.2304   14.8126 C   0  0  0  0  0  0  0  0  0  0  0  0
   20.2287  -12.1799   14.8400 O   0  0  0  0  0  0  0  0  0  0  0  0
  1  2  1  1  0  0  0
  1  8  1  0  0  0  0
  1 36  1  0  0  0  0
  3  4  1  6  0  0  0
  3 10  1  0  0  0  0
  3 47  1  0  0  0  0
  5 11  1  0  0  0  0
  5 30  1  0  0  0  0
  5 38  1  1  0  0  0
  6 21  1  6  0  0  0
  6 42  1  0  0  0  0
  7 15  1  0  0  0  0
  7 44  1  0  0  0  0
  7 32  1  1  0  0  0
  8  9  1  6  0  0  0
  8 17  1  0  0  0  0
 11 12  1  6  0  0  0
 11 20  1  0  0  0  0
 13  6  1  0  0  0  0
 13 14  1  6  0  0  0
 15 16  1  6  0  0  0
 15 24  1  0  0  0  0
 17 26  1  0  0  0  0
 18 10  1  0  0  0  0
 18 19  1  6  0  0  0
 20 21  1  6  0  0  0
 20 29  1  0  0  0  0
 22 13  1  0  0  0  0
 22 23  1  1  0  0  0
 24 25  1  6  0  0  0
 24 33  1  0  0  0  0
 26 27  1  1  0  0  0
 26 35  1  0  0  0  0
 28  2  1  1  0  0  0
 28 18  1  0  0  0  0
 29 30  1  0  0  0  0
 29 39  1  1  0  0  0
 31 22  1  0  0  0  0
 31 32  1  6  0  0  0
 31 41  1  0  0  0  0
 33 34  1  1  0  0  0
 33 43  1  0  0  0  0
 35 36  1  0  0  0  0
 35 45  1  1  0  0  0
 37 28  1  0  0  0  0
 37 38  1  1  0  0  0
 39 40  1  0  0  0  0
 41 42  1  0  0  0  0
 41 49  1  6  0  0  0
 43 44  1  0  0  0  0
 43 51  1  6  0  0  0
 45 46  1  0  0  0  0
 47 37  1  0  0  0  0
 47 48  1  1  0  0  0
 49 50  1  0  0  0  0
 51 52  1  0  0  0  0
M  END
>  <CHROM.1>
-171.15500196,91.14137739,-137.42857022,-178.76509118,-178.66599617,64.93716999
-175.63323492,73.65795472,-68.24608634,-67.32465400,140.23029321,-65.75151886
25.88682273,-3.82476370,16.73299772,-0.46421257,-0.99888038,-1.85750595

>  <Name>
2esj_lig

>  <RI>
0

>  <Rbt.Current_Directory>
/home/itssahil/PROJECTS/Mol_Feturizer/New_Systems/rnas/2esj

>  <Rbt.Executable>
rbdock ($Id: //depot/dev/client3/rdock/2013.1/src/exe/rbdock.cxx#4 $)

>  <Rbt.Library>
libRbt.so (2013.1, Build901 2013/11/27)

>  <Rbt.Parameter_File>
/export/apps/rDock/src/rDock_2013.1_src/data/scripts/dock_solv.prm

>  <Rbt.Receptor>
prm/pocket_docking_6.prm

>  <SCORE>
-3.86129

>  <SCORE.INTER>
2.82637

>  <SCORE.INTER.CONST>
1

>  <SCORE.INTER.POLAR>
0

>  <SCORE.INTER.ROT>
12

>  <SCORE.INTER.SOLV>
8.5139

>  <SCORE.INTER.VDW>
-12.5537

>  <SCORE.INTER.norm>
0.0543532

>  <SCORE.INTRA>
-6.68766

>  <SCORE.INTRA.DIHEDRAL>
-16.1125

>  <SCORE.INTRA.DIHEDRAL.0>
32.9766

>  <SCORE.INTRA.POLAR>
0

>  <SCORE.INTRA.POLAR.0>
0

>  <SCORE.INTRA.REPUL>
0

>  <SCORE.INTRA.REPUL.0>
0

>  <SCORE.INTRA.SOLV>
-2.36011

>  <SCORE.INTRA.SOLV.lig_0>
-114.358

>  <SCORE.INTRA.VDW>
2.54863

>  <SCORE.INTRA.VDW.0>
-8.24257

>  <SCORE.INTRA.norm>
-0.128609

>  <SCORE.RESTR>
0

>  <SCORE.RESTR.CAVITY>
0

>  <SCORE.RESTR.norm>
0

>  <SCORE.SYSTEM>
0

>  <SCORE.SYSTEM.CONST>
0

>  <SCORE.SYSTEM.DIHEDRAL>
0

>  <SCORE.SYSTEM.SOLV>
0

>  <SCORE.SYSTEM.norm>
0

>  <SCORE.heavy>
52

>  <SCORE.norm>
-0.0742556

>  <RMSD>
11.266

$$$$
2esj_lig
 OpenBabel11021811423D
libRbt.so/2013.1/901 2013/11/27
 52 56  0  0  0  0  0  0  0  0999 V2000
   27.3832   -0.1295   14.9198 C   0  0  2  0  0  0  0  0  0  0  0  0
   28.4689   -0.9761   15.3432 O   0  0  0  0  0  0  0  0  0  0  0  0
   28.4480   -4.3396   17.9841 C   0  0  2  0  0  0  0  0  0  0  0  0
   28.4965   -5.2249   19.1594 N   0  0  0  0  0  0  0  0  0  0  0  0
   24.6874   -2.0442   16.9570 C   0  0  1  0  0  0  0  0  0  0  0  0
   20.6819   -3.0832   16.8456 C   0  0  1  0  0  0  0  0  0  0  0  0
   19.5855   -7.1515   19.2959 C   0  0  1  0  0  0  0  0  0  0  0  0
   27.7486    0.4335   13.5146 C   0  0  2  0  0  0  0  0  0  0  0  0
   28.0221   -0.6285   12.5469 N   0  0  0  0  0  0  0  0  0  0  0  0
   29.7622   -3.4659   17.9003 C   0  0  0  0  0  0  0  0  0  0  0  0
   23.6726   -0.9023   16.8880 C   0  0  2  0  0  0  0  0  0  0  0  0
   23.3961   -0.3323   18.1857 O   0  0  0  0  0  0  0  0  0  0  0  0
   20.1136   -3.6932   18.2044 C   0  0  2  0  0  0  0  0  0  0  0  0
   21.1759   -4.4187   18.9501 N   0  0  0  0  0  0  0  0  0  0  0  0
   18.7856   -8.3352   18.7645 C   0  0  1  0  0  0  0  0  0  0  0  0
   18.8545   -9.4179   19.7139 O   0  0  0  0  0  0  0  0  0  0  0  0
   28.9730    1.3990   13.6022 C   0  0  0  0  0  0  0  0  0  0  0  0
   29.7182   -2.5655   16.6007 C   0  0  2  0  0  0  0  0  0  0  0  0
   30.9223   -1.7335   16.5061 N   0  0  0  0  0  0  0  0  0  0  0  0
   22.5050   -1.6108   16.2644 C   0  0  2  0  0  0  0  0  0  0  0  0
   21.8507   -2.4123   17.2152 O   0  0  0  0  0  0  0  0  0  0  0  0
   18.8124   -4.5520   17.8812 C   0  0  1  0  0  0  0  0  0  0  0  0
   17.9100   -3.7522   17.1099 O   0  0  0  0  0  0  0  0  0  0  0  0
   17.3156   -8.0522   18.4794 C   0  0  1  0  0  0  0  0  0  0  0  0
   16.6839   -9.3114   18.2232 O   0  0  0  0  0  0  0  0  0  0  0  0
   28.6667    2.5057   14.6544 C   0  0  2  0  0  0  0  0  0  0  0  0
   29.7075    3.4635   14.7296 O   0  0  0  0  0  0  0  0  0  0  0  0
   28.4467   -1.6776   16.6004 C   0  0  2  0  0  0  0  0  0  0  0  0
   23.1078   -2.6259   15.2716 C   0  0  2  0  0  0  0  0  0  0  0  0
   24.3514   -2.9322   15.8819 O   0  0  0  0  0  0  0  0  0  0  0  0
   19.1571   -5.8067   16.9778 C   0  0  2  0  0  0  0  0  0  0  0  0
   20.0285   -6.5958   17.7892 O   0  0  0  0  0  0  0  0  0  0  0  0
   16.5903   -7.3452   19.6258 C   0  0  2  0  0  0  0  0  0  0  0  0
   15.3385   -6.8748   19.0999 O   0  0  0  0  0  0  0  0  0  0  0  0
   28.4200    1.8230   16.0227 C   0  0  2  0  0  0  0  0  0  0  0  0
   27.2607    0.9548   15.8702 O   0  0  0  0  0  0  0  0  0  0  0  0
   27.1144   -2.4686   16.8008 C   0  0  2  0  0  0  0  0  0  0  0  0
   25.9994   -1.5359   16.8601 O   0  0  0  0  0  0  0  0  0  0  0  0
   23.3525   -2.1241   13.8489 C   0  0  0  0  0  0  0  0  0  0  0  0
   23.8932   -3.2169   13.0920 O   0  0  0  0  0  0  0  0  0  0  0  0
   20.0205   -5.2751   15.8499 C   0  0  1  0  0  0  0  0  0  0  0  0
   20.9666   -4.1845   15.8410 O   0  0  0  0  0  0  0  0  0  0  0  0
   17.4572   -6.2570   20.2494 C   0  0  2  0  0  0  0  0  0  0  0  0
   18.8867   -6.3809   20.3034 O   0  0  0  0  0  0  0  0  0  0  0  0
   28.0685    2.7886   17.1027 C   0  0  0  0  0  0  0  0  0  0  0  0
   29.2394    3.4951   17.4345 O   0  0  0  0  0  0  0  0  0  0  0  0
   27.1984   -3.3911   18.0634 C   0  0  1  0  0  0  0  0  0  0  0  0
   26.0100   -4.2260   18.0654 O   0  0  0  0  0  0  0  0  0  0  0  0
   20.4216   -6.2974   14.7423 C   0  0  0  0  0  0  0  0  0  0  0  0
   19.2719   -7.0427   14.1879 N   0  0  0  0  0  0  0  0  0  0  0  0
   16.9955   -5.3937   21.4213 C   0  0  0  0  0  0  0  0  0  0  0  0
   17.9824   -4.3651   21.6982 O   0  0  0  0  0  0  0  0  0  0  0  0
  1  2  1  1  0  0  0
  1  8  1  0  0  0  0
  1 36  1  0  0  0  0
  3  4  1  1  0  0  0
  3 10  1  0  0  0  0
  3 47  1  0  0  0  0
  5 11  1  0  0  0  0
  5 30  1  0  0  0  0
  5 38  1  6  0  0  0
  6 21  1  1  0  0  0
  6 42  1  0  0  0  0
  7 15  1  0  0  0  0
  7 44  1  0  0  0  0
  7 32  1  6  0  0  0
  8  9  1  6  0  0  0
  8 17  1  0  0  0  0
 11 12  1  1  0  0  0
 11 20  1  0  0  0  0
 13  6  1  0  0  0  0
 13 14  1  6  0  0  0
 15 16  1  1  0  0  0
 15 24  1  0  0  0  0
 17 26  1  0  0  0  0
 18 10  1  0  0  0  0
 18 19  1  1  0  0  0
 20 21  1  1  0  0  0
 20 29  1  0  0  0  0
 22 13  1  0  0  0  0
 22 23  1  6  0  0  0
 24 25  1  1  0  0  0
 24 33  1  0  0  0  0
 26 27  1  1  0  0  0
 26 35  1  0  0  0  0
 28  2  1  6  0  0  0
 28 18  1  0  0  0  0
 29 30  1  0  0  0  0
 29 39  1  6  0  0  0
 31 22  1  0  0  0  0
 31 32  1  1  0  0  0
 31 41  1  0  0  0  0
 33 34  1  6  0  0  0
 33 43  1  0  0  0  0
 35 36  1  0  0  0  0
 35 45  1  1  0  0  0
 37 28  1  0  0  0  0
 37 38  1  1  0  0  0
 39 40  1  0  0  0  0
 41 42  1  0  0  0  0
 41 49  1  1  0  0  0
 43 44  1  0  0  0  0
 43 51  1  1  0  0  0
 45 46  1  0  0  0  0
 47 37  1  0  0  0  0
 47 48  1  6  0  0  0
 49 50  1  0  0  0  0
 51 52  1  0  0  0  0
M  END
>  <CHROM.1>
-179.06845555,-175.29355104,-171.70317466,80.84898258,175.76607111,174.66141064
-179.23992062,57.35062610,-72.55240738,176.21961399,51.02444054,-174.23253437
23.38627867,-3.21534692,17.03651684,0.60431904,-0.16618080,-0.64336180

>  <Name>
2esj_lig

>  <RI>
0

>  <Rbt.Current_Directory>
/home/itssahil/PROJECTS/Mol_Feturizer/New_Systems/rnas/2esj

>  <Rbt.Executable>
rbdock ($Id: //depot/dev/client3/rdock/2013.1/src/exe/rbdock.cxx#4 $)

>  <Rbt.Library>
libRbt.so (2013.1, Build901 2013/11/27)

>  <Rbt.Parameter_File>
/export/apps/rDock/src/rDock_2013.1_src/data/scripts/dock_solv.prm

>  <Rbt.Receptor>
prm/pocket_docking_6.prm

>  <SCORE>
-16.937

>  <SCORE.INTER>
-6.14661

>  <SCORE.INTER.CONST>
1

>  <SCORE.INTER.POLAR>
-1.80442

>  <SCORE.INTER.ROT>
12

>  <SCORE.INTER.SOLV>
9.5566

>  <SCORE.INTER.VDW>
-12.8686

>  <SCORE.INTER.norm>
-0.118204

>  <SCORE.INTRA>
-10.7904

>  <SCORE.INTRA.DIHEDRAL>
-24.5052

>  <SCORE.INTRA.DIHEDRAL.0>
32.9766

>  <SCORE.INTRA.POLAR>
0

>  <SCORE.INTRA.POLAR.0>
0

>  <SCORE.INTRA.REPUL>
0

>  <SCORE.INTRA.REPUL.0>
0

>  <SCORE.INTRA.SOLV>
-3.14555

>  <SCORE.INTRA.SOLV.lig_0>
-114.358

>  <SCORE.INTRA.VDW>
3.03495

>  <SCORE.INTRA.VDW.0>
-8.24257

>  <SCORE.INTRA.norm>
-0.207508

>  <SCORE.RESTR>
0

>  <SCORE.RESTR.CAVITY>
0

>  <SCORE.RESTR.norm>
0

>  <SCORE.SYSTEM>
0

>  <SCORE.SYSTEM.CONST>
0

>  <SCORE.SYSTEM.DIHEDRAL>
0

>  <SCORE.SYSTEM.SOLV>
0

>  <SCORE.SYSTEM.norm>
0

>  <SCORE.heavy>
52

>  <SCORE.norm>
-0.325712

>  <RMSD>
11.267

$$$$
2esj_lig
 OpenBabel11021811423D
libRbt.so/2013.1/901 2013/11/27
 52 56  0  0  0  0  0  0  0  0999 V2000
   27.9982   -4.2703   16.6273 C   0  0  2  0  0  0  0  0  0  0  0  0
   28.9585   -5.1351   17.2634 O   0  0  0  0  0  0  0  0  0  0  0  0
   28.5270   -8.4283   19.9572 C   0  0  2  0  0  0  0  0  0  0  0  0
   28.3480   -9.2798   21.1448 N   0  0  0  0  0  0  0  0  0  0  0  0
   25.0422   -6.4478   17.7078 C   0  0  1  0  0  0  0  0  0  0  0  0
   21.3576   -7.5889   16.1018 C   0  0  1  0  0  0  0  0  0  0  0  0
   17.7194  -11.1213   17.8401 C   0  0  1  0  0  0  0  0  0  0  0  0
   28.6504   -3.7255   15.3223 C   0  0  2  0  0  0  0  0  0  0  0  0
   29.0904   -4.8003   14.4332 N   0  0  0  0  0  0  0  0  0  0  0  0
   29.7572   -7.4569   20.1586 C   0  0  0  0  0  0  0  0  0  0  0  0
   23.9539   -5.3869   17.5391 C   0  0  2  0  0  0  0  0  0  0  0  0
   23.2146   -5.1577   18.7582 O   0  0  0  0  0  0  0  0  0  0  0  0
   19.9881   -7.3445   16.8802 C   0  0  2  0  0  0  0  0  0  0  0  0
   20.0920   -7.7861   18.2962 N   0  0  0  0  0  0  0  0  0  0  0  0
   18.1362  -11.0727   19.3055 C   0  0  1  0  0  0  0  0  0  0  0  0
   16.9827  -11.3197   20.1343 O   0  0  0  0  0  0  0  0  0  0  0  0
   29.8523   -2.7840   15.6509 C   0  0  0  0  0  0  0  0  0  0  0  0
   29.9699   -6.5927   18.8511 C   0  0  2  0  0  0  0  0  0  0  0  0
   31.0991   -5.6717   19.0170 N   0  0  0  0  0  0  0  0  0  0  0  0
   23.1440   -5.9987   16.4328 C   0  0  2  0  0  0  0  0  0  0  0  0
   22.3423   -7.0410   16.9281 O   0  0  0  0  0  0  0  0  0  0  0  0
   18.7988   -8.0068   16.0545 C   0  0  1  0  0  0  0  0  0  0  0  0
   18.8598   -7.5423   14.7020 O   0  0  0  0  0  0  0  0  0  0  0  0
   19.2240  -12.0619   19.7061 C   0  0  1  0  0  0  0  0  0  0  0  0
   19.3124  -12.0382   21.1351 O   0  0  0  0  0  0  0  0  0  0  0  0
   29.3641   -1.6633   16.6161 C   0  0  2  0  0  0  0  0  0  0  0  0
   30.3885   -0.7259   16.8956 O   0  0  0  0  0  0  0  0  0  0  0  0
   28.6783   -5.8070   18.5056 C   0  0  2  0  0  0  0  0  0  0  0  0
   24.1563   -6.7113   15.5123 C   0  0  2  0  0  0  0  0  0  0  0  0
   25.1792   -7.0757   16.4255 O   0  0  0  0  0  0  0  0  0  0  0  0
   18.9546   -9.5813   15.9776 C   0  0  2  0  0  0  0  0  0  0  0  0
   18.8551  -10.0115   17.3361 O   0  0  0  0  0  0  0  0  0  0  0  0
   18.9578  -13.4938   19.2384 C   0  0  2  0  0  0  0  0  0  0  0  0
   20.1847  -14.2224   19.4078 O   0  0  0  0  0  0  0  0  0  0  0  0
   28.8331   -2.3304   17.9092 C   0  0  2  0  0  0  0  0  0  0  0  0
   27.7101   -3.1764   17.5297 O   0  0  0  0  0  0  0  0  0  0  0  0
   27.3962   -6.6948   18.4094 C   0  0  2  0  0  0  0  0  0  0  0  0
   26.2382   -5.8509   18.1578 O   0  0  0  0  0  0  0  0  0  0  0  0
   24.7592   -5.8734   14.3854 C   0  0  0  0  0  0  0  0  0  0  0  0
   23.6777   -5.4176   13.5593 O   0  0  0  0  0  0  0  0  0  0  0  0
   20.3953   -9.8316   15.5752 C   0  0  1  0  0  0  0  0  0  0  0  0
   21.5865   -9.0713   15.8713 O   0  0  0  0  0  0  0  0  0  0  0  0
   18.4010  -13.5243   17.8194 C   0  0  2  0  0  0  0  0  0  0  0  0
   17.5698  -12.4649   17.3208 O   0  0  0  0  0  0  0  0  0  0  0  0
   28.2921   -1.3497   18.8930 C   0  0  0  0  0  0  0  0  0  0  0  0
   29.3635   -0.5412   19.3156 O   0  0  0  0  0  0  0  0  0  0  0  0
   27.2328   -7.5786   19.6917 C   0  0  1  0  0  0  0  0  0  0  0  0
   26.1417   -8.5035   19.4399 O   0  0  0  0  0  0  0  0  0  0  0  0
   20.7971  -11.3175   15.3236 C   0  0  0  0  0  0  0  0  0  0  0  0
   21.9240  -11.7710   16.1657 N   0  0  0  0  0  0  0  0  0  0  0  0
   18.0322  -14.8179   17.0969 C   0  0  0  0  0  0  0  0  0  0  0  0
   18.6474  -14.8439   15.7817 O   0  0  0  0  0  0  0  0  0  0  0  0
  1  2  1  1  0  0  0
  1  8  1  0  0  0  0
  1 36  1  0  0  0  0
  3  4  1  1  0  0  0
  3 10  1  0  0  0  0
  3 47  1  0  0  0  0
  5 11  1  0  0  0  0
  5 30  1  0  0  0  0
  5 38  1  6  0  0  0
  6 21  1  1  0  0  0
  6 42  1  0  0  0  0
  7 15  1  0  0  0  0
  7 44  1  0  0  0  0
  7 32  1  6  0  0  0
  8  9  1  6  0  0  0
  8 17  1  0  0  0  0
 11 12  1  1  0  0  0
 11 20  1  0  0  0  0
 13  6  1  0  0  0  0
 13 14  1  1  0  0  0
 15 16  1  1  0  0  0
 15 24  1  0  0  0  0
 17 26  1  0  0  0  0
 18 10  1  0  0  0  0
 18 19  1  1  0  0  0
 20 21  1  1  0  0  0
 20 29  1  0  0  0  0
 22 13  1  0  0  0  0
 22 23  1  6  0  0  0
 24 25  1  1  0  0  0
 24 33  1  0  0  0  0
 26 27  1  1  0  0  0
 26 35  1  0  0  0  0
 28  2  1  6  0  0  0
 28 18  1  0  0  0  0
 29 30  1  0  0  0  0
 29 39  1  6  0  0  0
 31 22  1  0  0  0  0
 31 32  1  1  0  0  0
 31 41  1  0  0  0  0
 33 34  1  6  0  0  0
 33 43  1  0  0  0  0
 35 36  1  0  0  0  0
 35 45  1  1  0  0  0
 37 28  1  0  0  0  0
 37 38  1  1  0  0  0
 39 40  1  0  0  0  0
 41 42  1  0  0  0  0
 41 49  1  1  0  0  0
 43 44  1  0  0  0  0
 43 51  1  1  0  0  0
 45 46  1  0  0  0  0
 47 37  1  0  0  0  0
 47 48  1  6  0  0  0
 49 50  1  0  0  0  0
 51 52  1  0  0  0  0
M  END
>  <CHROM.1>
179.77333087,178.75250088,-120.12009711,-178.33519500,169.60250539,-178.58765066
-59.59860036,123.22808958,-64.68099205,164.38766041,-122.95566917,-129.61952854
23.85381769,-7.66703714,17.50309494,0.52536912,-0.43832398,-0.64131143

>  <Name>
2esj_lig

>  <RI>
0

>  <Rbt.Current_Directory>
/home/itssahil/PROJECTS/Mol_Feturizer/New_Systems/rnas/2esj

>  <Rbt.Executable>
rbdock ($Id: //depot/dev/client3/rdock/2013.1/src/exe/rbdock.cxx#4 $)

>  <Rbt.Library>
libRbt.so (2013.1, Build901 2013/11/27)

>  <Rbt.Parameter_File>
/export/apps/rDock/src/rDock_2013.1_src/data/scripts/dock_solv.prm

>  <Rbt.Receptor>
prm/pocket_docking_8.prm

>  <SCORE>
-14.0047

>  <SCORE.INTER>
-8.91837

>  <SCORE.INTER.CONST>
1

>  <SCORE.INTER.POLAR>
-1.48735

>  <SCORE.INTER.ROT>
12

>  <SCORE.INTER.SOLV>
12.9031

>  <SCORE.INTER.VDW>
-16.8888

>  <SCORE.INTER.norm>
-0.171507

>  <SCORE.INTRA>
-5.0863

>  <SCORE.INTRA.DIHEDRAL>
-10.6501

>  <SCORE.INTRA.DIHEDRAL.0>
32.9766

>  <SCORE.INTRA.POLAR>
0

>  <SCORE.INTRA.POLAR.0>
0

>  <SCORE.INTRA.REPUL>
0

>  <SCORE.INTRA.REPUL.0>
0

>  <SCORE.INTRA.SOLV>
-3.64636

>  <SCORE.INTRA.SOLV.lig_0>
-114.358

>  <SCORE.INTRA.VDW>
2.06194

>  <SCORE.INTRA.VDW.0>
-8.24257

>  <SCORE.INTRA.norm>
-0.0978135

>  <SCORE.RESTR>
0

>  <SCORE.RESTR.CAVITY>
0

>  <SCORE.RESTR.norm>
0

>  <SCORE.SYSTEM>
0

>  <SCORE.SYSTEM.CONST>
0

>  <SCORE.SYSTEM.DIHEDRAL>
0

>  <SCORE.SYSTEM.SOLV>
0

>  <SCORE.SYSTEM.norm>
0

>  <SCORE.heavy>
52

>  <SCORE.norm>
-0.26932

>  <RMSD>
11.279

$$$$
2esj_lig
 OpenBabel11021811423D
libRbt.so/2013.1/901 2013/11/27
 52 56  0  0  0  0  0  0  0  0999 V2000
   30.4485   -2.1367   13.5651 C   0  0  2  0  0  0  0  0  0  0  0  0
   29.9343   -1.1345   14.4629 O   0  0  0  0  0  0  0  0  0  0  0  0
   29.6832   -3.3887   18.0883 C   0  0  2  0  0  0  0  0  0  0  0  0
   29.6416   -3.8173   19.4961 N   0  0  0  0  0  0  0  0  0  0  0  0
   26.0407   -1.5776   16.1330 C   0  0  1  0  0  0  0  0  0  0  0  0
   21.8865   -1.5172   16.9558 C   0  0  1  0  0  0  0  0  0  0  0  0
   18.2259   -5.3297   16.9977 C   0  0  1  0  0  0  0  0  0  0  0  0
   30.3552   -1.5636   12.1201 C   0  0  2  0  0  0  0  0  0  0  0  0
   31.0643   -0.2918   11.9824 N   0  0  0  0  0  0  0  0  0  0  0  0
   31.0176   -2.5943   17.7955 C   0  0  0  0  0  0  0  0  0  0  0  0
   25.0871   -0.3822   16.1233 C   0  0  2  0  0  0  0  0  0  0  0  0
   24.9514    0.2244   17.4267 O   0  0  0  0  0  0  0  0  0  0  0  0
   21.5808   -2.4400   18.2192 C   0  0  2  0  0  0  0  0  0  0  0  0
   22.0160   -3.8408   17.9758 N   0  0  0  0  0  0  0  0  0  0  0  0
   17.6268   -5.3980   18.3977 C   0  0  1  0  0  0  0  0  0  0  0  0
   16.2196   -5.6943   18.2967 O   0  0  0  0  0  0  0  0  0  0  0  0
   28.8655   -1.3898   11.6846 C   0  0  0  0  0  0  0  0  0  0  0  0
   31.0717   -2.1940   16.2663 C   0  0  2  0  0  0  0  0  0  0  0  0
   32.2959   -1.4426   15.9705 N   0  0  0  0  0  0  0  0  0  0  0  0
   23.8347   -1.0350   15.6137 C   0  0  2  0  0  0  0  0  0  0  0  0
   23.2198   -1.7824   16.6324 O   0  0  0  0  0  0  0  0  0  0  0  0
   20.0502   -2.2718   18.6241 C   0  0  1  0  0  0  0  0  0  0  0  0
   19.7588   -0.8773   18.7625 O   0  0  0  0  0  0  0  0  0  0  0  0
   18.2589   -6.4274   19.3268 C   0  0  1  0  0  0  0  0  0  0  0  0
   17.4287   -6.5140   20.4901 O   0  0  0  0  0  0  0  0  0  0  0  0
   28.1276   -2.7498   11.8623 C   0  0  2  0  0  0  0  0  0  0  0  0
   26.7864   -2.6841   11.4117 O   0  0  0  0  0  0  0  0  0  0  0  0
   29.8209   -1.3625   15.8801 C   0  0  2  0  0  0  0  0  0  0  0  0
   24.2964   -2.0990   14.5967 C   0  0  2  0  0  0  0  0  0  0  0  0
   25.5683   -2.4637   15.1088 O   0  0  0  0  0  0  0  0  0  0  0  0
   19.0883   -2.8025   17.4829 C   0  0  2  0  0  0  0  0  0  0  0  0
   19.3814   -4.1979   17.3963 O   0  0  0  0  0  0  0  0  0  0  0  0
   18.4021   -7.8163   18.7018 C   0  0  2  0  0  0  0  0  0  0  0  0
   19.2774   -8.5698   19.5567 O   0  0  0  0  0  0  0  0  0  0  0  0
   28.2086   -3.1574   13.3544 C   0  0  2  0  0  0  0  0  0  0  0  0
   29.6183   -3.3159   13.6837 O   0  0  0  0  0  0  0  0  0  0  0  0
   28.4630   -2.0394   16.2526 C   0  0  2  0  0  0  0  0  0  0  0  0
   27.3657   -1.1451   15.9171 O   0  0  0  0  0  0  0  0  0  0  0  0
   24.4481   -1.6359   13.1482 C   0  0  0  0  0  0  0  0  0  0  0  0
   23.1529   -1.2230   12.6884 O   0  0  0  0  0  0  0  0  0  0  0  0
   19.6080   -2.1960   16.1936 C   0  0  1  0  0  0  0  0  0  0  0  0
   20.9568   -1.8575   15.8056 O   0  0  0  0  0  0  0  0  0  0  0  0
   18.8625   -7.7318   17.2508 C   0  0  2  0  0  0  0  0  0  0  0  0
   18.4886   -6.6279   16.4121 O   0  0  0  0  0  0  0  0  0  0  0  0
   27.5722   -4.4759   13.6356 C   0  0  0  0  0  0  0  0  0  0  0  0
   26.2079   -4.3639   13.3097 O   0  0  0  0  0  0  0  0  0  0  0  0
   28.4507   -2.4729   17.7573 C   0  0  1  0  0  0  0  0  0  0  0  0
   27.2477   -3.2588   17.9682 O   0  0  0  0  0  0  0  0  0  0  0  0
   18.7706   -2.4766   14.9080 C   0  0  0  0  0  0  0  0  0  0  0  0
   18.6037   -1.2879   14.0456 N   0  0  0  0  0  0  0  0  0  0  0  0
   19.0807   -8.9622   16.3731 C   0  0  0  0  0  0  0  0  0  0  0  0
   19.8193   -8.5940   15.1782 O   0  0  0  0  0  0  0  0  0  0  0  0
  1  2  1  1  0  0  0
  1  8  1  0  0  0  0
  1 36  1  0  0  0  0
  3  4  1  1  0  0  0
  3 10  1  0  0  0  0
  3 47  1  0  0  0  0
  5 11  1  0  0  0  0
  5 30  1  0  0  0  0
  5 38  1  6  0  0  0
  6 21  1  6  0  0  0
  6 42  1  0  0  0  0
  7 15  1  0  0  0  0
  7 44  1  0  0  0  0
  7 32  1  1  0  0  0
  8  9  1  1  0  0  0
  8 17  1  0  0  0  0
 11 12  1  1  0  0  0
 11 20  1  0  0  0  0
 13  6  1  0  0  0  0
 13 14  1  6  0  0  0
 15 16  1  6  0  0  0
 15 24  1  0  0  0  0
 17 26  1  0  0  0  0
 18 10  1  0  0  0  0
 18 19  1  1  0  0  0
 20 21  1  1  0  0  0
 20 29  1  0  0  0  0
 22 13  1  0  0  0  0
 22 23  1  6  0  0  0
 24 25  1  1  0  0  0
 24 33  1  0  0  0  0
 26 27  1  1  0  0  0
 26 35  1  0  0  0  0
 28  2  1  6  0  0  0
 28 18  1  0  0  0  0
 29 30  1  0  0  0  0
 29 39  1  6  0  0  0
 31 22  1  0  0  0  0
 31 32  1  6  0  0  0
 31 41  1  0  0  0  0
 33 34  1  1  0  0  0
 33 43  1  0  0  0  0
 35 36  1  0  0  0  0
 35 45  1  6  0  0  0
 37 28  1  0  0  0  0
 37 38  1  1  0  0  0
 39 40  1  0  0  0  0
 41 42  1  0  0  0  0
 41 49  1  6  0  0  0
 43 44  1  0  0  0  0
 43 51  1  6  0  0  0
 45 46  1  0  0  0  0
 47 37  1  0  0  0  0
 47 48  1  6  0  0  0
 49 50  1  0  0  0  0
 51 52  1  0  0  0  0
M  END
>  <CHROM.1>
177.23275272,163.00484286,-174.82425737,-80.61797742,124.59053853,37.54718447
-62.69480328,147.38065537,-61.97935314,178.00942420,137.12489747,-166.04463869
24.10378401,-3.22184835,16.02047628,0.39515231,-0.09748812,-0.95558880

>  <Name>
2esj_lig

>  <RI>
0

>  <Rbt.Current_Directory>
/home/itssahil/PROJECTS/Mol_Feturizer/New_Systems/rnas/2esj

>  <Rbt.Executable>
rbdock ($Id: //depot/dev/client3/rdock/2013.1/src/exe/rbdock.cxx#4 $)

>  <Rbt.Library>
libRbt.so (2013.1, Build901 2013/11/27)

>  <Rbt.Parameter_File>
/export/apps/rDock/src/rDock_2013.1_src/data/scripts/dock_solv.prm

>  <Rbt.Receptor>
prm/pocket_docking_4.prm

>  <SCORE>
-9.98396

>  <SCORE.INTER>
-5.31084

>  <SCORE.INTER.CONST>
1

>  <SCORE.INTER.POLAR>
-0.972809

>  <SCORE.INTER.ROT>
12

>  <SCORE.INTER.SOLV>
10.1933

>  <SCORE.INTER.VDW>
-15.2956

>  <SCORE.INTER.norm>
-0.102132

>  <SCORE.INTRA>
-4.67312

>  <SCORE.INTRA.DIHEDRAL>
-11.1182

>  <SCORE.INTRA.DIHEDRAL.0>
32.9766

>  <SCORE.INTRA.POLAR>
0

>  <SCORE.INTRA.POLAR.0>
0

>  <SCORE.INTRA.REPUL>
0

>  <SCORE.INTRA.REPUL.0>
0

>  <SCORE.INTRA.SOLV>
-3.02086

>  <SCORE.INTRA.SOLV.lig_0>
-114.358

>  <SCORE.INTRA.VDW>
2.39641

>  <SCORE.INTRA.VDW.0>
-8.24257

>  <SCORE.INTRA.norm>
-0.0898676

>  <SCORE.RESTR>
0

>  <SCORE.RESTR.CAVITY>
0

>  <SCORE.RESTR.norm>
0

>  <SCORE.SYSTEM>
0

>  <SCORE.SYSTEM.CONST>
0

>  <SCORE.SYSTEM.DIHEDRAL>
0

>  <SCORE.SYSTEM.SOLV>
0

>  <SCORE.SYSTEM.norm>
0

>  <SCORE.heavy>
52

>  <SCORE.norm>
-0.191999

>  <RMSD>
11.322

$$$$
2esj_lig
 OpenBabel11021811423D
libRbt.so/2013.1/901 2013/11/27
 52 56  0  0  0  0  0  0  0  0999 V2000
   28.7147   -4.1387   17.9401 C   0  0  2  0  0  0  0  0  0  0  0  0
   29.1083   -3.2593   19.0109 O   0  0  0  0  0  0  0  0  0  0  0  0
   27.7643    0.6014   20.2663 C   0  0  2  0  0  0  0  0  0  0  0  0
   27.5233    2.0470   20.4060 N   0  0  0  0  0  0  0  0  0  0  0  0
   25.5421   -2.0520   17.2461 C   0  0  1  0  0  0  0  0  0  0  0  0
   21.5922   -2.1480   15.8163 C   0  0  1  0  0  0  0  0  0  0  0  0
   19.2646   -5.5367   18.5348 C   0  0  1  0  0  0  0  0  0  0  0  0
   28.9887   -5.5985   18.4079 C   0  0  2  0  0  0  0  0  0  0  0  0
   28.2993   -5.9177   19.6578 N   0  0  0  0  0  0  0  0  0  0  0  0
   29.3133    0.2945   20.3295 C   0  0  0  0  0  0  0  0  0  0  0  0
   25.1983   -1.3842   15.9141 C   0  0  2  0  0  0  0  0  0  0  0  0
   24.9592    0.0331   16.0543 O   0  0  0  0  0  0  0  0  0  0  0  0
   20.5960   -1.5984   16.9329 C   0  0  2  0  0  0  0  0  0  0  0  0
   21.0571   -1.9785   18.2945 N   0  0  0  0  0  0  0  0  0  0  0  0
   17.7954   -5.8151   18.2390 C   0  0  1  0  0  0  0  0  0  0  0  0
   17.6358   -7.2076   17.9014 O   0  0  0  0  0  0  0  0  0  0  0  0
   30.5211   -5.8543   18.5675 C   0  0  0  0  0  0  0  0  0  0  0  0
   29.5486   -1.2668   20.2374 C   0  0  2  0  0  0  0  0  0  0  0  0
   30.9811   -1.5782   20.2802 N   0  0  0  0  0  0  0  0  0  0  0  0
   23.9875   -2.1770   15.5145 C   0  0  2  0  0  0  0  0  0  0  0  0
   22.8638   -1.7634   16.2498 O   0  0  0  0  0  0  0  0  0  0  0  0
   19.1136   -2.0545   16.5729 C   0  0  1  0  0  0  0  0  0  0  0  0
   18.8303   -1.6814   15.2205 O   0  0  0  0  0  0  0  0  0  0  0  0
   16.8304   -5.4925   19.3736 C   0  0  1  0  0  0  0  0  0  0  0  0
   15.5545   -6.0313   19.0103 O   0  0  0  0  0  0  0  0  0  0  0  0
   31.2343   -5.4855   17.2329 C   0  0  2  0  0  0  0  0  0  0  0  0
   32.6215   -5.7670   17.2819 O   0  0  0  0  0  0  0  0  0  0  0  0
   28.9109   -1.8347   18.9429 C   0  0  2  0  0  0  0  0  0  0  0  0
   24.2448   -3.6170   16.0041 C   0  0  2  0  0  0  0  0  0  0  0  0
   25.0604   -3.3993   17.1445 O   0  0  0  0  0  0  0  0  0  0  0  0
   18.9644   -3.6306   16.6262 C   0  0  2  0  0  0  0  0  0  0  0  0
   19.2194   -3.9624   17.9919 O   0  0  0  0  0  0  0  0  0  0  0  0
   17.2560   -6.0653   20.7266 C   0  0  2  0  0  0  0  0  0  0  0  0
   16.4416   -5.4276   21.7240 O   0  0  0  0  0  0  0  0  0  0  0  0
   30.9661   -3.9896   16.9338 C   0  0  2  0  0  0  0  0  0  0  0  0
   29.5264   -3.8300   16.7826 O   0  0  0  0  0  0  0  0  0  0  0  0
   27.4042   -1.4654   18.7570 C   0  0  2  0  0  0  0  0  0  0  0  0
   26.9308   -1.9814   17.4819 O   0  0  0  0  0  0  0  0  0  0  0  0
   24.9712   -4.5469   15.0329 C   0  0  0  0  0  0  0  0  0  0  0  0
   24.1803   -4.6273   13.8380 O   0  0  0  0  0  0  0  0  0  0  0  0
   20.1430   -4.1807   15.8460 C   0  0  1  0  0  0  0  0  0  0  0  0
   21.4793   -3.6562   15.6921 O   0  0  0  0  0  0  0  0  0  0  0  0
   18.7563   -5.9137   20.9512 C   0  0  2  0  0  0  0  0  0  0  0  0
   19.6834   -5.9581   19.8555 O   0  0  0  0  0  0  0  0  0  0  0  0
   31.5653   -3.5343   15.6469 C   0  0  0  0  0  0  0  0  0  0  0  0
   32.9630   -3.5314   15.8101 O   0  0  0  0  0  0  0  0  0  0  0  0
   27.1869    0.0786   18.9023 C   0  0  1  0  0  0  0  0  0  0  0  0
   25.7534    0.3117   18.9116 O   0  0  0  0  0  0  0  0  0  0  0  0
   20.1846   -5.7276   15.6511 C   0  0  0  0  0  0  0  0  0  0  0  0
   20.1450   -6.1413   14.2326 N   0  0  0  0  0  0  0  0  0  0  0  0
   19.4638   -6.4053   22.2119 C   0  0  0  0  0  0  0  0  0  0  0  0
   20.1078   -7.6810   21.9535 O   0  0  0  0  0  0  0  0  0  0  0  0
  1  2  1  1  0  0  0
  1  8  1  0  0  0  0
  1 36  1  0  0  0  0
  3  4  1  6  0  0  0
  3 10  1  0  0  0  0
  3 47  1  0  0  0  0
  5 11  1  0  0  0  0
  5 30  1  0  0  0  0
  5 38  1  6  0  0  0
  6 21  1  1  0  0  0
  6 42  1  0  0  0  0
  7 15  1  0  0  0  0
  7 44  1  0  0  0  0
  7 32  1  1  0  0  0
  8  9  1  1  0  0  0
  8 17  1  0  0  0  0
 11 12  1  1  0  0  0
 11 20  1  0  0  0  0
 13  6  1  0  0  0  0
 13 14  1  1  0  0  0
 15 16  1  1  0  0  0
 15 24  1  0  0  0  0
 17 26  1  0  0  0  0
 18 10  1  0  0  0  0
 18 19  1  6  0  0  0
 20 21  1  1  0  0  0
 20 29  1  0  0  0  0
 22 13  1  0  0  0  0
 22 23  1  6  0  0  0
 24 25  1  6  0  0  0
 24 33  1  0  0  0  0
 26 27  1  1  0  0  0
 26 35  1  0  0  0  0
 28  2  1  1  0  0  0
 28 18  1  0  0  0  0
 29 30  1  0  0  0  0
 29 39  1  6  0  0  0
 31 22  1  0  0  0  0
 31 32  1  1  0  0  0
 31 41  1  0  0  0  0
 33 34  1  1  0  0  0
 33 43  1  0  0  0  0
 35 36  1  0  0  0  0
 35 45  1  6  0  0  0
 37 28  1  0  0  0  0
 37 38  1  6  0  0  0
 39 40  1  0  0  0  0
 41 42  1  0  0  0  0
 41 49  1  1  0  0  0
 43 44  1  0  0  0  0
 43 51  1  1  0  0  0
 45 46  1  0  0  0  0
 47 37  1  0  0  0  0
 47 48  1  1  0  0  0
 49 50  1  0  0  0  0
 51 52  1  0  0  0  0
M  END
>  <CHROM.1>
-176.06900542,128.80256144,175.99015367,-64.68253484,165.14073013,-176.39352482
-59.11891672,-176.40295941,-69.32401618,164.81671907,118.93877126,99.98396343
24.14757499,-3.55386816,17.87581219,-0.19079685,0.06932874,2.56982149

>  <Name>
2esj_lig

>  <RI>
2.18877e+07

>  <Rbt.Current_Directory>
/home/itssahil/PROJECTS/Mol_Feturizer/New_Systems/rnas/2esj

>  <Rbt.Executable>
rbdock ($Id: //depot/dev/client3/rdock/2013.1/src/exe/rbdock.cxx#4 $)

>  <Rbt.Library>
libRbt.so (2013.1, Build901 2013/11/27)

>  <Rbt.Parameter_File>
/export/apps/rDock/src/rDock_2013.1_src/data/scripts/dock_solv.prm

>  <Rbt.Receptor>
prm/pocket_docking_7.prm

>  <SCORE>
-14.1469

>  <SCORE.INTER>
-6.74652

>  <SCORE.INTER.CONST>
1

>  <SCORE.INTER.POLAR>
-0.978481

>  <SCORE.INTER.ROT>
12

>  <SCORE.INTER.SOLV>
9.31607

>  <SCORE.INTER.VDW>
-15.9414

>  <SCORE.INTER.norm>
-0.129741

>  <SCORE.INTRA>
-7.40037

>  <SCORE.INTRA.DIHEDRAL>
-16.8894

>  <SCORE.INTRA.DIHEDRAL.0>
32.9766

>  <SCORE.INTRA.POLAR>
0

>  <SCORE.INTRA.POLAR.0>
0

>  <SCORE.INTRA.REPUL>
0

>  <SCORE.INTRA.REPUL.0>
0

>  <SCORE.INTRA.SOLV>
-4.32692

>  <SCORE.INTRA.SOLV.lig_0>
-114.358

>  <SCORE.INTRA.VDW>
3.2078

>  <SCORE.INTRA.VDW.0>
-8.24257

>  <SCORE.INTRA.norm>
-0.142315

>  <SCORE.RESTR>
0

>  <SCORE.RESTR.CAVITY>
0

>  <SCORE.RESTR.norm>
0

>  <SCORE.SYSTEM>
0

>  <SCORE.SYSTEM.CONST>
0

>  <SCORE.SYSTEM.DIHEDRAL>
0

>  <SCORE.SYSTEM.SOLV>
0

>  <SCORE.SYSTEM.norm>
0

>  <SCORE.heavy>
52

>  <SCORE.norm>
-0.272055

>  <RMSD>
11.368

$$$$
2esj_lig
 OpenBabel11021811423D
libRbt.so/2013.1/901 2013/11/27
 52 56  0  0  0  0  0  0  0  0999 V2000
   11.3047    1.1529   10.9878 C   0  0  2  0  0  0  0  0  0  0  0  0
   12.0140    0.7579    9.7979 O   0  0  0  0  0  0  0  0  0  0  0  0
    8.9253   -1.3375    7.7106 C   0  0  2  0  0  0  0  0  0  0  0  0
    8.1511   -2.1435    6.7523 N   0  0  0  0  0  0  0  0  0  0  0  0
   13.1583   -2.1075    9.6495 C   0  0  1  0  0  0  0  0  0  0  0  0
   17.0363   -2.6727    8.1470 C   0  0  1  0  0  0  0  0  0  0  0  0
   20.4768    0.5284    9.0127 C   0  0  1  0  0  0  0  0  0  0  0  0
   12.2138    2.1491   11.7663 C   0  0  2  0  0  0  0  0  0  0  0  0
   12.5969    3.3016   10.9512 N   0  0  0  0  0  0  0  0  0  0  0  0
    9.6549   -0.1499    6.9658 C   0  0  0  0  0  0  0  0  0  0  0  0
   13.8694   -3.4422    9.8761 C   0  0  2  0  0  0  0  0  0  0  0  0
   14.5108   -3.5119   11.1680 O   0  0  0  0  0  0  0  0  0  0  0  0
   18.2496   -2.2315    9.0821 C   0  0  2  0  0  0  0  0  0  0  0  0
   17.9441   -0.9602    9.7900 N   0  0  0  0  0  0  0  0  0  0  0  0
   21.6237    0.9079    8.0831 C   0  0  1  0  0  0  0  0  0  0  0  0
   22.4055    1.9519    8.6974 O   0  0  0  0  0  0  0  0  0  0  0  0
   13.4925    1.4324   12.3050 C   0  0  0  0  0  0  0  0  0  0  0  0
   10.4323    0.7383    8.0186 C   0  0  2  0  0  0  0  0  0  0  0  0
   11.1304    1.8416    7.3506 N   0  0  0  0  0  0  0  0  0  0  0  0
   14.8207   -3.4464    8.7145 C   0  0  2  0  0  0  0  0  0  0  0  0
   15.9055   -2.5887    8.9636 O   0  0  0  0  0  0  0  0  0  0  0  0
   19.5880   -2.2165    8.2197 C   0  0  1  0  0  0  0  0  0  0  0  0
   19.7196   -3.4735    7.5479 O   0  0  0  0  0  0  0  0  0  0  0  0
   22.5668   -0.2309    7.7141 C   0  0  1  0  0  0  0  0  0  0  0  0
   23.6919    0.3507    7.0462 O   0  0  0  0  0  0  0  0  0  0  0  0
   13.0591    0.1973   13.1491 C   0  0  2  0  0  0  0  0  0  0  0  0
   14.1706   -0.4572   13.7341 O   0  0  0  0  0  0  0  0  0  0  0  0
   11.4364   -0.1288    8.8216 C   0  0  2  0  0  0  0  0  0  0  0  0
   14.0689   -2.7692    7.5501 C   0  0  2  0  0  0  0  0  0  0  0  0
   13.2118   -1.8703    8.2359 O   0  0  0  0  0  0  0  0  0  0  0  0
   19.5277   -1.1208    7.0773 C   0  0  2  0  0  0  0  0  0  0  0  0
   19.4313    0.1178    7.7824 O   0  0  0  0  0  0  0  0  0  0  0  0
   23.0543   -1.0417    8.9161 C   0  0  2  0  0  0  0  0  0  0  0  0
   23.6589   -2.2367    8.3953 O   0  0  0  0  0  0  0  0  0  0  0  0
   12.2503   -0.7577   12.2364 C   0  0  2  0  0  0  0  0  0  0  0  0
   11.0712   -0.0309   11.7866 O   0  0  0  0  0  0  0  0  0  0  0  0
   10.8012   -1.3914    9.4876 C   0  0  2  0  0  0  0  0  0  0  0  0
   11.8399   -2.1679   10.1468 O   0  0  0  0  0  0  0  0  0  0  0  0
   13.2320   -3.6837    6.6563 C   0  0  0  0  0  0  0  0  0  0  0  0
   12.8907   -2.9410    5.4767 O   0  0  0  0  0  0  0  0  0  0  0  0
   18.1844   -1.3093    6.3988 C   0  0  1  0  0  0  0  0  0  0  0  0
   16.9237   -1.7533    6.9448 O   0  0  0  0  0  0  0  0  0  0  0  0
   21.9300   -1.2918    9.9151 C   0  0  2  0  0  0  0  0  0  0  0  0
   20.8726   -0.3387   10.1030 O   0  0  0  0  0  0  0  0  0  0  0  0
   11.7401   -1.9602   12.9548 C   0  0  0  0  0  0  0  0  0  0  0  0
   10.8693   -1.5104   13.9646 O   0  0  0  0  0  0  0  0  0  0  0  0
    9.9947   -2.2287    8.4384 C   0  0  1  0  0  0  0  0  0  0  0  0
    9.2837   -3.2630    9.1691 O   0  0  0  0  0  0  0  0  0  0  0  0
   17.9049   -0.4138    5.1527 C   0  0  0  0  0  0  0  0  0  0  0  0
   16.4665   -0.1674    4.9183 N   0  0  0  0  0  0  0  0  0  0  0  0
   22.1286   -2.0661   11.2162 C   0  0  0  0  0  0  0  0  0  0  0  0
   22.7080   -3.3676   10.9349 O   0  0  0  0  0  0  0  0  0  0  0  0
  1  2  1  6  0  0  0
  1  8  1  0  0  0  0
  1 36  1  0  0  0  0
  3  4  1  6  0  0  0
  3 10  1  0  0  0  0
  3 47  1  0  0  0  0
  5 11  1  0  0  0  0
  5 30  1  0  0  0  0
  5 38  1  6  0  0  0
  6 21  1  1  0  0  0
  6 42  1  0  0  0  0
  7 15  1  0  0  0  0
  7 44  1  0  0  0  0
  7 32  1  6  0  0  0
  8  9  1  6  0  0  0
  8 17  1  0  0  0  0
 11 12  1  1  0  0  0
 11 20  1  0  0  0  0
 13  6  1  0  0  0  0
 13 14  1  6  0  0  0
 15 16  1  1  0  0  0
 15 24  1  0  0  0  0
 17 26  1  0  0  0  0
 18 10  1  0  0  0  0
 18 19  1  6  0  0  0
 20 21  1  1  0  0  0
 20 29  1  0  0  0  0
 22 13  1  0  0  0  0
 22 23  1  6  0  0  0
 24 25  1  1  0  0  0
 24 33  1  0  0  0  0
 26 27  1  6  0  0  0
 26 35  1  0  0  0  0
 28  2  1  1  0  0  0
 28 18  1  0  0  0  0
 29 30  1  0  0  0  0
 29 39  1  1  0  0  0
 31 22  1  0  0  0  0
 31 32  1  1  0  0  0
 31 41  1  0  0  0  0
 33 34  1  6  0  0  0
 33 43  1  0  0  0  0
 35 36  1  0  0  0  0
 35 45  1  1  0  0  0
 37 28  1  0  0  0  0
 37 38  1  6  0  0  0
 39 40  1  0  0  0  0
 41 42  1  0  0  0  0
 41 49  1  1  0  0  0
 43 44  1  0  0  0  0
 43 51  1  1  0  0  0
 45 46  1  0  0  0  0
 47 37  1  0  0  0  0
 47 48  1  1  0  0  0
 49 50  1  0  0  0  0
 51 52  1  0  0  0  0
M  END
>  <CHROM.1>
-177.83363634,-148.20799775,-150.54182048,77.61193375,166.08160956,76.82805701
-166.28675787,50.72537268,61.83050646,-28.13378959,-153.48657931,-54.24290409
15.58202064,-1.08433492,9.12970166,-3.03081344,-0.02558617,-1.84723196

>  <Name>
2esj_lig

>  <RI>
0

>  <Rbt.Current_Directory>
/home/itssahil/PROJECTS/Mol_Feturizer/New_Systems/rnas/2esj

>  <Rbt.Executable>
rbdock ($Id: //depot/dev/client3/rdock/2013.1/src/exe/rbdock.cxx#4 $)

>  <Rbt.Library>
libRbt.so (2013.1, Build901 2013/11/27)

>  <Rbt.Parameter_File>
/export/apps/rDock/src/rDock_2013.1_src/data/scripts/dock_solv.prm

>  <Rbt.Receptor>
prm/blind_docking_40.prm

>  <SCORE>
25.9205

>  <SCORE.INTER>
7.88707

>  <SCORE.INTER.CONST>
1

>  <SCORE.INTER.POLAR>
0

>  <SCORE.INTER.ROT>
12

>  <SCORE.INTER.SOLV>
33.8437

>  <SCORE.INTER.VDW>
-17.6232

>  <SCORE.INTER.norm>
0.151675

>  <SCORE.INTRA>
0.0341341

>  <SCORE.INTRA.DIHEDRAL>
-11.9024

>  <SCORE.INTRA.DIHEDRAL.0>
32.9766

>  <SCORE.INTRA.POLAR>
0

>  <SCORE.INTRA.POLAR.0>
0

>  <SCORE.INTRA.REPUL>
0

>  <SCORE.INTRA.REPUL.0>
0

>  <SCORE.INTRA.SOLV>
-0.648477

>  <SCORE.INTRA.SOLV.lig_0>
-114.358

>  <SCORE.INTRA.VDW>
6.30956

>  <SCORE.INTRA.VDW.0>
-8.24257

>  <SCORE.INTRA.norm>
0.000656425

>  <SCORE.RESTR>
17.9993

>  <SCORE.RESTR.CAVITY>
17.9993

>  <SCORE.RESTR.norm>
0.346141

>  <SCORE.SYSTEM>
0

>  <SCORE.SYSTEM.CONST>
0

>  <SCORE.SYSTEM.DIHEDRAL>
0

>  <SCORE.SYSTEM.SOLV>
0

>  <SCORE.SYSTEM.norm>
0

>  <SCORE.heavy>
52

>  <SCORE.norm>
0.498472

>  <RMSD>
11.370

$$$$
2esj_lig
 OpenBabel11021811423D
libRbt.so/2013.1/901 2013/11/27
 52 56  0  0  0  0  0  0  0  0999 V2000
   22.1702   -4.4423   12.4527 C   0  0  2  0  0  0  0  0  0  0  0  0
   23.0448   -5.3263   13.1796 O   0  0  0  0  0  0  0  0  0  0  0  0
   27.1150   -5.0168   14.4547 C   0  0  2  0  0  0  0  0  0  0  0  0
   28.3811   -4.6023   15.0812 N   0  0  0  0  0  0  0  0  0  0  0  0
   23.3095   -7.6432   15.9586 C   0  0  1  0  0  0  0  0  0  0  0  0
   22.9944  -11.8752   16.2170 C   0  0  1  0  0  0  0  0  0  0  0  0
   18.3733  -14.0784   16.7680 C   0  0  1  0  0  0  0  0  0  0  0  0
   21.0694   -3.9554   13.4406 C   0  0  2  0  0  0  0  0  0  0  0  0
   21.6350   -3.3110   14.6255 N   0  0  0  0  0  0  0  0  0  0  0  0
   26.5069   -3.8293   13.6077 C   0  0  0  0  0  0  0  0  0  0  0  0
   24.5149   -8.5814   15.8847 C   0  0  2  0  0  0  0  0  0  0  0  0
   24.8666   -8.9198   14.5256 O   0  0  0  0  0  0  0  0  0  0  0  0
   21.7466  -12.3620   15.3526 C   0  0  2  0  0  0  0  0  0  0  0  0
   20.5727  -11.4735   15.5610 N   0  0  0  0  0  0  0  0  0  0  0  0
   17.9256  -14.5203   18.1564 C   0  0  1  0  0  0  0  0  0  0  0  0
   16.4874  -14.4555   18.2333 O   0  0  0  0  0  0  0  0  0  0  0  0
   20.1443   -5.1378   13.8709 C   0  0  0  0  0  0  0  0  0  0  0  0
   25.1796   -4.3114   12.8953 C   0  0  2  0  0  0  0  0  0  0  0  0
   24.5870   -3.2222   12.1123 N   0  0  0  0  0  0  0  0  0  0  0  0
   24.0114   -9.7388   16.6977 C   0  0  2  0  0  0  0  0  0  0  0  0
   23.1041  -10.5080   15.9497 O   0  0  0  0  0  0  0  0  0  0  0  0
   21.4836  -13.9044   15.6475 C   0  0  1  0  0  0  0  0  0  0  0  0
   22.7077  -14.6247   15.4696 O   0  0  0  0  0  0  0  0  0  0  0  0
   18.3556  -15.9247   18.5628 C   0  0  1  0  0  0  0  0  0  0  0  0
   17.6569  -16.2488   19.7699 O   0  0  0  0  0  0  0  0  0  0  0  0
   19.5739   -5.8211   12.5929 C   0  0  2  0  0  0  0  0  0  0  0  0
   18.6625   -6.8573   12.9119 O   0  0  0  0  0  0  0  0  0  0  0  0
   24.1643   -4.8384   13.9424 C   0  0  2  0  0  0  0  0  0  0  0  0
   23.1460   -9.1244   17.8171 C   0  0  2  0  0  0  0  0  0  0  0  0
   22.6499   -7.9497   17.1949 O   0  0  0  0  0  0  0  0  0  0  0  0
   21.0589  -14.1408   17.1551 C   0  0  2  0  0  0  0  0  0  0  0  0
   19.8217  -13.4390   17.2864 O   0  0  0  0  0  0  0  0  0  0  0  0
   18.0612  -16.9899   17.5051 C   0  0  2  0  0  0  0  0  0  0  0  0
   18.7897  -18.1683   17.8864 O   0  0  0  0  0  0  0  0  0  0  0  0
   20.7618   -6.3461   11.7489 C   0  0  2  0  0  0  0  0  0  0  0  0
   21.5678   -5.1931   11.3723 O   0  0  0  0  0  0  0  0  0  0  0  0
   24.7395   -5.9345   14.8957 C   0  0  2  0  0  0  0  0  0  0  0  0
   23.7325   -6.3001   15.8799 O   0  0  0  0  0  0  0  0  0  0  0  0
   23.8710   -8.7454   19.1080 C   0  0  0  0  0  0  0  0  0  0  0  0
   24.9869   -7.9169   18.7500 O   0  0  0  0  0  0  0  0  0  0  0  0
   22.0589  -13.3638   17.9895 C   0  0  1  0  0  0  0  0  0  0  0  0
   22.7589  -12.1363   17.6933 O   0  0  0  0  0  0  0  0  0  0  0  0
   18.3750  -16.4855   16.1010 C   0  0  2  0  0  0  0  0  0  0  0  0
   18.2215  -15.1008   15.7536 O   0  0  0  0  0  0  0  0  0  0  0  0
   20.3344   -6.9816   10.4699 C   0  0  0  0  0  0  0  0  0  0  0  0
   21.4631   -7.6120    9.9143 O   0  0  0  0  0  0  0  0  0  0  0  0
   26.0791   -5.4562   15.5507 C   0  0  1  0  0  0  0  0  0  0  0  0
   26.6410   -6.5930   16.2587 O   0  0  0  0  0  0  0  0  0  0  0  0
   21.9325  -13.5093   19.5373 C   0  0  0  0  0  0  0  0  0  0  0  0
   21.0658  -12.4830   20.1540 N   0  0  0  0  0  0  0  0  0  0  0  0
   18.1683  -17.3312   14.8465 C   0  0  0  0  0  0  0  0  0  0  0  0
   18.9338  -18.5612   14.9461 O   0  0  0  0  0  0  0  0  0  0  0  0
  1  2  1  1  0  0  0
  1  8  1  0  0  0  0
  1 36  1  0  0  0  0
  3  4  1  1  0  0  0
  3 10  1  0  0  0  0
  3 47  1  0  0  0  0
  5 11  1  0  0  0  0
  5 30  1  0  0  0  0
  5 38  1  1  0  0  0
  6 21  1  1  0  0  0
  6 42  1  0  0  0  0
  7 15  1  0  0  0  0
  7 44  1  0  0  0  0
  7 32  1  1  0  0  0
  8  9  1  1  0  0  0
  8 17  1  0  0  0  0
 11 12  1  6  0  0  0
 11 20  1  0  0  0  0
 13  6  1  0  0  0  0
 13 14  1  1  0  0  0
 15 16  1  6  0  0  0
 15 24  1  0  0  0  0
 17 26  1  0  0  0  0
 18 10  1  0  0  0  0
 18 19  1  1  0  0  0
 20 21  1  6  0  0  0
 20 29  1  0  0  0  0
 22 13  1  0  0  0  0
 22 23  1  1  0  0  0
 24 25  1  1  0  0  0
 24 33  1  0  0  0  0
 26 27  1  1  0  0  0
 26 35  1  0  0  0  0
 28  2  1  6  0  0  0
 28 18  1  0  0  0  0
 29 30  1  0  0  0  0
 29 39  1  1  0  0  0
 31 22  1  0  0  0  0
 31 32  1  6  0  0  0
 31 41  1  0  0  0  0
 33 34  1  1  0  0  0
 33 43  1  0  0  0  0
 35 36  1  0  0  0  0
 35 45  1  6  0  0  0
 37 28  1  0  0  0  0
 37 38  1  1  0  0  0
 39 40  1  0  0  0  0
 41 42  1  0  0  0  0
 41 49  1  1  0  0  0
 43 44  1  0  0  0  0
 43 51  1  6  0  0  0
 45 46  1  0  0  0  0
 47 37  1  0  0  0  0
 47 48  1  6  0  0  0
 49 50  1  0  0  0  0
 51 52  1  0  0  0  0
M  END
>  <CHROM.1>
-86.28282074,43.90810279,171.85094067,100.34141292,150.68440838,-68.93998986
52.34122559,80.30927054,-170.13380829,121.41894042,-91.54084419,-57.68043436
21.88921028,-9.88691728,15.57950606,1.05921989,-0.61211976,-0.63693649

>  <Name>
2esj_lig

>  <RI>
0

>  <Rbt.Current_Directory>
/home/itssahil/PROJECTS/Mol_Feturizer/New_Systems/rnas/2esj

>  <Rbt.Executable>
rbdock ($Id: //depot/dev/client3/rdock/2013.1/src/exe/rbdock.cxx#4 $)

>  <Rbt.Library>
libRbt.so (2013.1, Build901 2013/11/27)

>  <Rbt.Parameter_File>
/export/apps/rDock/src/rDock_2013.1_src/data/scripts/dock_solv.prm

>  <Rbt.Receptor>
prm/pocket_docking_8.prm

>  <SCORE>
-20.0536

>  <SCORE.INTER>
-20.3109

>  <SCORE.INTER.CONST>
1

>  <SCORE.INTER.POLAR>
-2.30614

>  <SCORE.INTER.ROT>
12

>  <SCORE.INTER.SOLV>
10.5316

>  <SCORE.INTER.VDW>
-20.964

>  <SCORE.INTER.norm>
-0.390594

>  <SCORE.INTRA>
0.257286

>  <SCORE.INTRA.DIHEDRAL>
-4.74818

>  <SCORE.INTRA.DIHEDRAL.0>
32.9766

>  <SCORE.INTRA.POLAR>
0

>  <SCORE.INTRA.POLAR.0>
0

>  <SCORE.INTRA.REPUL>
0

>  <SCORE.INTRA.REPUL.0>
0

>  <SCORE.INTRA.SOLV>
1.14241

>  <SCORE.INTRA.SOLV.lig_0>
-114.358

>  <SCORE.INTRA.VDW>
2.06017

>  <SCORE.INTRA.VDW.0>
-8.24257

>  <SCORE.INTRA.norm>
0.00494781

>  <SCORE.RESTR>
0

>  <SCORE.RESTR.CAVITY>
0

>  <SCORE.RESTR.norm>
0

>  <SCORE.SYSTEM>
0

>  <SCORE.SYSTEM.CONST>
0

>  <SCORE.SYSTEM.DIHEDRAL>
0

>  <SCORE.SYSTEM.SOLV>
0

>  <SCORE.SYSTEM.norm>
0

>  <SCORE.heavy>
52

>  <SCORE.norm>
-0.385647

>  <RMSD>
11.377

$$$$
2esj_lig
 OpenBabel11021811423D
libRbt.so/2013.1/901 2013/11/27
 52 56  0  0  0  0  0  0  0  0999 V2000
   28.8056    1.7786   13.7376 C   0  0  2  0  0  0  0  0  0  0  0  0
   28.8178    1.8588   15.1758 O   0  0  0  0  0  0  0  0  0  0  0  0
   29.1876   -1.0451   18.2932 C   0  0  2  0  0  0  0  0  0  0  0  0
   28.9456   -2.1108   19.2796 N   0  0  0  0  0  0  0  0  0  0  0  0
   27.9332   -1.4264   13.9824 C   0  0  1  0  0  0  0  0  0  0  0  0
   24.5543   -3.1240   12.1466 C   0  0  1  0  0  0  0  0  0  0  0  0
   20.4291   -2.4286   14.6302 C   0  0  1  0  0  0  0  0  0  0  0  0
   29.3717    3.1213   13.1885 C   0  0  2  0  0  0  0  0  0  0  0  0
   30.7078    3.4121   13.7077 N   0  0  0  0  0  0  0  0  0  0  0  0
   28.1486    0.1296   18.4882 C   0  0  0  0  0  0  0  0  0  0  0  0
   27.9778   -1.8029   12.5009 C   0  0  2  0  0  0  0  0  0  0  0  0
   27.6993   -0.6787   11.6384 O   0  0  0  0  0  0  0  0  0  0  0  0
   23.2804   -2.1893   12.3587 C   0  0  2  0  0  0  0  0  0  0  0  0
   23.3172   -1.5298   13.6908 N   0  0  0  0  0  0  0  0  0  0  0  0
   20.6500   -2.3668   16.1372 C   0  0  1  0  0  0  0  0  0  0  0  0
   20.3297   -1.0427   16.6089 O   0  0  0  0  0  0  0  0  0  0  0  0
   28.4076    4.3065   13.5123 C   0  0  0  0  0  0  0  0  0  0  0  0
   28.4611    1.2900   17.4599 C   0  0  2  0  0  0  0  0  0  0  0  0
   27.5012    2.3885   17.6111 N   0  0  0  0  0  0  0  0  0  0  0  0
   26.9360   -2.8832   12.4613 C   0  0  2  0  0  0  0  0  0  0  0  0
   25.6468   -2.3252   12.4945 O   0  0  0  0  0  0  0  0  0  0  0  0
   21.9640   -3.0345   12.0625 C   0  0  1  0  0  0  0  0  0  0  0  0
   22.0945   -3.6606   10.7820 O   0  0  0  0  0  0  0  0  0  0  0  0
   19.8412   -3.3662   16.9553 C   0  0  1  0  0  0  0  0  0  0  0  0
   19.9933   -3.0073   18.3330 O   0  0  0  0  0  0  0  0  0  0  0  0
   26.9884    3.9630   12.9706 C   0  0  2  0  0  0  0  0  0  0  0  0
   26.0785    5.0314   13.1627 O   0  0  0  0  0  0  0  0  0  0  0  0
   28.4363    0.7471   16.0075 C   0  0  2  0  0  0  0  0  0  0  0  0
   27.0531   -3.6328   13.8045 C   0  0  2  0  0  0  0  0  0  0  0  0
   27.5093   -2.6090   14.6744 O   0  0  0  0  0  0  0  0  0  0  0  0
   21.7879   -4.2149   13.1042 C   0  0  2  0  0  0  0  0  0  0  0  0
   21.6270   -3.5544   14.3605 O   0  0  0  0  0  0  0  0  0  0  0  0
   18.3536   -3.3934   16.5998 C   0  0  2  0  0  0  0  0  0  0  0  0
   17.8008   -4.5712   17.2096 O   0  0  0  0  0  0  0  0  0  0  0  0
   26.5015    2.6672   13.6656 C   0  0  2  0  0  0  0  0  0  0  0  0
   27.4344    1.6077   13.3079 O   0  0  0  0  0  0  0  0  0  0  0  0
   29.3544   -0.4952   15.7734 C   0  0  2  0  0  0  0  0  0  0  0  0
   29.1971   -0.9653   14.4057 O   0  0  0  0  0  0  0  0  0  0  0  0
   28.0319   -4.8058   13.8467 C   0  0  0  0  0  0  0  0  0  0  0  0
   27.9416   -5.3975   15.1510 O   0  0  0  0  0  0  0  0  0  0  0  0
   23.1373   -4.9035   13.1755 C   0  0  1  0  0  0  0  0  0  0  0  0
   24.4658   -4.3586   13.0246 O   0  0  0  0  0  0  0  0  0  0  0  0
   18.1369   -3.3065   15.0932 C   0  0  2  0  0  0  0  0  0  0  0  0
   19.0392   -2.5736   14.2503 O   0  0  0  0  0  0  0  0  0  0  0  0
   25.1646    2.2139   13.1865 C   0  0  0  0  0  0  0  0  0  0  0  0
   24.7764    1.1243   13.9879 O   0  0  0  0  0  0  0  0  0  0  0  0
   29.0633   -1.6108   16.8331 C   0  0  1  0  0  0  0  0  0  0  0  0
   30.0796   -2.6352   16.6688 O   0  0  0  0  0  0  0  0  0  0  0  0
   23.2169   -6.1834   14.0634 C   0  0  0  0  0  0  0  0  0  0  0  0
   23.4801   -5.8930   15.4886 N   0  0  0  0  0  0  0  0  0  0  0  0
   16.7522   -3.3020   14.4496 C   0  0  0  0  0  0  0  0  0  0  0  0
   16.1621   -4.6262   14.5336 O   0  0  0  0  0  0  0  0  0  0  0  0
  1  2  1  1  0  0  0
  1  8  1  0  0  0  0
  1 36  1  0  0  0  0
  3  4  1  1  0  0  0
  3 10  1  0  0  0  0
  3 47  1  0  0  0  0
  5 11  1  0  0  0  0
  5 30  1  0  0  0  0
  5 38  1  1  0  0  0
  6 21  1  1  0  0  0
  6 42  1  0  0  0  0
  7 15  1  0  0  0  0
  7 44  1  0  0  0  0
  7 32  1  1  0  0  0
  8  9  1  1  0  0  0
  8 17  1  0  0  0  0
 11 12  1  6  0  0  0
 11 20  1  0  0  0  0
 13  6  1  0  0  0  0
 13 14  1  1  0  0  0
 15 16  1  1  0  0  0
 15 24  1  0  0  0  0
 17 26  1  0  0  0  0
 18 10  1  0  0  0  0
 18 19  1  6  0  0  0
 20 21  1  1  0  0  0
 20 29  1  0  0  0  0
 22 13  1  0  0  0  0
 22 23  1  6  0  0  0
 24 25  1  1  0  0  0
 24 33  1  0  0  0  0
 26 27  1  1  0  0  0
 26 35  1  0  0  0  0
 28  2  1  6  0  0  0
 28 18  1  0  0  0  0
 29 30  1  0  0  0  0
 29 39  1  6  0  0  0
 31 22  1  0  0  0  0
 31 32  1  1  0  0  0
 31 41  1  0  0  0  0
 33 34  1  6  0  0  0
 33 43  1  0  0  0  0
 35 36  1  0  0  0  0
 35 45  1  6  0  0  0
 37 28  1  0  0  0  0
 37 38  1  6  0  0  0
 39 40  1  0  0  0  0
 41 42  1  0  0  0  0
 41 49  1  1  0  0  0
 43 44  1  0  0  0  0
 43 51  1  1  0  0  0
 45 46  1  0  0  0  0
 47 37  1  0  0  0  0
 47 48  1  1  0  0  0
 49 50  1  0  0  0  0
 51 52  1  0  0  0  0
M  END
>  <CHROM.1>
-175.96980478,177.16125881,177.65995634,169.50659866,164.79638624,-174.81249907
-177.28869059,56.70473192,-173.79758438,-62.26350666,-85.67779590,-72.44773002
24.93298527,-1.46938565,14.61145604,0.48301728,-0.06257985,-0.15173104

>  <Name>
2esj_lig

>  <RI>
2.18877e+07

>  <Rbt.Current_Directory>
/home/itssahil/PROJECTS/Mol_Feturizer/New_Systems/rnas/2esj

>  <Rbt.Executable>
rbdock ($Id: //depot/dev/client3/rdock/2013.1/src/exe/rbdock.cxx#4 $)

>  <Rbt.Library>
libRbt.so (2013.1, Build901 2013/11/27)

>  <Rbt.Parameter_File>
/export/apps/rDock/src/rDock_2013.1_src/data/scripts/dock_solv.prm

>  <Rbt.Receptor>
prm/pocket_docking_7.prm

>  <SCORE>
-13.8569

>  <SCORE.INTER>
-1.52049

>  <SCORE.INTER.CONST>
1

>  <SCORE.INTER.POLAR>
-0.973674

>  <SCORE.INTER.ROT>
12

>  <SCORE.INTER.SOLV>
6.52511

>  <SCORE.INTER.VDW>
-11.5431

>  <SCORE.INTER.norm>
-0.0292401

>  <SCORE.INTRA>
-12.3364

>  <SCORE.INTRA.DIHEDRAL>
-25.5414

>  <SCORE.INTRA.DIHEDRAL.0>
32.9766

>  <SCORE.INTRA.POLAR>
0

>  <SCORE.INTRA.POLAR.0>
0

>  <SCORE.INTRA.REPUL>
0.00439096

>  <SCORE.INTRA.REPUL.0>
0

>  <SCORE.INTRA.SOLV>
-1.05471

>  <SCORE.INTRA.SOLV.lig_0>
-114.358

>  <SCORE.INTRA.VDW>
0.939658

>  <SCORE.INTRA.VDW.0>
-8.24257

>  <SCORE.INTRA.norm>
-0.237239

>  <SCORE.RESTR>
0

>  <SCORE.RESTR.CAVITY>
0

>  <SCORE.RESTR.norm>
0

>  <SCORE.SYSTEM>
0

>  <SCORE.SYSTEM.CONST>
0

>  <SCORE.SYSTEM.DIHEDRAL>
0

>  <SCORE.SYSTEM.SOLV>
0

>  <SCORE.SYSTEM.norm>
0

>  <SCORE.heavy>
52

>  <SCORE.norm>
-0.266479

>  <RMSD>
11.388

$$$$
2esj_lig
 OpenBabel11021811423D
libRbt.so/2013.1/901 2013/11/27
 52 56  0  0  0  0  0  0  0  0999 V2000
   30.2678   -3.7274   17.4594 C   0  0  2  0  0  0  0  0  0  0  0  0
   30.8641   -4.7834   18.2367 O   0  0  0  0  0  0  0  0  0  0  0  0
   29.2298   -8.1803   20.2561 C   0  0  2  0  0  0  0  0  0  0  0  0
   28.5859   -9.0870   21.2207 N   0  0  0  0  0  0  0  0  0  0  0  0
   26.8225   -5.5730   17.3924 C   0  0  1  0  0  0  0  0  0  0  0  0
   23.1366   -5.2083   16.3386 C   0  0  1  0  0  0  0  0  0  0  0  0
   19.2793   -8.3555   16.5721 C   0  0  1  0  0  0  0  0  0  0  0  0
   31.3624   -3.1780   16.4976 C   0  0  2  0  0  0  0  0  0  0  0  0
   31.9307   -4.2258   15.6500 N   0  0  0  0  0  0  0  0  0  0  0  0
   30.4286   -7.4114   20.9411 C   0  0  0  0  0  0  0  0  0  0  0  0
   26.0083   -4.3500   16.9684 C   0  0  2  0  0  0  0  0  0  0  0  0
   25.0225   -3.9758   17.9551 O   0  0  0  0  0  0  0  0  0  0  0  0
   22.8570   -5.9121   17.7413 C   0  0  2  0  0  0  0  0  0  0  0  0
   23.0428   -7.3844   17.6471 N   0  0  0  0  0  0  0  0  0  0  0  0
   18.0241   -7.6429   17.0623 C   0  0  1  0  0  0  0  0  0  0  0  0
   17.0041   -7.7281   16.0471 O   0  0  0  0  0  0  0  0  0  0  0  0
   32.5006   -2.4672   17.2967 C   0  0  0  0  0  0  0  0  0  0  0  0
   31.1443   -6.4878   19.8752 C   0  0  2  0  0  0  0  0  0  0  0  0
   32.2539   -5.7516   20.4897 N   0  0  0  0  0  0  0  0  0  0  0  0
   25.4286   -4.8421   15.6738 C   0  0  2  0  0  0  0  0  0  0  0  0
   24.3637   -5.7263   15.9159 O   0  0  0  0  0  0  0  0  0  0  0  0
   21.4321   -5.4469   18.2782 C   0  0  1  0  0  0  0  0  0  0  0  0
   21.3732   -4.0170   18.2547 O   0  0  0  0  0  0  0  0  0  0  0  0
   17.4384   -8.1772   18.3638 C   0  0  1  0  0  0  0  0  0  0  0  0
   16.1586   -7.5590   18.5373 O   0  0  0  0  0  0  0  0  0  0  0  0
   31.8683   -1.3734   18.2075 C   0  0  2  0  0  0  0  0  0  0  0  0
   32.8546   -0.6347   18.9058 O   0  0  0  0  0  0  0  0  0  0  0  0
   30.1270   -5.5027   19.2429 C   0  0  2  0  0  0  0  0  0  0  0  0
   26.5151   -5.7321   15.0356 C   0  0  2  0  0  0  0  0  0  0  0  0
   27.1864   -6.2418   16.1768 O   0  0  0  0  0  0  0  0  0  0  0  0
   20.2658   -5.9427   17.3279 C   0  0  2  0  0  0  0  0  0  0  0  0
   20.3328   -7.3676   17.4024 O   0  0  0  0  0  0  0  0  0  0  0  0
   17.2741   -9.6979   18.3875 C   0  0  2  0  0  0  0  0  0  0  0  0
   17.0199  -10.0684   19.7523 O   0  0  0  0  0  0  0  0  0  0  0  0
   30.8766   -2.0609   19.1786 C   0  0  2  0  0  0  0  0  0  0  0  0
   29.8403   -2.6857   18.3683 O   0  0  0  0  0  0  0  0  0  0  0  0
   28.8548   -6.1898   18.6509 C   0  0  2  0  0  0  0  0  0  0  0  0
   27.9394   -5.1735   18.1553 O   0  0  0  0  0  0  0  0  0  0  0  0
   27.5236   -5.0297   14.1271 C   0  0  0  0  0  0  0  0  0  0  0  0
   28.4958   -6.0057   13.7245 O   0  0  0  0  0  0  0  0  0  0  0  0
   20.7045   -5.5869   15.9204 C   0  0  1  0  0  0  0  0  0  0  0  0
   22.0294   -5.5240   15.3499 O   0  0  0  0  0  0  0  0  0  0  0  0
   18.4734  -10.3997   17.7600 C   0  0  2  0  0  0  0  0  0  0  0  0
   19.2131   -9.7977   16.6867 O   0  0  0  0  0  0  0  0  0  0  0  0
   30.1719   -1.0984   20.0726 C   0  0  0  0  0  0  0  0  0  0  0  0
   31.1192   -0.5994   20.9857 O   0  0  0  0  0  0  0  0  0  0  0  0
   28.1915   -7.1379   19.7059 C   0  0  1  0  0  0  0  0  0  0  0  0
   27.1448   -7.8766   19.0217 O   0  0  0  0  0  0  0  0  0  0  0  0
   19.6797   -5.8755   14.7805 C   0  0  0  0  0  0  0  0  0  0  0  0
   19.5498   -4.7650   13.8137 N   0  0  0  0  0  0  0  0  0  0  0  0
   18.5794  -11.9181   17.6370 C   0  0  0  0  0  0  0  0  0  0  0  0
   19.9415  -12.2943   17.3025 O   0  0  0  0  0  0  0  0  0  0  0  0
  1  2  1  1  0  0  0
  1  8  1  0  0  0  0
  1 36  1  0  0  0  0
  3  4  1  1  0  0  0
  3 10  1  0  0  0  0
  3 47  1  0  0  0  0
  5 11  1  0  0  0  0
  5 30  1  0  0  0  0
  5 38  1  6  0  0  0
  6 21  1  6  0  0  0
  6 42  1  0  0  0  0
  7 15  1  0  0  0  0
  7 44  1  0  0  0  0
  7 32  1  1  0  0  0
  8  9  1  1  0  0  0
  8 17  1  0  0  0  0
 11 12  1  1  0  0  0
 11 20  1  0  0  0  0
 13  6  1  0  0  0  0
 13 14  1  6  0  0  0
 15 16  1  6  0  0  0
 15 24  1  0  0  0  0
 17 26  1  0  0  0  0
 18 10  1  0  0  0  0
 18 19  1  1  0  0  0
 20 21  1  1  0  0  0
 20 29  1  0  0  0  0
 22 13  1  0  0  0  0
 22 23  1  6  0  0  0
 24 25  1  6  0  0  0
 24 33  1  0  0  0  0
 26 27  1  1  0  0  0
 26 35  1  0  0  0  0
 28  2  1  6  0  0  0
 28 18  1  0  0  0  0
 29 30  1  0  0  0  0
 29 39  1  6  0  0  0
 31 22  1  0  0  0  0
 31 32  1  6  0  0  0
 31 41  1  0  0  0  0
 33 34  1  1  0  0  0
 33 43  1  0  0  0  0
 35 36  1  0  0  0  0
 35 45  1  1  0  0  0
 37 28  1  0  0  0  0
 37 38  1  1  0  0  0
 39 40  1  0  0  0  0
 41 42  1  0  0  0  0
 41 49  1  6  0  0  0
 43 44  1  0  0  0  0
 43 51  1  6  0  0  0
 45 46  1  0  0  0  0
 47 37  1  0  0  0  0
 47 48  1  6  0  0  0
 49 50  1  0  0  0  0
 51 52  1  0  0  0  0
M  END
>  <CHROM.1>
179.25240457,-179.53197028,-121.20553706,-50.70571848,74.93599237,-177.37982413
175.66881886,179.34408669,-70.07270986,170.21489943,135.00381861,-166.39804997
25.11300326,-5.95986680,17.65532058,0.24371940,-0.28933420,-0.58443994

>  <Name>
2esj_lig

>  <RI>
2.18877e+07

>  <Rbt.Current_Directory>
/home/itssahil/PROJECTS/Mol_Feturizer/New_Systems/rnas/2esj

>  <Rbt.Executable>
rbdock ($Id: //depot/dev/client3/rdock/2013.1/src/exe/rbdock.cxx#4 $)

>  <Rbt.Library>
libRbt.so (2013.1, Build901 2013/11/27)

>  <Rbt.Parameter_File>
/export/apps/rDock/src/rDock_2013.1_src/data/scripts/dock_solv.prm

>  <Rbt.Receptor>
prm/pocket_docking_7.prm

>  <SCORE>
-7.32294

>  <SCORE.INTER>
-0.578359

>  <SCORE.INTER.CONST>
1

>  <SCORE.INTER.POLAR>
-1.03705

>  <SCORE.INTER.ROT>
12

>  <SCORE.INTER.SOLV>
11.6798

>  <SCORE.INTER.VDW>
-12.422

>  <SCORE.INTER.norm>
-0.0111223

>  <SCORE.INTRA>
-6.74458

>  <SCORE.INTRA.DIHEDRAL>
-17.8067

>  <SCORE.INTRA.DIHEDRAL.0>
32.9766

>  <SCORE.INTRA.POLAR>
0

>  <SCORE.INTRA.POLAR.0>
0

>  <SCORE.INTRA.REPUL>
0

>  <SCORE.INTRA.REPUL.0>
0

>  <SCORE.INTRA.SOLV>
-4.07885

>  <SCORE.INTRA.SOLV.lig_0>
-114.358

>  <SCORE.INTRA.VDW>
4.19822

>  <SCORE.INTRA.VDW.0>
-8.24257

>  <SCORE.INTRA.norm>
-0.129704

>  <SCORE.RESTR>
0

>  <SCORE.RESTR.CAVITY>
0

>  <SCORE.RESTR.norm>
0

>  <SCORE.SYSTEM>
0

>  <SCORE.SYSTEM.CONST>
0

>  <SCORE.SYSTEM.DIHEDRAL>
0

>  <SCORE.SYSTEM.SOLV>
0

>  <SCORE.SYSTEM.norm>
0

>  <SCORE.heavy>
52

>  <SCORE.norm>
-0.140826

>  <RMSD>
11.425

$$$$
2esj_lig
 OpenBabel11021811423D
libRbt.so/2013.1/901 2013/11/27
 52 56  0  0  0  0  0  0  0  0999 V2000
   31.1316   -1.5612   14.0848 C   0  0  2  0  0  0  0  0  0  0  0  0
   29.8543   -0.9213   14.2684 O   0  0  0  0  0  0  0  0  0  0  0  0
   29.7633   -0.7565   18.5407 C   0  0  2  0  0  0  0  0  0  0  0  0
   29.4300   -0.4702   19.9458 N   0  0  0  0  0  0  0  0  0  0  0  0
   26.7578   -1.8811   15.2559 C   0  0  1  0  0  0  0  0  0  0  0  0
   23.1591   -1.3855   13.4358 C   0  0  1  0  0  0  0  0  0  0  0  0
   20.3011   -5.0615   14.8699 C   0  0  1  0  0  0  0  0  0  0  0  0
   31.3918   -1.6570   12.5525 C   0  0  2  0  0  0  0  0  0  0  0  0
   31.3373   -0.3496   11.8991 N   0  0  0  0  0  0  0  0  0  0  0  0
   30.0019    0.5895   17.7478 C   0  0  0  0  0  0  0  0  0  0  0  0
   25.5477   -2.8083   15.1352 C   0  0  2  0  0  0  0  0  0  0  0  0
   25.4599   -3.4324   13.8359 O   0  0  0  0  0  0  0  0  0  0  0  0
   21.8110   -0.9658   14.1760 C   0  0  2  0  0  0  0  0  0  0  0  0
   21.7881   -1.4738   15.5733 N   0  0  0  0  0  0  0  0  0  0  0  0
   18.9556   -5.3769   14.2267 C   0  0  1  0  0  0  0  0  0  0  0  0
   18.9692   -6.7345   13.7416 O   0  0  0  0  0  0  0  0  0  0  0  0
   30.3766   -2.6311   11.8746 C   0  0  0  0  0  0  0  0  0  0  0  0
   30.4163    0.2606   16.2573 C   0  0  2  0  0  0  0  0  0  0  0  0
   30.6308    1.4949   15.4948 N   0  0  0  0  0  0  0  0  0  0  0  0
   24.4345   -1.8462   15.4334 C   0  0  2  0  0  0  0  0  0  0  0  0
   24.1800   -1.0274   14.3202 O   0  0  0  0  0  0  0  0  0  0  0  0
   20.5707   -1.4057   13.2798 C   0  0  1  0  0  0  0  0  0  0  0  0
   20.7573   -0.9029   11.9527 O   0  0  0  0  0  0  0  0  0  0  0  0
   17.7446   -5.2147   15.1374 C   0  0  1  0  0  0  0  0  0  0  0  0
   16.6197   -5.7732   14.4497 O   0  0  0  0  0  0  0  0  0  0  0  0
   30.4369   -4.0068   12.6021 C   0  0  2  0  0  0  0  0  0  0  0  0
   29.5939   -4.9650   11.9877 O   0  0  0  0  0  0  0  0  0  0  0  0
   29.3329   -0.6144   15.5750 C   0  0  2  0  0  0  0  0  0  0  0  0
   24.9897   -0.8729   16.4936 C   0  0  2  0  0  0  0  0  0  0  0  0
   26.3733   -0.8540   16.1805 O   0  0  0  0  0  0  0  0  0  0  0  0
   20.4900   -2.9812   13.1371 C   0  0  2  0  0  0  0  0  0  0  0  0
   20.2702   -3.4445   14.4703 O   0  0  0  0  0  0  0  0  0  0  0  0
   17.8991   -5.8998   16.4964 C   0  0  2  0  0  0  0  0  0  0  0  0
   16.8434   -5.4038   17.3356 O   0  0  0  0  0  0  0  0  0  0  0  0
   30.0635   -3.7889   14.0895 C   0  0  2  0  0  0  0  0  0  0  0  0
   31.0569   -2.8880   14.6574 O   0  0  0  0  0  0  0  0  0  0  0  0
   28.9607   -1.9069   16.3700 C   0  0  2  0  0  0  0  0  0  0  0  0
   27.8881   -2.6089   15.6822 O   0  0  0  0  0  0  0  0  0  0  0  0
   24.8073   -1.2814   17.9550 C   0  0  0  0  0  0  0  0  0  0  0  0
   25.2329   -0.1784   18.7686 O   0  0  0  0  0  0  0  0  0  0  0  0
   21.8918   -3.4324   12.7745 C   0  0  1  0  0  0  0  0  0  0  0  0
   23.1708   -2.8752   13.1465 O   0  0  0  0  0  0  0  0  0  0  0  0
   19.2991   -5.7018   17.0666 C   0  0  2  0  0  0  0  0  0  0  0  0
   20.4458   -5.5931   16.2092 O   0  0  0  0  0  0  0  0  0  0  0  0
   30.1344   -5.0386   14.8991 C   0  0  0  0  0  0  0  0  0  0  0  0
   29.6647   -4.7324   16.1897 O   0  0  0  0  0  0  0  0  0  0  0  0
   28.6031   -1.5638   17.8555 C   0  0  1  0  0  0  0  0  0  0  0  0
   28.4626   -2.8230   18.5654 O   0  0  0  0  0  0  0  0  0  0  0  0
   22.0747   -4.9512   12.4700 C   0  0  0  0  0  0  0  0  0  0  0  0
   23.2996   -5.2514   11.6991 N   0  0  0  0  0  0  0  0  0  0  0  0
   19.7428   -6.2839   18.4068 C   0  0  0  0  0  0  0  0  0  0  0  0
   20.0733   -7.6894   18.2518 O   0  0  0  0  0  0  0  0  0  0  0  0
  1  2  1  6  0  0  0
  1  8  1  0  0  0  0
  1 36  1  0  0  0  0
  3  4  1  1  0  0  0
  3 10  1  0  0  0  0
  3 47  1  0  0  0  0
  5 11  1  0  0  0  0
  5 30  1  0  0  0  0
  5 38  1  1  0  0  0
  6 21  1  1  0  0  0
  6 42  1  0  0  0  0
  7 15  1  0  0  0  0
  7 44  1  0  0  0  0
  7 32  1  1  0  0  0
  8  9  1  6  0  0  0
  8 17  1  0  0  0  0
 11 12  1  6  0  0  0
 11 20  1  0  0  0  0
 13  6  1  0  0  0  0
 13 14  1  1  0  0  0
 15 16  1  1  0  0  0
 15 24  1  0  0  0  0
 17 26  1  0  0  0  0
 18 10  1  0  0  0  0
 18 19  1  6  0  0  0
 20 21  1  6  0  0  0
 20 29  1  0  0  0  0
 22 13  1  0  0  0  0
 22 23  1  6  0  0  0
 24 25  1  6  0  0  0
 24 33  1  0  0  0  0
 26 27  1  6  0  0  0
 26 35  1  0  0  0  0
 28  2  1  6  0  0  0
 28 18  1  0  0  0  0
 29 30  1  0  0  0  0
 29 39  1  1  0  0  0
 31 22  1  0  0  0  0
 31 32  1  1  0  0  0
 31 41  1  0  0  0  0
 33 34  1  1  0  0  0
 33 43  1  0  0  0  0
 35 36  1  0  0  0  0
 35 45  1  1  0  0  0
 37 28  1  0  0  0  0
 37 38  1  6  0  0  0
 39 40  1  0  0  0  0
 41 42  1  0  0  0  0
 41 49  1  1  0  0  0
 43 44  1  0  0  0  0
 43 51  1  1  0  0  0
 45 46  1  0  0  0  0
 47 37  1  0  0  0  0
 47 48  1  1  0  0  0
 49 50  1  0  0  0  0
 51 52  1  0  0  0  0
M  END
>  <CHROM.1>
-176.89094272,-155.33538407,77.31852419,-73.74122441,95.75342194,56.18175753
-172.86652587,-172.26931924,-174.99475954,-47.98625215,160.42292027,79.55609862
25.00811707,-2.90157741,15.13997344,-0.07448407,-0.28954657,-1.81020365

>  <Name>
2esj_lig

>  <RI>
0

>  <Rbt.Current_Directory>
/home/itssahil/PROJECTS/Mol_Feturizer/New_Systems/rnas/2esj

>  <Rbt.Executable>
rbdock ($Id: //depot/dev/client3/rdock/2013.1/src/exe/rbdock.cxx#4 $)

>  <Rbt.Library>
libRbt.so (2013.1, Build901 2013/11/27)

>  <Rbt.Parameter_File>
/export/apps/rDock/src/rDock_2013.1_src/data/scripts/dock_solv.prm

>  <Rbt.Receptor>
prm/pocket_docking_4.prm

>  <SCORE>
-4.67368

>  <SCORE.INTER>
-0.829139

>  <SCORE.INTER.CONST>
1

>  <SCORE.INTER.POLAR>
-1.79461

>  <SCORE.INTER.ROT>
12

>  <SCORE.INTER.SOLV>
7.18634

>  <SCORE.INTER.VDW>
-8.56618

>  <SCORE.INTER.norm>
-0.015945

>  <SCORE.INTRA>
-3.84542

>  <SCORE.INTRA.DIHEDRAL>
-16.6186

>  <SCORE.INTRA.DIHEDRAL.0>
32.9766

>  <SCORE.INTRA.POLAR>
0

>  <SCORE.INTRA.POLAR.0>
0

>  <SCORE.INTRA.REPUL>
0

>  <SCORE.INTRA.REPUL.0>
0

>  <SCORE.INTRA.SOLV>
0.469939

>  <SCORE.INTRA.SOLV.lig_0>
-114.358

>  <SCORE.INTRA.VDW>
4.2289

>  <SCORE.INTRA.VDW.0>
-8.24257

>  <SCORE.INTRA.norm>
-0.0739505

>  <SCORE.RESTR>
0.000879262

>  <SCORE.RESTR.CAVITY>
0.000879262

>  <SCORE.RESTR.norm>
1.69089e-05

>  <SCORE.SYSTEM>
0

>  <SCORE.SYSTEM.CONST>
0

>  <SCORE.SYSTEM.DIHEDRAL>
0

>  <SCORE.SYSTEM.SOLV>
0

>  <SCORE.SYSTEM.norm>
0

>  <SCORE.heavy>
52

>  <SCORE.norm>
-0.0898785

>  <RMSD>
11.428

$$$$
2esj_lig
 OpenBabel11021811423D
libRbt.so/2013.1/901 2013/11/27
 52 56  0  0  0  0  0  0  0  0999 V2000
   28.6294   -2.6929   12.4940 C   0  0  2  0  0  0  0  0  0  0  0  0
   29.0639   -1.4000   12.9572 O   0  0  0  0  0  0  0  0  0  0  0  0
   31.2044   -0.1986   16.4590 C   0  0  2  0  0  0  0  0  0  0  0  0
   31.5904    0.2011   17.8223 N   0  0  0  0  0  0  0  0  0  0  0  0
   28.5470   -3.7406   15.6900 C   0  0  1  0  0  0  0  0  0  0  0  0
   25.0826   -5.5421   16.2082 C   0  0  1  0  0  0  0  0  0  0  0  0
   20.7396   -4.2101   17.6876 C   0  0  1  0  0  0  0  0  0  0  0  0
   28.5403   -2.6286   10.9407 C   0  0  2  0  0  0  0  0  0  0  0  0
   29.8072   -2.2274   10.3298 N   0  0  0  0  0  0  0  0  0  0  0  0
   30.0901    0.7710   15.8972 C   0  0  0  0  0  0  0  0  0  0  0  0
   28.1091   -5.1877   15.4601 C   0  0  2  0  0  0  0  0  0  0  0  0
   27.2546   -5.3273   14.3044 O   0  0  0  0  0  0  0  0  0  0  0  0
   23.9213   -4.4521   16.1408 C   0  0  2  0  0  0  0  0  0  0  0  0
   23.7382   -3.7841   17.4566 N   0  0  0  0  0  0  0  0  0  0  0  0
   20.1583   -4.4563   19.0750 C   0  0  1  0  0  0  0  0  0  0  0  0
   19.8639   -3.1893   19.6968 O   0  0  0  0  0  0  0  0  0  0  0  0
   27.4028   -1.6592   10.4874 C   0  0  0  0  0  0  0  0  0  0  0  0
   29.7314    0.3625   14.4120 C   0  0  2  0  0  0  0  0  0  0  0  0
   28.6882    1.2398   13.8710 N   0  0  0  0  0  0  0  0  0  0  0  0
   27.4306   -5.4795   16.7672 C   0  0  2  0  0  0  0  0  0  0  0  0
   26.1594   -4.8820   16.8062 O   0  0  0  0  0  0  0  0  0  0  0  0
   22.6107   -5.1294   15.5420 C   0  0  1  0  0  0  0  0  0  0  0  0
   22.9479   -5.7846   14.3149 O   0  0  0  0  0  0  0  0  0  0  0  0
   18.8915   -5.3028   19.1093 C   0  0  1  0  0  0  0  0  0  0  0  0
   18.3680   -5.2277   20.4399 O   0  0  0  0  0  0  0  0  0  0  0  0
   26.0710   -2.0929   11.1686 C   0  0  2  0  0  0  0  0  0  0  0  0
   24.9779   -1.3006   10.7401 O   0  0  0  0  0  0  0  0  0  0  0  0
   29.2756   -1.1187   14.3533 C   0  0  2  0  0  0  0  0  0  0  0  0
   28.2347   -4.7169   17.8403 C   0  0  2  0  0  0  0  0  0  0  0  0
   28.7250   -3.6058   17.1069 O   0  0  0  0  0  0  0  0  0  0  0  0
   22.0570   -6.2638   16.4990 C   0  0  2  0  0  0  0  0  0  0  0  0
   21.7002   -5.5712   17.6962 O   0  0  0  0  0  0  0  0  0  0  0  0
   17.8198   -4.8491   18.1165 C   0  0  2  0  0  0  0  0  0  0  0  0
   16.8463   -5.9035   18.0434 O   0  0  0  0  0  0  0  0  0  0  0  0
   26.2618   -2.0190   12.7039 C   0  0  2  0  0  0  0  0  0  0  0  0
   27.3211   -2.9552   13.0538 O   0  0  0  0  0  0  0  0  0  0  0  0
   30.2808   -2.1233   15.0023 C   0  0  2  0  0  0  0  0  0  0  0  0
   29.7221   -3.4659   14.9600 O   0  0  0  0  0  0  0  0  0  0  0  0
   29.4089   -5.4648   18.4709 C   0  0  0  0  0  0  0  0  0  0  0  0
   28.8881   -6.6593   19.0720 O   0  0  0  0  0  0  0  0  0  0  0  0
   23.2580   -7.1154   16.8632 C   0  0  1  0  0  0  0  0  0  0  0  0
   24.6438   -6.7436   17.0249 O   0  0  0  0  0  0  0  0  0  0  0  0
   18.4290   -4.4637   16.7731 C   0  0  2  0  0  0  0  0  0  0  0  0
   19.7432   -3.8917   16.6861 O   0  0  0  0  0  0  0  0  0  0  0  0
   25.0581   -2.4606   13.4645 C   0  0  0  0  0  0  0  0  0  0  0  0
   24.8042   -3.7991   13.1124 O   0  0  0  0  0  0  0  0  0  0  0  0
   30.6610   -1.6724   16.4530 C   0  0  1  0  0  0  0  0  0  0  0  0
   31.7341   -2.5403   16.9053 O   0  0  0  0  0  0  0  0  0  0  0  0
   22.9736   -8.3827   17.7268 C   0  0  0  0  0  0  0  0  0  0  0  0
   22.8483   -8.0925   19.1706 N   0  0  0  0  0  0  0  0  0  0  0  0
   17.5976   -3.9630   15.5943 C   0  0  0  0  0  0  0  0  0  0  0  0
   16.6563   -4.9885   15.1805 O   0  0  0  0  0  0  0  0  0  0  0  0
  1  2  1  1  0  0  0
  1  8  1  0  0  0  0
  1 36  1  0  0  0  0
  3  4  1  1  0  0  0
  3 10  1  0  0  0  0
  3 47  1  0  0  0  0
  5 11  1  0  0  0  0
  5 30  1  0  0  0  0
  5 38  1  6  0  0  0
  6 21  1  1  0  0  0
  6 42  1  0  0  0  0
  7 15  1  0  0  0  0
  7 44  1  0  0  0  0
  7 32  1  6  0  0  0
  8  9  1  6  0  0  0
  8 17  1  0  0  0  0
 11 12  1  6  0  0  0
 11 20  1  0  0  0  0
 13  6  1  0  0  0  0
 13 14  1  1  0  0  0
 15 16  1  6  0  0  0
 15 24  1  0  0  0  0
 17 26  1  0  0  0  0
 18 10  1  0  0  0  0
 18 19  1  1  0  0  0
 20 21  1  6  0  0  0
 20 29  1  0  0  0  0
 22 13  1  0  0  0  0
 22 23  1  6  0  0  0
 24 25  1  1  0  0  0
 24 33  1  0  0  0  0
 26 27  1  6  0  0  0
 26 35  1  0  0  0  0
 28  2  1  6  0  0  0
 28 18  1  0  0  0  0
 29 30  1  0  0  0  0
 29 39  1  6  0  0  0
 31 22  1  0  0  0  0
 31 32  1  1  0  0  0
 31 41  1  0  0  0  0
 33 34  1  6  0  0  0
 33 43  1  0  0  0  0
 35 36  1  0  0  0  0
 35 45  1  1  0  0  0
 37 28  1  0  0  0  0
 37 38  1  1  0  0  0
 39 40  1  0  0  0  0
 41 42  1  0  0  0  0
 41 49  1  1  0  0  0
 43 44  1  0  0  0  0
 43 51  1  1  0  0  0
 45 46  1  0  0  0  0
 47 37  1  0  0  0  0
 47 48  1  6  0  0  0
 49 50  1  0  0  0  0
 51 52  1  0  0  0  0
M  END
>  <CHROM.1>
-178.83112256,177.78491124,-167.14010186,150.90417094,82.83824903,179.97451987
-58.69642686,50.66164957,60.42258044,-64.27767379,-81.65437182,-61.76641671
25.23220117,-3.79940696,15.78468787,0.41633550,-0.14912760,-1.08049899

>  <Name>
2esj_lig

>  <RI>
0

>  <Rbt.Current_Directory>
/home/itssahil/PROJECTS/Mol_Feturizer/New_Systems/rnas/2esj

>  <Rbt.Executable>
rbdock ($Id: //depot/dev/client3/rdock/2013.1/src/exe/rbdock.cxx#4 $)

>  <Rbt.Library>
libRbt.so (2013.1, Build901 2013/11/27)

>  <Rbt.Parameter_File>
/export/apps/rDock/src/rDock_2013.1_src/data/scripts/dock_solv.prm

>  <Rbt.Receptor>
prm/pocket_docking_6.prm

>  <SCORE>
-12.3884

>  <SCORE.INTER>
-2.59592

>  <SCORE.INTER.CONST>
1

>  <SCORE.INTER.POLAR>
-1.46276

>  <SCORE.INTER.ROT>
12

>  <SCORE.INTER.SOLV>
5.6131

>  <SCORE.INTER.VDW>
-10.3258

>  <SCORE.INTER.norm>
-0.0499215

>  <SCORE.INTRA>
-9.79252

>  <SCORE.INTRA.DIHEDRAL>
-20.8464

>  <SCORE.INTRA.DIHEDRAL.0>
32.9766

>  <SCORE.INTRA.POLAR>
0

>  <SCORE.INTRA.POLAR.0>
0

>  <SCORE.INTRA.REPUL>
0

>  <SCORE.INTRA.REPUL.0>
0

>  <SCORE.INTRA.SOLV>
-0.639496

>  <SCORE.INTRA.SOLV.lig_0>
-114.358

>  <SCORE.INTRA.VDW>
0.950417

>  <SCORE.INTRA.VDW.0>
-8.24257

>  <SCORE.INTRA.norm>
-0.188318

>  <SCORE.RESTR>
0

>  <SCORE.RESTR.CAVITY>
0

>  <SCORE.RESTR.norm>
0

>  <SCORE.SYSTEM>
0

>  <SCORE.SYSTEM.CONST>
0

>  <SCORE.SYSTEM.DIHEDRAL>
0

>  <SCORE.SYSTEM.SOLV>
0

>  <SCORE.SYSTEM.norm>
0

>  <SCORE.heavy>
52

>  <SCORE.norm>
-0.238239

>  <RMSD>
11.434

$$$$
2esj_lig
 OpenBabel11021811423D
libRbt.so/2013.1/901 2013/11/27
 52 56  0  0  0  0  0  0  0  0999 V2000
   26.9431    0.6574   12.8409 C   0  0  2  0  0  0  0  0  0  0  0  0
   26.3653    0.7008   14.1596 O   0  0  0  0  0  0  0  0  0  0  0  0
   29.7869    1.8650   16.4455 C   0  0  2  0  0  0  0  0  0  0  0  0
   30.6956    2.3955   17.4752 N   0  0  0  0  0  0  0  0  0  0  0  0
   25.9421   -1.2833   15.7860 C   0  0  1  0  0  0  0  0  0  0  0  0
   23.6525   -3.6554   13.9424 C   0  0  1  0  0  0  0  0  0  0  0  0
   19.3417   -6.2697   12.1234 C   0  0  1  0  0  0  0  0  0  0  0  0
   25.8807    0.0409   11.8838 C   0  0  2  0  0  0  0  0  0  0  0  0
   24.6208    0.7836   11.9036 N   0  0  0  0  0  0  0  0  0  0  0  0
   28.8056    2.9974   15.9432 C   0  0  0  0  0  0  0  0  0  0  0  0
   25.4674   -2.6941   16.1364 C   0  0  2  0  0  0  0  0  0  0  0  0
   26.0001   -3.6928   15.2397 O   0  0  0  0  0  0  0  0  0  0  0  0
   22.7310   -3.3845   12.6701 C   0  0  2  0  0  0  0  0  0  0  0  0
   21.3997   -2.8613   13.0760 N   0  0  0  0  0  0  0  0  0  0  0  0
   19.5106   -5.7230   10.7105 C   0  0  1  0  0  0  0  0  0  0  0  0
   19.0408   -6.7037    9.7639 O   0  0  0  0  0  0  0  0  0  0  0  0
   25.6179   -1.4582   12.2344 C   0  0  0  0  0  0  0  0  0  0  0  0
   27.8782    2.4251   14.7969 C   0  0  2  0  0  0  0  0  0  0  0  0
   26.9472    3.4540   14.3218 N   0  0  0  0  0  0  0  0  0  0  0  0
   23.9798   -2.5134   16.0443 C   0  0  2  0  0  0  0  0  0  0  0  0
   23.5698   -2.4845   14.7006 O   0  0  0  0  0  0  0  0  0  0  0  0
   22.6920   -4.6980   11.7709 C   0  0  1  0  0  0  0  0  0  0  0  0
   24.0345   -5.1216   11.5124 O   0  0  0  0  0  0  0  0  0  0  0  0
   18.7860   -4.4123   10.4287 C   0  0  1  0  0  0  0  0  0  0  0  0
   18.8595   -4.1829    9.0173 O   0  0  0  0  0  0  0  0  0  0  0  0
   26.9755   -2.2214   12.2296 C   0  0  2  0  0  0  0  0  0  0  0  0
   26.8014   -3.6072   12.4651 O   0  0  0  0  0  0  0  0  0  0  0  0
   27.0988    1.1828   15.3010 C   0  0  2  0  0  0  0  0  0  0  0  0
   23.6953   -1.0848   16.5522 C   0  0  2  0  0  0  0  0  0  0  0  0
   24.8866   -0.4022   16.1944 O   0  0  0  0  0  0  0  0  0  0  0  0
   21.9991   -5.9009   12.5339 C   0  0  2  0  0  0  0  0  0  0  0  0
   20.6574   -5.4581   12.7443 O   0  0  0  0  0  0  0  0  0  0  0  0
   17.3204   -4.4115   10.8668 C   0  0  2  0  0  0  0  0  0  0  0  0
   16.8750   -3.0459   10.8295 O   0  0  0  0  0  0  0  0  0  0  0  0
   27.9022   -1.5749   13.2890 C   0  0  2  0  0  0  0  0  0  0  0  0
   28.1148   -0.1904   12.8905 O   0  0  0  0  0  0  0  0  0  0  0  0
   28.0023    0.0701   15.9229 C   0  0  2  0  0  0  0  0  0  0  0  0
   27.1670   -1.0081   16.4289 O   0  0  0  0  0  0  0  0  0  0  0  0
   23.4558   -0.9311   18.0538 C   0  0  0  0  0  0  0  0  0  0  0  0
   24.7362   -0.9614   18.7012 O   0  0  0  0  0  0  0  0  0  0  0  0
   22.6372   -5.9360   13.9093 C   0  0  1  0  0  0  0  0  0  0  0  0
   23.1523   -4.8585   14.7205 O   0  0  0  0  0  0  0  0  0  0  0  0
   17.1403   -5.0933   12.2186 C   0  0  2  0  0  0  0  0  0  0  0  0
   17.9862   -6.1801   12.6250 O   0  0  0  0  0  0  0  0  0  0  0  0
   29.2555   -2.1981   13.3400 C   0  0  0  0  0  0  0  0  0  0  0  0
   29.0916   -3.5278   13.7706 O   0  0  0  0  0  0  0  0  0  0  0  0
   28.9474    0.6678   17.0192 C   0  0  1  0  0  0  0  0  0  0  0  0
   29.8775   -0.3799   17.4022 O   0  0  0  0  0  0  0  0  0  0  0  0
   22.2054   -7.1072   14.8447 C   0  0  0  0  0  0  0  0  0  0  0  0
   22.6004   -8.4384   14.3382 N   0  0  0  0  0  0  0  0  0  0  0  0
   15.7822   -5.2484   12.8990 C   0  0  0  0  0  0  0  0  0  0  0  0
   15.1001   -3.9671   12.9421 O   0  0  0  0  0  0  0  0  0  0  0  0
  1  2  1  1  0  0  0
  1  8  1  0  0  0  0
  1 36  1  0  0  0  0
  3  4  1  1  0  0  0
  3 10  1  0  0  0  0
  3 47  1  0  0  0  0
  5 11  1  0  0  0  0
  5 30  1  0  0  0  0
  5 38  1  1  0  0  0
  6 21  1  1  0  0  0
  6 42  1  0  0  0  0
  7 15  1  0  0  0  0
  7 44  1  0  0  0  0
  7 32  1  1  0  0  0
  8  9  1  1  0  0  0
  8 17  1  0  0  0  0
 11 12  1  6  0  0  0
 11 20  1  0  0  0  0
 13  6  1  0  0  0  0
 13 14  1  1  0  0  0
 15 16  1  6  0  0  0
 15 24  1  0  0  0  0
 17 26  1  0  0  0  0
 18 10  1  0  0  0  0
 18 19  1  1  0  0  0
 20 21  1  6  0  0  0
 20 29  1  0  0  0  0
 22 13  1  0  0  0  0
 22 23  1  1  0  0  0
 24 25  1  6  0  0  0
 24 33  1  0  0  0  0
 26 27  1  1  0  0  0
 26 35  1  0  0  0  0
 28  2  1  6  0  0  0
 28 18  1  0  0  0  0
 29 30  1  0  0  0  0
 29 39  1  1  0  0  0
 31 22  1  0  0  0  0
 31 32  1  1  0  0  0
 31 41  1  0  0  0  0
 33 34  1  1  0  0  0
 33 43  1  0  0  0  0
 35 36  1  0  0  0  0
 35 45  1  6  0  0  0
 37 28  1  0  0  0  0
 37 38  1  1  0  0  0
 39 40  1  0  0  0  0
 41 42  1  0  0  0  0
 41 49  1  1  0  0  0
 43 44  1  0  0  0  0
 43 51  1  6  0  0  0
 45 46  1  0  0  0  0
 47 37  1  0  0  0  0
 47 48  1  6  0  0  0
 49 50  1  0  0  0  0
 51 52  1  0  0  0  0
M  END
>  <CHROM.1>
178.17052931,160.62660243,163.58506649,-78.06862089,68.83789018,40.94766721
78.52839725,119.57634674,-64.89640970,30.98609143,64.50242416,-50.69714846
23.97116738,-2.48702512,13.84117193,0.58942778,-0.22715387,0.24826292

>  <Name>
2esj_lig

>  <RI>
0

>  <Rbt.Current_Directory>
/home/itssahil/PROJECTS/Mol_Feturizer/New_Systems/rnas/2esj

>  <Rbt.Executable>
rbdock ($Id: //depot/dev/client3/rdock/2013.1/src/exe/rbdock.cxx#4 $)

>  <Rbt.Library>
libRbt.so (2013.1, Build901 2013/11/27)

>  <Rbt.Parameter_File>
/export/apps/rDock/src/rDock_2013.1_src/data/scripts/dock_solv.prm

>  <Rbt.Receptor>
prm/pocket_docking_6.prm

>  <SCORE>
-7.10665

>  <SCORE.INTER>
-5.16615

>  <SCORE.INTER.CONST>
1

>  <SCORE.INTER.POLAR>
-1.20116

>  <SCORE.INTER.ROT>
12

>  <SCORE.INTER.SOLV>
7.13249

>  <SCORE.INTER.VDW>
-13.4177

>  <SCORE.INTER.norm>
-0.099349

>  <SCORE.INTRA>
-1.9405

>  <SCORE.INTRA.DIHEDRAL>
-10.1048

>  <SCORE.INTRA.DIHEDRAL.0>
32.9766

>  <SCORE.INTRA.POLAR>
0

>  <SCORE.INTRA.POLAR.0>
0

>  <SCORE.INTRA.REPUL>
0.00243116

>  <SCORE.INTRA.REPUL.0>
0

>  <SCORE.INTRA.SOLV>
-0.178957

>  <SCORE.INTRA.SOLV.lig_0>
-114.358

>  <SCORE.INTRA.VDW>
3.1892

>  <SCORE.INTRA.VDW.0>
-8.24257

>  <SCORE.INTRA.norm>
-0.0373174

>  <SCORE.RESTR>
0

>  <SCORE.RESTR.CAVITY>
0

>  <SCORE.RESTR.norm>
0

>  <SCORE.SYSTEM>
0

>  <SCORE.SYSTEM.CONST>
0

>  <SCORE.SYSTEM.DIHEDRAL>
0

>  <SCORE.SYSTEM.SOLV>
0

>  <SCORE.SYSTEM.norm>
0

>  <SCORE.heavy>
52

>  <SCORE.norm>
-0.136666

>  <RMSD>
11.438

$$$$
2esj_lig
 OpenBabel11021811423D
libRbt.so/2013.1/901 2013/11/27
 52 56  0  0  0  0  0  0  0  0999 V2000
   28.9594   -0.4525   14.5559 C   0  0  2  0  0  0  0  0  0  0  0  0
   30.1084   -1.2453   14.9111 O   0  0  0  0  0  0  0  0  0  0  0  0
   30.5392   -4.8775   17.1269 C   0  0  2  0  0  0  0  0  0  0  0  0
   30.6632   -5.8882   18.1901 N   0  0  0  0  0  0  0  0  0  0  0  0
   26.5023   -3.2018   15.8269 C   0  0  1  0  0  0  0  0  0  0  0  0
   22.5648   -4.6163   15.1523 C   0  0  1  0  0  0  0  0  0  0  0  0
   19.3601   -6.7987   18.4698 C   0  0  1  0  0  0  0  0  0  0  0  0
   29.3573    0.4290   13.3355 C   0  0  2  0  0  0  0  0  0  0  0  0
   29.8385   -0.3702   12.2090 N   0  0  0  0  0  0  0  0  0  0  0  0
   31.6510   -3.7667   17.2929 C   0  0  0  0  0  0  0  0  0  0  0  0
   25.2737   -2.3167   16.0409 C   0  0  2  0  0  0  0  0  0  0  0  0
   24.8273   -2.3170   17.4142 O   0  0  0  0  0  0  0  0  0  0  0  0
   21.4813   -3.7106   15.8917 C   0  0  2  0  0  0  0  0  0  0  0  0
   21.7485   -3.6428   17.3529 N   0  0  0  0  0  0  0  0  0  0  0  0
   17.8710   -6.6356   18.1880 C   0  0  1  0  0  0  0  0  0  0  0  0
   17.2231   -7.9179   18.3073 O   0  0  0  0  0  0  0  0  0  0  0  0
   30.4378    1.4826   13.7377 C   0  0  0  0  0  0  0  0  0  0  0  0
   31.5392   -2.7235   16.1094 C   0  0  2  0  0  0  0  0  0  0  0  0
   32.5530   -1.6728   16.2476 N   0  0  0  0  0  0  0  0  0  0  0  0
   24.3097   -2.9491   15.0792 C   0  0  2  0  0  0  0  0  0  0  0  0
   23.7982   -4.1453   15.6101 O   0  0  0  0  0  0  0  0  0  0  0  0
   20.0254   -4.2202   15.4971 C   0  0  1  0  0  0  0  0  0  0  0  0
   19.9327   -4.2961   14.0708 O   0  0  0  0  0  0  0  0  0  0  0  0
   17.1405   -5.6531   19.0955 C   0  0  1  0  0  0  0  0  0  0  0  0
   15.7391   -5.8078   18.8459 O   0  0  0  0  0  0  0  0  0  0  0  0
   29.9120    2.3038   14.9521 C   0  0  2  0  0  0  0  0  0  0  0  0
   30.8127    3.3325   15.3219 O   0  0  0  0  0  0  0  0  0  0  0  0
   30.1190   -2.1019   16.0684 C   0  0  2  0  0  0  0  0  0  0  0  0
   25.1552   -3.4073   13.8731 C   0  0  2  0  0  0  0  0  0  0  0  0
   26.4078   -3.6838   14.4793 O   0  0  0  0  0  0  0  0  0  0  0  0
   19.7642   -5.6905   16.0255 C   0  0  2  0  0  0  0  0  0  0  0  0
   19.8302   -5.5703   17.4473 O   0  0  0  0  0  0  0  0  0  0  0  0
   17.4168   -5.8671   20.5848 C   0  0  2  0  0  0  0  0  0  0  0  0
   16.9284   -4.7028   21.2707 O   0  0  0  0  0  0  0  0  0  0  0  0
   29.6495    1.3267   16.1249 C   0  0  2  0  0  0  0  0  0  0  0  0
   28.6261    0.3884   15.6854 O   0  0  0  0  0  0  0  0  0  0  0  0
   28.9625   -3.1514   16.0248 C   0  0  2  0  0  0  0  0  0  0  0  0
   27.6808   -2.4646   16.0654 O   0  0  0  0  0  0  0  0  0  0  0  0
   25.3502   -2.3877   12.7514 C   0  0  0  0  0  0  0  0  0  0  0  0
   26.0029   -3.0601   11.6645 O   0  0  0  0  0  0  0  0  0  0  0  0
   20.9879   -6.4928   15.6269 C   0  0  1  0  0  0  0  0  0  0  0  0
   22.3656   -6.0806   15.4977 O   0  0  0  0  0  0  0  0  0  0  0  0
   18.8875   -6.1757   20.8421 C   0  0  2  0  0  0  0  0  0  0  0  0
   19.6805   -6.8872   19.8793 O   0  0  0  0  0  0  0  0  0  0  0  0
   29.0949    2.0000   17.3338 C   0  0  0  0  0  0  0  0  0  0  0  0
   29.0639    1.0484   18.3699 O   0  0  0  0  0  0  0  0  0  0  0  0
   29.1211   -4.2034   17.1739 C   0  0  1  0  0  0  0  0  0  0  0  0
   28.1313   -5.2415   16.9456 O   0  0  0  0  0  0  0  0  0  0  0  0
   20.9476   -8.0205   15.9389 C   0  0  0  0  0  0  0  0  0  0  0  0
   20.9212   -8.8662   14.7270 N   0  0  0  0  0  0  0  0  0  0  0  0
   19.4509   -6.4446   22.2356 C   0  0  0  0  0  0  0  0  0  0  0  0
   20.8988   -6.3349   22.2146 O   0  0  0  0  0  0  0  0  0  0  0  0
  1  2  1  1  0  0  0
  1  8  1  0  0  0  0
  1 36  1  0  0  0  0
  3  4  1  1  0  0  0
  3 10  1  0  0  0  0
  3 47  1  0  0  0  0
  5 11  1  0  0  0  0
  5 30  1  0  0  0  0
  5 38  1  6  0  0  0
  6 21  1  1  0  0  0
  6 42  1  0  0  0  0
  7 15  1  0  0  0  0
  7 44  1  0  0  0  0
  7 32  1  1  0  0  0
  8  9  1  6  0  0  0
  8 17  1  0  0  0  0
 11 12  1  1  0  0  0
 11 20  1  0  0  0  0
 13  6  1  0  0  0  0
 13 14  1  1  0  0  0
 15 16  1  1  0  0  0
 15 24  1  0  0  0  0
 17 26  1  0  0  0  0
 18 10  1  0  0  0  0
 18 19  1  1  0  0  0
 20 21  1  1  0  0  0
 20 29  1  0  0  0  0
 22 13  1  0  0  0  0
 22 23  1  6  0  0  0
 24 25  1  1  0  0  0
 24 33  1  0  0  0  0
 26 27  1  1  0  0  0
 26 35  1  0  0  0  0
 28  2  1  6  0  0  0
 28 18  1  0  0  0  0
 29 30  1  0  0  0  0
 29 39  1  6  0  0  0
 31 22  1  0  0  0  0
 31 32  1  1  0  0  0
 31 41  1  0  0  0  0
 33 34  1  1  0  0  0
 33 43  1  0  0  0  0
 35 36  1  0  0  0  0
 35 45  1  1  0  0  0
 37 28  1  0  0  0  0
 37 38  1  1  0  0  0
 39 40  1  0  0  0  0
 41 42  1  0  0  0  0
 41 49  1  1  0  0  0
 43 44  1  0  0  0  0
 43 51  1  1  0  0  0
 45 46  1  0  0  0  0
 47 37  1  0  0  0  0
 47 48  1  6  0  0  0
 49 50  1  0  0  0  0
 51 52  1  0  0  0  0
M  END
>  <CHROM.1>
175.11692426,174.94614410,-77.34120491,-71.66323688,156.05468009,-178.10881206
-172.52580239,169.15191244,-172.61472730,170.21173885,113.45907883,-164.16174846
24.68297321,-3.53735815,16.55305967,0.35598425,-0.38505038,-1.30644346

>  <Name>
2esj_lig

>  <RI>
2.18877e+07

>  <Rbt.Current_Directory>
/home/itssahil/PROJECTS/Mol_Feturizer/New_Systems/rnas/2esj

>  <Rbt.Executable>
rbdock ($Id: //depot/dev/client3/rdock/2013.1/src/exe/rbdock.cxx#4 $)

>  <Rbt.Library>
libRbt.so (2013.1, Build901 2013/11/27)

>  <Rbt.Parameter_File>
/export/apps/rDock/src/rDock_2013.1_src/data/scripts/dock_solv.prm

>  <Rbt.Receptor>
prm/pocket_docking_7.prm

>  <SCORE>
-9.89258

>  <SCORE.INTER>
0.119061

>  <SCORE.INTER.CONST>
1

>  <SCORE.INTER.POLAR>
-0.979796

>  <SCORE.INTER.ROT>
12

>  <SCORE.INTER.SOLV>
7.17647

>  <SCORE.INTER.VDW>
-10.6468

>  <SCORE.INTER.norm>
0.00228964

>  <SCORE.INTRA>
-10.0116

>  <SCORE.INTRA.DIHEDRAL>
-21.3522

>  <SCORE.INTRA.DIHEDRAL.0>
32.9766

>  <SCORE.INTRA.POLAR>
0

>  <SCORE.INTRA.POLAR.0>
0

>  <SCORE.INTRA.REPUL>
0

>  <SCORE.INTRA.REPUL.0>
0

>  <SCORE.INTRA.SOLV>
-4.76708

>  <SCORE.INTRA.SOLV.lig_0>
-114.358

>  <SCORE.INTRA.VDW>
3.04797

>  <SCORE.INTRA.VDW.0>
-8.24257

>  <SCORE.INTRA.norm>
-0.192532

>  <SCORE.RESTR>
0

>  <SCORE.RESTR.CAVITY>
0

>  <SCORE.RESTR.norm>
0

>  <SCORE.SYSTEM>
0

>  <SCORE.SYSTEM.CONST>
0

>  <SCORE.SYSTEM.DIHEDRAL>
0

>  <SCORE.SYSTEM.SOLV>
0

>  <SCORE.SYSTEM.norm>
0

>  <SCORE.heavy>
52

>  <SCORE.norm>
-0.190242

>  <RMSD>
11.586

$$$$
2esj_lig
 OpenBabel11021811423D
libRbt.so/2013.1/901 2013/11/27
 52 56  0  0  0  0  0  0  0  0999 V2000
   11.0752   -1.1023   11.3753 C   0  0  2  0  0  0  0  0  0  0  0  0
    9.9929   -0.8496   10.4590 O   0  0  0  0  0  0  0  0  0  0  0  0
   11.1233   -2.3703    6.6252 C   0  0  2  0  0  0  0  0  0  0  0  0
   11.3300   -2.5778    5.1824 N   0  0  0  0  0  0  0  0  0  0  0  0
   13.6264    0.2603    9.6986 C   0  0  1  0  0  0  0  0  0  0  0  0
   17.1197   -0.3375   11.6398 C   0  0  1  0  0  0  0  0  0  0  0  0
   18.8522   -2.2244    7.7743 C   0  0  1  0  0  0  0  0  0  0  0  0
   11.1608   -2.6429   11.5860 C   0  0  2  0  0  0  0  0  0  0  0  0
   11.3327   -3.3650   10.3257 N   0  0  0  0  0  0  0  0  0  0  0  0
    9.5824   -2.2213    6.9433 C   0  0  0  0  0  0  0  0  0  0  0  0
   13.5593    0.5593   11.1968 C   0  0  2  0  0  0  0  0  0  0  0  0
   13.6811    1.9695   11.4828 O   0  0  0  0  0  0  0  0  0  0  0  0
   18.2508    0.5460   10.9461 C   0  0  2  0  0  0  0  0  0  0  0  0
   17.8662    0.9125    9.5573 N   0  0  0  0  0  0  0  0  0  0  0  0
   20.1969   -2.5028    7.1126 C   0  0  1  0  0  0  0  0  0  0  0  0
   20.1936   -3.8417    6.5782 O   0  0  0  0  0  0  0  0  0  0  0  0
    9.8967   -3.1743   12.3333 C   0  0  0  0  0  0  0  0  0  0  0  0
    9.3763   -2.0587    8.5030 C   0  0  2  0  0  0  0  0  0  0  0  0
    7.9536   -1.9048    8.8241 N   0  0  0  0  0  0  0  0  0  0  0  0
   14.7068   -0.2718   11.6936 C   0  0  2  0  0  0  0  0  0  0  0  0
   15.9301    0.3590   11.4110 O   0  0  0  0  0  0  0  0  0  0  0  0
   19.6485   -0.2043   11.0814 C   0  0  1  0  0  0  0  0  0  0  0  0
   19.8567   -0.5507   12.4545 O   0  0  0  0  0  0  0  0  0  0  0  0
   20.5790   -1.5482    5.9878 C   0  0  1  0  0  0  0  0  0  0  0  0
   21.7324   -2.0966    5.3405 O   0  0  0  0  0  0  0  0  0  0  0  0
    9.7226   -2.3749   13.6586 C   0  0  2  0  0  0  0  0  0  0  0  0
    8.6352   -2.8587   14.4265 O   0  0  0  0  0  0  0  0  0  0  0  0
   10.1838   -0.8450    9.0319 C   0  0  2  0  0  0  0  0  0  0  0  0
   14.7260   -1.5365   10.8106 C   0  0  2  0  0  0  0  0  0  0  0  0
   14.2014   -1.0489    9.5859 O   0  0  0  0  0  0  0  0  0  0  0  0
   19.6490   -1.5742   10.2859 C   0  0  2  0  0  0  0  0  0  0  0  0
   19.4739   -1.1889    8.9216 O   0  0  0  0  0  0  0  0  0  0  0  0
   19.4705   -1.3372    4.9550 C   0  0  2  0  0  0  0  0  0  0  0  0
   19.8523   -0.2030    4.1596 O   0  0  0  0  0  0  0  0  0  0  0  0
    9.5495   -0.8768   13.3053 C   0  0  2  0  0  0  0  0  0  0  0  0
   10.7659   -0.4485   12.6286 O   0  0  0  0  0  0  0  0  0  0  0  0
   11.6982   -0.8684    8.6484 C   0  0  2  0  0  0  0  0  0  0  0  0
   12.3399    0.3463    9.1271 O   0  0  0  0  0  0  0  0  0  0  0  0
   13.8792   -2.7149   11.2902 C   0  0  0  0  0  0  0  0  0  0  0  0
   14.1411   -2.8943   12.6898 O   0  0  0  0  0  0  0  0  0  0  0  0
   18.3640   -2.2772   10.6792 C   0  0  1  0  0  0  0  0  0  0  0  0
   17.0763   -1.7272   11.0315 O   0  0  0  0  0  0  0  0  0  0  0  0
   18.1046   -1.2059    5.6195 C   0  0  2  0  0  0  0  0  0  0  0  0
   17.7965   -1.9029    6.8365 O   0  0  0  0  0  0  0  0  0  0  0  0
    9.4212   -0.0040   14.5071 C   0  0  0  0  0  0  0  0  0  0  0  0
    9.9406    1.2592   14.1684 O   0  0  0  0  0  0  0  0  0  0  0  0
   11.8798   -1.0809    7.1076 C   0  0  1  0  0  0  0  0  0  0  0  0
   13.2973   -1.2847    6.8660 O   0  0  0  0  0  0  0  0  0  0  0  0
   18.1579   -3.7150   10.1109 C   0  0  0  0  0  0  0  0  0  0  0  0
   16.7384   -4.1219   10.0454 N   0  0  0  0  0  0  0  0  0  0  0  0
   16.8122   -0.9981    4.8332 C   0  0  0  0  0  0  0  0  0  0  0  0
   16.6315    0.4127    4.5405 O   0  0  0  0  0  0  0  0  0  0  0  0
  1  2  1  6  0  0  0
  1  8  1  0  0  0  0
  1 36  1  0  0  0  0
  3  4  1  6  0  0  0
  3 10  1  0  0  0  0
  3 47  1  0  0  0  0
  5 11  1  0  0  0  0
  5 30  1  0  0  0  0
  5 38  1  1  0  0  0
  6 21  1  6  0  0  0
  6 42  1  0  0  0  0
  7 15  1  0  0  0  0
  7 44  1  0  0  0  0
  7 32  1  1  0  0  0
  8  9  1  6  0  0  0
  8 17  1  0  0  0  0
 11 12  1  6  0  0  0
 11 20  1  0  0  0  0
 13  6  1  0  0  0  0
 13 14  1  6  0  0  0
 15 16  1  6  0  0  0
 15 24  1  0  0  0  0
 17 26  1  0  0  0  0
 18 10  1  0  0  0  0
 18 19  1  6  0  0  0
 20 21  1  6  0  0  0
 20 29  1  0  0  0  0
 22 13  1  0  0  0  0
 22 23  1  1  0  0  0
 24 25  1  6  0  0  0
 24 33  1  0  0  0  0
 26 27  1  6  0  0  0
 26 35  1  0  0  0  0
 28  2  1  1  0  0  0
 28 18  1  0  0  0  0
 29 30  1  0  0  0  0
 29 39  1  1  0  0  0
 31 22  1  0  0  0  0
 31 32  1  6  0  0  0
 31 41  1  0  0  0  0
 33 34  1  1  0  0  0
 33 43  1  0  0  0  0
 35 36  1  0  0  0  0
 35 45  1  1  0  0  0
 37 28  1  0  0  0  0
 37 38  1  6  0  0  0
 39 40  1  0  0  0  0
 41 42  1  0  0  0  0
 41 49  1  6  0  0  0
 43 44  1  0  0  0  0
 43 51  1  6  0  0  0
 45 46  1  0  0  0  0
 47 37  1  0  0  0  0
 47 48  1  1  0  0  0
 49 50  1  0  0  0  0
 51 52  1  0  0  0  0
M  END
>  <CHROM.1>
-87.87181379,-111.35703445,168.93934429,-104.63554884,-171.80168408,113.78624648
-46.49162115,-156.65497360,150.56758486,139.15298443,-156.39384588,-84.24494116
14.66137156,-1.29779876,9.54103470,-2.70113198,-0.03178196,-1.67631544

>  <Name>
2esj_lig

>  <RI>
0

>  <Rbt.Current_Directory>
/home/itssahil/PROJECTS/Mol_Feturizer/New_Systems/rnas/2esj

>  <Rbt.Executable>
rbdock ($Id: //depot/dev/client3/rdock/2013.1/src/exe/rbdock.cxx#4 $)

>  <Rbt.Library>
libRbt.so (2013.1, Build901 2013/11/27)

>  <Rbt.Parameter_File>
/export/apps/rDock/src/rDock_2013.1_src/data/scripts/dock_solv.prm

>  <Rbt.Receptor>
prm/blind_docking_40.prm

>  <SCORE>
28.7036

>  <SCORE.INTER>
-7.70173

>  <SCORE.INTER.CONST>
1

>  <SCORE.INTER.POLAR>
-1.53459

>  <SCORE.INTER.ROT>
12

>  <SCORE.INTER.SOLV>
21.0301

>  <SCORE.INTER.VDW>
-18.6292

>  <SCORE.INTER.norm>
-0.14811

>  <SCORE.INTRA>
19.2649

>  <SCORE.INTRA.DIHEDRAL>
7.12305

>  <SCORE.INTRA.DIHEDRAL.0>
32.9766

>  <SCORE.INTRA.POLAR>
0

>  <SCORE.INTRA.POLAR.0>
0

>  <SCORE.INTRA.REPUL>
0

>  <SCORE.INTRA.REPUL.0>
0

>  <SCORE.INTRA.SOLV>
7.38205

>  <SCORE.INTRA.SOLV.lig_0>
-114.358

>  <SCORE.INTRA.VDW>
12.0124

>  <SCORE.INTRA.VDW.0>
-8.24257

>  <SCORE.INTRA.norm>
0.37048

>  <SCORE.RESTR>
17.1404

>  <SCORE.RESTR.CAVITY>
17.1404

>  <SCORE.RESTR.norm>
0.329623

>  <SCORE.SYSTEM>
0

>  <SCORE.SYSTEM.CONST>
0

>  <SCORE.SYSTEM.DIHEDRAL>
0

>  <SCORE.SYSTEM.SOLV>
0

>  <SCORE.SYSTEM.norm>
0

>  <SCORE.heavy>
52

>  <SCORE.norm>
0.551993

>  <RMSD>
11.605

$$$$
2esj_lig
 OpenBabel11021811423D
libRbt.so/2013.1/901 2013/11/27
 52 56  0  0  0  0  0  0  0  0999 V2000
   29.1913   -1.4395   14.5961 C   0  0  2  0  0  0  0  0  0  0  0  0
   28.0363   -0.7920   14.0290 O   0  0  0  0  0  0  0  0  0  0  0  0
   25.3171   -1.1821   17.3065 C   0  0  2  0  0  0  0  0  0  0  0  0
   24.1490   -1.1180   18.2001 N   0  0  0  0  0  0  0  0  0  0  0  0
   24.7639   -2.5749   13.1455 C   0  0  1  0  0  0  0  0  0  0  0  0
   21.6674   -1.6855   10.6665 C   0  0  1  0  0  0  0  0  0  0  0  0
   16.9117   -2.5525   12.2879 C   0  0  1  0  0  0  0  0  0  0  0  0
   30.3925   -1.1759   13.6408 C   0  0  2  0  0  0  0  0  0  0  0  0
   30.6207    0.2518   13.4196 N   0  0  0  0  0  0  0  0  0  0  0  0
   25.7554    0.2723   16.8706 C   0  0  0  0  0  0  0  0  0  0  0  0
   24.9277   -1.2687   12.3674 C   0  0  2  0  0  0  0  0  0  0  0  0
   24.5711   -0.1111   13.1537 O   0  0  0  0  0  0  0  0  0  0  0  0
   20.3697   -0.9364   11.2105 C   0  0  2  0  0  0  0  0  0  0  0  0
   20.1592   -1.2133   12.6562 N   0  0  0  0  0  0  0  0  0  0  0  0
   16.7619   -3.7250   13.2504 C   0  0  1  0  0  0  0  0  0  0  0  0
   16.0103   -3.2977   14.4041 O   0  0  0  0  0  0  0  0  0  0  0  0
   30.1846   -1.8979   12.2717 C   0  0  0  0  0  0  0  0  0  0  0  0
   27.0458    0.1868   15.9601 C   0  0  2  0  0  0  0  0  0  0  0  0
   27.4660    1.5245   15.5302 N   0  0  0  0  0  0  0  0  0  0  0  0
   24.0162   -1.5274   11.2028 C   0  0  2  0  0  0  0  0  0  0  0  0
   22.6729   -1.3737   11.5854 O   0  0  0  0  0  0  0  0  0  0  0  0
   19.1349   -1.2926   10.2706 C   0  0  1  0  0  0  0  0  0  0  0  0
   19.5002   -1.0376    8.9103 O   0  0  0  0  0  0  0  0  0  0  0  0
   16.0770   -4.9578   12.6729 C   0  0  1  0  0  0  0  0  0  0  0  0
   15.8146   -5.8467   13.7644 O   0  0  0  0  0  0  0  0  0  0  0  0
   29.9209   -3.4101   12.5354 C   0  0  2  0  0  0  0  0  0  0  0  0
   29.7994   -4.1417   11.3287 O   0  0  0  0  0  0  0  0  0  0  0  0
   26.7801   -0.7177   14.7287 C   0  0  2  0  0  0  0  0  0  0  0  0
   24.1457   -3.0326   10.8909 C   0  0  2  0  0  0  0  0  0  0  0  0
   24.4388   -3.5742   12.1691 O   0  0  0  0  0  0  0  0  0  0  0  0
   18.7809   -2.8351   10.3405 C   0  0  2  0  0  0  0  0  0  0  0  0
   18.3898   -3.0451   11.6982 O   0  0  0  0  0  0  0  0  0  0  0  0
   14.7680   -4.6510   11.9432 C   0  0  2  0  0  0  0  0  0  0  0  0
   14.4170   -5.8314   11.2028 O   0  0  0  0  0  0  0  0  0  0  0  0
   28.6493   -3.5380   13.4104 C   0  0  2  0  0  0  0  0  0  0  0  0
   28.9207   -2.8591   14.6699 O   0  0  0  0  0  0  0  0  0  0  0  0
   26.2283   -2.1356   15.0838 C   0  0  2  0  0  0  0  0  0  0  0  0
   25.9446   -2.8677   13.8591 O   0  0  0  0  0  0  0  0  0  0  0  0
   25.2455   -3.4322    9.9079 C   0  0  0  0  0  0  0  0  0  0  0  0
   26.4921   -2.9573   10.4373 O   0  0  0  0  0  0  0  0  0  0  0  0
   20.0997   -3.5662   10.1783 C   0  0  1  0  0  0  0  0  0  0  0  0
   21.4296   -3.1823   10.5888 O   0  0  0  0  0  0  0  0  0  0  0  0
   14.8832   -3.3895   11.0947 C   0  0  2  0  0  0  0  0  0  0  0  0
   15.7306   -2.2995   11.4890 O   0  0  0  0  0  0  0  0  0  0  0  0
   28.3252   -4.9486   13.7679 C   0  0  0  0  0  0  0  0  0  0  0  0
   29.4303   -5.4718   14.4644 O   0  0  0  0  0  0  0  0  0  0  0  0
   24.9823   -2.0287   16.0264 C   0  0  1  0  0  0  0  0  0  0  0  0
   24.6556   -3.3754   16.4610 O   0  0  0  0  0  0  0  0  0  0  0  0
   20.0257   -5.1225   10.1058 C   0  0  0  0  0  0  0  0  0  0  0  0
   18.7238   -5.6258    9.6195 N   0  0  0  0  0  0  0  0  0  0  0  0
   13.7278   -2.8362   10.2637 C   0  0  0  0  0  0  0  0  0  0  0  0
   13.9727   -3.0759    8.8526 O   0  0  0  0  0  0  0  0  0  0  0  0
  1  2  1  6  0  0  0
  1  8  1  0  0  0  0
  1 36  1  0  0  0  0
  3  4  1  1  0  0  0
  3 10  1  0  0  0  0
  3 47  1  0  0  0  0
  5 11  1  0  0  0  0
  5 30  1  0  0  0  0
  5 38  1  6  0  0  0
  6 21  1  1  0  0  0
  6 42  1  0  0  0  0
  7 15  1  0  0  0  0
  7 44  1  0  0  0  0
  7 32  1  6  0  0  0
  8  9  1  6  0  0  0
  8 17  1  0  0  0  0
 11 12  1  1  0  0  0
 11 20  1  0  0  0  0
 13  6  1  0  0  0  0
 13 14  1  1  0  0  0
 15 16  1  1  0  0  0
 15 24  1  0  0  0  0
 17 26  1  0  0  0  0
 18 10  1  0  0  0  0
 18 19  1  6  0  0  0
 20 21  1  1  0  0  0
 20 29  1  0  0  0  0
 22 13  1  0  0  0  0
 22 23  1  6  0  0  0
 24 25  1  1  0  0  0
 24 33  1  0  0  0  0
 26 27  1  6  0  0  0
 26 35  1  0  0  0  0
 28  2  1  1  0  0  0
 28 18  1  0  0  0  0
 29 30  1  0  0  0  0
 29 39  1  6  0  0  0
 31 22  1  0  0  0  0
 31 32  1  1  0  0  0
 31 41  1  0  0  0  0
 33 34  1  6  0  0  0
 33 43  1  0  0  0  0
 35 36  1  0  0  0  0
 35 45  1  1  0  0  0
 37 28  1  0  0  0  0
 37 38  1  6  0  0  0
 39 40  1  0  0  0  0
 41 42  1  0  0  0  0
 41 49  1  1  0  0  0
 43 44  1  0  0  0  0
 43 51  1  1  0  0  0
 45 46  1  0  0  0  0
 47 37  1  0  0  0  0
 47 48  1  1  0  0  0
 49 50  1  0  0  0  0
 51 52  1  0  0  0  0
M  END
>  <CHROM.1>
-173.38312929,76.63610579,-160.75260406,145.76117907,-174.55883155,66.20221499
57.49025651,75.41540802,59.00962527,-78.11619311,25.33565435,-107.02892465
22.86208641,-2.58415167,12.68316303,0.25905218,0.05069395,1.23119105

>  <Name>
2esj_lig

>  <RI>
0

>  <Rbt.Current_Directory>
/home/itssahil/PROJECTS/Mol_Feturizer/New_Systems/rnas/2esj

>  <Rbt.Executable>
rbdock ($Id: //depot/dev/client3/rdock/2013.1/src/exe/rbdock.cxx#4 $)

>  <Rbt.Library>
libRbt.so (2013.1, Build901 2013/11/27)

>  <Rbt.Parameter_File>
/export/apps/rDock/src/rDock_2013.1_src/data/scripts/dock_solv.prm

>  <Rbt.Receptor>
prm/pocket_docking_8.prm

>  <SCORE>
-12.9108

>  <SCORE.INTER>
-7.909

>  <SCORE.INTER.CONST>
1

>  <SCORE.INTER.POLAR>
-0.979796

>  <SCORE.INTER.ROT>
12

>  <SCORE.INTER.SOLV>
13.9529

>  <SCORE.INTER.VDW>
-18.2576

>  <SCORE.INTER.norm>
-0.152096

>  <SCORE.INTRA>
-5.0969

>  <SCORE.INTRA.DIHEDRAL>
-16.0223

>  <SCORE.INTRA.DIHEDRAL.0>
32.9766

>  <SCORE.INTRA.POLAR>
0

>  <SCORE.INTRA.POLAR.0>
0

>  <SCORE.INTRA.REPUL>
0

>  <SCORE.INTRA.REPUL.0>
0

>  <SCORE.INTRA.SOLV>
-0.474135

>  <SCORE.INTRA.SOLV.lig_0>
-114.358

>  <SCORE.INTRA.VDW>
3.15133

>  <SCORE.INTRA.VDW.0>
-8.24257

>  <SCORE.INTRA.norm>
-0.0980173

>  <SCORE.RESTR>
0.0950974

>  <SCORE.RESTR.CAVITY>
0.0950974

>  <SCORE.RESTR.norm>
0.0018288

>  <SCORE.SYSTEM>
0

>  <SCORE.SYSTEM.CONST>
0

>  <SCORE.SYSTEM.DIHEDRAL>
0

>  <SCORE.SYSTEM.SOLV>
0

>  <SCORE.SYSTEM.norm>
0

>  <SCORE.heavy>
52

>  <SCORE.norm>
-0.248285

>  <RMSD>
11.637

$$$$
2esj_lig
 OpenBabel11021811423D
libRbt.so/2013.1/901 2013/11/27
 52 56  0  0  0  0  0  0  0  0999 V2000
   23.6826   -2.6304   17.6520 C   0  0  2  0  0  0  0  0  0  0  0  0
   24.7786   -3.4748   18.0526 O   0  0  0  0  0  0  0  0  0  0  0  0
   24.9644   -6.7196   20.8319 C   0  0  2  0  0  0  0  0  0  0  0  0
   25.0783   -7.5508   22.0417 N   0  0  0  0  0  0  0  0  0  0  0  0
   21.0771   -4.6328   19.6234 C   0  0  1  0  0  0  0  0  0  0  0  0
   17.1892   -5.8406   19.1980 C   0  0  1  0  0  0  0  0  0  0  0  0
   14.1180   -8.6363   22.1346 C   0  0  1  0  0  0  0  0  0  0  0  0
   23.9611   -2.1614   16.1934 C   0  0  2  0  0  0  0  0  0  0  0  0
   24.1474   -3.2857   15.2767 N   0  0  0  0  0  0  0  0  0  0  0  0
   26.2372   -5.7954   20.6789 C   0  0  0  0  0  0  0  0  0  0  0  0
   20.0246   -3.5386   19.8065 C   0  0  2  0  0  0  0  0  0  0  0  0
   19.7302   -3.2851   21.1973 O   0  0  0  0  0  0  0  0  0  0  0  0
   16.0028   -5.7196   20.2560 C   0  0  2  0  0  0  0  0  0  0  0  0
   16.4670   -6.0765   21.6227 N   0  0  0  0  0  0  0  0  0  0  0  0
   13.3936   -9.7438   21.3782 C   0  0  1  0  0  0  0  0  0  0  0  0
   12.7383  -10.6127   22.3237 O   0  0  0  0  0  0  0  0  0  0  0  0
   25.2066   -1.2208   16.1388 C   0  0  0  0  0  0  0  0  0  0  0  0
   26.1244   -4.9543   19.3443 C   0  0  2  0  0  0  0  0  0  0  0  0
   27.2886   -4.0768   19.1850 N   0  0  0  0  0  0  0  0  0  0  0  0
   18.8809   -4.1261   19.0314 C   0  0  2  0  0  0  0  0  0  0  0  0
   18.2544   -5.1422   19.7726 O   0  0  0  0  0  0  0  0  0  0  0  0
   14.7538   -6.5553   19.7300 C   0  0  1  0  0  0  0  0  0  0  0  0
   14.4603   -6.1534   18.3879 O   0  0  0  0  0  0  0  0  0  0  0  0
   12.3508   -9.2710   20.3725 C   0  0  1  0  0  0  0  0  0  0  0  0
   11.6215  -10.4263   19.9440 O   0  0  0  0  0  0  0  0  0  0  0  0
   24.9942   -0.0461   17.1391 C   0  0  2  0  0  0  0  0  0  0  0  0
   26.0555    0.8903   17.0849 O   0  0  0  0  0  0  0  0  0  0  0  0
   24.8158   -4.1219   19.3383 C   0  0  2  0  0  0  0  0  0  0  0  0
   19.5165   -4.8710   17.8395 C   0  0  2  0  0  0  0  0  0  0  0  0
   20.7701   -5.2662   18.3736 O   0  0  0  0  0  0  0  0  0  0  0  0
   15.0836   -8.1028   19.6548 C   0  0  2  0  0  0  0  0  0  0  0  0
   15.3369   -8.4749   21.0105 O   0  0  0  0  0  0  0  0  0  0  0  0
   11.3754   -8.2362   20.9363 C   0  0  2  0  0  0  0  0  0  0  0  0
   10.6770   -7.6683   19.8162 O   0  0  0  0  0  0  0  0  0  0  0  0
   24.8293   -0.6395   18.5603 C   0  0  2  0  0  0  0  0  0  0  0  0
   23.6461   -1.4884   18.5400 O   0  0  0  0  0  0  0  0  0  0  0  0
   23.5240   -4.9594   19.6046 C   0  0  2  0  0  0  0  0  0  0  0  0
   22.3713   -4.0732   19.6524 O   0  0  0  0  0  0  0  0  0  0  0  0
   19.7433   -4.0537   16.5682 C   0  0  0  0  0  0  0  0  0  0  0  0
   20.1455   -4.9645   15.5346 O   0  0  0  0  0  0  0  0  0  0  0  0
   16.4216   -8.2031   18.9477 C   0  0  1  0  0  0  0  0  0  0  0  0
   17.5447   -7.2958   18.9549 O   0  0  0  0  0  0  0  0  0  0  0  0
   12.0896   -7.2142   21.8137 C   0  0  2  0  0  0  0  0  0  0  0  0
   13.2458   -7.5721   22.5863 O   0  0  0  0  0  0  0  0  0  0  0  0
   24.5710    0.3970   19.6002 C   0  0  0  0  0  0  0  0  0  0  0  0
   24.6464   -0.2360   20.8547 O   0  0  0  0  0  0  0  0  0  0  0  0
   23.6770   -5.8224   20.9023 C   0  0  1  0  0  0  0  0  0  0  0  0
   22.5264   -6.7061   20.9687 O   0  0  0  0  0  0  0  0  0  0  0  0
   16.9403   -9.6427   18.6456 C   0  0  0  0  0  0  0  0  0  0  0  0
   18.2786   -9.9145   19.2111 N   0  0  0  0  0  0  0  0  0  0  0  0
   11.3648   -6.0695   22.5179 C   0  0  0  0  0  0  0  0  0  0  0  0
   12.3308   -5.1427   23.0806 O   0  0  0  0  0  0  0  0  0  0  0  0
  1  2  1  1  0  0  0
  1  8  1  0  0  0  0
  1 36  1  0  0  0  0
  3  4  1  1  0  0  0
  3 10  1  0  0  0  0
  3 47  1  0  0  0  0
  5 11  1  0  0  0  0
  5 30  1  0  0  0  0
  5 38  1  6  0  0  0
  6 21  1  1  0  0  0
  6 42  1  0  0  0  0
  7 15  1  0  0  0  0
  7 44  1  0  0  0  0
  7 32  1  6  0  0  0
  8  9  1  6  0  0  0
  8 17  1  0  0  0  0
 11 12  1  1  0  0  0
 11 20  1  0  0  0  0
 13  6  1  0  0  0  0
 13 14  1  1  0  0  0
 15 16  1  1  0  0  0
 15 24  1  0  0  0  0
 17 26  1  0  0  0  0
 18 10  1  0  0  0  0
 18 19  1  1  0  0  0
 20 21  1  1  0  0  0
 20 29  1  0  0  0  0
 22 13  1  0  0  0  0
 22 23  1  6  0  0  0
 24 25  1  1  0  0  0
 24 33  1  0  0  0  0
 26 27  1  1  0  0  0
 26 35  1  0  0  0  0
 28  2  1  6  0  0  0
 28 18  1  0  0  0  0
 29 30  1  0  0  0  0
 29 39  1  6  0  0  0
 31 22  1  0  0  0  0
 31 32  1  1  0  0  0
 31 41  1  0  0  0  0
 33 34  1  6  0  0  0
 33 43  1  0  0  0  0
 35 36  1  0  0  0  0
 35 45  1  1  0  0  0
 37 28  1  0  0  0  0
 37 38  1  1  0  0  0
 39 40  1  0  0  0  0
 41 42  1  0  0  0  0
 41 49  1  1  0  0  0
 43 44  1  0  0  0  0
 43 51  1  1  0  0  0
 45 46  1  0  0  0  0
 47 37  1  0  0  0  0
 47 48  1  6  0  0  0
 49 50  1  0  0  0  0
 51 52  1  0  0  0  0
M  END
>  <CHROM.1>
-177.69970150,175.03763379,-126.47910124,60.79598023,-177.99045311,178.36001886
-171.46700190,74.27582666,-171.11056963,167.85977517,-123.69267044,-170.18985886
19.36022070,-5.40235250,19.58520618,0.47897381,-0.00261146,-0.41311059

>  <Name>
2esj_lig

>  <RI>
0

>  <Rbt.Current_Directory>
/home/itssahil/PROJECTS/Mol_Feturizer/New_Systems/rnas/2esj

>  <Rbt.Executable>
rbdock ($Id: //depot/dev/client3/rdock/2013.1/src/exe/rbdock.cxx#4 $)

>  <Rbt.Library>
libRbt.so (2013.1, Build901 2013/11/27)

>  <Rbt.Parameter_File>
/export/apps/rDock/src/rDock_2013.1_src/data/scripts/dock_solv.prm

>  <Rbt.Receptor>
prm/pocket_docking_6.prm

>  <SCORE>
-18.2873

>  <SCORE.INTER>
-10.0243

>  <SCORE.INTER.CONST>
1

>  <SCORE.INTER.POLAR>
-0.145954

>  <SCORE.INTER.ROT>
12

>  <SCORE.INTER.SOLV>
17.8419

>  <SCORE.INTER.VDW>
-23.7436

>  <SCORE.INTER.norm>
-0.192774

>  <SCORE.INTRA>
-8.30852

>  <SCORE.INTRA.DIHEDRAL>
-18.2464

>  <SCORE.INTRA.DIHEDRAL.0>
32.9766

>  <SCORE.INTRA.POLAR>
0

>  <SCORE.INTRA.POLAR.0>
0

>  <SCORE.INTRA.REPUL>
0

>  <SCORE.INTRA.REPUL.0>
0

>  <SCORE.INTRA.SOLV>
-3.93997

>  <SCORE.INTRA.SOLV.lig_0>
-114.358

>  <SCORE.INTRA.VDW>
2.78467

>  <SCORE.INTRA.VDW.0>
-8.24257

>  <SCORE.INTRA.norm>
-0.159779

>  <SCORE.RESTR>
0.0455066

>  <SCORE.RESTR.CAVITY>
0.0455066

>  <SCORE.RESTR.norm>
0.000875128

>  <SCORE.SYSTEM>
0

>  <SCORE.SYSTEM.CONST>
0

>  <SCORE.SYSTEM.DIHEDRAL>
0

>  <SCORE.SYSTEM.SOLV>
0

>  <SCORE.SYSTEM.norm>
0

>  <SCORE.heavy>
52

>  <SCORE.norm>
-0.351678

>  <RMSD>
11.654

$$$$
2esj_lig
 OpenBabel11021811423D
libRbt.so/2013.1/901 2013/11/27
 52 56  0  0  0  0  0  0  0  0999 V2000
   12.9718    1.0815   12.9759 C   0  0  2  0  0  0  0  0  0  0  0  0
   12.2077    0.3469   12.0005 O   0  0  0  0  0  0  0  0  0  0  0  0
    8.6008   -0.2510   14.2187 C   0  0  2  0  0  0  0  0  0  0  0  0
    7.2459   -0.6261   14.6555 N   0  0  0  0  0  0  0  0  0  0  0  0
   11.8808   -2.6959   11.8444 C   0  0  1  0  0  0  0  0  0  0  0  0
   12.9564   -2.1861    7.9632 C   0  0  1  0  0  0  0  0  0  0  0  0
   17.9804   -0.7073    6.8191 C   0  0  1  0  0  0  0  0  0  0  0  0
   13.7533    2.1946   12.2175 C   0  0  2  0  0  0  0  0  0  0  0  0
   12.8667    3.0674   11.4485 N   0  0  0  0  0  0  0  0  0  0  0  0
    8.5314    0.6244   12.9048 C   0  0  0  0  0  0  0  0  0  0  0  0
   13.0570   -1.9542   11.2082 C   0  0  2  0  0  0  0  0  0  0  0  0
   12.6689   -0.6780   10.6550 O   0  0  0  0  0  0  0  0  0  0  0  0
   14.1299   -2.9929    7.2468 C   0  0  2  0  0  0  0  0  0  0  0  0
   15.1878   -3.3741    8.2196 N   0  0  0  0  0  0  0  0  0  0  0  0
   18.2417   -1.8977    5.9036 C   0  0  1  0  0  0  0  0  0  0  0  0
   19.1471   -1.4989    4.8549 O   0  0  0  0  0  0  0  0  0  0  0  0
   14.8337    1.5740   11.2758 C   0  0  0  0  0  0  0  0  0  0  0  0
    9.9906    1.0668   12.4847 C   0  0  2  0  0  0  0  0  0  0  0  0
    9.9554    1.8705   11.2585 N   0  0  0  0  0  0  0  0  0  0  0  0
   13.4953   -2.9619   10.1852 C   0  0  2  0  0  0  0  0  0  0  0  0
   12.6246   -2.9542    9.0823 O   0  0  0  0  0  0  0  0  0  0  0  0
   14.6400   -2.1575    5.9911 C   0  0  1  0  0  0  0  0  0  0  0  0
   13.5139   -1.8073    5.1799 O   0  0  0  0  0  0  0  0  0  0  0  0
   18.8256   -3.1285    6.5866 C   0  0  1  0  0  0  0  0  0  0  0  0
   19.2197   -4.0388    5.5540 O   0  0  0  0  0  0  0  0  0  0  0  0
   15.7493    0.6322   12.1126 C   0  0  2  0  0  0  0  0  0  0  0  0
   16.8025    0.0933   11.3338 O   0  0  0  0  0  0  0  0  0  0  0  0
   10.8978   -0.1759   12.2902 C   0  0  2  0  0  0  0  0  0  0  0  0
   13.2688   -4.3448   10.8301 C   0  0  2  0  0  0  0  0  0  0  0  0
   12.1686   -4.0925   11.6896 O   0  0  0  0  0  0  0  0  0  0  0  0
   15.2945   -0.7854    6.4364 C   0  0  2  0  0  0  0  0  0  0  0  0
   16.4298   -1.1725    7.2122 O   0  0  0  0  0  0  0  0  0  0  0  0
   20.0290   -2.8246    7.4809 C   0  0  2  0  0  0  0  0  0  0  0  0
   20.2610   -3.9963    8.2797 O   0  0  0  0  0  0  0  0  0  0  0  0
   14.8685   -0.4823   12.7299 C   0  0  2  0  0  0  0  0  0  0  0  0
   13.9000    0.1657   13.6034 O   0  0  0  0  0  0  0  0  0  0  0  0
   10.9183   -1.1501   13.5114 C   0  0  2  0  0  0  0  0  0  0  0  0
   11.7351   -2.3113   13.1935 O   0  0  0  0  0  0  0  0  0  0  0  0
   14.4287   -4.9135   11.6468 C   0  0  0  0  0  0  0  0  0  0  0  0
   15.6263   -4.7414   10.8749 O   0  0  0  0  0  0  0  0  0  0  0  0
   14.3202   -0.1666    7.4202 C   0  0  1  0  0  0  0  0  0  0  0  0
   13.4244   -0.7981    8.3601 O   0  0  0  0  0  0  0  0  0  0  0  0
   19.8186   -1.5476    8.2868 C   0  0  2  0  0  0  0  0  0  0  0  0
   19.0469   -0.4546    7.7655 O   0  0  0  0  0  0  0  0  0  0  0  0
   15.6363   -1.4216   13.5963 C   0  0  0  0  0  0  0  0  0  0  0  0
   14.7134   -2.0676   14.4396 O   0  0  0  0  0  0  0  0  0  0  0  0
    9.4627   -1.5348   13.9420 C   0  0  1  0  0  0  0  0  0  0  0  0
    9.5644   -2.2749   15.1875 O   0  0  0  0  0  0  0  0  0  0  0  0
   14.6750    1.2590    7.9442 C   0  0  0  0  0  0  0  0  0  0  0  0
   14.7019    2.2850    6.8806 N   0  0  0  0  0  0  0  0  0  0  0  0
   20.8596   -0.9938    9.2570 C   0  0  0  0  0  0  0  0  0  0  0  0
   20.7019    0.4440    9.3856 O   0  0  0  0  0  0  0  0  0  0  0  0
  1  2  1  6  0  0  0
  1  8  1  0  0  0  0
  1 36  1  0  0  0  0
  3  4  1  6  0  0  0
  3 10  1  0  0  0  0
  3 47  1  0  0  0  0
  5 11  1  0  0  0  0
  5 30  1  0  0  0  0
  5 38  1  1  0  0  0
  6 21  1  1  0  0  0
  6 42  1  0  0  0  0
  7 15  1  0  0  0  0
  7 44  1  0  0  0  0
  7 32  1  1  0  0  0
  8  9  1  6  0  0  0
  8 17  1  0  0  0  0
 11 12  1  6  0  0  0
 11 20  1  0  0  0  0
 13  6  1  0  0  0  0
 13 14  1  1  0  0  0
 15 16  1  6  0  0  0
 15 24  1  0  0  0  0
 17 26  1  0  0  0  0
 18 10  1  0  0  0  0
 18 19  1  6  0  0  0
 20 21  1  6  0  0  0
 20 29  1  0  0  0  0
 22 13  1  0  0  0  0
 22 23  1  6  0  0  0
 24 25  1  6  0  0  0
 24 33  1  0  0  0  0
 26 27  1  6  0  0  0
 26 35  1  0  0  0  0
 28  2  1  1  0  0  0
 28 18  1  0  0  0  0
 29 30  1  0  0  0  0
 29 39  1  1  0  0  0
 31 22  1  0  0  0  0
 31 32  1  1  0  0  0
 31 41  1  0  0  0  0
 33 34  1  1  0  0  0
 33 43  1  0  0  0  0
 35 36  1  0  0  0  0
 35 45  1  1  0  0  0
 37 28  1  0  0  0  0
 37 38  1  6  0  0  0
 39 40  1  0  0  0  0
 41 42  1  0  0  0  0
 41 49  1  1  0  0  0
 43 44  1  0  0  0  0
 43 51  1  6  0  0  0
 45 46  1  0  0  0  0
 47 37  1  0  0  0  0
 47 48  1  1  0  0  0
 49 50  1  0  0  0  0
 51 52  1  0  0  0  0
M  END
>  <CHROM.1>
-144.07992165,87.79166605,74.18585696,-88.43808212,95.35047971,66.54792770
-46.36514297,121.54338575,159.98208383,-26.42045156,63.11727565,153.48478652
14.42891728,-1.20775037,10.15476100,-2.54939992,-0.33966128,-2.23634142

>  <Name>
2esj_lig

>  <RI>
0

>  <Rbt.Current_Directory>
/home/itssahil/PROJECTS/Mol_Feturizer/New_Systems/rnas/2esj

>  <Rbt.Executable>
rbdock ($Id: //depot/dev/client3/rdock/2013.1/src/exe/rbdock.cxx#4 $)

>  <Rbt.Library>
libRbt.so (2013.1, Build901 2013/11/27)

>  <Rbt.Parameter_File>
/export/apps/rDock/src/rDock_2013.1_src/data/scripts/dock_solv.prm

>  <Rbt.Receptor>
prm/blind_docking_40.prm

>  <SCORE>
64.3173

>  <SCORE.INTER>
24.6723

>  <SCORE.INTER.CONST>
1

>  <SCORE.INTER.POLAR>
-0.20243

>  <SCORE.INTER.ROT>
12

>  <SCORE.INTER.SOLV>
40.2883

>  <SCORE.INTER.VDW>
-7.90644

>  <SCORE.INTER.norm>
0.474468

>  <SCORE.INTRA>
29.8413

>  <SCORE.INTRA.DIHEDRAL>
2.10671

>  <SCORE.INTRA.DIHEDRAL.0>
32.9766

>  <SCORE.INTRA.POLAR>
0

>  <SCORE.INTRA.POLAR.0>
0

>  <SCORE.INTRA.REPUL>
0.465696

>  <SCORE.INTRA.REPUL.0>
0

>  <SCORE.INTRA.SOLV>
4.98116

>  <SCORE.INTRA.SOLV.lig_0>
-114.358

>  <SCORE.INTRA.VDW>
23.9689

>  <SCORE.INTRA.VDW.0>
-8.24257

>  <SCORE.INTRA.norm>
0.573871

>  <SCORE.RESTR>
9.80362

>  <SCORE.RESTR.CAVITY>
9.80362

>  <SCORE.RESTR.norm>
0.188531

>  <SCORE.SYSTEM>
0

>  <SCORE.SYSTEM.CONST>
0

>  <SCORE.SYSTEM.DIHEDRAL>
0

>  <SCORE.SYSTEM.SOLV>
0

>  <SCORE.SYSTEM.norm>
0

>  <SCORE.heavy>
52

>  <SCORE.norm>
1.23687

>  <RMSD>
11.712

$$$$
2esj_lig
 OpenBabel11021811423D
libRbt.so/2013.1/901 2013/11/27
 52 56  0  0  0  0  0  0  0  0999 V2000
   13.5290    1.7252   10.0544 C   0  0  2  0  0  0  0  0  0  0  0  0
   12.5857    0.7393    9.5927 O   0  0  0  0  0  0  0  0  0  0  0  0
   10.8774   -0.5283   13.3026 C   0  0  2  0  0  0  0  0  0  0  0  0
    9.9833   -1.0350   14.3567 N   0  0  0  0  0  0  0  0  0  0  0  0
   13.2110   -1.7878    9.0088 C   0  0  1  0  0  0  0  0  0  0  0  0
   15.8912   -1.8121    5.7009 C   0  0  1  0  0  0  0  0  0  0  0  0
   20.8523   -0.6902    6.2778 C   0  0  1  0  0  0  0  0  0  0  0  0
   14.6937    1.7788    9.0221 C   0  0  2  0  0  0  0  0  0  0  0  0
   14.2206    2.0676    7.6686 N   0  0  0  0  0  0  0  0  0  0  0  0
   10.2034    0.6856   12.5477 C   0  0  0  0  0  0  0  0  0  0  0  0
   14.0070   -2.9842    8.4859 C   0  0  2  0  0  0  0  0  0  0  0  0
   15.3034   -3.0988    9.1117 O   0  0  0  0  0  0  0  0  0  0  0  0
   17.2299   -2.3747    6.3586 C   0  0  2  0  0  0  0  0  0  0  0  0
   17.6309   -1.5591    7.5355 N   0  0  0  0  0  0  0  0  0  0  0  0
   20.4636   -1.8991    7.1210 C   0  0  1  0  0  0  0  0  0  0  0  0
   21.5695   -2.8231    7.1621 O   0  0  0  0  0  0  0  0  0  0  0  0
   15.5044    0.4440    9.0268 C   0  0  0  0  0  0  0  0  0  0  0  0
   11.2014    1.2537   11.4601 C   0  0  2  0  0  0  0  0  0  0  0  0
   10.5939    2.3742   10.7348 N   0  0  0  0  0  0  0  0  0  0  0  0
   14.0563   -2.6611    7.0206 C   0  0  2  0  0  0  0  0  0  0  0  0
   15.0050   -1.6554    6.7699 O   0  0  0  0  0  0  0  0  0  0  0  0
   18.3418   -2.5162    5.2278 C   0  0  1  0  0  0  0  0  0  0  0  0
   17.7987   -3.2662    4.1363 O   0  0  0  0  0  0  0  0  0  0  0  0
   20.0568   -1.5881    8.5563 C   0  0  1  0  0  0  0  0  0  0  0  0
   19.9607   -2.8373    9.2494 O   0  0  0  0  0  0  0  0  0  0  0  0
   15.9765    0.1472   10.4810 C   0  0  2  0  0  0  0  0  0  0  0  0
   16.7859   -1.0133   10.5454 O   0  0  0  0  0  0  0  0  0  0  0  0
   11.6196    0.1339   10.4721 C   0  0  2  0  0  0  0  0  0  0  0  0
   12.7063   -1.9919    6.6897 C   0  0  2  0  0  0  0  0  0  0  0  0
   12.3792   -1.3647    7.9196 O   0  0  0  0  0  0  0  0  0  0  0  0
   18.7384   -1.1052    4.6269 C   0  0  2  0  0  0  0  0  0  0  0  0
   19.3056   -0.3991    5.7315 O   0  0  0  0  0  0  0  0  0  0  0  0
   21.0395   -0.6749    9.2915 C   0  0  2  0  0  0  0  0  0  0  0  0
   20.3787   -0.2278   10.4866 O   0  0  0  0  0  0  0  0  0  0  0  0
   14.7244    0.0202   11.3839 C   0  0  2  0  0  0  0  0  0  0  0  0
   14.0302    1.2998   11.3435 O   0  0  0  0  0  0  0  0  0  0  0  0
   12.1853   -1.1489   11.1616 C   0  0  2  0  0  0  0  0  0  0  0  0
   12.4728   -2.1567   10.1526 O   0  0  0  0  0  0  0  0  0  0  0  0
   11.5670   -2.9237    6.2783 C   0  0  0  0  0  0  0  0  0  0  0  0
   10.4601   -2.1026    5.8781 O   0  0  0  0  0  0  0  0  0  0  0  0
   17.4274   -0.4048    4.3251 C   0  0  1  0  0  0  0  0  0  0  0  0
   16.1526   -0.4933    4.9970 O   0  0  0  0  0  0  0  0  0  0  0  0
   21.5374    0.4507    8.3917 C   0  0  2  0  0  0  0  0  0  0  0  0
   21.6896    0.2628    6.9763 O   0  0  0  0  0  0  0  0  0  0  0  0
   15.0589   -0.2185   12.8169 C   0  0  0  0  0  0  0  0  0  0  0  0
   13.8548   -0.4940   13.4909 O   0  0  0  0  0  0  0  0  0  0  0  0
   11.2054   -1.6646   12.2689 C   0  0  1  0  0  0  0  0  0  0  0  0
   11.8874   -2.7287   12.9844 O   0  0  0  0  0  0  0  0  0  0  0  0
   17.5285    0.9825    3.6196 C   0  0  0  0  0  0  0  0  0  0  0  0
   16.9848    0.9825    2.2451 N   0  0  0  0  0  0  0  0  0  0  0  0
   22.5361    1.5084    8.8558 C   0  0  0  0  0  0  0  0  0  0  0  0
   22.3162    2.7487    8.1332 O   0  0  0  0  0  0  0  0  0  0  0  0
  1  2  1  6  0  0  0
  1  8  1  0  0  0  0
  1 36  1  0  0  0  0
  3  4  1  1  0  0  0
  3 10  1  0  0  0  0
  3 47  1  0  0  0  0
  5 11  1  0  0  0  0
  5 30  1  0  0  0  0
  5 38  1  1  0  0  0
  6 21  1  1  0  0  0
  6 42  1  0  0  0  0
  7 15  1  0  0  0  0
  7 44  1  0  0  0  0
  7 32  1  1  0  0  0
  8  9  1  6  0  0  0
  8 17  1  0  0  0  0
 11 12  1  1  0  0  0
 11 20  1  0  0  0  0
 13  6  1  0  0  0  0
 13 14  1  1  0  0  0
 15 16  1  1  0  0  0
 15 24  1  0  0  0  0
 17 26  1  0  0  0  0
 18 10  1  0  0  0  0
 18 19  1  6  0  0  0
 20 21  1  1  0  0  0
 20 29  1  0  0  0  0
 22 13  1  0  0  0  0
 22 23  1  6  0  0  0
 24 25  1  1  0  0  0
 24 33  1  0  0  0  0
 26 27  1  6  0  0  0
 26 35  1  0  0  0  0
 28  2  1  6  0  0  0
 28 18  1  0  0  0  0
 29 30  1  0  0  0  0
 29 39  1  1  0  0  0
 31 22  1  0  0  0  0
 31 32  1  1  0  0  0
 31 41  1  0  0  0  0
 33 34  1  1  0  0  0
 33 43  1  0  0  0  0
 35 36  1  0  0  0  0
 35 45  1  1  0  0  0
 37 28  1  0  0  0  0
 37 38  1  6  0  0  0
 39 40  1  0  0  0  0
 41 42  1  0  0  0  0
 41 49  1  1  0  0  0
 43 44  1  0  0  0  0
 43 51  1  1  0  0  0
 45 46  1  0  0  0  0
 47 37  1  0  0  0  0
 47 48  1  1  0  0  0
 49 50  1  0  0  0  0
 51 52  1  0  0  0  0
M  END
>  <CHROM.1>
160.45252643,150.53279753,-97.92133937,-82.48238377,134.43180621,35.65642460
-173.85933280,77.32478396,-172.18417229,48.59817941,113.39913923,-150.93827831
15.74715109,-0.71732440,8.59805653,-2.64337348,-0.11450305,-1.79962014

>  <Name>
2esj_lig

>  <RI>
0

>  <Rbt.Current_Directory>
/home/itssahil/PROJECTS/Mol_Feturizer/New_Systems/rnas/2esj

>  <Rbt.Executable>
rbdock ($Id: //depot/dev/client3/rdock/2013.1/src/exe/rbdock.cxx#4 $)

>  <Rbt.Library>
libRbt.so (2013.1, Build901 2013/11/27)

>  <Rbt.Parameter_File>
/export/apps/rDock/src/rDock_2013.1_src/data/scripts/dock_solv.prm

>  <Rbt.Receptor>
prm/blind_docking_40.prm

>  <SCORE>
8.7528

>  <SCORE.INTER>
-7.15603

>  <SCORE.INTER.CONST>
1

>  <SCORE.INTER.POLAR>
-1.11546

>  <SCORE.INTER.ROT>
12

>  <SCORE.INTER.SOLV>
31.7575

>  <SCORE.INTER.VDW>
-23.2383

>  <SCORE.INTER.norm>
-0.137616

>  <SCORE.INTRA>
3.60078

>  <SCORE.INTRA.DIHEDRAL>
-3.72517

>  <SCORE.INTRA.DIHEDRAL.0>
32.9766

>  <SCORE.INTRA.POLAR>
0

>  <SCORE.INTRA.POLAR.0>
0

>  <SCORE.INTRA.REPUL>
0.0371874

>  <SCORE.INTRA.REPUL.0>
0

>  <SCORE.INTRA.SOLV>
4.97859

>  <SCORE.INTRA.SOLV.lig_0>
-114.358

>  <SCORE.INTRA.VDW>
2.78813

>  <SCORE.INTRA.VDW.0>
-8.24257

>  <SCORE.INTRA.norm>
0.0692458

>  <SCORE.RESTR>
12.3081

>  <SCORE.RESTR.CAVITY>
12.3081

>  <SCORE.RESTR.norm>
0.236693

>  <SCORE.SYSTEM>
0

>  <SCORE.SYSTEM.CONST>
0

>  <SCORE.SYSTEM.DIHEDRAL>
0

>  <SCORE.SYSTEM.SOLV>
0

>  <SCORE.SYSTEM.norm>
0

>  <SCORE.heavy>
52

>  <SCORE.norm>
0.168323

>  <RMSD>
11.794

$$$$
2esj_lig
 OpenBabel11021811423D
libRbt.so/2013.1/901 2013/11/27
 52 56  0  0  0  0  0  0  0  0999 V2000
   25.3356   -3.1800   10.4662 C   0  0  2  0  0  0  0  0  0  0  0  0
   24.4353   -2.0759   10.2533 O   0  0  0  0  0  0  0  0  0  0  0  0
   20.1814   -1.6515   10.3664 C   0  0  2  0  0  0  0  0  0  0  0  0
   18.7413   -1.6782   10.0621 N   0  0  0  0  0  0  0  0  0  0  0  0
   22.4363   -5.2552   12.0761 C   0  0  1  0  0  0  0  0  0  0  0  0
   21.6086   -8.7633   13.7857 C   0  0  1  0  0  0  0  0  0  0  0  0
   18.6419  -10.7304   17.2446 C   0  0  1  0  0  0  0  0  0  0  0  0
   26.6716   -2.5964   11.0134 C   0  0  2  0  0  0  0  0  0  0  0  0
   26.4745   -1.8101   12.2309 N   0  0  0  0  0  0  0  0  0  0  0  0
   20.9731   -0.9192    9.2112 C   0  0  0  0  0  0  0  0  0  0  0  0
   23.1083   -6.6243   11.9652 C   0  0  2  0  0  0  0  0  0  0  0  0
   22.3400   -7.5519   11.1685 O   0  0  0  0  0  0  0  0  0  0  0  0
   20.1084   -8.8389   14.3196 C   0  0  2  0  0  0  0  0  0  0  0  0
   19.9736   -8.1556   15.6333 N   0  0  0  0  0  0  0  0  0  0  0  0
   19.0794  -10.2340   18.6178 C   0  0  1  0  0  0  0  0  0  0  0  0
   18.0078   -9.4726   19.2096 O   0  0  0  0  0  0  0  0  0  0  0  0
   27.3848   -1.7264    9.9301 C   0  0  0  0  0  0  0  0  0  0  0  0
   22.5087   -0.8480    9.5834 C   0  0  2  0  0  0  0  0  0  0  0  0
   23.2692   -0.1839    8.5196 N   0  0  0  0  0  0  0  0  0  0  0  0
   23.2124   -6.9968   13.4159 C   0  0  2  0  0  0  0  0  0  0  0  0
   21.9648   -7.4175   13.9067 O   0  0  0  0  0  0  0  0  0  0  0  0
   19.6279  -10.3567   14.2982 C   0  0  1  0  0  0  0  0  0  0  0  0
   19.8745  -10.9017   12.9978 O   0  0  0  0  0  0  0  0  0  0  0  0
   19.4843  -11.3222   19.6048 C   0  0  1  0  0  0  0  0  0  0  0  0
   19.6299  -10.6991   20.8858 O   0  0  0  0  0  0  0  0  0  0  0  0
   27.5618   -2.5776    8.6379 C   0  0  2  0  0  0  0  0  0  0  0  0
   28.2734   -1.8727    7.6363 O   0  0  0  0  0  0  0  0  0  0  0  0
   23.0696   -2.2707    9.8409 C   0  0  2  0  0  0  0  0  0  0  0  0
   23.4863   -5.6802   14.1716 C   0  0  2  0  0  0  0  0  0  0  0  0
   22.8318   -4.7269   13.3496 O   0  0  0  0  0  0  0  0  0  0  0  0
   20.4695  -11.2441   15.3049 C   0  0  2  0  0  0  0  0  0  0  0  0
   20.1735  -10.6951   16.5900 O   0  0  0  0  0  0  0  0  0  0  0  0
   18.4744  -12.4664   19.7095 C   0  0  2  0  0  0  0  0  0  0  0  0
   19.1266  -13.5347   20.4152 O   0  0  0  0  0  0  0  0  0  0  0  0
   26.1594   -3.0108    8.1433 C   0  0  2  0  0  0  0  0  0  0  0  0
   25.5638   -3.8269    9.1921 O   0  0  0  0  0  0  0  0  0  0  0  0
   22.2586   -3.0977   10.8894 C   0  0  2  0  0  0  0  0  0  0  0  0
   22.8232   -4.4341   10.9966 O   0  0  0  0  0  0  0  0  0  0  0  0
   24.9526   -5.2829   14.3379 C   0  0  0  0  0  0  0  0  0  0  0  0
   25.6017   -6.3258   15.0799 O   0  0  0  0  0  0  0  0  0  0  0  0
   21.9224  -10.8996   15.0392 C   0  0  1  0  0  0  0  0  0  0  0  0
   22.5173   -9.6556   14.6111 O   0  0  0  0  0  0  0  0  0  0  0  0
   17.9304  -12.8592   18.3405 C   0  0  2  0  0  0  0  0  0  0  0  0
   17.7755  -11.8899   17.2926 O   0  0  0  0  0  0  0  0  0  0  0  0
   26.2090   -3.8761    6.9303 C   0  0  0  0  0  0  0  0  0  0  0  0
   27.0213   -4.9839    7.2353 O   0  0  0  0  0  0  0  0  0  0  0  0
   20.7346   -3.1126   10.5293 C   0  0  1  0  0  0  0  0  0  0  0  0
   20.0357   -3.7273   11.6442 O   0  0  0  0  0  0  0  0  0  0  0  0
   22.9859  -11.7179   15.8341 C   0  0  0  0  0  0  0  0  0  0  0  0
   22.8572  -13.1792   15.6528 N   0  0  0  0  0  0  0  0  0  0  0  0
   16.8974  -13.9659   18.1409 C   0  0  0  0  0  0  0  0  0  0  0  0
   17.4473  -15.2403   18.5680 O   0  0  0  0  0  0  0  0  0  0  0  0
  1  2  1  6  0  0  0
  1  8  1  0  0  0  0
  1 36  1  0  0  0  0
  3  4  1  6  0  0  0
  3 10  1  0  0  0  0
  3 47  1  0  0  0  0
  5 11  1  0  0  0  0
  5 30  1  0  0  0  0
  5 38  1  6  0  0  0
  6 21  1  1  0  0  0
  6 42  1  0  0  0  0
  7 15  1  0  0  0  0
  7 44  1  0  0  0  0
  7 32  1  6  0  0  0
  8  9  1  1  0  0  0
  8 17  1  0  0  0  0
 11 12  1  6  0  0  0
 11 20  1  0  0  0  0
 13  6  1  0  0  0  0
 13 14  1  1  0  0  0
 15 16  1  1  0  0  0
 15 24  1  0  0  0  0
 17 26  1  0  0  0  0
 18 10  1  0  0  0  0
 18 19  1  6  0  0  0
 20 21  1  1  0  0  0
 20 29  1  0  0  0  0
 22 13  1  0  0  0  0
 22 23  1  6  0  0  0
 24 25  1  1  0  0  0
 24 33  1  0  0  0  0
 26 27  1  6  0  0  0
 26 35  1  0  0  0  0
 28  2  1  1  0  0  0
 28 18  1  0  0  0  0
 29 30  1  0  0  0  0
 29 39  1  6  0  0  0
 31 22  1  0  0  0  0
 31 32  1  1  0  0  0
 31 41  1  0  0  0  0
 33 34  1  6  0  0  0
 33 43  1  0  0  0  0
 35 36  1  0  0  0  0
 35 45  1  6  0  0  0
 37 28  1  0  0  0  0
 37 38  1  6  0  0  0
 39 40  1  0  0  0  0
 41 42  1  0  0  0  0
 41 49  1  1  0  0  0
 43 44  1  0  0  0  0
 43 51  1  1  0  0  0
 45 46  1  0  0  0  0
 47 37  1  0  0  0  0
 47 48  1  1  0  0  0
 49 50  1  0  0  0  0
 51 52  1  0  0  0  0
M  END
>  <CHROM.1>
-175.37707054,178.00416088,-175.09340223,171.23423617,87.75609409,-174.11096137
-60.46094344,63.98838745,56.11756902,166.67947151,55.72387254,-62.85770388
22.11900797,-6.89502637,13.39110519,-1.13402346,-0.27764487,2.53743230

>  <Name>
2esj_lig

>  <RI>
0

>  <Rbt.Current_Directory>
/home/itssahil/PROJECTS/Mol_Feturizer/New_Systems/rnas/2esj

>  <Rbt.Executable>
rbdock ($Id: //depot/dev/client3/rdock/2013.1/src/exe/rbdock.cxx#4 $)

>  <Rbt.Library>
libRbt.so (2013.1, Build901 2013/11/27)

>  <Rbt.Parameter_File>
/export/apps/rDock/src/rDock_2013.1_src/data/scripts/dock_solv.prm

>  <Rbt.Receptor>
prm/pocket_docking_8.prm

>  <SCORE>
-25.5107

>  <SCORE.INTER>
-14.7161

>  <SCORE.INTER.CONST>
1

>  <SCORE.INTER.POLAR>
-0.825176

>  <SCORE.INTER.ROT>
12

>  <SCORE.INTER.SOLV>
13.11

>  <SCORE.INTER.VDW>
-23.0302

>  <SCORE.INTER.norm>
-0.283003

>  <SCORE.INTRA>
-10.7945

>  <SCORE.INTRA.DIHEDRAL>
-23.0771

>  <SCORE.INTRA.DIHEDRAL.0>
32.9766

>  <SCORE.INTRA.POLAR>
0

>  <SCORE.INTRA.POLAR.0>
0

>  <SCORE.INTRA.REPUL>
0

>  <SCORE.INTRA.REPUL.0>
0

>  <SCORE.INTRA.SOLV>
-3.59417

>  <SCORE.INTRA.SOLV.lig_0>
-114.358

>  <SCORE.INTRA.VDW>
2.54111

>  <SCORE.INTRA.VDW.0>
-8.24257

>  <SCORE.INTRA.norm>
-0.207587

>  <SCORE.RESTR>
0

>  <SCORE.RESTR.CAVITY>
0

>  <SCORE.RESTR.norm>
0

>  <SCORE.SYSTEM>
0

>  <SCORE.SYSTEM.CONST>
0

>  <SCORE.SYSTEM.DIHEDRAL>
0

>  <SCORE.SYSTEM.SOLV>
0

>  <SCORE.SYSTEM.norm>
0

>  <SCORE.heavy>
52

>  <SCORE.norm>
-0.49059

>  <RMSD>
11.798

$$$$
2esj_lig
 OpenBabel11021811423D
libRbt.so/2013.1/901 2013/11/27
 52 56  0  0  0  0  0  0  0  0999 V2000
   10.9641    0.6583   11.3524 C   0  0  2  0  0  0  0  0  0  0  0  0
   11.5211    0.9971   10.0679 O   0  0  0  0  0  0  0  0  0  0  0  0
    8.7189   -0.8721    7.4331 C   0  0  2  0  0  0  0  0  0  0  0  0
    8.0236   -1.4338    6.2633 N   0  0  0  0  0  0  0  0  0  0  0  0
   13.0594   -1.7318    8.3254 C   0  0  1  0  0  0  0  0  0  0  0  0
   16.7261   -2.5521    6.9441 C   0  0  1  0  0  0  0  0  0  0  0  0
   19.9187    0.7433    8.9242 C   0  0  1  0  0  0  0  0  0  0  0  0
   11.4018    1.7629   12.3590 C   0  0  2  0  0  0  0  0  0  0  0  0
   10.9976    3.0996   11.9241 N   0  0  0  0  0  0  0  0  0  0  0  0
    9.0838    0.6444    7.1790 C   0  0  0  0  0  0  0  0  0  0  0  0
   13.9023   -3.0068    8.3735 C   0  0  2  0  0  0  0  0  0  0  0  0
   14.9684   -2.9257    9.3442 O   0  0  0  0  0  0  0  0  0  0  0  0
   17.1508   -1.8202    8.2951 C   0  0  2  0  0  0  0  0  0  0  0  0
   16.8124   -0.3730    8.2482 N   0  0  0  0  0  0  0  0  0  0  0  0
   21.0191   -0.2323    9.3256 C   0  0  1  0  0  0  0  0  0  0  0  0
   22.0857    0.4949    9.9673 O   0  0  0  0  0  0  0  0  0  0  0  0
   12.9457    1.7252   12.5911 C   0  0  0  0  0  0  0  0  0  0  0  0
    9.7762    1.2462    8.4674 C   0  0  2  0  0  0  0  0  0  0  0  0
   10.1376    2.6512    8.2527 N   0  0  0  0  0  0  0  0  0  0  0  0
   14.3701   -3.0800    6.9488 C   0  0  2  0  0  0  0  0  0  0  0  0
   15.4044   -2.1562    6.7223 O   0  0  0  0  0  0  0  0  0  0  0  0
   18.6796   -2.1440    8.6000 C   0  0  1  0  0  0  0  0  0  0  0  0
   18.8709   -3.5617    8.5507 O   0  0  0  0  0  0  0  0  0  0  0  0
   20.5850   -1.3542   10.2612 C   0  0  1  0  0  0  0  0  0  0  0  0
   21.7735   -2.0140   10.7109 O   0  0  0  0  0  0  0  0  0  0  0  0
   13.3535    0.2877   13.0302 C   0  0  2  0  0  0  0  0  0  0  0  0
   14.7345    0.2014   13.3331 O   0  0  0  0  0  0  0  0  0  0  0  0
   11.0313    0.4171    8.8444 C   0  0  2  0  0  0  0  0  0  0  0  0
   13.2016   -2.5496    6.0926 C   0  0  2  0  0  0  0  0  0  0  0  0
   12.5835   -1.6277    6.9763 O   0  0  0  0  0  0  0  0  0  0  0  0
   19.6317   -1.5410    7.4869 C   0  0  2  0  0  0  0  0  0  0  0  0
   19.4408   -0.1290    7.5877 O   0  0  0  0  0  0  0  0  0  0  0  0
   19.7839   -0.8721   11.4718 C   0  0  2  0  0  0  0  0  0  0  0  0
   19.1914   -2.0365   12.0700 O   0  0  0  0  0  0  0  0  0  0  0  0
   12.9538   -0.6981   11.9043 C   0  0  2  0  0  0  0  0  0  0  0  0
   11.5072   -0.6210   11.7553 O   0  0  0  0  0  0  0  0  0  0  0  0
   10.7644   -1.1150    8.9941 C   0  0  2  0  0  0  0  0  0  0  0  0
   12.0164   -1.8018    9.2721 O   0  0  0  0  0  0  0  0  0  0  0  0
   12.1704   -3.5803    5.6344 C   0  0  0  0  0  0  0  0  0  0  0  0
   11.2582   -2.9149    4.7485 O   0  0  0  0  0  0  0  0  0  0  0  0
   19.0164   -1.9418    6.1599 C   0  0  1  0  0  0  0  0  0  0  0  0
   17.6314   -2.1341    5.8001 O   0  0  0  0  0  0  0  0  0  0  0  0
   18.7840    0.2120   11.0851 C   0  0  2  0  0  0  0  0  0  0  0  0
   19.0596    1.1366   10.0217 O   0  0  0  0  0  0  0  0  0  0  0  0
   13.2554   -2.1195   12.2377 C   0  0  0  0  0  0  0  0  0  0  0  0
   12.5921   -2.9242   11.2929 O   0  0  0  0  0  0  0  0  0  0  0  0
   10.0334   -1.6795    7.7295 C   0  0  1  0  0  0  0  0  0  0  0  0
    9.6523   -3.0486    8.0288 O   0  0  0  0  0  0  0  0  0  0  0  0
   19.8199   -1.5593    4.8789 C   0  0  0  0  0  0  0  0  0  0  0  0
   21.0210   -0.7454    5.1612 N   0  0  0  0  0  0  0  0  0  0  0  0
   17.8553    0.8863   12.0923 C   0  0  0  0  0  0  0  0  0  0  0  0
   17.1970   -0.1179   12.9091 O   0  0  0  0  0  0  0  0  0  0  0  0
  1  2  1  6  0  0  0
  1  8  1  0  0  0  0
  1 36  1  0  0  0  0
  3  4  1  6  0  0  0
  3 10  1  0  0  0  0
  3 47  1  0  0  0  0
  5 11  1  0  0  0  0
  5 30  1  0  0  0  0
  5 38  1  1  0  0  0
  6 21  1  6  0  0  0
  6 42  1  0  0  0  0
  7 15  1  0  0  0  0
  7 44  1  0  0  0  0
  7 32  1  6  0  0  0
  8  9  1  6  0  0  0
  8 17  1  0  0  0  0
 11 12  1  1  0  0  0
 11 20  1  0  0  0  0
 13  6  1  0  0  0  0
 13 14  1  6  0  0  0
 15 16  1  1  0  0  0
 15 24  1  0  0  0  0
 17 26  1  0  0  0  0
 18 10  1  0  0  0  0
 18 19  1  6  0  0  0
 20 21  1  1  0  0  0
 20 29  1  0  0  0  0
 22 13  1  0  0  0  0
 22 23  1  6  0  0  0
 24 25  1  1  0  0  0
 24 33  1  0  0  0  0
 26 27  1  6  0  0  0
 26 35  1  0  0  0  0
 28  2  1  1  0  0  0
 28 18  1  0  0  0  0
 29 30  1  0  0  0  0
 29 39  1  1  0  0  0
 31 22  1  0  0  0  0
 31 32  1  6  0  0  0
 31 41  1  0  0  0  0
 33 34  1  6  0  0  0
 33 43  1  0  0  0  0
 35 36  1  0  0  0  0
 35 45  1  1  0  0  0
 37 28  1  0  0  0  0
 37 38  1  6  0  0  0
 39 40  1  0  0  0  0
 41 42  1  0  0  0  0
 41 49  1  6  0  0  0
 43 44  1  0  0  0  0
 43 51  1  1  0  0  0
 45 46  1  0  0  0  0
 47 37  1  0  0  0  0
 47 48  1  1  0  0  0
 49 50  1  0  0  0  0
 51 52  1  0  0  0  0
M  END
>  <CHROM.1>
-162.56260974,-149.41211961,-106.28302649,26.17010797,89.16894603,82.11269147
-174.16725555,66.67471294,167.28288751,-60.86643442,-5.16032602,-48.37097482
15.00145331,-0.94240071,9.09350324,3.13927371,0.04970796,-2.00299488

>  <Name>
2esj_lig

>  <RI>
0

>  <Rbt.Current_Directory>
/home/itssahil/PROJECTS/Mol_Feturizer/New_Systems/rnas/2esj

>  <Rbt.Executable>
rbdock ($Id: //depot/dev/client3/rdock/2013.1/src/exe/rbdock.cxx#4 $)

>  <Rbt.Library>
libRbt.so (2013.1, Build901 2013/11/27)

>  <Rbt.Parameter_File>
/export/apps/rDock/src/rDock_2013.1_src/data/scripts/dock_solv.prm

>  <Rbt.Receptor>
prm/blind_docking_40.prm

>  <SCORE>
31.1392

>  <SCORE.INTER>
7.80488

>  <SCORE.INTER.CONST>
1

>  <SCORE.INTER.POLAR>
-0.802367

>  <SCORE.INTER.ROT>
12

>  <SCORE.INTER.SOLV>
28.1078

>  <SCORE.INTER.VDW>
-13.0914

>  <SCORE.INTER.norm>
0.150094

>  <SCORE.INTRA>
8.64838

>  <SCORE.INTRA.DIHEDRAL>
-5.51183

>  <SCORE.INTRA.DIHEDRAL.0>
32.9766

>  <SCORE.INTRA.POLAR>
0

>  <SCORE.INTRA.POLAR.0>
0

>  <SCORE.INTRA.REPUL>
0

>  <SCORE.INTRA.REPUL.0>
0

>  <SCORE.INTRA.SOLV>
5.74542

>  <SCORE.INTRA.SOLV.lig_0>
-114.358

>  <SCORE.INTRA.VDW>
8.53159

>  <SCORE.INTRA.VDW.0>
-8.24257

>  <SCORE.INTRA.norm>
0.166315

>  <SCORE.RESTR>
14.6859

>  <SCORE.RESTR.CAVITY>
14.6859

>  <SCORE.RESTR.norm>
0.282422

>  <SCORE.SYSTEM>
0

>  <SCORE.SYSTEM.CONST>
0

>  <SCORE.SYSTEM.DIHEDRAL>
0

>  <SCORE.SYSTEM.SOLV>
0

>  <SCORE.SYSTEM.norm>
0

>  <SCORE.heavy>
52

>  <SCORE.norm>
0.598831

>  <RMSD>
11.860

$$$$
2esj_lig
 OpenBabel11021811423D
libRbt.so/2013.1/901 2013/11/27
 52 56  0  0  0  0  0  0  0  0999 V2000
   11.0441   -2.1783    8.1950 C   0  0  2  0  0  0  0  0  0  0  0  0
   12.4589   -1.9763    8.0150 O   0  0  0  0  0  0  0  0  0  0  0  0
   14.0451   -4.7321   10.8746 C   0  0  2  0  0  0  0  0  0  0  0  0
   14.9204   -5.4995   11.7759 N   0  0  0  0  0  0  0  0  0  0  0  0
   14.1605   -0.2663   10.8281 C   0  0  1  0  0  0  0  0  0  0  0  0
   16.7561    0.3334   10.6156 C   0  0  1  0  0  0  0  0  0  0  0  0
   20.5575   -1.6144    7.3774 C   0  0  1  0  0  0  0  0  0  0  0  0
   10.3856   -2.1648    6.7839 C   0  0  2  0  0  0  0  0  0  0  0  0
   10.9704   -3.1644    5.8907 N   0  0  0  0  0  0  0  0  0  0  0  0
   14.5869   -4.8023    9.3917 C   0  0  0  0  0  0  0  0  0  0  0  0
   13.9949    1.0870   10.1355 C   0  0  2  0  0  0  0  0  0  0  0  0
   14.2855    1.0215    8.7224 O   0  0  0  0  0  0  0  0  0  0  0  0
   18.3428    0.4736   10.6773 C   0  0  2  0  0  0  0  0  0  0  0  0
   18.8424    1.3707    9.6019 N   0  0  0  0  0  0  0  0  0  0  0  0
   20.5879   -0.4256    6.4237 C   0  0  1  0  0  0  0  0  0  0  0  0
   21.9262   -0.2623    5.9131 O   0  0  0  0  0  0  0  0  0  0  0  0
   10.4888   -0.7483    6.1343 C   0  0  0  0  0  0  0  0  0  0  0  0
   13.6025   -4.0228    8.4300 C   0  0  2  0  0  0  0  0  0  0  0  0
   14.0904   -4.0613    7.0475 N   0  0  0  0  0  0  0  0  0  0  0  0
   14.9624    1.9196   10.9259 C   0  0  2  0  0  0  0  0  0  0  0  0
   16.2832    1.6457   10.5324 O   0  0  0  0  0  0  0  0  0  0  0  0
   18.9901   -0.9810   10.6949 C   0  0  1  0  0  0  0  0  0  0  0  0
   18.3729   -1.7495   11.7328 O   0  0  0  0  0  0  0  0  0  0  0  0
   19.6391   -0.5202    5.2350 C   0  0  1  0  0  0  0  0  0  0  0  0
   19.9721    0.5478    4.3413 O   0  0  0  0  0  0  0  0  0  0  0  0
    9.8814    0.2996    7.1133 C   0  0  2  0  0  0  0  0  0  0  0  0
    9.8724    1.6005    6.5531 O   0  0  0  0  0  0  0  0  0  0  0  0
   13.4336   -2.5554    8.9026 C   0  0  2  0  0  0  0  0  0  0  0  0
   14.8876    1.3937   12.3742 C   0  0  2  0  0  0  0  0  0  0  0  0
   14.5545    0.0290   12.1753 O   0  0  0  0  0  0  0  0  0  0  0  0
   18.6967   -1.7609    9.3477 C   0  0  2  0  0  0  0  0  0  0  0  0
   19.3535   -0.9868    8.3428 O   0  0  0  0  0  0  0  0  0  0  0  0
   19.7198   -1.8516    4.4861 C   0  0  2  0  0  0  0  0  0  0  0  0
   18.5772   -1.9107    3.6167 O   0  0  0  0  0  0  0  0  0  0  0  0
   10.6850    0.2540    8.4366 C   0  0  2  0  0  0  0  0  0  0  0  0
   10.5307   -1.0840    8.9906 O   0  0  0  0  0  0  0  0  0  0  0  0
   13.0138   -2.4103   10.4005 C   0  0  2  0  0  0  0  0  0  0  0  0
   12.9586   -1.0006   10.7556 O   0  0  0  0  0  0  0  0  0  0  0  0
   13.8425    2.0425   13.2811 C   0  0  0  0  0  0  0  0  0  0  0  0
   12.5669    1.9055   12.6377 O   0  0  0  0  0  0  0  0  0  0  0  0
   17.2121   -1.5890    9.0893 C   0  0  1  0  0  0  0  0  0  0  0  0
   16.3366   -0.4865    9.4094 O   0  0  0  0  0  0  0  0  0  0  0  0
   19.8372   -3.0283    5.4483 C   0  0  2  0  0  0  0  0  0  0  0  0
   20.5140   -2.8978    6.7080 O   0  0  0  0  0  0  0  0  0  0  0  0
   10.1590    1.1885    9.4723 C   0  0  0  0  0  0  0  0  0  0  0  0
   10.3493    2.4983    8.9944 O   0  0  0  0  0  0  0  0  0  0  0  0
   13.9710   -3.2305   11.3295 C   0  0  1  0  0  0  0  0  0  0  0  0
   13.4020   -3.2017   12.6655 O   0  0  0  0  0  0  0  0  0  0  0  0
   16.6284   -2.3544    7.8620 C   0  0  0  0  0  0  0  0  0  0  0  0
   17.6241   -2.6034    6.7984 N   0  0  0  0  0  0  0  0  0  0  0  0
   19.9454   -4.4783    4.9819 C   0  0  0  0  0  0  0  0  0  0  0  0
   18.9566   -4.7426    3.9517 O   0  0  0  0  0  0  0  0  0  0  0  0
  1  2  1  6  0  0  0
  1  8  1  0  0  0  0
  1 36  1  0  0  0  0
  3  4  1  1  0  0  0
  3 10  1  0  0  0  0
  3 47  1  0  0  0  0
  5 11  1  0  0  0  0
  5 30  1  0  0  0  0
  5 38  1  1  0  0  0
  6 21  1  6  0  0  0
  6 42  1  0  0  0  0
  7 15  1  0  0  0  0
  7 44  1  0  0  0  0
  7 32  1  1  0  0  0
  8  9  1  6  0  0  0
  8 17  1  0  0  0  0
 11 12  1  6  0  0  0
 11 20  1  0  0  0  0
 13  6  1  0  0  0  0
 13 14  1  6  0  0  0
 15 16  1  6  0  0  0
 15 24  1  0  0  0  0
 17 26  1  0  0  0  0
 18 10  1  0  0  0  0
 18 19  1  6  0  0  0
 20 21  1  6  0  0  0
 20 29  1  0  0  0  0
 22 13  1  0  0  0  0
 22 23  1  1  0  0  0
 24 25  1  6  0  0  0
 24 33  1  0  0  0  0
 26 27  1  6  0  0  0
 26 35  1  0  0  0  0
 28  2  1  6  0  0  0
 28 18  1  0  0  0  0
 29 30  1  0  0  0  0
 29 39  1  1  0  0  0
 31 22  1  0  0  0  0
 31 32  1  6  0  0  0
 31 41  1  0  0  0  0
 33 34  1  1  0  0  0
 33 43  1  0  0  0  0
 35 36  1  0  0  0  0
 35 45  1  1  0  0  0
 37 28  1  0  0  0  0
 37 38  1  1  0  0  0
 39 40  1  0  0  0  0
 41 42  1  0  0  0  0
 41 49  1  6  0  0  0
 43 44  1  0  0  0  0
 43 51  1  6  0  0  0
 45 46  1  0  0  0  0
 47 37  1  0  0  0  0
 47 48  1  1  0  0  0
 49 50  1  0  0  0  0
 51 52  1  0  0  0  0
M  END
>  <CHROM.1>
-148.44797262,135.32552828,-157.89343872,169.51430807,-57.43221128,80.89402799
55.82760704,120.26569005,-65.43044684,-69.15316793,-27.02411326,-46.12816558
15.42359914,-1.15910826,8.65038902,2.71469997,0.02344296,1.08921209

>  <Name>
2esj_lig

>  <RI>
0

>  <Rbt.Current_Directory>
/home/itssahil/PROJECTS/Mol_Feturizer/New_Systems/rnas/2esj

>  <Rbt.Executable>
rbdock ($Id: //depot/dev/client3/rdock/2013.1/src/exe/rbdock.cxx#4 $)

>  <Rbt.Library>
libRbt.so (2013.1, Build901 2013/11/27)

>  <Rbt.Parameter_File>
/export/apps/rDock/src/rDock_2013.1_src/data/scripts/dock_solv.prm

>  <Rbt.Receptor>
prm/blind_docking_40.prm

>  <SCORE>
87.9738

>  <SCORE.INTER>
66.5468

>  <SCORE.INTER.CONST>
1

>  <SCORE.INTER.POLAR>
-1.59069

>  <SCORE.INTER.ROT>
12

>  <SCORE.INTER.SOLV>
34.2695

>  <SCORE.INTER.VDW>
26.6436

>  <SCORE.INTER.norm>
1.27975

>  <SCORE.INTRA>
7.21817

>  <SCORE.INTRA.DIHEDRAL>
-5.73334

>  <SCORE.INTRA.DIHEDRAL.0>
32.9766

>  <SCORE.INTRA.POLAR>
0

>  <SCORE.INTRA.POLAR.0>
0

>  <SCORE.INTRA.REPUL>
0

>  <SCORE.INTRA.REPUL.0>
0

>  <SCORE.INTRA.SOLV>
8.99121

>  <SCORE.INTRA.SOLV.lig_0>
-114.358

>  <SCORE.INTRA.VDW>
5.58924

>  <SCORE.INTRA.VDW.0>
-8.24257

>  <SCORE.INTRA.norm>
0.138811

>  <SCORE.RESTR>
14.2089

>  <SCORE.RESTR.CAVITY>
14.2089

>  <SCORE.RESTR.norm>
0.273248

>  <SCORE.SYSTEM>
0

>  <SCORE.SYSTEM.CONST>
0

>  <SCORE.SYSTEM.DIHEDRAL>
0

>  <SCORE.SYSTEM.SOLV>
0

>  <SCORE.SYSTEM.norm>
0

>  <SCORE.heavy>
52

>  <SCORE.norm>
1.6918

>  <RMSD>
11.924

$$$$
2esj_lig
 OpenBabel11021811423D
libRbt.so/2013.1/901 2013/11/27
 52 56  0  0  0  0  0  0  0  0999 V2000
   32.2327   -6.1714   14.8994 C   0  0  2  0  0  0  0  0  0  0  0  0
   30.9929   -6.6828   14.3737 O   0  0  0  0  0  0  0  0  0  0  0  0
   30.0364   -3.5340   11.6428 C   0  0  2  0  0  0  0  0  0  0  0  0
   29.4224   -2.6899   10.6046 N   0  0  0  0  0  0  0  0  0  0  0  0
   27.6066   -5.5611   14.8538 C   0  0  1  0  0  0  0  0  0  0  0  0
   24.9156   -7.8969   16.0398 C   0  0  1  0  0  0  0  0  0  0  0  0
   20.3543  -10.2842   16.6979 C   0  0  1  0  0  0  0  0  0  0  0  0
   32.9972   -7.3660   15.5426 C   0  0  2  0  0  0  0  0  0  0  0  0
   33.2154   -8.4582   14.5946 N   0  0  0  0  0  0  0  0  0  0  0  0
   30.4174   -4.9473   11.0470 C   0  0  0  0  0  0  0  0  0  0  0  0
   26.7034   -5.5018   16.0864 C   0  0  2  0  0  0  0  0  0  0  0  0
   26.9878   -6.5587   17.0285 O   0  0  0  0  0  0  0  0  0  0  0  0
   24.0224   -9.0244   15.3526 C   0  0  2  0  0  0  0  0  0  0  0  0
   22.8314   -8.4319   14.6884 N   0  0  0  0  0  0  0  0  0  0  0  0
   19.3964   -9.2358   16.1439 C   0  0  1  0  0  0  0  0  0  0  0  0
   18.5406   -9.8494   15.1593 O   0  0  0  0  0  0  0  0  0  0  0  0
   32.2408   -7.8991   16.8006 C   0  0  0  0  0  0  0  0  0  0  0  0
   31.1286   -5.8176   12.1599 C   0  0  2  0  0  0  0  0  0  0  0  0
   31.4809   -7.1412   11.6357 N   0  0  0  0  0  0  0  0  0  0  0  0
   25.3516   -5.5990   15.4405 C   0  0  2  0  0  0  0  0  0  0  0  0
   25.0857   -6.9230   15.0522 O   0  0  0  0  0  0  0  0  0  0  0  0
   23.7009  -10.1551   16.4265 C   0  0  1  0  0  0  0  0  0  0  0  0
   24.9270  -10.5850   17.0269 O   0  0  0  0  0  0  0  0  0  0  0  0
   18.5096   -8.5529   17.1781 C   0  0  1  0  0  0  0  0  0  0  0  0
   17.5314   -7.7921   16.4609 O   0  0  0  0  0  0  0  0  0  0  0  0
   32.0004   -6.7144   17.7827 C   0  0  2  0  0  0  0  0  0  0  0  0
   31.3847   -7.1429   18.9841 O   0  0  0  0  0  0  0  0  0  0  0  0
   30.2146   -5.9555   13.4051 C   0  0  2  0  0  0  0  0  0  0  0  0
   25.4650   -4.8341   14.1057 C   0  0  2  0  0  0  0  0  0  0  0  0
   26.8319   -5.0205   13.7744 O   0  0  0  0  0  0  0  0  0  0  0  0
   22.8141   -9.5915   17.6119 C   0  0  2  0  0  0  0  0  0  0  0  0
   21.5909   -9.2051   16.9835 O   0  0  0  0  0  0  0  0  0  0  0  0
   17.8021   -9.5263   18.1225 C   0  0  2  0  0  0  0  0  0  0  0  0
   17.2739   -8.7452   19.2068 O   0  0  0  0  0  0  0  0  0  0  0  0
   31.1493   -5.6436   17.0560 C   0  0  2  0  0  0  0  0  0  0  0  0
   31.9200   -5.1834   15.9093 O   0  0  0  0  0  0  0  0  0  0  0  0
   29.7017   -4.5945   13.9758 C   0  0  2  0  0  0  0  0  0  0  0  0
   28.7978   -4.8434   15.0882 O   0  0  0  0  0  0  0  0  0  0  0  0
   25.1546   -3.3383   14.1496 C   0  0  0  0  0  0  0  0  0  0  0  0
   23.7946   -3.1914   14.5838 O   0  0  0  0  0  0  0  0  0  0  0  0
   23.4783   -8.2975   18.0415 C   0  0  1  0  0  0  0  0  0  0  0  0
   24.2183   -7.3321   17.2637 O   0  0  0  0  0  0  0  0  0  0  0  0
   18.7280  -10.6569   18.5569 C   0  0  2  0  0  0  0  0  0  0  0  0
   19.7554  -11.1563   17.6868 O   0  0  0  0  0  0  0  0  0  0  0  0
   30.8952   -4.4343   17.8899 C   0  0  0  0  0  0  0  0  0  0  0  0
   30.0949   -3.5596   17.1318 O   0  0  0  0  0  0  0  0  0  0  0  0
   29.0471   -3.7282   12.8474 C   0  0  1  0  0  0  0  0  0  0  0  0
   28.7780   -2.4179   13.4131 O   0  0  0  0  0  0  0  0  0  0  0  0
   22.8594   -7.5776   19.2790 C   0  0  0  0  0  0  0  0  0  0  0  0
   23.7607   -6.5758   19.8862 N   0  0  0  0  0  0  0  0  0  0  0  0
   18.2882  -11.7814   19.4917 C   0  0  0  0  0  0  0  0  0  0  0  0
   17.3059  -12.6210   18.8292 O   0  0  0  0  0  0  0  0  0  0  0  0
  1  2  1  1  0  0  0
  1  8  1  0  0  0  0
  1 36  1  0  0  0  0
  3  4  1  6  0  0  0
  3 10  1  0  0  0  0
  3 47  1  0  0  0  0
  5 11  1  0  0  0  0
  5 30  1  0  0  0  0
  5 38  1  1  0  0  0
  6 21  1  6  0  0  0
  6 42  1  0  0  0  0
  7 15  1  0  0  0  0
  7 44  1  0  0  0  0
  7 32  1  1  0  0  0
  8  9  1  6  0  0  0
  8 17  1  0  0  0  0
 11 12  1  1  0  0  0
 11 20  1  0  0  0  0
 13  6  1  0  0  0  0
 13 14  1  1  0  0  0
 15 16  1  6  0  0  0
 15 24  1  0  0  0  0
 17 26  1  0  0  0  0
 18 10  1  0  0  0  0
 18 19  1  6  0  0  0
 20 21  1  6  0  0  0
 20 29  1  0  0  0  0
 22 13  1  0  0  0  0
 22 23  1  1  0  0  0
 24 25  1  6  0  0  0
 24 33  1  0  0  0  0
 26 27  1  1  0  0  0
 26 35  1  0  0  0  0
 28  2  1  1  0  0  0
 28 18  1  0  0  0  0
 29 30  1  0  0  0  0
 29 39  1  1  0  0  0
 31 22  1  0  0  0  0
 31 32  1  6  0  0  0
 31 41  1  0  0  0  0
 33 34  1  1  0  0  0
 33 43  1  0  0  0  0
 35 36  1  0  0  0  0
 35 45  1  1  0  0  0
 37 28  1  0  0  0  0
 37 38  1  1  0  0  0
 39 40  1  0  0  0  0
 41 42  1  0  0  0  0
 41 49  1  6  0  0  0
 43 44  1  0  0  0  0
 43 51  1  6  0  0  0
 45 46  1  0  0  0  0
 47 37  1  0  0  0  0
 47 48  1  1  0  0  0
 49 50  1  0  0  0  0
 51 52  1  0  0  0  0
M  END
>  <CHROM.1>
-162.58938912,-170.37710689,155.16044214,176.09488701,67.09027336,61.67222207
-60.91683013,84.72656724,-178.76306240,-61.86367122,162.77109212,67.75249102
25.78521745,-7.04713893,15.87555755,-0.43684929,0.09664303,2.31071017

>  <Name>
2esj_lig

>  <RI>
0

>  <Rbt.Current_Directory>
/home/itssahil/PROJECTS/Mol_Feturizer/New_Systems/rnas/2esj

>  <Rbt.Executable>
rbdock ($Id: //depot/dev/client3/rdock/2013.1/src/exe/rbdock.cxx#4 $)

>  <Rbt.Library>
libRbt.so (2013.1, Build901 2013/11/27)

>  <Rbt.Parameter_File>
/export/apps/rDock/src/rDock_2013.1_src/data/scripts/dock_solv.prm

>  <Rbt.Receptor>
prm/pocket_docking_8.prm

>  <SCORE>
-14.2926

>  <SCORE.INTER>
-6.39833

>  <SCORE.INTER.CONST>
1

>  <SCORE.INTER.POLAR>
0

>  <SCORE.INTER.ROT>
12

>  <SCORE.INTER.SOLV>
13.1296

>  <SCORE.INTER.VDW>
-20.2421

>  <SCORE.INTER.norm>
-0.123045

>  <SCORE.INTRA>
-7.89432

>  <SCORE.INTRA.DIHEDRAL>
-20.3821

>  <SCORE.INTRA.DIHEDRAL.0>
32.9766

>  <SCORE.INTRA.POLAR>
0

>  <SCORE.INTRA.POLAR.0>
0

>  <SCORE.INTRA.REPUL>
0

>  <SCORE.INTRA.REPUL.0>
0

>  <SCORE.INTRA.SOLV>
-1.58365

>  <SCORE.INTRA.SOLV.lig_0>
-114.358

>  <SCORE.INTRA.VDW>
3.08856

>  <SCORE.INTRA.VDW.0>
-8.24257

>  <SCORE.INTRA.norm>
-0.151814

>  <SCORE.RESTR>
0

>  <SCORE.RESTR.CAVITY>
0

>  <SCORE.RESTR.norm>
0

>  <SCORE.SYSTEM>
0

>  <SCORE.SYSTEM.CONST>
0

>  <SCORE.SYSTEM.DIHEDRAL>
0

>  <SCORE.SYSTEM.SOLV>
0

>  <SCORE.SYSTEM.norm>
0

>  <SCORE.heavy>
52

>  <SCORE.norm>
-0.274859

>  <RMSD>
11.946

$$$$
2esj_lig
 OpenBabel11021811423D
libRbt.so/2013.1/901 2013/11/27
 52 56  0  0  0  0  0  0  0  0999 V2000
   10.7994   -1.0270    8.0089 C   0  0  2  0  0  0  0  0  0  0  0  0
   10.3913   -1.9858    9.0033 O   0  0  0  0  0  0  0  0  0  0  0  0
    9.1528   -1.4292   13.0585 C   0  0  2  0  0  0  0  0  0  0  0  0
    9.1055   -1.2558   14.5197 N   0  0  0  0  0  0  0  0  0  0  0  0
   11.9599    0.9712   10.5260 C   0  0  1  0  0  0  0  0  0  0  0  0
   15.7025    1.5615   12.0875 C   0  0  1  0  0  0  0  0  0  0  0  0
   18.0953   -0.5066    8.7194 C   0  0  1  0  0  0  0  0  0  0  0  0
   10.2632   -1.5217    6.6331 C   0  0  2  0  0  0  0  0  0  0  0  0
    8.8136   -1.7160    6.6416 N   0  0  0  0  0  0  0  0  0  0  0  0
    9.9153   -2.7631   12.6884 C   0  0  0  0  0  0  0  0  0  0  0  0
   12.0150    1.7727   11.8271 C   0  0  2  0  0  0  0  0  0  0  0  0
   11.9544    3.1974   11.5991 O   0  0  0  0  0  0  0  0  0  0  0  0
   16.5495    1.6903   10.7432 C   0  0  2  0  0  0  0  0  0  0  0  0
   15.8845    0.9753    9.6218 N   0  0  0  0  0  0  0  0  0  0  0  0
   17.9666   -1.9020    8.1196 C   0  0  1  0  0  0  0  0  0  0  0  0
   17.5591   -1.7893    6.7414 O   0  0  0  0  0  0  0  0  0  0  0  0
   10.9728   -2.8442    6.2013 C   0  0  0  0  0  0  0  0  0  0  0  0
    9.9043   -2.9622   11.1194 C   0  0  2  0  0  0  0  0  0  0  0  0
   10.6184   -4.1881   10.7478 N   0  0  0  0  0  0  0  0  0  0  0  0
   13.3221    1.2935   12.3891 C   0  0  2  0  0  0  0  0  0  0  0  0
   14.3978    1.9049   11.7234 O   0  0  0  0  0  0  0  0  0  0  0  0
   18.0495    1.2410   11.0321 C   0  0  1  0  0  0  0  0  0  0  0  0
   18.5371    1.9607   12.1692 O   0  0  0  0  0  0  0  0  0  0  0  0
   19.2314   -2.7507    8.1685 C   0  0  1  0  0  0  0  0  0  0  0  0
   18.9944   -3.9104    7.3626 O   0  0  0  0  0  0  0  0  0  0  0  0
   12.5137   -2.6185    6.2227 C   0  0  2  0  0  0  0  0  0  0  0  0
   13.2193   -3.7585    5.7660 O   0  0  0  0  0  0  0  0  0  0  0  0
   10.5358   -1.7342   10.4136 C   0  0  2  0  0  0  0  0  0  0  0  0
   13.4333   -0.1929   11.9918 C   0  0  2  0  0  0  0  0  0  0  0  0
   12.7091   -0.2270   10.7722 O   0  0  0  0  0  0  0  0  0  0  0  0
   18.1287   -0.2916   11.4247 C   0  0  2  0  0  0  0  0  0  0  0  0
   17.6688   -0.9777   10.2594 O   0  0  0  0  0  0  0  0  0  0  0  0
   20.4796   -2.0269    7.6605 C   0  0  2  0  0  0  0  0  0  0  0  0
   21.6109   -2.8199    8.0555 O   0  0  0  0  0  0  0  0  0  0  0  0
   12.9297   -2.2294    7.6631 C   0  0  2  0  0  0  0  0  0  0  0  0
   12.2457   -0.9859    7.9899 O   0  0  0  0  0  0  0  0  0  0  0  0
    9.9062   -0.3653   10.8269 C   0  0  2  0  0  0  0  0  0  0  0  0
   10.6198    0.7171   10.1671 O   0  0  0  0  0  0  0  0  0  0  0  0
   12.8314   -1.2051   12.9659 C   0  0  0  0  0  0  0  0  0  0  0  0
   13.4701   -2.4679   12.7268 O   0  0  0  0  0  0  0  0  0  0  0  0
   17.0533   -0.5024   12.4731 C   0  0  1  0  0  0  0  0  0  0  0  0
   15.7738    0.1471   12.6330 O   0  0  0  0  0  0  0  0  0  0  0  0
   20.5255   -0.5827    8.1469 C   0  0  2  0  0  0  0  0  0  0  0  0
   19.3225    0.1723    8.3584 O   0  0  0  0  0  0  0  0  0  0  0  0
   14.3865   -1.9411    7.7930 C   0  0  0  0  0  0  0  0  0  0  0  0
   14.7408   -2.1559    9.1378 O   0  0  0  0  0  0  0  0  0  0  0  0
    9.8810   -0.2112   12.3850 C   0  0  1  0  0  0  0  0  0  0  0  0
    9.1126    0.9838   12.6863 O   0  0  0  0  0  0  0  0  0  0  0  0
   16.9804   -1.9215   13.1164 C   0  0  0  0  0  0  0  0  0  0  0  0
   15.8461   -2.0846   14.0500 N   0  0  0  0  0  0  0  0  0  0  0  0
   21.6527    0.3823    7.7865 C   0  0  0  0  0  0  0  0  0  0  0  0
   21.5940    1.5545    8.6416 O   0  0  0  0  0  0  0  0  0  0  0  0
  1  2  1  1  0  0  0
  1  8  1  0  0  0  0
  1 36  1  0  0  0  0
  3  4  1  1  0  0  0
  3 10  1  0  0  0  0
  3 47  1  0  0  0  0
  5 11  1  0  0  0  0
  5 30  1  0  0  0  0
  5 38  1  1  0  0  0
  6 21  1  6  0  0  0
  6 42  1  0  0  0  0
  7 15  1  0  0  0  0
  7 44  1  0  0  0  0
  7 32  1  1  0  0  0
  8  9  1  1  0  0  0
  8 17  1  0  0  0  0
 11 12  1  6  0  0  0
 11 20  1  0  0  0  0
 13  6  1  0  0  0  0
 13 14  1  6  0  0  0
 15 16  1  6  0  0  0
 15 24  1  0  0  0  0
 17 26  1  0  0  0  0
 18 10  1  0  0  0  0
 18 19  1  1  0  0  0
 20 21  1  6  0  0  0
 20 29  1  0  0  0  0
 22 13  1  0  0  0  0
 22 23  1  1  0  0  0
 24 25  1  6  0  0  0
 24 33  1  0  0  0  0
 26 27  1  1  0  0  0
 26 35  1  0  0  0  0
 28  2  1  6  0  0  0
 28 18  1  0  0  0  0
 29 30  1  0  0  0  0
 29 39  1  1  0  0  0
 31 22  1  0  0  0  0
 31 32  1  6  0  0  0
 31 41  1  0  0  0  0
 33 34  1  1  0  0  0
 33 43  1  0  0  0  0
 35 36  1  0  0  0  0
 35 45  1  6  0  0  0
 37 28  1  0  0  0  0
 37 38  1  6  0  0  0
 39 40  1  0  0  0  0
 41 42  1  0  0  0  0
 41 49  1  6  0  0  0
 43 44  1  0  0  0  0
 43 51  1  6  0  0  0
 45 46  1  0  0  0  0
 47 37  1  0  0  0  0
 47 48  1  6  0  0  0
 49 50  1  0  0  0  0
 51 52  1  0  0  0  0
M  END
>  <CHROM.1>
-169.97661043,-79.79215200,148.02121620,152.06044493,-178.58277736,176.63685130
-157.48503771,40.53144322,-155.79040727,-67.17254834,-175.53796240,-166.22769672
14.45325611,-0.82754445,10.05387221,2.97211573,0.12767628,1.06048934

>  <Name>
2esj_lig

>  <RI>
0

>  <Rbt.Current_Directory>
/home/itssahil/PROJECTS/Mol_Feturizer/New_Systems/rnas/2esj

>  <Rbt.Executable>
rbdock ($Id: //depot/dev/client3/rdock/2013.1/src/exe/rbdock.cxx#4 $)

>  <Rbt.Library>
libRbt.so (2013.1, Build901 2013/11/27)

>  <Rbt.Parameter_File>
/export/apps/rDock/src/rDock_2013.1_src/data/scripts/dock_solv.prm

>  <Rbt.Receptor>
prm/blind_docking_40.prm

>  <SCORE>
0.595644

>  <SCORE.INTER>
-10.2922

>  <SCORE.INTER.CONST>
1

>  <SCORE.INTER.POLAR>
-0.62806

>  <SCORE.INTER.ROT>
12

>  <SCORE.INTER.SOLV>
30.6203

>  <SCORE.INTER.VDW>
-26.5747

>  <SCORE.INTER.norm>
-0.197927

>  <SCORE.INTRA>
0.102821

>  <SCORE.INTRA.DIHEDRAL>
-12.9628

>  <SCORE.INTRA.DIHEDRAL.0>
32.9766

>  <SCORE.INTRA.POLAR>
0

>  <SCORE.INTRA.POLAR.0>
0

>  <SCORE.INTRA.REPUL>
0.00636774

>  <SCORE.INTRA.REPUL.0>
0

>  <SCORE.INTRA.SOLV>
5.30822

>  <SCORE.INTRA.SOLV.lig_0>
-114.358

>  <SCORE.INTRA.VDW>
3.89829

>  <SCORE.INTRA.VDW.0>
-8.24257

>  <SCORE.INTRA.norm>
0.00197732

>  <SCORE.RESTR>
10.785

>  <SCORE.RESTR.CAVITY>
10.785

>  <SCORE.RESTR.norm>
0.207404

>  <SCORE.SYSTEM>
0

>  <SCORE.SYSTEM.CONST>
0

>  <SCORE.SYSTEM.DIHEDRAL>
0

>  <SCORE.SYSTEM.SOLV>
0

>  <SCORE.SYSTEM.norm>
0

>  <SCORE.heavy>
52

>  <SCORE.norm>
0.0114547

>  <RMSD>
11.958

$$$$
2esj_lig
 OpenBabel11021811423D
libRbt.so/2013.1/901 2013/11/27
 52 56  0  0  0  0  0  0  0  0999 V2000
   33.0876   -1.1512   16.3504 C   0  0  2  0  0  0  0  0  0  0  0  0
   33.0968   -1.9659   17.5383 O   0  0  0  0  0  0  0  0  0  0  0  0
   31.6784   -5.8873   18.4861 C   0  0  2  0  0  0  0  0  0  0  0  0
   30.8490   -7.0589   18.8127 N   0  0  0  0  0  0  0  0  0  0  0  0
   30.6484   -3.0019   15.1614 C   0  0  1  0  0  0  0  0  0  0  0  0
   26.9975   -1.4197   13.8568 C   0  0  1  0  0  0  0  0  0  0  0  0
   23.3249   -1.3049   17.5935 C   0  0  1  0  0  0  0  0  0  0  0  0
   34.3753   -0.2759   16.3725 C   0  0  2  0  0  0  0  0  0  0  0  0
   35.5912   -1.0827   16.4717 N   0  0  0  0  0  0  0  0  0  0  0  0
   31.4358   -4.7326   19.5374 C   0  0  0  0  0  0  0  0  0  0  0  0
   30.5394   -2.4572   13.7367 C   0  0  2  0  0  0  0  0  0  0  0  0
   31.0181   -1.0990   13.6284 O   0  0  0  0  0  0  0  0  0  0  0  0
   26.4626   -0.4078   14.9663 C   0  0  2  0  0  0  0  0  0  0  0  0
   26.8600   -0.8500   16.3292 N   0  0  0  0  0  0  0  0  0  0  0  0
   24.3489   -1.5171   18.7025 C   0  0  1  0  0  0  0  0  0  0  0  0
   24.1352   -0.5373   19.7382 O   0  0  0  0  0  0  0  0  0  0  0  0
   34.3273    0.7566   17.5433 C   0  0  0  0  0  0  0  0  0  0  0  0
   32.3779   -3.5064   19.2051 C   0  0  2  0  0  0  0  0  0  0  0  0
   32.1624   -2.4140   20.1595 N   0  0  0  0  0  0  0  0  0  0  0  0
   29.0656   -2.6123   13.4960 C   0  0  2  0  0  0  0  0  0  0  0  0
   28.3495   -1.6017   14.1596 O   0  0  0  0  0  0  0  0  0  0  0  0
   24.8989   -0.1919   14.7583 C   0  0  1  0  0  0  0  0  0  0  0  0
   24.6588    0.1667   13.3936 O   0  0  0  0  0  0  0  0  0  0  0  0
   24.3316   -2.8969   19.3493 C   0  0  1  0  0  0  0  0  0  0  0  0
   25.1765   -2.8341   20.5036 O   0  0  0  0  0  0  0  0  0  0  0  0
   33.0142    1.5863   17.4289 C   0  0  2  0  0  0  0  0  0  0  0  0
   32.9421    2.5973   18.4182 O   0  0  0  0  0  0  0  0  0  0  0  0
   32.1329   -3.0133   17.7553 C   0  0  2  0  0  0  0  0  0  0  0  0
   28.6517   -3.9055   14.2280 C   0  0  2  0  0  0  0  0  0  0  0  0
   29.5764   -3.9444   15.3033 O   0  0  0  0  0  0  0  0  0  0  0  0
   24.0925   -1.5337   15.0003 C   0  0  2  0  0  0  0  0  0  0  0  0
   24.3265   -1.8418   16.3753 O   0  0  0  0  0  0  0  0  0  0  0  0
   22.9363   -3.3644   19.7673 C   0  0  2  0  0  0  0  0  0  0  0  0
   23.0369   -4.7678   20.0587 O   0  0  0  0  0  0  0  0  0  0  0  0
   31.8128    0.6129   17.5194 C   0  0  2  0  0  0  0  0  0  0  0  0
   31.9142   -0.3054   16.3937 O   0  0  0  0  0  0  0  0  0  0  0  0
   32.2393   -4.1341   16.6720 C   0  0  2  0  0  0  0  0  0  0  0  0
   31.9186   -3.5798   15.3657 O   0  0  0  0  0  0  0  0  0  0  0  0
   28.7522   -5.2033   13.4272 C   0  0  0  0  0  0  0  0  0  0  0  0
   28.1060   -6.2331   14.1899 O   0  0  0  0  0  0  0  0  0  0  0  0
   24.8271   -2.6013   14.2125 C   0  0  1  0  0  0  0  0  0  0  0  0
   26.2336   -2.7299   13.9128 O   0  0  0  0  0  0  0  0  0  0  0  0
   21.8908   -3.0160   18.7138 C   0  0  2  0  0  0  0  0  0  0  0  0
   22.0143   -1.8393   17.9001 O   0  0  0  0  0  0  0  0  0  0  0  0
   30.4954    1.2951   17.3732 C   0  0  0  0  0  0  0  0  0  0  0  0
   30.4981    1.9559   16.1308 O   0  0  0  0  0  0  0  0  0  0  0  0
   31.3380   -5.3586   17.0467 C   0  0  1  0  0  0  0  0  0  0  0  0
   31.6417   -6.4203   16.1033 O   0  0  0  0  0  0  0  0  0  0  0  0
   24.1774   -4.0192   14.1926 C   0  0  0  0  0  0  0  0  0  0  0  0
   22.8799   -4.0599   13.4859 N   0  0  0  0  0  0  0  0  0  0  0  0
   20.4092   -3.3523   18.8673 C   0  0  0  0  0  0  0  0  0  0  0  0
   19.9404   -2.9393   20.1782 O   0  0  0  0  0  0  0  0  0  0  0  0
  1  2  1  1  0  0  0
  1  8  1  0  0  0  0
  1 36  1  0  0  0  0
  3  4  1  1  0  0  0
  3 10  1  0  0  0  0
  3 47  1  0  0  0  0
  5 11  1  0  0  0  0
  5 30  1  0  0  0  0
  5 38  1  6  0  0  0
  6 21  1  1  0  0  0
  6 42  1  0  0  0  0
  7 15  1  0  0  0  0
  7 44  1  0  0  0  0
  7 32  1  6  0  0  0
  8  9  1  1  0  0  0
  8 17  1  0  0  0  0
 11 12  1  1  0  0  0
 11 20  1  0  0  0  0
 13  6  1  0  0  0  0
 13 14  1  1  0  0  0
 15 16  1  1  0  0  0
 15 24  1  0  0  0  0
 17 26  1  0  0  0  0
 18 10  1  0  0  0  0
 18 19  1  1  0  0  0
 20 21  1  1  0  0  0
 20 29  1  0  0  0  0
 22 13  1  0  0  0  0
 22 23  1  6  0  0  0
 24 25  1  1  0  0  0
 24 33  1  0  0  0  0
 26 27  1  1  0  0  0
 26 35  1  0  0  0  0
 28  2  1  6  0  0  0
 28 18  1  0  0  0  0
 29 30  1  0  0  0  0
 29 39  1  6  0  0  0
 31 22  1  0  0  0  0
 31 32  1  1  0  0  0
 31 41  1  0  0  0  0
 33 34  1  6  0  0  0
 33 43  1  0  0  0  0
 35 36  1  0  0  0  0
 35 45  1  6  0  0  0
 37 28  1  0  0  0  0
 37 38  1  6  0  0  0
 39 40  1  0  0  0  0
 41 42  1  0  0  0  0
 41 49  1  1  0  0  0
 43 44  1  0  0  0  0
 43 51  1  1  0  0  0
 45 46  1  0  0  0  0
 47 37  1  0  0  0  0
 47 48  1  6  0  0  0
 49 50  1  0  0  0  0
 51 52  1  0  0  0  0
M  END
>  <CHROM.1>
-172.22514422,178.68262028,169.72202396,-161.06259086,167.94718123,-172.88147162
-169.85485454,90.89057150,57.94817385,-59.63012327,66.03373164,48.33873055
28.26529972,-2.30027084,16.65369839,0.11529671,-0.03261650,-0.90888759

>  <Name>
2esj_lig

>  <RI>
0

>  <Rbt.Current_Directory>
/home/itssahil/PROJECTS/Mol_Feturizer/New_Systems/rnas/2esj

>  <Rbt.Executable>
rbdock ($Id: //depot/dev/client3/rdock/2013.1/src/exe/rbdock.cxx#4 $)

>  <Rbt.Library>
libRbt.so (2013.1, Build901 2013/11/27)

>  <Rbt.Parameter_File>
/export/apps/rDock/src/rDock_2013.1_src/data/scripts/dock_solv.prm

>  <Rbt.Receptor>
prm/pocket_docking_6.prm

>  <SCORE>
-3.72295

>  <SCORE.INTER>
6.05823

>  <SCORE.INTER.CONST>
1

>  <SCORE.INTER.POLAR>
0

>  <SCORE.INTER.ROT>
12

>  <SCORE.INTER.SOLV>
6.51245

>  <SCORE.INTER.VDW>
-9.732

>  <SCORE.INTER.norm>
0.116504

>  <SCORE.INTRA>
-9.78118

>  <SCORE.INTRA.DIHEDRAL>
-20.6581

>  <SCORE.INTRA.DIHEDRAL.0>
32.9766

>  <SCORE.INTRA.POLAR>
0

>  <SCORE.INTRA.POLAR.0>
0

>  <SCORE.INTRA.REPUL>
0

>  <SCORE.INTRA.REPUL.0>
0

>  <SCORE.INTRA.SOLV>
-2.79006

>  <SCORE.INTRA.SOLV.lig_0>
-114.358

>  <SCORE.INTRA.VDW>
1.9429

>  <SCORE.INTRA.VDW.0>
-8.24257

>  <SCORE.INTRA.norm>
-0.1881

>  <SCORE.RESTR>
0

>  <SCORE.RESTR.CAVITY>
0

>  <SCORE.RESTR.norm>
0

>  <SCORE.SYSTEM>
0

>  <SCORE.SYSTEM.CONST>
0

>  <SCORE.SYSTEM.DIHEDRAL>
0

>  <SCORE.SYSTEM.SOLV>
0

>  <SCORE.SYSTEM.norm>
0

>  <SCORE.heavy>
52

>  <SCORE.norm>
-0.0715952

>  <RMSD>
11.998

$$$$
2esj_lig
 OpenBabel11021811423D
libRbt.so/2013.1/901 2013/11/27
 52 56  0  0  0  0  0  0  0  0999 V2000
   10.5715   -0.9219    8.1610 C   0  0  2  0  0  0  0  0  0  0  0  0
   10.2611   -1.9466    9.1247 O   0  0  0  0  0  0  0  0  0  0  0  0
    9.2323   -1.4726   13.2483 C   0  0  2  0  0  0  0  0  0  0  0  0
    9.2574   -1.3551   14.7156 N   0  0  0  0  0  0  0  0  0  0  0  0
   12.1113    0.7647   10.5954 C   0  0  1  0  0  0  0  0  0  0  0  0
   15.9901    0.6453   11.5362 C   0  0  1  0  0  0  0  0  0  0  0  0
   18.2448   -0.9679    6.9484 C   0  0  1  0  0  0  0  0  0  0  0  0
    9.8779   -1.3120    6.8224 C   0  0  2  0  0  0  0  0  0  0  0  0
    8.4353   -1.4948    6.9794 N   0  0  0  0  0  0  0  0  0  0  0  0
    9.8868   -2.8379   12.7956 C   0  0  0  0  0  0  0  0  0  0  0  0
   12.3965    1.3627   11.9736 C   0  0  2  0  0  0  0  0  0  0  0  0
   12.4629    2.8050   11.9449 O   0  0  0  0  0  0  0  0  0  0  0  0
   16.8408    1.4749   10.4735 C   0  0  2  0  0  0  0  0  0  0  0  0
   16.0673    1.6924    9.2223 N   0  0  0  0  0  0  0  0  0  0  0  0
   18.3433   -2.4201    7.4011 C   0  0  1  0  0  0  0  0  0  0  0  0
   18.2368   -3.2830    6.2511 O   0  0  0  0  0  0  0  0  0  0  0  0
   10.5139   -2.6056    6.2215 C   0  0  0  0  0  0  0  0  0  0  0  0
    9.7973   -2.9728   11.2222 C   0  0  2  0  0  0  0  0  0  0  0  0
   10.4109   -4.2272   10.7742 N   0  0  0  0  0  0  0  0  0  0  0  0
   13.6998    0.6920   12.2988 C   0  0  2  0  0  0  0  0  0  0  0  0
   14.7533    1.2935   11.5899 O   0  0  0  0  0  0  0  0  0  0  0  0
   18.2535    0.7676   10.2766 C   0  0  1  0  0  0  0  0  0  0  0  0
   18.8526    0.5653   11.5608 O   0  0  0  0  0  0  0  0  0  0  0  0
   19.6218   -2.7845    8.1460 C   0  0  1  0  0  0  0  0  0  0  0  0
   19.6435   -4.2101    8.2776 O   0  0  0  0  0  0  0  0  0  0  0  0
   12.0511   -2.3944    6.0862 C   0  0  2  0  0  0  0  0  0  0  0  0
   12.6833   -3.5042    5.4740 O   0  0  0  0  0  0  0  0  0  0  0  0
   10.4807   -1.7618   10.5356 C   0  0  2  0  0  0  0  0  0  0  0  0
   13.6069   -0.7258   11.6980 C   0  0  2  0  0  0  0  0  0  0  0  0
   12.7514   -0.5188   10.5853 O   0  0  0  0  0  0  0  0  0  0  0  0
   18.0947   -0.6753    9.6424 C   0  0  2  0  0  0  0  0  0  0  0  0
   17.5280   -0.4328    8.3538 O   0  0  0  0  0  0  0  0  0  0  0  0
   20.8986   -2.3209    7.4427 C   0  0  2  0  0  0  0  0  0  0  0  0
   21.9686   -2.4507    8.3930 O   0  0  0  0  0  0  0  0  0  0  0  0
   12.6307   -2.1134    7.4948 C   0  0  2  0  0  0  0  0  0  0  0  0
   12.0073   -0.8912    7.9832 O   0  0  0  0  0  0  0  0  0  0  0  0
    9.9627   -0.3721   11.0269 C   0  0  2  0  0  0  0  0  0  0  0  0
   10.7201    0.6866   10.3771 O   0  0  0  0  0  0  0  0  0  0  0  0
   13.0134   -1.8092   12.5978 C   0  0  0  0  0  0  0  0  0  0  0  0
   12.7308   -1.2078   13.8699 O   0  0  0  0  0  0  0  0  0  0  0  0
   17.0043   -1.3583   10.4453 C   0  0  1  0  0  0  0  0  0  0  0  0
   15.8424   -0.7992   11.0950 O   0  0  0  0  0  0  0  0  0  0  0  0
   20.7407   -0.9194    6.8635 C   0  0  2  0  0  0  0  0  0  0  0  0
   19.4724   -0.4495    6.3814 O   0  0  0  0  0  0  0  0  0  0  0  0
   14.0974   -1.8469    7.4808 C   0  0  0  0  0  0  0  0  0  0  0  0
   14.4860   -1.5567    8.8018 O   0  0  0  0  0  0  0  0  0  0  0  0
   10.0127   -0.2793   12.5893 C   0  0  1  0  0  0  0  0  0  0  0  0
    9.3400    0.9508   12.9684 O   0  0  0  0  0  0  0  0  0  0  0  0
   16.7138   -2.8496   10.0925 C   0  0  0  0  0  0  0  0  0  0  0  0
   15.4894   -3.3758   10.7317 N   0  0  0  0  0  0  0  0  0  0  0  0
   21.8515   -0.2047    6.0974 C   0  0  0  0  0  0  0  0  0  0  0  0
   22.5964    0.6596    6.9957 O   0  0  0  0  0  0  0  0  0  0  0  0
  1  2  1  1  0  0  0
  1  8  1  0  0  0  0
  1 36  1  0  0  0  0
  3  4  1  1  0  0  0
  3 10  1  0  0  0  0
  3 47  1  0  0  0  0
  5 11  1  0  0  0  0
  5 30  1  0  0  0  0
  5 38  1  1  0  0  0
  6 21  1  6  0  0  0
  6 42  1  0  0  0  0
  7 15  1  0  0  0  0
  7 44  1  0  0  0  0
  7 32  1  1  0  0  0
  8  9  1  1  0  0  0
  8 17  1  0  0  0  0
 11 12  1  6  0  0  0
 11 20  1  0  0  0  0
 13  6  1  0  0  0  0
 13 14  1  6  0  0  0
 15 16  1  6  0  0  0
 15 24  1  0  0  0  0
 17 26  1  0  0  0  0
 18 10  1  0  0  0  0
 18 19  1  6  0  0  0
 20 21  1  6  0  0  0
 20 29  1  0  0  0  0
 22 13  1  0  0  0  0
 22 23  1  1  0  0  0
 24 25  1  6  0  0  0
 24 33  1  0  0  0  0
 26 27  1  1  0  0  0
 26 35  1  0  0  0  0
 28  2  1  6  0  0  0
 28 18  1  0  0  0  0
 29 30  1  0  0  0  0
 29 39  1  1  0  0  0
 31 22  1  0  0  0  0
 31 32  1  6  0  0  0
 31 41  1  0  0  0  0
 33 34  1  1  0  0  0
 33 43  1  0  0  0  0
 35 36  1  0  0  0  0
 35 45  1  6  0  0  0
 37 28  1  0  0  0  0
 37 38  1  6  0  0  0
 39 40  1  0  0  0  0
 41 42  1  0  0  0  0
 41 49  1  6  0  0  0
 43 44  1  0  0  0  0
 43 51  1  6  0  0  0
 45 46  1  0  0  0  0
 47 37  1  0  0  0  0
 47 48  1  6  0  0  0
 49 50  1  0  0  0  0
 51 52  1  0  0  0  0
M  END
>  <CHROM.1>
-165.60714532,-76.74843983,170.92396449,53.54733108,-166.72189132,170.39662716
-2.64605554,123.79821611,177.70667337,-61.68218972,-169.50722066,-95.29686236
14.51762530,-1.05584601,9.61731674,2.83936730,0.13307846,1.10307148

>  <Name>
2esj_lig

>  <RI>
0

>  <Rbt.Current_Directory>
/home/itssahil/PROJECTS/Mol_Feturizer/New_Systems/rnas/2esj

>  <Rbt.Executable>
rbdock ($Id: //depot/dev/client3/rdock/2013.1/src/exe/rbdock.cxx#4 $)

>  <Rbt.Library>
libRbt.so (2013.1, Build901 2013/11/27)

>  <Rbt.Parameter_File>
/export/apps/rDock/src/rDock_2013.1_src/data/scripts/dock_solv.prm

>  <Rbt.Receptor>
prm/blind_docking_40.prm

>  <SCORE>
18.0458

>  <SCORE.INTER>
0.740236

>  <SCORE.INTER.CONST>
1

>  <SCORE.INTER.POLAR>
-1.0198

>  <SCORE.INTER.ROT>
12

>  <SCORE.INTER.SOLV>
26.9105

>  <SCORE.INTER.VDW>
-16.6773

>  <SCORE.INTER.norm>
0.0142353

>  <SCORE.INTRA>
6.47639

>  <SCORE.INTRA.DIHEDRAL>
-11.2102

>  <SCORE.INTRA.DIHEDRAL.0>
32.9766

>  <SCORE.INTRA.POLAR>
0

>  <SCORE.INTRA.POLAR.0>
0

>  <SCORE.INTRA.REPUL>
0.0176028

>  <SCORE.INTRA.REPUL.0>
0

>  <SCORE.INTRA.SOLV>
5.16744

>  <SCORE.INTRA.SOLV.lig_0>
-114.358

>  <SCORE.INTRA.VDW>
9.40976

>  <SCORE.INTRA.VDW.0>
-8.24257

>  <SCORE.INTRA.norm>
0.124546

>  <SCORE.RESTR>
10.8292

>  <SCORE.RESTR.CAVITY>
10.8292

>  <SCORE.RESTR.norm>
0.208254

>  <SCORE.SYSTEM>
0

>  <SCORE.SYSTEM.CONST>
0

>  <SCORE.SYSTEM.DIHEDRAL>
0

>  <SCORE.SYSTEM.SOLV>
0

>  <SCORE.SYSTEM.norm>
0

>  <SCORE.heavy>
52

>  <SCORE.norm>
0.347035

>  <RMSD>
12.017

$$$$
2esj_lig
 OpenBabel11021811423D
libRbt.so/2013.1/901 2013/11/27
 52 56  0  0  0  0  0  0  0  0999 V2000
   11.8678   -1.5244   13.3861 C   0  0  2  0  0  0  0  0  0  0  0  0
   11.9506   -0.5070   12.3698 O   0  0  0  0  0  0  0  0  0  0  0  0
   15.2264    1.6039   10.6089 C   0  0  2  0  0  0  0  0  0  0  0  0
   16.4650    1.9751    9.9050 N   0  0  0  0  0  0  0  0  0  0  0  0
   12.3703   -0.8403    8.3934 C   0  0  1  0  0  0  0  0  0  0  0  0
   14.2005   -1.9623    6.8886 C   0  0  1  0  0  0  0  0  0  0  0  0
   18.7494   -1.6112    4.0744 C   0  0  1  0  0  0  0  0  0  0  0  0
   11.3606   -2.8288   12.7032 C   0  0  2  0  0  0  0  0  0  0  0  0
   12.2152   -3.2383   11.5890 N   0  0  0  0  0  0  0  0  0  0  0  0
   15.5395    0.5712   11.7634 C   0  0  0  0  0  0  0  0  0  0  0  0
   12.2219   -2.3221    8.7407 C   0  0  2  0  0  0  0  0  0  0  0  0
   13.3679   -2.8385    9.4517 O   0  0  0  0  0  0  0  0  0  0  0  0
   14.4582   -1.3537    5.4380 C   0  0  2  0  0  0  0  0  0  0  0  0
   14.7295   -2.4291    4.4476 N   0  0  0  0  0  0  0  0  0  0  0  0
   19.1439   -3.0706    4.2696 C   0  0  1  0  0  0  0  0  0  0  0  0
   19.9104   -3.5105    3.1305 O   0  0  0  0  0  0  0  0  0  0  0  0
    9.8884   -2.6629   12.2089 C   0  0  0  0  0  0  0  0  0  0  0  0
   14.2076    0.2302   12.5453 C   0  0  2  0  0  0  0  0  0  0  0  0
   14.4686   -0.7382   13.6153 N   0  0  0  0  0  0  0  0  0  0  0  0
   12.0315   -2.9068    7.3710 C   0  0  2  0  0  0  0  0  0  0  0  0
   13.2587   -2.9754    6.6902 O   0  0  0  0  0  0  0  0  0  0  0  0
   15.5848   -0.2332    5.5401 C   0  0  1  0  0  0  0  0  0  0  0  0
   15.2240    0.6932    6.5698 O   0  0  0  0  0  0  0  0  0  0  0  0
   19.9569   -3.3630    5.5250 C   0  0  1  0  0  0  0  0  0  0  0  0
   20.4304   -4.7101    5.4186 O   0  0  0  0  0  0  0  0  0  0  0  0
    9.0044   -2.2046   13.4065 C   0  0  2  0  0  0  0  0  0  0  0  0
    7.6380   -2.1086   13.0460 O   0  0  0  0  0  0  0  0  0  0  0  0
   13.1333   -0.3182   11.5706 C   0  0  2  0  0  0  0  0  0  0  0  0
   11.2207   -1.8633    6.5750 C   0  0  2  0  0  0  0  0  0  0  0  0
   11.6332   -0.6471    7.1782 O   0  0  0  0  0  0  0  0  0  0  0  0
   16.9754   -0.8498    5.9820 C   0  0  2  0  0  0  0  0  0  0  0  0
   17.3194   -1.7400    4.9192 O   0  0  0  0  0  0  0  0  0  0  0  0
   21.1464   -2.4216    5.7223 C   0  0  2  0  0  0  0  0  0  0  0  0
   21.6099   -2.6124    7.0689 O   0  0  0  0  0  0  0  0  0  0  0  0
    9.5528   -0.8534   13.9286 C   0  0  2  0  0  0  0  0  0  0  0  0
   10.9160   -1.0870   14.3846 O   0  0  0  0  0  0  0  0  0  0  0  0
   12.8601    0.6009   10.3371 C   0  0  2  0  0  0  0  0  0  0  0  0
   11.8977   -0.0417    9.4555 O   0  0  0  0  0  0  0  0  0  0  0  0
    9.6989   -1.9773    6.6558 C   0  0  0  0  0  0  0  0  0  0  0  0
    9.3205   -3.1920    5.9917 O   0  0  0  0  0  0  0  0  0  0  0  0
   16.6705   -1.7366    7.1740 C   0  0  1  0  0  0  0  0  0  0  0  0
   15.4883   -2.5076    7.4780 O   0  0  0  0  0  0  0  0  0  0  0  0
   20.7818   -0.9808    5.3826 C   0  0  2  0  0  0  0  0  0  0  0  0
   19.8155   -0.6753    4.3653 O   0  0  0  0  0  0  0  0  0  0  0  0
    8.8080   -0.3387   15.1130 C   0  0  0  0  0  0  0  0  0  0  0  0
    7.8771    0.6082   14.6472 O   0  0  0  0  0  0  0  0  0  0  0  0
   14.1968    0.9671    9.6081 C   0  0  1  0  0  0  0  0  0  0  0  0
   13.8789    1.9685    8.6053 O   0  0  0  0  0  0  0  0  0  0  0  0
   17.8955   -2.3953    7.8799 C   0  0  0  0  0  0  0  0  0  0  0  0
   18.2587   -1.7421    9.1551 N   0  0  0  0  0  0  0  0  0  0  0  0
   21.7757    0.1745    5.4771 C   0  0  0  0  0  0  0  0  0  0  0  0
   22.1126    0.4262    6.8671 O   0  0  0  0  0  0  0  0  0  0  0  0
  1  2  1  6  0  0  0
  1  8  1  0  0  0  0
  1 36  1  0  0  0  0
  3  4  1  6  0  0  0
  3 10  1  0  0  0  0
  3 47  1  0  0  0  0
  5 11  1  0  0  0  0
  5 30  1  0  0  0  0
  5 38  1  1  0  0  0
  6 21  1  6  0  0  0
  6 42  1  0  0  0  0
  7 15  1  0  0  0  0
  7 44  1  0  0  0  0
  7 32  1  1  0  0  0
  8  9  1  6  0  0  0
  8 17  1  0  0  0  0
 11 12  1  6  0  0  0
 11 20  1  0  0  0  0
 13  6  1  0  0  0  0
 13 14  1  6  0  0  0
 15 16  1  6  0  0  0
 15 24  1  0  0  0  0
 17 26  1  0  0  0  0
 18 10  1  0  0  0  0
 18 19  1  1  0  0  0
 20 21  1  6  0  0  0
 20 29  1  0  0  0  0
 22 13  1  0  0  0  0
 22 23  1  1  0  0  0
 24 25  1  6  0  0  0
 24 33  1  0  0  0  0
 26 27  1  6  0  0  0
 26 35  1  0  0  0  0
 28  2  1  1  0  0  0
 28 18  1  0  0  0  0
 29 30  1  0  0  0  0
 29 39  1  1  0  0  0
 31 22  1  0  0  0  0
 31 32  1  6  0  0  0
 31 41  1  0  0  0  0
 33 34  1  1  0  0  0
 33 43  1  0  0  0  0
 35 36  1  0  0  0  0
 35 45  1  1  0  0  0
 37 28  1  0  0  0  0
 37 38  1  6  0  0  0
 39 40  1  0  0  0  0
 41 42  1  0  0  0  0
 41 49  1  6  0  0  0
 43 44  1  0  0  0  0
 43 51  1  6  0  0  0
 45 46  1  0  0  0  0
 47 37  1  0  0  0  0
 47 48  1  6  0  0  0
 49 50  1  0  0  0  0
 51 52  1  0  0  0  0
M  END
>  <CHROM.1>
-88.14845517,103.19253706,-121.29226312,128.09244017,-35.50717934,-68.78587035
-67.30310270,123.36377621,-98.10052036,-92.84197265,103.63275893,-68.30802973
14.62171528,-1.31503133,8.64901958,-2.50867176,-0.17695544,-1.91074525

>  <Name>
2esj_lig

>  <RI>
0

>  <Rbt.Current_Directory>
/home/itssahil/PROJECTS/Mol_Feturizer/New_Systems/rnas/2esj

>  <Rbt.Executable>
rbdock ($Id: //depot/dev/client3/rdock/2013.1/src/exe/rbdock.cxx#4 $)

>  <Rbt.Library>
libRbt.so (2013.1, Build901 2013/11/27)

>  <Rbt.Parameter_File>
/export/apps/rDock/src/rDock_2013.1_src/data/scripts/dock_solv.prm

>  <Rbt.Receptor>
prm/blind_docking_40.prm

>  <SCORE>
41.3506

>  <SCORE.INTER>
12.1158

>  <SCORE.INTER.CONST>
1

>  <SCORE.INTER.POLAR>
-0.674863

>  <SCORE.INTER.ROT>
12

>  <SCORE.INTER.SOLV>
29.5463

>  <SCORE.INTER.VDW>
-11.122

>  <SCORE.INTER.norm>
0.232996

>  <SCORE.INTRA>
14.6689

>  <SCORE.INTRA.DIHEDRAL>
12.8209

>  <SCORE.INTRA.DIHEDRAL.0>
32.9766

>  <SCORE.INTRA.POLAR>
0

>  <SCORE.INTRA.POLAR.0>
0

>  <SCORE.INTRA.REPUL>
0

>  <SCORE.INTRA.REPUL.0>
0

>  <SCORE.INTRA.SOLV>
4.06718

>  <SCORE.INTRA.SOLV.lig_0>
-114.358

>  <SCORE.INTRA.VDW>
6.22479

>  <SCORE.INTRA.VDW.0>
-8.24257

>  <SCORE.INTRA.norm>
0.282093

>  <SCORE.RESTR>
14.5659

>  <SCORE.RESTR.CAVITY>
14.5659

>  <SCORE.RESTR.norm>
0.280114

>  <SCORE.SYSTEM>
0

>  <SCORE.SYSTEM.CONST>
0

>  <SCORE.SYSTEM.DIHEDRAL>
0

>  <SCORE.SYSTEM.SOLV>
0

>  <SCORE.SYSTEM.norm>
0

>  <SCORE.heavy>
52

>  <SCORE.norm>
0.795204

>  <RMSD>
12.017

$$$$
2esj_lig
 OpenBabel11021811423D
libRbt.so/2013.1/901 2013/11/27
 52 56  0  0  0  0  0  0  0  0999 V2000
   10.1077   -0.8661   11.2014 C   0  0  2  0  0  0  0  0  0  0  0  0
   10.1549    0.2279   10.2656 O   0  0  0  0  0  0  0  0  0  0  0  0
    9.9577   -0.4667    6.0506 C   0  0  2  0  0  0  0  0  0  0  0  0
   10.2589   -0.5972    4.6154 N   0  0  0  0  0  0  0  0  0  0  0  0
   12.6526   -2.3335    9.0456 C   0  0  1  0  0  0  0  0  0  0  0  0
   15.2031   -1.7664    9.4531 C   0  0  1  0  0  0  0  0  0  0  0  0
   18.7514   -0.4152    9.7141 C   0  0  1  0  0  0  0  0  0  0  0  0
    9.4721   -0.3295   12.5179 C   0  0  2  0  0  0  0  0  0  0  0  0
    8.1505    0.2562   12.2957 N   0  0  0  0  0  0  0  0  0  0  0  0
   10.2888    0.9955    6.5503 C   0  0  0  0  0  0  0  0  0  0  0  0
   13.1766   -3.7607    9.2100 C   0  0  2  0  0  0  0  0  0  0  0  0
   13.4859   -4.0788   10.5842 O   0  0  0  0  0  0  0  0  0  0  0  0
   15.6177   -0.7535    8.2940 C   0  0  2  0  0  0  0  0  0  0  0  0
   16.9579   -1.0896    7.7446 N   0  0  0  0  0  0  0  0  0  0  0  0
   20.0499    0.3456    9.4723 C   0  0  1  0  0  0  0  0  0  0  0  0
   21.0887   -0.2155   10.2996 O   0  0  0  0  0  0  0  0  0  0  0  0
   10.4076    0.7173   13.2021 C   0  0  0  0  0  0  0  0  0  0  0  0
    9.9037    1.1335    8.0782 C   0  0  2  0  0  0  0  0  0  0  0  0
   10.2141    2.4795    8.5710 N   0  0  0  0  0  0  0  0  0  0  0  0
   14.3721   -3.7197    8.3026 C   0  0  2  0  0  0  0  0  0  0  0  0
   15.4344   -3.0367    8.9187 O   0  0  0  0  0  0  0  0  0  0  0  0
   15.4655    0.7375    8.8315 C   0  0  1  0  0  0  0  0  0  0  0  0
   14.1556    0.8980    9.3858 O   0  0  0  0  0  0  0  0  0  0  0  0
   20.5452    0.3466    8.0311 C   0  0  1  0  0  0  0  0  0  0  0  0
   21.8695    0.8910    8.0389 O   0  0  0  0  0  0  0  0  0  0  0  0
   11.8132    0.0782   13.4064 C   0  0  2  0  0  0  0  0  0  0  0  0
   12.6929    0.9495   14.0943 O   0  0  0  0  0  0  0  0  0  0  0  0
   10.6459    0.0648    8.9219 C   0  0  2  0  0  0  0  0  0  0  0  0
   13.9763   -2.8081    7.1228 C   0  0  2  0  0  0  0  0  0  0  0  0
   13.0588   -1.9156    7.7350 O   0  0  0  0  0  0  0  0  0  0  0  0
   16.4747    1.0309   10.0167 C   0  0  2  0  0  0  0  0  0  0  0  0
   17.7659    0.8956    9.4210 O   0  0  0  0  0  0  0  0  0  0  0  0
   20.5713   -1.0408    7.3873 C   0  0  2  0  0  0  0  0  0  0  0  0
   20.7494   -0.8418    5.9754 O   0  0  0  0  0  0  0  0  0  0  0  0
   12.3743   -0.3199   12.0187 C   0  0  2  0  0  0  0  0  0  0  0  0
   11.4641   -1.3045   11.4503 O   0  0  0  0  0  0  0  0  0  0  0  0
   10.4582   -1.3988    8.4086 C   0  0  2  0  0  0  0  0  0  0  0  0
   11.2536   -2.3053    9.2223 O   0  0  0  0  0  0  0  0  0  0  0  0
   13.3018   -3.4892    5.9325 C   0  0  0  0  0  0  0  0  0  0  0  0
   13.8125   -2.8783    4.7385 O   0  0  0  0  0  0  0  0  0  0  0  0
   16.3403   -0.1414   10.9694 C   0  0  1  0  0  0  0  0  0  0  0  0
   16.0366   -1.5266   10.6984 O   0  0  0  0  0  0  0  0  0  0  0  0
   19.3336   -1.8515    7.7552 C   0  0  2  0  0  0  0  0  0  0  0  0
   18.6841   -1.6873    9.0253 O   0  0  0  0  0  0  0  0  0  0  0  0
   13.7042   -0.9892   12.0961 C   0  0  0  0  0  0  0  0  0  0  0  0
   13.5161   -2.2287   12.7351 O   0  0  0  0  0  0  0  0  0  0  0  0
   10.7961   -1.5019    6.8830 C   0  0  1  0  0  0  0  0  0  0  0  0
   10.4122   -2.8330    6.4469 O   0  0  0  0  0  0  0  0  0  0  0  0
   17.1596   -0.0563   12.2939 C   0  0  0  0  0  0  0  0  0  0  0  0
   17.8731    1.2274   12.4608 N   0  0  0  0  0  0  0  0  0  0  0  0
   19.0954   -3.2775    7.2638 C   0  0  0  0  0  0  0  0  0  0  0  0
   20.2970   -3.7907    6.6300 O   0  0  0  0  0  0  0  0  0  0  0  0
  1  2  1  6  0  0  0
  1  8  1  0  0  0  0
  1 36  1  0  0  0  0
  3  4  1  6  0  0  0
  3 10  1  0  0  0  0
  3 47  1  0  0  0  0
  5 11  1  0  0  0  0
  5 30  1  0  0  0  0
  5 38  1  6  0  0  0
  6 21  1  6  0  0  0
  6 42  1  0  0  0  0
  7 15  1  0  0  0  0
  7 44  1  0  0  0  0
  7 32  1  6  0  0  0
  8  9  1  6  0  0  0
  8 17  1  0  0  0  0
 11 12  1  1  0  0  0
 11 20  1  0  0  0  0
 13  6  1  0  0  0  0
 13 14  1  1  0  0  0
 15 16  1  1  0  0  0
 15 24  1  0  0  0  0
 17 26  1  0  0  0  0
 18 10  1  0  0  0  0
 18 19  1  1  0  0  0
 20 21  1  1  0  0  0
 20 29  1  0  0  0  0
 22 13  1  0  0  0  0
 22 23  1  1  0  0  0
 24 25  1  1  0  0  0
 24 33  1  0  0  0  0
 26 27  1  6  0  0  0
 26 35  1  0  0  0  0
 28  2  1  1  0  0  0
 28 18  1  0  0  0  0
 29 30  1  0  0  0  0
 29 39  1  6  0  0  0
 31 22  1  0  0  0  0
 31 32  1  6  0  0  0
 31 41  1  0  0  0  0
 33 34  1  6  0  0  0
 33 43  1  0  0  0  0
 35 36  1  0  0  0  0
 35 45  1  1  0  0  0
 37 28  1  0  0  0  0
 37 38  1  1  0  0  0
 39 40  1  0  0  0  0
 41 42  1  0  0  0  0
 41 49  1  6  0  0  0
 43 44  1  0  0  0  0
 43 51  1  1  0  0  0
 45 46  1  0  0  0  0
 47 37  1  0  0  0  0
 47 48  1  6  0  0  0
 49 50  1  0  0  0  0
 51 52  1  0  0  0  0
M  END
>  <CHROM.1>
-177.77070442,-143.71028371,-94.23489281,-152.20988891,-51.70641475,151.80424110
-140.88039192,-106.37731301,66.75254644,-74.42816304,4.45557722,10.17131740
14.49825220,-0.95345716,9.22704431,-2.98977377,-0.01725471,-1.93726563

>  <Name>
2esj_lig

>  <RI>
0

>  <Rbt.Current_Directory>
/home/itssahil/PROJECTS/Mol_Feturizer/New_Systems/rnas/2esj

>  <Rbt.Executable>
rbdock ($Id: //depot/dev/client3/rdock/2013.1/src/exe/rbdock.cxx#4 $)

>  <Rbt.Library>
libRbt.so (2013.1, Build901 2013/11/27)

>  <Rbt.Parameter_File>
/export/apps/rDock/src/rDock_2013.1_src/data/scripts/dock_solv.prm

>  <Rbt.Receptor>
prm/blind_docking_40.prm

>  <SCORE>
55.4483

>  <SCORE.INTER>
23.7632

>  <SCORE.INTER.CONST>
1

>  <SCORE.INTER.POLAR>
-1.78592

>  <SCORE.INTER.ROT>
12

>  <SCORE.INTER.SOLV>
31.8688

>  <SCORE.INTER.VDW>
-0.427728

>  <SCORE.INTER.norm>
0.456984

>  <SCORE.INTRA>
22.6751

>  <SCORE.INTRA.DIHEDRAL>
0.238079

>  <SCORE.INTRA.DIHEDRAL.0>
32.9766

>  <SCORE.INTRA.POLAR>
0

>  <SCORE.INTRA.POLAR.0>
0

>  <SCORE.INTRA.REPUL>
0.258747

>  <SCORE.INTRA.REPUL.0>
0

>  <SCORE.INTRA.SOLV>
7.24391

>  <SCORE.INTRA.SOLV.lig_0>
-114.358

>  <SCORE.INTRA.VDW>
17.6404

>  <SCORE.INTRA.VDW.0>
-8.24257

>  <SCORE.INTRA.norm>
0.436059

>  <SCORE.RESTR>
9.01008

>  <SCORE.RESTR.CAVITY>
9.01008

>  <SCORE.RESTR.norm>
0.173271

>  <SCORE.SYSTEM>
0

>  <SCORE.SYSTEM.CONST>
0

>  <SCORE.SYSTEM.DIHEDRAL>
0

>  <SCORE.SYSTEM.SOLV>
0

>  <SCORE.SYSTEM.norm>
0

>  <SCORE.heavy>
52

>  <SCORE.norm>
1.06631

>  <RMSD>
12.019

$$$$
2esj_lig
 OpenBabel11021811423D
libRbt.so/2013.1/901 2013/11/27
 52 56  0  0  0  0  0  0  0  0999 V2000
   12.7786   -1.2076   12.4918 C   0  0  2  0  0  0  0  0  0  0  0  0
   13.0530   -0.5457   11.2422 O   0  0  0  0  0  0  0  0  0  0  0  0
   10.4702    2.8398   11.6367 C   0  0  2  0  0  0  0  0  0  0  0  0
    9.7294    4.0949   11.4286 N   0  0  0  0  0  0  0  0  0  0  0  0
   11.3085   -0.7035    8.6576 C   0  0  1  0  0  0  0  0  0  0  0  0
   13.7285   -1.0889    7.5181 C   0  0  1  0  0  0  0  0  0  0  0  0
   18.9699   -0.5855    7.1194 C   0  0  1  0  0  0  0  0  0  0  0  0
   14.0506   -2.0164   12.8829 C   0  0  2  0  0  0  0  0  0  0  0  0
   15.2411   -1.1706   12.9631 N   0  0  0  0  0  0  0  0  0  0  0  0
   12.0261    3.0972   11.5338 C   0  0  0  0  0  0  0  0  0  0  0  0
   11.4321   -2.1713    8.2468 C   0  0  2  0  0  0  0  0  0  0  0  0
   12.5120   -2.8449    8.9289 O   0  0  0  0  0  0  0  0  0  0  0  0
   14.7470   -0.0995    6.7936 C   0  0  2  0  0  0  0  0  0  0  0  0
   15.4073   -0.7637    5.6387 N   0  0  0  0  0  0  0  0  0  0  0  0
   19.4140   -1.8769    6.4421 C   0  0  1  0  0  0  0  0  0  0  0  0
   20.3980   -1.5690    5.4344 O   0  0  0  0  0  0  0  0  0  0  0  0
   14.2980   -3.1861   11.8781 C   0  0  0  0  0  0  0  0  0  0  0  0
   12.8062    1.7511   11.8184 C   0  0  2  0  0  0  0  0  0  0  0  0
   14.2542    1.9599   11.7156 N   0  0  0  0  0  0  0  0  0  0  0  0
   11.6339   -2.0253    6.7662 C   0  0  2  0  0  0  0  0  0  0  0  0
   12.9500   -1.6204    6.4865 O   0  0  0  0  0  0  0  0  0  0  0  0
   15.7412    0.5057    7.8801 C   0  0  1  0  0  0  0  0  0  0  0  0
   14.9726    1.0517    8.9572 O   0  0  0  0  0  0  0  0  0  0  0  0
   20.0059   -2.9294    7.3717 C   0  0  1  0  0  0  0  0  0  0  0  0
   20.5744   -3.9518    6.5461 O   0  0  0  0  0  0  0  0  0  0  0  0
   13.0098   -4.0573   11.7931 C   0  0  2  0  0  0  0  0  0  0  0  0
   13.1907   -5.1846   10.9548 O   0  0  0  0  0  0  0  0  0  0  0  0
   12.3491    0.6425   10.8350 C   0  0  2  0  0  0  0  0  0  0  0  0
   10.7732   -0.8185    6.3392 C   0  0  2  0  0  0  0  0  0  0  0  0
   10.7853   -0.0186    7.5110 O   0  0  0  0  0  0  0  0  0  0  0  0
   16.6485   -0.6212    8.5251 C   0  0  2  0  0  0  0  0  0  0  0  0
   17.4227   -1.1180    7.4323 O   0  0  0  0  0  0  0  0  0  0  0  0
   21.0794   -2.3846    8.3155 C   0  0  2  0  0  0  0  0  0  0  0  0
   21.3055   -3.3918    9.3151 O   0  0  0  0  0  0  0  0  0  0  0  0
   11.8465   -3.1610   11.3005 C   0  0  2  0  0  0  0  0  0  0  0  0
   11.6636   -2.1075   12.2892 O   0  0  0  0  0  0  0  0  0  0  0  0
   10.8034    0.4180   10.7981 C   0  0  2  0  0  0  0  0  0  0  0  0
   10.4814   -0.5840    9.7937 O   0  0  0  0  0  0  0  0  0  0  0  0
    9.3270   -1.1184    5.9465 C   0  0  0  0  0  0  0  0  0  0  0  0
    8.4880   -0.1819    6.6382 O   0  0  0  0  0  0  0  0  0  0  0  0
   15.7021   -1.7458    8.8989 C   0  0  1  0  0  0  0  0  0  0  0  0
   14.4774   -2.1760    8.2666 O   0  0  0  0  0  0  0  0  0  0  0  0
   20.6916   -1.0208    8.8759 C   0  0  2  0  0  0  0  0  0  0  0  0
   19.9058   -0.0950    8.1097 O   0  0  0  0  0  0  0  0  0  0  0  0
   10.5440   -3.8824   11.2259 C   0  0  0  0  0  0  0  0  0  0  0  0
   10.0802   -4.0530   12.5435 O   0  0  0  0  0  0  0  0  0  0  0  0
   10.0492    1.7706   10.5658 C   0  0  1  0  0  0  0  0  0  0  0  0
    8.6314    1.5072   10.7390 O   0  0  0  0  0  0  0  0  0  0  0  0
   16.3283   -2.9563    9.6573 C   0  0  0  0  0  0  0  0  0  0  0  0
   15.4413   -4.1375    9.7105 N   0  0  0  0  0  0  0  0  0  0  0  0
   21.5781   -0.2326    9.8374 C   0  0  0  0  0  0  0  0  0  0  0  0
   22.2290    0.8568    9.1315 O   0  0  0  0  0  0  0  0  0  0  0  0
  1  2  1  6  0  0  0
  1  8  1  0  0  0  0
  1 36  1  0  0  0  0
  3  4  1  6  0  0  0
  3 10  1  0  0  0  0
  3 47  1  0  0  0  0
  5 11  1  0  0  0  0
  5 30  1  0  0  0  0
  5 38  1  1  0  0  0
  6 21  1  6  0  0  0
  6 42  1  0  0  0  0
  7 15  1  0  0  0  0
  7 44  1  0  0  0  0
  7 32  1  1  0  0  0
  8  9  1  6  0  0  0
  8 17  1  0  0  0  0
 11 12  1  1  0  0  0
 11 20  1  0  0  0  0
 13  6  1  0  0  0  0
 13 14  1  6  0  0  0
 15 16  1  6  0  0  0
 15 24  1  0  0  0  0
 17 26  1  0  0  0  0
 18 10  1  0  0  0  0
 18 19  1  6  0  0  0
 20 21  1  1  0  0  0
 20 29  1  0  0  0  0
 22 13  1  0  0  0  0
 22 23  1  1  0  0  0
 24 25  1  6  0  0  0
 24 33  1  0  0  0  0
 26 27  1  6  0  0  0
 26 35  1  0  0  0  0
 28  2  1  1  0  0  0
 28 18  1  0  0  0  0
 29 30  1  0  0  0  0
 29 39  1  1  0  0  0
 31 22  1  0  0  0  0
 31 32  1  6  0  0  0
 31 41  1  0  0  0  0
 33 34  1  1  0  0  0
 33 43  1  0  0  0  0
 35 36  1  0  0  0  0
 35 45  1  1  0  0  0
 37 28  1  0  0  0  0
 37 38  1  6  0  0  0
 39 40  1  0  0  0  0
 41 42  1  0  0  0  0
 41 49  1  6  0  0  0
 43 44  1  0  0  0  0
 43 51  1  6  0  0  0
 45 46  1  0  0  0  0
 47 37  1  0  0  0  0
 47 48  1  1  0  0  0
 49 50  1  0  0  0  0
 51 52  1  0  0  0  0
M  END
>  <CHROM.1>
-156.17909601,143.67610990,-151.56465073,152.73468027,-16.46541134,67.90869133
131.81058532,96.74232151,74.27431878,-30.40534298,-166.51000516,104.11887399
14.38435647,-1.07976063,9.28620566,-2.94937746,0.19204177,-1.34037292

>  <Name>
2esj_lig

>  <RI>
0

>  <Rbt.Current_Directory>
/home/itssahil/PROJECTS/Mol_Feturizer/New_Systems/rnas/2esj

>  <Rbt.Executable>
rbdock ($Id: //depot/dev/client3/rdock/2013.1/src/exe/rbdock.cxx#4 $)

>  <Rbt.Library>
libRbt.so (2013.1, Build901 2013/11/27)

>  <Rbt.Parameter_File>
/export/apps/rDock/src/rDock_2013.1_src/data/scripts/dock_solv.prm

>  <Rbt.Receptor>
prm/blind_docking_40.prm

>  <SCORE>
79.2298

>  <SCORE.INTER>
47.5696

>  <SCORE.INTER.CONST>
1

>  <SCORE.INTER.POLAR>
-0.0037898

>  <SCORE.INTER.ROT>
12

>  <SCORE.INTER.SOLV>
33.4322

>  <SCORE.INTER.VDW>
8.98164

>  <SCORE.INTER.norm>
0.9148

>  <SCORE.INTRA>
22.383

>  <SCORE.INTRA.DIHEDRAL>
6.30983

>  <SCORE.INTRA.DIHEDRAL.0>
32.9766

>  <SCORE.INTRA.POLAR>
0

>  <SCORE.INTRA.POLAR.0>
0

>  <SCORE.INTRA.REPUL>
0.0911099

>  <SCORE.INTRA.REPUL.0>
0

>  <SCORE.INTRA.SOLV>
7.25485

>  <SCORE.INTRA.SOLV.lig_0>
-114.358

>  <SCORE.INTRA.VDW>
15.1451

>  <SCORE.INTRA.VDW.0>
-8.24257

>  <SCORE.INTRA.norm>
0.430442

>  <SCORE.RESTR>
9.27725

>  <SCORE.RESTR.CAVITY>
9.27725

>  <SCORE.RESTR.norm>
0.178409

>  <SCORE.SYSTEM>
0

>  <SCORE.SYSTEM.CONST>
0

>  <SCORE.SYSTEM.DIHEDRAL>
0

>  <SCORE.SYSTEM.SOLV>
0

>  <SCORE.SYSTEM.norm>
0

>  <SCORE.heavy>
52

>  <SCORE.norm>
1.52365

>  <RMSD>
12.047

$$$$
2esj_lig
 OpenBabel11021811423D
libRbt.so/2013.1/901 2013/11/27
 52 56  0  0  0  0  0  0  0  0999 V2000
   13.0897   -2.0700   12.1803 C   0  0  2  0  0  0  0  0  0  0  0  0
   12.9961   -1.4840   10.8678 O   0  0  0  0  0  0  0  0  0  0  0  0
   11.5743    2.4153   11.8983 C   0  0  2  0  0  0  0  0  0  0  0  0
   11.2336    3.8475   11.9095 N   0  0  0  0  0  0  0  0  0  0  0  0
   11.2229   -1.0299    8.5850 C   0  0  1  0  0  0  0  0  0  0  0  0
   13.4083   -1.8024    7.3630 C   0  0  1  0  0  0  0  0  0  0  0  0
   18.3851   -1.0877    6.0703 C   0  0  1  0  0  0  0  0  0  0  0  0
   13.4783   -3.5670   11.9986 C   0  0  2  0  0  0  0  0  0  0  0  0
   14.7176   -3.7287   11.2389 N   0  0  0  0  0  0  0  0  0  0  0  0
   13.1273    2.2221   11.6789 C   0  0  0  0  0  0  0  0  0  0  0  0
   10.9390   -2.5097    8.3236 C   0  0  2  0  0  0  0  0  0  0  0  0
   11.7874   -3.3793    9.1042 O   0  0  0  0  0  0  0  0  0  0  0  0
   14.2877   -0.9700    6.3262 C   0  0  2  0  0  0  0  0  0  0  0  0
   14.8630   -1.8567    5.2803 N   0  0  0  0  0  0  0  0  0  0  0  0
   18.8620   -2.4261    5.5183 C   0  0  1  0  0  0  0  0  0  0  0  0
   19.5095   -2.2109    4.2483 O   0  0  0  0  0  0  0  0  0  0  0  0
   12.3253   -4.3620   11.3076 C   0  0  0  0  0  0  0  0  0  0  0  0
   13.4824    0.6816   11.7290 C   0  0  2  0  0  0  0  0  0  0  0  0
   14.9181    0.4737   11.5142 N   0  0  0  0  0  0  0  0  0  0  0  0
   11.1816   -2.5779    6.8435 C   0  0  2  0  0  0  0  0  0  0  0  0
   12.5599   -2.5799    6.5703 O   0  0  0  0  0  0  0  0  0  0  0  0
   15.3517   -0.1012    7.1313 C   0  0  1  0  0  0  0  0  0  0  0  0
   14.6679    0.6491    8.1403 O   0  0  0  0  0  0  0  0  0  0  0  0
   19.8269   -3.1933    6.4143 C   0  0  1  0  0  0  0  0  0  0  0  0
   20.3425   -4.2850    5.6445 O   0  0  0  0  0  0  0  0  0  0  0  0
   11.0135   -4.1551   12.1213 C   0  0  2  0  0  0  0  0  0  0  0  0
    9.9404   -4.9131   11.5922 O   0  0  0  0  0  0  0  0  0  0  0  0
   12.6594   -0.0980   10.6708 C   0  0  2  0  0  0  0  0  0  0  0  0
   10.6896   -1.2321    6.2722 C   0  0  2  0  0  0  0  0  0  0  0  0
   10.9154   -0.3499    7.3601 O   0  0  0  0  0  0  0  0  0  0  0  0
   16.3845   -1.0214    7.9032 C   0  0  2  0  0  0  0  0  0  0  0  0
   17.0695   -1.7274    6.8674 O   0  0  0  0  0  0  0  0  0  0  0  0
   20.9896   -2.3469    6.9355 C   0  0  2  0  0  0  0  0  0  0  0  0
   21.6140   -3.0996    7.9883 O   0  0  0  0  0  0  0  0  0  0  0  0
   10.6865   -2.6413   12.1427 C   0  0  2  0  0  0  0  0  0  0  0  0
   11.7917   -1.9693   12.8119 O   0  0  0  0  0  0  0  0  0  0  0  0
   11.1180    0.1429   10.7548 C   0  0  2  0  0  0  0  0  0  0  0  0
   10.4545   -0.5721    9.6755 O   0  0  0  0  0  0  0  0  0  0  0  0
    9.2190   -1.1633    5.8619 C   0  0  0  0  0  0  0  0  0  0  0  0
    8.4323   -1.4916    7.0164 O   0  0  0  0  0  0  0  0  0  0  0  0
   15.5484   -2.0626    8.6222 C   0  0  1  0  0  0  0  0  0  0  0  0
   14.2921   -2.6657    8.2443 O   0  0  0  0  0  0  0  0  0  0  0  0
   20.5263   -0.9547    7.3497 C   0  0  2  0  0  0  0  0  0  0  0  0
   19.4364   -0.3011    6.6813 O   0  0  0  0  0  0  0  0  0  0  0  0
    9.4686   -2.3176   12.9392 C   0  0  0  0  0  0  0  0  0  0  0  0
    9.5933   -0.9866   13.3785 O   0  0  0  0  0  0  0  0  0  0  0  0
   10.7925    1.6746   10.7547 C   0  0  1  0  0  0  0  0  0  0  0  0
    9.3731    1.8123   11.0298 O   0  0  0  0  0  0  0  0  0  0  0  0
   16.3185   -3.0479    9.5544 C   0  0  0  0  0  0  0  0  0  0  0  0
   17.7831   -2.8491    9.5358 N   0  0  0  0  0  0  0  0  0  0  0  0
   21.4739    0.1098    7.8981 C   0  0  0  0  0  0  0  0  0  0  0  0
   22.3697    0.5639    6.8492 O   0  0  0  0  0  0  0  0  0  0  0  0
  1  2  1  6  0  0  0
  1  8  1  0  0  0  0
  1 36  1  0  0  0  0
  3  4  1  6  0  0  0
  3 10  1  0  0  0  0
  3 47  1  0  0  0  0
  5 11  1  0  0  0  0
  5 30  1  0  0  0  0
  5 38  1  1  0  0  0
  6 21  1  6  0  0  0
  6 42  1  0  0  0  0
  7 15  1  0  0  0  0
  7 44  1  0  0  0  0
  7 32  1  1  0  0  0
  8  9  1  6  0  0  0
  8 17  1  0  0  0  0
 11 12  1  1  0  0  0
 11 20  1  0  0  0  0
 13  6  1  0  0  0  0
 13 14  1  6  0  0  0
 15 16  1  6  0  0  0
 15 24  1  0  0  0  0
 17 26  1  0  0  0  0
 18 10  1  0  0  0  0
 18 19  1  6  0  0  0
 20 21  1  1  0  0  0
 20 29  1  0  0  0  0
 22 13  1  0  0  0  0
 22 23  1  1  0  0  0
 24 25  1  6  0  0  0
 24 33  1  0  0  0  0
 26 27  1  6  0  0  0
 26 35  1  0  0  0  0
 28  2  1  1  0  0  0
 28 18  1  0  0  0  0
 29 30  1  0  0  0  0
 29 39  1  1  0  0  0
 31 22  1  0  0  0  0
 31 32  1  6  0  0  0
 31 41  1  0  0  0  0
 33 34  1  1  0  0  0
 33 43  1  0  0  0  0
 35 36  1  0  0  0  0
 35 45  1  1  0  0  0
 37 28  1  0  0  0  0
 37 38  1  6  0  0  0
 39 40  1  0  0  0  0
 41 42  1  0  0  0  0
 41 49  1  6  0  0  0
 43 44  1  0  0  0  0
 43 51  1  6  0  0  0
 45 46  1  0  0  0  0
 47 37  1  0  0  0  0
 47 48  1  1  0  0  0
 49 50  1  0  0  0  0
 51 52  1  0  0  0  0
M  END
>  <CHROM.1>
-179.65291987,129.28322794,-129.91997121,162.39809574,-36.80256553,43.38030380
57.63962267,84.85683947,154.56100610,-16.31841389,-2.97417671,68.83909271
14.19971702,-1.40801306,8.95835634,-2.72337918,-0.08207782,-1.93585437

>  <Name>
2esj_lig

>  <RI>
0

>  <Rbt.Current_Directory>
/home/itssahil/PROJECTS/Mol_Feturizer/New_Systems/rnas/2esj

>  <Rbt.Executable>
rbdock ($Id: //depot/dev/client3/rdock/2013.1/src/exe/rbdock.cxx#4 $)

>  <Rbt.Library>
libRbt.so (2013.1, Build901 2013/11/27)

>  <Rbt.Parameter_File>
/export/apps/rDock/src/rDock_2013.1_src/data/scripts/dock_solv.prm

>  <Rbt.Receptor>
prm/blind_docking_40.prm

>  <SCORE>
73.3452

>  <SCORE.INTER>
46.6763

>  <SCORE.INTER.CONST>
1

>  <SCORE.INTER.POLAR>
-0.0194785

>  <SCORE.INTER.ROT>
12

>  <SCORE.INTER.SOLV>
27.8673

>  <SCORE.INTER.VDW>
10.2934

>  <SCORE.INTER.norm>
0.897621

>  <SCORE.INTRA>
19.425

>  <SCORE.INTRA.DIHEDRAL>
1.23746

>  <SCORE.INTRA.DIHEDRAL.0>
32.9766

>  <SCORE.INTRA.POLAR>
0

>  <SCORE.INTRA.POLAR.0>
0

>  <SCORE.INTRA.REPUL>
0

>  <SCORE.INTRA.REPUL.0>
0

>  <SCORE.INTRA.SOLV>
9.29209

>  <SCORE.INTRA.SOLV.lig_0>
-114.358

>  <SCORE.INTRA.VDW>
14.1603

>  <SCORE.INTRA.VDW.0>
-8.24257

>  <SCORE.INTRA.norm>
0.373558

>  <SCORE.RESTR>
7.2439

>  <SCORE.RESTR.CAVITY>
7.2439

>  <SCORE.RESTR.norm>
0.139306

>  <SCORE.SYSTEM>
0

>  <SCORE.SYSTEM.CONST>
0

>  <SCORE.SYSTEM.DIHEDRAL>
0

>  <SCORE.SYSTEM.SOLV>
0

>  <SCORE.SYSTEM.norm>
0

>  <SCORE.heavy>
52

>  <SCORE.norm>
1.41049

>  <RMSD>
12.154

$$$$
2esj_lig
 OpenBabel11021811423D
libRbt.so/2013.1/901 2013/11/27
 52 56  0  0  0  0  0  0  0  0999 V2000
   10.2820    0.7129   11.0176 C   0  0  2  0  0  0  0  0  0  0  0  0
   11.1075    0.7414    9.8375 O   0  0  0  0  0  0  0  0  0  0  0  0
    8.8842   -1.4419    6.9086 C   0  0  2  0  0  0  0  0  0  0  0  0
    8.4701   -2.2626    5.7587 N   0  0  0  0  0  0  0  0  0  0  0  0
   12.3597   -2.2212    9.9192 C   0  0  1  0  0  0  0  0  0  0  0  0
   16.4344   -3.2427    9.2874 C   0  0  1  0  0  0  0  0  0  0  0  0
   18.1283    0.2999    9.0807 C   0  0  1  0  0  0  0  0  0  0  0  0
   10.6324    1.9715   11.8651 C   0  0  2  0  0  0  0  0  0  0  0  0
   10.4622    3.2123   11.1096 N   0  0  0  0  0  0  0  0  0  0  0  0
    9.7525   -0.2142    6.4226 C   0  0  0  0  0  0  0  0  0  0  0  0
   12.8631   -3.6651    9.9084 C   0  0  2  0  0  0  0  0  0  0  0  0
   13.1749   -4.1494   11.2327 O   0  0  0  0  0  0  0  0  0  0  0  0
   17.3418   -2.8949   10.5510 C   0  0  2  0  0  0  0  0  0  0  0  0
   17.0251   -1.5420   11.0804 N   0  0  0  0  0  0  0  0  0  0  0  0
   18.6064    1.4003   10.0210 C   0  0  1  0  0  0  0  0  0  0  0  0
   18.4245    2.6803    9.3833 O   0  0  0  0  0  0  0  0  0  0  0  0
   12.0905    1.8830   12.4176 C   0  0  0  0  0  0  0  0  0  0  0  0
   10.1377    0.6873    7.6639 C   0  0  2  0  0  0  0  0  0  0  0  0
   10.9565    1.8282    7.2412 N   0  0  0  0  0  0  0  0  0  0  0  0
   14.0543   -3.5332    9.0041 C   0  0  2  0  0  0  0  0  0  0  0  0
   15.1299   -2.9438    9.6897 O   0  0  0  0  0  0  0  0  0  0  0  0
   18.8701   -3.1273   10.1697 C   0  0  1  0  0  0  0  0  0  0  0  0
   19.0147   -4.4399    9.6177 O   0  0  0  0  0  0  0  0  0  0  0  0
   17.9106    1.4465   11.3760 C   0  0  1  0  0  0  0  0  0  0  0  0
   18.3107    2.6633   12.0161 O   0  0  0  0  0  0  0  0  0  0  0  0
   12.2528    0.5444   13.1970 C   0  0  2  0  0  0  0  0  0  0  0  0
   13.5331    0.4337   13.7926 O   0  0  0  0  0  0  0  0  0  0  0  0
   10.8895   -0.1519    8.7295 C   0  0  2  0  0  0  0  0  0  0  0  0
   13.6659   -2.4818    7.9442 C   0  0  2  0  0  0  0  0  0  0  0  0
   12.7652   -1.6558    8.6649 O   0  0  0  0  0  0  0  0  0  0  0  0
   19.3416   -2.1274    9.0352 C   0  0  2  0  0  0  0  0  0  0  0  0
   19.2167   -0.8351    9.6308 O   0  0  0  0  0  0  0  0  0  0  0  0
   16.3842    1.3986   11.2872 C   0  0  2  0  0  0  0  0  0  0  0  0
   15.8977    1.1348   12.6133 O   0  0  0  0  0  0  0  0  0  0  0  0
   11.9748   -0.6253   12.2205 C   0  0  2  0  0  0  0  0  0  0  0  0
   10.5999   -0.4875   11.7605 O   0  0  0  0  0  0  0  0  0  0  0  0
   10.1381   -1.4494    9.1685 C   0  0  2  0  0  0  0  0  0  0  0  0
   10.9623   -2.1943   10.1078 O   0  0  0  0  0  0  0  0  0  0  0  0
   12.9750   -3.0062    6.6859 C   0  0  0  0  0  0  0  0  0  0  0  0
   13.8072   -4.0367    6.1334 O   0  0  0  0  0  0  0  0  0  0  0  0
   18.2699   -2.1880    7.9638 C   0  0  1  0  0  0  0  0  0  0  0  0
   16.8491   -2.4148    8.0850 O   0  0  0  0  0  0  0  0  0  0  0  0
   15.9163    0.3976   10.2368 C   0  0  2  0  0  0  0  0  0  0  0  0
   16.6892    0.1401    9.0544 O   0  0  0  0  0  0  0  0  0  0  0  0
   12.0554   -1.9632   12.8732 C   0  0  0  0  0  0  0  0  0  0  0  0
   11.8794   -1.7694   14.2558 O   0  0  0  0  0  0  0  0  0  0  0  0
    9.7219   -2.3012    7.9221 C   0  0  1  0  0  0  0  0  0  0  0  0
    8.8690   -3.3748    8.4008 O   0  0  0  0  0  0  0  0  0  0  0  0
   18.5385   -1.3649    6.6665 C   0  0  0  0  0  0  0  0  0  0  0  0
   19.1884   -2.1513    5.5970 N   0  0  0  0  0  0  0  0  0  0  0  0
   14.4430    0.1462    9.9236 C   0  0  0  0  0  0  0  0  0  0  0  0
   14.1559    0.5271    8.5520 O   0  0  0  0  0  0  0  0  0  0  0  0
  1  2  1  6  0  0  0
  1  8  1  0  0  0  0
  1 36  1  0  0  0  0
  3  4  1  6  0  0  0
  3 10  1  0  0  0  0
  3 47  1  0  0  0  0
  5 11  1  0  0  0  0
  5 30  1  0  0  0  0
  5 38  1  6  0  0  0
  6 21  1  1  0  0  0
  6 42  1  0  0  0  0
  7 15  1  0  0  0  0
  7 44  1  0  0  0  0
  7 32  1  1  0  0  0
  8  9  1  6  0  0  0
  8 17  1  0  0  0  0
 11 12  1  1  0  0  0
 11 20  1  0  0  0  0
 13  6  1  0  0  0  0
 13 14  1  6  0  0  0
 15 16  1  6  0  0  0
 15 24  1  0  0  0  0
 17 26  1  0  0  0  0
 18 10  1  0  0  0  0
 18 19  1  6  0  0  0
 20 21  1  1  0  0  0
 20 29  1  0  0  0  0
 22 13  1  0  0  0  0
 22 23  1  6  0  0  0
 24 25  1  6  0  0  0
 24 33  1  0  0  0  0
 26 27  1  6  0  0  0
 26 35  1  0  0  0  0
 28  2  1  1  0  0  0
 28 18  1  0  0  0  0
 29 30  1  0  0  0  0
 29 39  1  6  0  0  0
 31 22  1  0  0  0  0
 31 32  1  1  0  0  0
 31 41  1  0  0  0  0
 33 34  1  1  0  0  0
 33 43  1  0  0  0  0
 35 36  1  0  0  0  0
 35 45  1  1  0  0  0
 37 28  1  0  0  0  0
 37 38  1  1  0  0  0
 39 40  1  0  0  0  0
 41 42  1  0  0  0  0
 41 49  1  1  0  0  0
 43 44  1  0  0  0  0
 43 51  1  6  0  0  0
 45 46  1  0  0  0  0
 47 37  1  0  0  0  0
 47 48  1  1  0  0  0
 49 50  1  0  0  0  0
 51 52  1  0  0  0  0
M  END
>  <CHROM.1>
-169.51323955,-127.36240602,-159.07123437,-175.05970381,152.30641161,100.88491832
-53.72508038,-114.55426615,21.14628574,-36.77385165,93.15389674,116.62240778
14.08263615,-0.93042324,9.69530122,-3.14063457,0.02158166,-2.29097240

>  <Name>
2esj_lig

>  <RI>
0

>  <Rbt.Current_Directory>
/home/itssahil/PROJECTS/Mol_Feturizer/New_Systems/rnas/2esj

>  <Rbt.Executable>
rbdock ($Id: //depot/dev/client3/rdock/2013.1/src/exe/rbdock.cxx#4 $)

>  <Rbt.Library>
libRbt.so (2013.1, Build901 2013/11/27)

>  <Rbt.Parameter_File>
/export/apps/rDock/src/rDock_2013.1_src/data/scripts/dock_solv.prm

>  <Rbt.Receptor>
prm/blind_docking_40.prm

>  <SCORE>
91.2517

>  <SCORE.INTER>
60.8104

>  <SCORE.INTER.CONST>
1

>  <SCORE.INTER.POLAR>
-0.67057

>  <SCORE.INTER.ROT>
12

>  <SCORE.INTER.SOLV>
31.3209

>  <SCORE.INTER.VDW>
20.7352

>  <SCORE.INTER.norm>
1.16943

>  <SCORE.INTRA>
19.1226

>  <SCORE.INTRA.DIHEDRAL>
4.42297

>  <SCORE.INTRA.DIHEDRAL.0>
32.9766

>  <SCORE.INTRA.POLAR>
0

>  <SCORE.INTRA.POLAR.0>
0

>  <SCORE.INTRA.REPUL>
0.106932

>  <SCORE.INTRA.REPUL.0>
0

>  <SCORE.INTRA.SOLV>
5.92578

>  <SCORE.INTRA.SOLV.lig_0>
-114.358

>  <SCORE.INTRA.VDW>
13.4135

>  <SCORE.INTRA.VDW.0>
-8.24257

>  <SCORE.INTRA.norm>
0.367742

>  <SCORE.RESTR>
11.3187

>  <SCORE.RESTR.CAVITY>
11.3187

>  <SCORE.RESTR.norm>
0.217668

>  <SCORE.SYSTEM>
0

>  <SCORE.SYSTEM.CONST>
0

>  <SCORE.SYSTEM.DIHEDRAL>
0

>  <SCORE.SYSTEM.SOLV>
0

>  <SCORE.SYSTEM.norm>
0

>  <SCORE.heavy>
52

>  <SCORE.norm>
1.75484

>  <RMSD>
12.161

$$$$
2esj_lig
 OpenBabel11021811423D
libRbt.so/2013.1/901 2013/11/27
 52 56  0  0  0  0  0  0  0  0999 V2000
   29.2222   -0.2121   14.4855 C   0  0  2  0  0  0  0  0  0  0  0  0
   29.6283    0.2058   15.8028 O   0  0  0  0  0  0  0  0  0  0  0  0
   27.4403    1.4980   19.2424 C   0  0  2  0  0  0  0  0  0  0  0  0
   26.6803    2.2764   20.2344 N   0  0  0  0  0  0  0  0  0  0  0  0
   25.4222   -0.2526   15.5800 C   0  0  1  0  0  0  0  0  0  0  0  0
   21.7517   -2.1475   14.7100 C   0  0  1  0  0  0  0  0  0  0  0  0
   19.3251   -3.7953   18.7193 C   0  0  1  0  0  0  0  0  0  0  0  0
   30.3397   -1.1391   13.9227 C   0  0  2  0  0  0  0  0  0  0  0  0
   30.6065   -2.2792   14.7991 N   0  0  0  0  0  0  0  0  0  0  0  0
   28.8153    2.2087   18.9234 C   0  0  0  0  0  0  0  0  0  0  0  0
   24.8595   -0.2618   14.1581 C   0  0  2  0  0  0  0  0  0  0  0  0
   24.1177    0.9387   13.8518 O   0  0  0  0  0  0  0  0  0  0  0  0
   20.7022   -1.7548   15.8439 C   0  0  2  0  0  0  0  0  0  0  0  0
   21.3599   -1.6698   17.1747 N   0  0  0  0  0  0  0  0  0  0  0  0
   20.4161   -3.8453   19.7826 C   0  0  1  0  0  0  0  0  0  0  0  0
   20.1006   -2.9057   20.8295 O   0  0  0  0  0  0  0  0  0  0  0  0
   31.6580   -0.3379   13.6789 C   0  0  0  0  0  0  0  0  0  0  0  0
   29.6425    1.3287   17.9021 C   0  0  2  0  0  0  0  0  0  0  0  0
   30.9193    1.9737   17.5784 N   0  0  0  0  0  0  0  0  0  0  0  0
   24.0239   -1.5084   14.2022 C   0  0  2  0  0  0  0  0  0  0  0  0
   22.8258   -1.2735   14.8976 O   0  0  0  0  0  0  0  0  0  0  0  0
   19.4627   -2.7513   15.7685 C   0  0  1  0  0  0  0  0  0  0  0  0
   18.9735   -2.7804   14.4236 O   0  0  0  0  0  0  0  0  0  0  0  0
   20.6367   -5.2093   20.4255 C   0  0  1  0  0  0  0  0  0  0  0  0
   21.5110   -5.0145   21.5425 O   0  0  0  0  0  0  0  0  0  0  0  0
   31.3433    0.8821   12.7634 C   0  0  2  0  0  0  0  0  0  0  0  0
   32.5128    1.6117   12.4377 O   0  0  0  0  0  0  0  0  0  0  0  0
   28.8198    1.0812   16.6111 C   0  0  2  0  0  0  0  0  0  0  0  0
   24.7902   -2.4992   15.1025 C   0  0  2  0  0  0  0  0  0  0  0  0
   25.4677   -1.6258   15.9920 O   0  0  0  0  0  0  0  0  0  0  0  0
   19.8947   -4.2382   16.1029 C   0  0  2  0  0  0  0  0  0  0  0  0
   20.3435   -4.1780   17.4576 O   0  0  0  0  0  0  0  0  0  0  0  0
   19.3480   -5.8821   20.9016 C   0  0  2  0  0  0  0  0  0  0  0  0
   19.6734   -7.2528   21.1843 O   0  0  0  0  0  0  0  0  0  0  0  0
   30.2967    1.7718   13.4790 C   0  0  2  0  0  0  0  0  0  0  0  0
   29.0954    0.9681   13.6579 O   0  0  0  0  0  0  0  0  0  0  0  0
   27.3964    0.4887   16.8636 C   0  0  2  0  0  0  0  0  0  0  0  0
   26.6881    0.3688   15.5985 O   0  0  0  0  0  0  0  0  0  0  0  0
   25.8082   -3.4033   14.4081 C   0  0  0  0  0  0  0  0  0  0  0  0
   26.3263   -4.3082   15.3941 O   0  0  0  0  0  0  0  0  0  0  0  0
   21.1368   -4.5008   15.2732 C   0  0  1  0  0  0  0  0  0  0  0  0
   22.1812   -3.5958   14.8550 O   0  0  0  0  0  0  0  0  0  0  0  0
   18.2174   -5.7005   19.8951 C   0  0  2  0  0  0  0  0  0  0  0  0
   18.1255   -4.5217   19.0804 O   0  0  0  0  0  0  0  0  0  0  0  0
   29.8818    2.9527   12.6692 C   0  0  0  0  0  0  0  0  0  0  0  0
   31.0055    3.7892   12.5366 O   0  0  0  0  0  0  0  0  0  0  0  0
   26.6143    1.3462   17.9150 C   0  0  1  0  0  0  0  0  0  0  0  0
   25.3941    0.6262   18.2345 O   0  0  0  0  0  0  0  0  0  0  0  0
   21.7192   -5.9464   15.3345 C   0  0  0  0  0  0  0  0  0  0  0  0
   22.2424   -6.4234   14.0370 N   0  0  0  0  0  0  0  0  0  0  0  0
   16.8122   -6.2577   20.1111 C   0  0  0  0  0  0  0  0  0  0  0  0
   16.0734   -6.2376   18.8612 O   0  0  0  0  0  0  0  0  0  0  0  0
  1  2  1  1  0  0  0
  1  8  1  0  0  0  0
  1 36  1  0  0  0  0
  3  4  1  1  0  0  0
  3 10  1  0  0  0  0
  3 47  1  0  0  0  0
  5 11  1  0  0  0  0
  5 30  1  0  0  0  0
  5 38  1  6  0  0  0
  6 21  1  1  0  0  0
  6 42  1  0  0  0  0
  7 15  1  0  0  0  0
  7 44  1  0  0  0  0
  7 32  1  6  0  0  0
  8  9  1  1  0  0  0
  8 17  1  0  0  0  0
 11 12  1  1  0  0  0
 11 20  1  0  0  0  0
 13  6  1  0  0  0  0
 13 14  1  1  0  0  0
 15 16  1  1  0  0  0
 15 24  1  0  0  0  0
 17 26  1  0  0  0  0
 18 10  1  0  0  0  0
 18 19  1  6  0  0  0
 20 21  1  1  0  0  0
 20 29  1  0  0  0  0
 22 13  1  0  0  0  0
 22 23  1  6  0  0  0
 24 25  1  1  0  0  0
 24 33  1  0  0  0  0
 26 27  1  1  0  0  0
 26 35  1  0  0  0  0
 28  2  1  6  0  0  0
 28 18  1  0  0  0  0
 29 30  1  0  0  0  0
 29 39  1  6  0  0  0
 31 22  1  0  0  0  0
 31 32  1  1  0  0  0
 31 41  1  0  0  0  0
 33 34  1  6  0  0  0
 33 43  1  0  0  0  0
 35 36  1  0  0  0  0
 35 45  1  6  0  0  0
 37 28  1  0  0  0  0
 37 38  1  6  0  0  0
 39 40  1  0  0  0  0
 41 42  1  0  0  0  0
 41 49  1  1  0  0  0
 43 44  1  0  0  0  0
 43 51  1  1  0  0  0
 45 46  1  0  0  0  0
 47 37  1  0  0  0  0
 47 48  1  1  0  0  0
 49 50  1  0  0  0  0
 51 52  1  0  0  0  0
M  END
>  <CHROM.1>
179.78132179,179.62719402,169.10791556,-177.41399223,160.71978864,-177.37050956
-175.60785039,64.32871039,-65.84199641,174.62596006,142.19239467,-165.03791102
24.54287754,-1.73350221,16.44653120,0.21625324,-0.56240711,-1.75097057

>  <Name>
2esj_lig

>  <RI>
0

>  <Rbt.Current_Directory>
/home/itssahil/PROJECTS/Mol_Feturizer/New_Systems/rnas/2esj

>  <Rbt.Executable>
rbdock ($Id: //depot/dev/client3/rdock/2013.1/src/exe/rbdock.cxx#4 $)

>  <Rbt.Library>
libRbt.so (2013.1, Build901 2013/11/27)

>  <Rbt.Parameter_File>
/export/apps/rDock/src/rDock_2013.1_src/data/scripts/dock_solv.prm

>  <Rbt.Receptor>
prm/pocket_docking_8.prm

>  <SCORE>
-13.6741

>  <SCORE.INTER>
-2.3297

>  <SCORE.INTER.CONST>
1

>  <SCORE.INTER.POLAR>
-0.979796

>  <SCORE.INTER.ROT>
12

>  <SCORE.INTER.SOLV>
6.96822

>  <SCORE.INTER.VDW>
-12.2099

>  <SCORE.INTER.norm>
-0.0448019

>  <SCORE.INTRA>
-11.3444

>  <SCORE.INTRA.DIHEDRAL>
-24.6547

>  <SCORE.INTRA.DIHEDRAL.0>
32.9766

>  <SCORE.INTRA.POLAR>
0

>  <SCORE.INTRA.POLAR.0>
0

>  <SCORE.INTRA.REPUL>
0

>  <SCORE.INTRA.REPUL.0>
0

>  <SCORE.INTRA.SOLV>
-3.93159

>  <SCORE.INTRA.SOLV.lig_0>
-114.358

>  <SCORE.INTRA.VDW>
2.94878

>  <SCORE.INTRA.VDW.0>
-8.24257

>  <SCORE.INTRA.norm>
-0.218161

>  <SCORE.RESTR>
0

>  <SCORE.RESTR.CAVITY>
0

>  <SCORE.RESTR.norm>
0

>  <SCORE.SYSTEM>
0

>  <SCORE.SYSTEM.CONST>
0

>  <SCORE.SYSTEM.DIHEDRAL>
0

>  <SCORE.SYSTEM.SOLV>
0

>  <SCORE.SYSTEM.norm>
0

>  <SCORE.heavy>
52

>  <SCORE.norm>
-0.262963

>  <RMSD>
12.161

$$$$
2esj_lig
 OpenBabel11021811423D
libRbt.so/2013.1/901 2013/11/27
 52 56  0  0  0  0  0  0  0  0999 V2000
   13.1642   -1.2317   12.7014 C   0  0  2  0  0  0  0  0  0  0  0  0
   13.1144   -0.5644   11.4258 O   0  0  0  0  0  0  0  0  0  0  0  0
   10.9122    2.9339   12.5212 C   0  0  2  0  0  0  0  0  0  0  0  0
   10.2008    4.2228   12.5256 N   0  0  0  0  0  0  0  0  0  0  0  0
   10.9729   -1.0441    9.7207 C   0  0  1  0  0  0  0  0  0  0  0  0
   12.9861   -1.8921    7.0421 C   0  0  1  0  0  0  0  0  0  0  0  0
   17.5872   -2.5258    8.5098 C   0  0  1  0  0  0  0  0  0  0  0  0
   14.6530   -1.2613   13.1570 C   0  0  2  0  0  0  0  0  0  0  0  0
   15.2399    0.0770   13.2176 N   0  0  0  0  0  0  0  0  0  0  0  0
   12.3824    3.1201   11.9721 C   0  0  0  0  0  0  0  0  0  0  0  0
   10.2413   -2.2659    9.1635 C   0  0  2  0  0  0  0  0  0  0  0  0
   10.5845   -3.4805    9.8652 O   0  0  0  0  0  0  0  0  0  0  0  0
   14.2879   -2.8075    6.9491 C   0  0  2  0  0  0  0  0  0  0  0  0
   14.5671   -3.4733    8.2490 N   0  0  0  0  0  0  0  0  0  0  0  0
   18.4710   -1.7305    9.4636 C   0  0  1  0  0  0  0  0  0  0  0  0
   19.2802   -2.6434   10.2319 O   0  0  0  0  0  0  0  0  0  0  0  0
   15.5054   -2.1718   12.2170 C   0  0  0  0  0  0  0  0  0  0  0  0
   13.1492    1.7380   12.0304 C   0  0  2  0  0  0  0  0  0  0  0  0
   14.5140    1.8807   11.5129 N   0  0  0  0  0  0  0  0  0  0  0  0
   10.6977   -2.2300    7.7337 C   0  0  2  0  0  0  0  0  0  0  0  0
   12.0141   -2.7094    7.6250 O   0  0  0  0  0  0  0  0  0  0  0  0
   15.4891   -1.9405    6.3656 C   0  0  1  0  0  0  0  0  0  0  0  0
   15.0594   -1.3110    5.1540 O   0  0  0  0  0  0  0  0  0  0  0  0
   19.4007   -0.7211    8.8009 C   0  0  1  0  0  0  0  0  0  0  0  0
   20.3036   -0.2521    9.8083 O   0  0  0  0  0  0  0  0  0  0  0  0
   14.8478   -3.5821   12.1510 C   0  0  2  0  0  0  0  0  0  0  0  0
   15.6143   -4.4848   11.3739 O   0  0  0  0  0  0  0  0  0  0  0  0
   12.3779    0.6571   11.2294 C   0  0  2  0  0  0  0  0  0  0  0  0
   10.8123   -0.7368    7.3639 C   0  0  2  0  0  0  0  0  0  0  0  0
   11.1389   -0.1482    8.6129 O   0  0  0  0  0  0  0  0  0  0  0  0
   15.8825   -0.7620    7.3483 C   0  0  2  0  0  0  0  0  0  0  0  0
   16.3367   -1.4253    8.5291 O   0  0  0  0  0  0  0  0  0  0  0  0
   20.2009   -1.2957    7.6306 C   0  0  2  0  0  0  0  0  0  0  0  0
   20.7730   -0.1797    6.9292 O   0  0  0  0  0  0  0  0  0  0  0  0
   13.4119   -3.4250   11.5918 C   0  0  2  0  0  0  0  0  0  0  0  0
   12.6749   -2.5817   12.5227 O   0  0  0  0  0  0  0  0  0  0  0  0
   10.8787    0.5040   11.6414 C   0  0  2  0  0  0  0  0  0  0  0  0
   10.2354   -0.4765   10.7805 O   0  0  0  0  0  0  0  0  0  0  0  0
    9.5528   -0.0746    6.8066 C   0  0  0  0  0  0  0  0  0  0  0  0
    8.7582    0.3516    7.9231 O   0  0  0  0  0  0  0  0  0  0  0  0
   14.5757   -0.0949    7.7325 C   0  0  1  0  0  0  0  0  0  0  0  0
   13.2560   -0.6600    7.8861 O   0  0  0  0  0  0  0  0  0  0  0  0
   19.3438   -2.2097    6.7622 C   0  0  2  0  0  0  0  0  0  0  0  0
   18.2786   -2.9909    7.3253 O   0  0  0  0  0  0  0  0  0  0  0  0
   12.6651   -4.7137   11.5284 C   0  0  0  0  0  0  0  0  0  0  0  0
   13.4525   -5.6221   10.7969 O   0  0  0  0  0  0  0  0  0  0  0  0
   10.1520    1.8911   11.6257 C   0  0  1  0  0  0  0  0  0  0  0  0
    8.8339    1.6921   12.2023 O   0  0  0  0  0  0  0  0  0  0  0  0
   14.6837    1.1797    8.6250 C   0  0  0  0  0  0  0  0  0  0  0  0
   14.5394    2.4404    7.8670 N   0  0  0  0  0  0  0  0  0  0  0  0
   19.8814   -2.9314    5.5286 C   0  0  0  0  0  0  0  0  0  0  0  0
   18.7836   -3.3014    4.6530 O   0  0  0  0  0  0  0  0  0  0  0  0
  1  2  1  6  0  0  0
  1  8  1  0  0  0  0
  1 36  1  0  0  0  0
  3  4  1  6  0  0  0
  3 10  1  0  0  0  0
  3 47  1  0  0  0  0
  5 11  1  0  0  0  0
  5 30  1  0  0  0  0
  5 38  1  1  0  0  0
  6 21  1  1  0  0  0
  6 42  1  0  0  0  0
  7 15  1  0  0  0  0
  7 44  1  0  0  0  0
  7 32  1  6  0  0  0
  8  9  1  6  0  0  0
  8 17  1  0  0  0  0
 11 12  1  1  0  0  0
 11 20  1  0  0  0  0
 13  6  1  0  0  0  0
 13 14  1  1  0  0  0
 15 16  1  6  0  0  0
 15 24  1  0  0  0  0
 17 26  1  0  0  0  0
 18 10  1  0  0  0  0
 18 19  1  6  0  0  0
 20 21  1  1  0  0  0
 20 29  1  0  0  0  0
 22 13  1  0  0  0  0
 22 23  1  6  0  0  0
 24 25  1  1  0  0  0
 24 33  1  0  0  0  0
 26 27  1  6  0  0  0
 26 35  1  0  0  0  0
 28  2  1  1  0  0  0
 28 18  1  0  0  0  0
 29 30  1  0  0  0  0
 29 39  1  1  0  0  0
 31 22  1  0  0  0  0
 31 32  1  1  0  0  0
 31 41  1  0  0  0  0
 33 34  1  6  0  0  0
 33 43  1  0  0  0  0
 35 36  1  0  0  0  0
 35 45  1  1  0  0  0
 37 28  1  0  0  0  0
 37 38  1  6  0  0  0
 39 40  1  0  0  0  0
 41 42  1  0  0  0  0
 41 49  1  1  0  0  0
 43 44  1  0  0  0  0
 43 51  1  1  0  0  0
 45 46  1  0  0  0  0
 47 37  1  0  0  0  0
 47 48  1  1  0  0  0
 49 50  1  0  0  0  0
 51 52  1  0  0  0  0
M  END
>  <CHROM.1>
-118.47693683,166.54155951,-174.14860838,119.53414326,-123.56529046,68.94004381
85.00055606,57.11749125,-54.14232075,-3.80973285,100.71596039,-158.91826577
14.17883928,-1.09462819,9.45905365,-2.67253104,0.09040458,-2.03832771

>  <Name>
2esj_lig

>  <RI>
0

>  <Rbt.Current_Directory>
/home/itssahil/PROJECTS/Mol_Feturizer/New_Systems/rnas/2esj

>  <Rbt.Executable>
rbdock ($Id: //depot/dev/client3/rdock/2013.1/src/exe/rbdock.cxx#4 $)

>  <Rbt.Library>
libRbt.so (2013.1, Build901 2013/11/27)

>  <Rbt.Parameter_File>
/export/apps/rDock/src/rDock_2013.1_src/data/scripts/dock_solv.prm

>  <Rbt.Receptor>
prm/blind_docking_40.prm

>  <SCORE>
43.1677

>  <SCORE.INTER>
12.9079

>  <SCORE.INTER.CONST>
1

>  <SCORE.INTER.POLAR>
-0.530306

>  <SCORE.INTER.ROT>
12

>  <SCORE.INTER.SOLV>
37.3794

>  <SCORE.INTER.VDW>
-13.6869

>  <SCORE.INTER.norm>
0.248228

>  <SCORE.INTRA>
20.0011

>  <SCORE.INTRA.DIHEDRAL>
4.30973

>  <SCORE.INTRA.DIHEDRAL.0>
32.9766

>  <SCORE.INTRA.POLAR>
0

>  <SCORE.INTRA.POLAR.0>
0

>  <SCORE.INTRA.REPUL>
0.299772

>  <SCORE.INTRA.REPUL.0>
0

>  <SCORE.INTRA.SOLV>
7.18712

>  <SCORE.INTRA.SOLV.lig_0>
-114.358

>  <SCORE.INTRA.VDW>
12.7538

>  <SCORE.INTRA.VDW.0>
-8.24257

>  <SCORE.INTRA.norm>
0.384636

>  <SCORE.RESTR>
10.2587

>  <SCORE.RESTR.CAVITY>
10.2587

>  <SCORE.RESTR.norm>
0.197283

>  <SCORE.SYSTEM>
0

>  <SCORE.SYSTEM.CONST>
0

>  <SCORE.SYSTEM.DIHEDRAL>
0

>  <SCORE.SYSTEM.SOLV>
0

>  <SCORE.SYSTEM.norm>
0

>  <SCORE.heavy>
52

>  <SCORE.norm>
0.830147

>  <RMSD>
12.236

$$$$
2esj_lig
 OpenBabel11021811423D
libRbt.so/2013.1/901 2013/11/27
 52 56  0  0  0  0  0  0  0  0999 V2000
   21.1930   -6.8752   15.1752 C   0  0  2  0  0  0  0  0  0  0  0  0
   20.8612   -6.1217   13.9932 O   0  0  0  0  0  0  0  0  0  0  0  0
   17.2278   -4.3116   12.6478 C   0  0  2  0  0  0  0  0  0  0  0  0
   15.8992   -4.0480   12.0710 N   0  0  0  0  0  0  0  0  0  0  0  0
   17.8171   -6.0264   16.8530 C   0  0  1  0  0  0  0  0  0  0  0  0
   16.1400   -6.6517   20.4132 C   0  0  1  0  0  0  0  0  0  0  0  0
   10.8445   -7.2890   20.6213 C   0  0  1  0  0  0  0  0  0  0  0  0
   22.6956   -6.6148   15.4905 C   0  0  2  0  0  0  0  0  0  0  0  0
   22.9887   -5.1908   15.6506 N   0  0  0  0  0  0  0  0  0  0  0  0
   18.1716   -4.9791   11.5702 C   0  0  0  0  0  0  0  0  0  0  0  0
   18.1918   -6.9613   18.0038 C   0  0  2  0  0  0  0  0  0  0  0  0
   17.3070   -8.0985   18.0996 O   0  0  0  0  0  0  0  0  0  0  0  0
   15.0965   -7.4723   19.5307 C   0  0  2  0  0  0  0  0  0  0  0  0
   14.2730   -6.5615   18.6920 N   0  0  0  0  0  0  0  0  0  0  0  0
   10.4596   -6.4453   21.8311 C   0  0  1  0  0  0  0  0  0  0  0  0
    9.1157   -5.9532   21.6571 O   0  0  0  0  0  0  0  0  0  0  0  0
   23.6113   -7.2230   14.3812 C   0  0  0  0  0  0  0  0  0  0  0  0
   19.6101   -5.2001   12.1894 C   0  0  2  0  0  0  0  0  0  0  0  0
   20.5031   -5.8318   11.2124 N   0  0  0  0  0  0  0  0  0  0  0  0
   18.1061   -6.0140   19.1653 C   0  0  2  0  0  0  0  0  0  0  0  0
   16.7647   -5.7831   19.5143 O   0  0  0  0  0  0  0  0  0  0  0  0
   14.2680   -8.4448   20.4808 C   0  0  1  0  0  0  0  0  0  0  0  0
   15.1836   -9.2114   21.2699 O   0  0  0  0  0  0  0  0  0  0  0  0
   10.5277   -7.1630   23.1737 C   0  0  1  0  0  0  0  0  0  0  0  0
    9.9148   -6.3062   24.1434 O   0  0  0  0  0  0  0  0  0  0  0  0
   23.2641   -8.7321   14.2137 C   0  0  2  0  0  0  0  0  0  0  0  0
   24.1130   -9.3666   13.2741 O   0  0  0  0  0  0  0  0  0  0  0  0
   19.5192   -6.0627   13.4749 C   0  0  2  0  0  0  0  0  0  0  0  0
   18.5941   -4.6500   18.6352 C   0  0  2  0  0  0  0  0  0  0  0  0
   18.2186   -4.7136   17.2685 O   0  0  0  0  0  0  0  0  0  0  0  0
   13.3849   -7.6306   21.5135 C   0  0  2  0  0  0  0  0  0  0  0  0
   12.4643   -6.9069   20.6955 O   0  0  0  0  0  0  0  0  0  0  0  0
    9.8259   -8.5222   23.1825 C   0  0  2  0  0  0  0  0  0  0  0  0
   10.2383   -9.1964   24.3825 O   0  0  0  0  0  0  0  0  0  0  0  0
   21.7744   -8.8475   13.8057 C   0  0  2  0  0  0  0  0  0  0  0  0
   20.9840   -8.2780   14.8882 O   0  0  0  0  0  0  0  0  0  0  0  0
   18.5094   -5.5223   14.5376 C   0  0  2  0  0  0  0  0  0  0  0  0
   18.4481   -6.4429   15.6624 O   0  0  0  0  0  0  0  0  0  0  0  0
   20.0946   -4.3777   18.7354 C   0  0  0  0  0  0  0  0  0  0  0  0
   20.2613   -3.1070   19.3812 O   0  0  0  0  0  0  0  0  0  0  0  0
   14.3092   -6.5862   22.1093 C   0  0  1  0  0  0  0  0  0  0  0  0
   15.4282   -5.8919   21.5173 O   0  0  0  0  0  0  0  0  0  0  0  0
   10.0985   -9.3007   21.9003 C   0  0  2  0  0  0  0  0  0  0  0  0
   10.2956   -8.6289   20.6467 O   0  0  0  0  0  0  0  0  0  0  0  0
   21.3152  -10.2585   13.6627 C   0  0  0  0  0  0  0  0  0  0  0  0
   21.6302  -10.9281   14.8596 O   0  0  0  0  0  0  0  0  0  0  0  0
   17.1065   -5.2628   13.8919 C   0  0  1  0  0  0  0  0  0  0  0  0
   16.2939   -4.5860   14.8874 O   0  0  0  0  0  0  0  0  0  0  0  0
   13.7138   -5.7013   23.2475 C   0  0  0  0  0  0  0  0  0  0  0  0
   14.3084   -4.3496   23.3113 N   0  0  0  0  0  0  0  0  0  0  0  0
    9.5178  -10.6864   21.6277 C   0  0  0  0  0  0  0  0  0  0  0  0
    9.9192  -11.1413   20.3083 O   0  0  0  0  0  0  0  0  0  0  0  0
  1  2  1  6  0  0  0
  1  8  1  0  0  0  0
  1 36  1  0  0  0  0
  3  4  1  6  0  0  0
  3 10  1  0  0  0  0
  3 47  1  0  0  0  0
  5 11  1  0  0  0  0
  5 30  1  0  0  0  0
  5 38  1  6  0  0  0
  6 21  1  6  0  0  0
  6 42  1  0  0  0  0
  7 15  1  0  0  0  0
  7 44  1  0  0  0  0
  7 32  1  1  0  0  0
  8  9  1  6  0  0  0
  8 17  1  0  0  0  0
 11 12  1  1  0  0  0
 11 20  1  0  0  0  0
 13  6  1  0  0  0  0
 13 14  1  1  0  0  0
 15 16  1  6  0  0  0
 15 24  1  0  0  0  0
 17 26  1  0  0  0  0
 18 10  1  0  0  0  0
 18 19  1  6  0  0  0
 20 21  1  6  0  0  0
 20 29  1  0  0  0  0
 22 13  1  0  0  0  0
 22 23  1  1  0  0  0
 24 25  1  1  0  0  0
 24 33  1  0  0  0  0
 26 27  1  6  0  0  0
 26 35  1  0  0  0  0
 28  2  1  1  0  0  0
 28 18  1  0  0  0  0
 29 30  1  0  0  0  0
 29 39  1  6  0  0  0
 31 22  1  0  0  0  0
 31 32  1  6  0  0  0
 31 41  1  0  0  0  0
 33 34  1  1  0  0  0
 33 43  1  0  0  0  0
 35 36  1  0  0  0  0
 35 45  1  1  0  0  0
 37 28  1  0  0  0  0
 37 38  1  1  0  0  0
 39 40  1  0  0  0  0
 41 42  1  0  0  0  0
 41 49  1  6  0  0  0
 43 44  1  0  0  0  0
 43 51  1  6  0  0  0
 45 46  1  0  0  0  0
 47 37  1  0  0  0  0
 47 48  1  1  0  0  0
 49 50  1  0  0  0  0
 51 52  1  0  0  0  0
M  END
>  <CHROM.1>
-175.62889840,-164.49267239,-109.23744952,86.18968971,87.29365014,-178.16920046
-128.44281153,108.75581811,53.54623576,167.06939316,-150.47923974,177.96264000
16.52113655,-6.87595632,17.98673917,-0.41665478,-0.57295466,2.57042457

>  <Name>
2esj_lig

>  <RI>
0

>  <Rbt.Current_Directory>
/home/itssahil/PROJECTS/Mol_Feturizer/New_Systems/rnas/2esj

>  <Rbt.Executable>
rbdock ($Id: //depot/dev/client3/rdock/2013.1/src/exe/rbdock.cxx#4 $)

>  <Rbt.Library>
libRbt.so (2013.1, Build901 2013/11/27)

>  <Rbt.Parameter_File>
/export/apps/rDock/src/rDock_2013.1_src/data/scripts/dock_solv.prm

>  <Rbt.Receptor>
prm/pocket_docking_8.prm

>  <SCORE>
-9.0157

>  <SCORE.INTER>
-9.33292

>  <SCORE.INTER.CONST>
1

>  <SCORE.INTER.POLAR>
-0.355476

>  <SCORE.INTER.ROT>
12

>  <SCORE.INTER.SOLV>
23.2822

>  <SCORE.INTER.VDW>
-24.3978

>  <SCORE.INTER.norm>
-0.179479

>  <SCORE.INTRA>
0.317212

>  <SCORE.INTRA.DIHEDRAL>
-2.24361

>  <SCORE.INTRA.DIHEDRAL.0>
32.9766

>  <SCORE.INTRA.POLAR>
0

>  <SCORE.INTRA.POLAR.0>
0

>  <SCORE.INTRA.REPUL>
0

>  <SCORE.INTRA.REPUL.0>
0

>  <SCORE.INTRA.SOLV>
-2.79464

>  <SCORE.INTRA.SOLV.lig_0>
-114.358

>  <SCORE.INTRA.VDW>
2.83634

>  <SCORE.INTRA.VDW.0>
-8.24257

>  <SCORE.INTRA.norm>
0.00610023

>  <SCORE.RESTR>
0

>  <SCORE.RESTR.CAVITY>
0

>  <SCORE.RESTR.norm>
0

>  <SCORE.SYSTEM>
0

>  <SCORE.SYSTEM.CONST>
0

>  <SCORE.SYSTEM.DIHEDRAL>
0

>  <SCORE.SYSTEM.SOLV>
0

>  <SCORE.SYSTEM.norm>
0

>  <SCORE.heavy>
52

>  <SCORE.norm>
-0.173379

>  <RMSD>
12.260

$$$$
2esj_lig
 OpenBabel11021811423D
libRbt.so/2013.1/901 2013/11/27
 52 56  0  0  0  0  0  0  0  0999 V2000
   10.9131   -0.9367    7.7574 C   0  0  2  0  0  0  0  0  0  0  0  0
   10.5203   -1.7490    8.8802 O   0  0  0  0  0  0  0  0  0  0  0  0
   10.5124   -0.8885   13.0692 C   0  0  2  0  0  0  0  0  0  0  0  0
   10.8741   -0.7138   14.4855 N   0  0  0  0  0  0  0  0  0  0  0  0
   13.1278    0.5534    9.6761 C   0  0  1  0  0  0  0  0  0  0  0  0
   16.7266   -0.1987    9.8793 C   0  0  1  0  0  0  0  0  0  0  0  0
   19.5220   -3.7137    7.4813 C   0  0  1  0  0  0  0  0  0  0  0  0
   10.0876   -1.4102    6.5248 C   0  0  2  0  0  0  0  0  0  0  0  0
    8.6465   -1.3472    6.7667 N   0  0  0  0  0  0  0  0  0  0  0  0
   10.7763   -2.3789   12.6149 C   0  0  0  0  0  0  0  0  0  0  0  0
   13.8348    1.8113    9.1696 C   0  0  2  0  0  0  0  0  0  0  0  0
   13.8801    1.8745    7.7276 O   0  0  0  0  0  0  0  0  0  0  0  0
   18.0610   -0.3786    9.0259 C   0  0  2  0  0  0  0  0  0  0  0  0
   17.7493   -0.6755    7.6027 N   0  0  0  0  0  0  0  0  0  0  0  0
   20.3480   -2.4705    7.7908 C   0  0  1  0  0  0  0  0  0  0  0  0
   21.7469   -2.8191    7.7896 O   0  0  0  0  0  0  0  0  0  0  0  0
   10.4920   -2.8596    6.1067 C   0  0  0  0  0  0  0  0  0  0  0  0
   10.3269   -2.5619   11.1095 C   0  0  2  0  0  0  0  0  0  0  0  0
   10.5742   -3.9353   10.6584 N   0  0  0  0  0  0  0  0  0  0  0  0
   15.1775    1.6524    9.8222 C   0  0  2  0  0  0  0  0  0  0  0  0
   15.9460    0.6939    9.1401 O   0  0  0  0  0  0  0  0  0  0  0  0
   18.9958   -1.4469    9.7470 C   0  0  1  0  0  0  0  0  0  0  0  0
   19.1570   -1.0698   11.1183 O   0  0  0  0  0  0  0  0  0  0  0  0
   20.1531   -1.3036    6.8302 C   0  0  1  0  0  0  0  0  0  0  0  0
   21.1642   -0.3351    7.1300 O   0  0  0  0  0  0  0  0  0  0  0  0
   12.0319   -2.9060    5.8780 C   0  0  2  0  0  0  0  0  0  0  0  0
   12.4584   -4.1768    5.4203 O   0  0  0  0  0  0  0  0  0  0  0  0
   11.0691   -1.5516   10.1967 C   0  0  2  0  0  0  0  0  0  0  0  0
   14.9060    1.0047   11.1956 C   0  0  2  0  0  0  0  0  0  0  0  0
   13.7387    0.2412   10.9357 O   0  0  0  0  0  0  0  0  0  0  0  0
   18.3239   -2.8813    9.7699 C   0  0  2  0  0  0  0  0  0  0  0  0
   18.2101   -3.2387    8.3916 O   0  0  0  0  0  0  0  0  0  0  0  0
   20.2491   -1.6967    5.3550 C   0  0  2  0  0  0  0  0  0  0  0  0
   19.7421   -0.5880    4.5944 O   0  0  0  0  0  0  0  0  0  0  0  0
   12.7337   -2.5114    7.2012 C   0  0  2  0  0  0  0  0  0  0  0  0
   12.3243   -1.1504    7.5189 O   0  0  0  0  0  0  0  0  0  0  0  0
   10.9489   -0.0640   10.6589 C   0  0  2  0  0  0  0  0  0  0  0  0
   11.7402    0.7836    9.7804 O   0  0  0  0  0  0  0  0  0  0  0  0
   14.6372    1.9600   12.3579 C   0  0  0  0  0  0  0  0  0  0  0  0
   13.3110    2.4823   12.1904 O   0  0  0  0  0  0  0  0  0  0  0  0
   16.9032   -2.6609   10.2527 C   0  0  1  0  0  0  0  0  0  0  0  0
   16.0242   -1.5312   10.0638 O   0  0  0  0  0  0  0  0  0  0  0  0
   19.5429   -3.0200    5.0818 C   0  0  2  0  0  0  0  0  0  0  0  0
   19.4885   -4.0559    6.0745 O   0  0  0  0  0  0  0  0  0  0  0  0
   14.2196   -2.4752    7.0866 C   0  0  0  0  0  0  0  0  0  0  0  0
   14.5439   -1.5190    6.1064 O   0  0  0  0  0  0  0  0  0  0  0  0
   11.3500    0.0856   12.1653 C   0  0  1  0  0  0  0  0  0  0  0  0
   11.0266    1.4445   12.5630 O   0  0  0  0  0  0  0  0  0  0  0  0
   16.0377   -3.9404   10.4690 C   0  0  0  0  0  0  0  0  0  0  0  0
   14.6380   -3.6456   10.8412 N   0  0  0  0  0  0  0  0  0  0  0  0
   19.4858   -3.6636    3.6982 C   0  0  0  0  0  0  0  0  0  0  0  0
   18.3703   -4.5906    3.6284 O   0  0  0  0  0  0  0  0  0  0  0  0
  1  2  1  1  0  0  0
  1  8  1  0  0  0  0
  1 36  1  0  0  0  0
  3  4  1  1  0  0  0
  3 10  1  0  0  0  0
  3 47  1  0  0  0  0
  5 11  1  0  0  0  0
  5 30  1  0  0  0  0
  5 38  1  1  0  0  0
  6 21  1  6  0  0  0
  6 42  1  0  0  0  0
  7 15  1  0  0  0  0
  7 44  1  0  0  0  0
  7 32  1  6  0  0  0
  8  9  1  1  0  0  0
  8 17  1  0  0  0  0
 11 12  1  6  0  0  0
 11 20  1  0  0  0  0
 13  6  1  0  0  0  0
 13 14  1  6  0  0  0
 15 16  1  6  0  0  0
 15 24  1  0  0  0  0
 17 26  1  0  0  0  0
 18 10  1  0  0  0  0
 18 19  1  6  0  0  0
 20 21  1  6  0  0  0
 20 29  1  0  0  0  0
 22 13  1  0  0  0  0
 22 23  1  1  0  0  0
 24 25  1  1  0  0  0
 24 33  1  0  0  0  0
 26 27  1  1  0  0  0
 26 35  1  0  0  0  0
 28  2  1  6  0  0  0
 28 18  1  0  0  0  0
 29 30  1  0  0  0  0
 29 39  1  1  0  0  0
 31 22  1  0  0  0  0
 31 32  1  6  0  0  0
 31 41  1  0  0  0  0
 33 34  1  6  0  0  0
 33 43  1  0  0  0  0
 35 36  1  0  0  0  0
 35 45  1  6  0  0  0
 37 28  1  0  0  0  0
 37 38  1  6  0  0  0
 39 40  1  0  0  0  0
 41 42  1  0  0  0  0
 41 49  1  6  0  0  0
 43 44  1  0  0  0  0
 43 51  1  6  0  0  0
 45 46  1  0  0  0  0
 47 37  1  0  0  0  0
 47 48  1  1  0  0  0
 49 50  1  0  0  0  0
 51 52  1  0  0  0  0
M  END
>  <CHROM.1>
-178.34646409,-158.42925618,-142.44558659,-54.57096959,-139.97977474,176.73600657
74.48977711,74.71396537,60.27964995,-59.77830662,-175.68553126,-158.37580368
14.98504953,-1.34659477,8.76639490,2.67262366,0.04527752,1.06206556

>  <Name>
2esj_lig

>  <RI>
0

>  <Rbt.Current_Directory>
/home/itssahil/PROJECTS/Mol_Feturizer/New_Systems/rnas/2esj

>  <Rbt.Executable>
rbdock ($Id: //depot/dev/client3/rdock/2013.1/src/exe/rbdock.cxx#4 $)

>  <Rbt.Library>
libRbt.so (2013.1, Build901 2013/11/27)

>  <Rbt.Parameter_File>
/export/apps/rDock/src/rDock_2013.1_src/data/scripts/dock_solv.prm

>  <Rbt.Receptor>
prm/blind_docking_40.prm

>  <SCORE>
10.371

>  <SCORE.INTER>
-7.54595

>  <SCORE.INTER.CONST>
1

>  <SCORE.INTER.POLAR>
-0.921638

>  <SCORE.INTER.ROT>
12

>  <SCORE.INTER.SOLV>
27.817

>  <SCORE.INTER.VDW>
-22.8308

>  <SCORE.INTER.norm>
-0.145114

>  <SCORE.INTRA>
6.9383

>  <SCORE.INTRA.DIHEDRAL>
-13.3088

>  <SCORE.INTRA.DIHEDRAL.0>
32.9766

>  <SCORE.INTRA.POLAR>
0

>  <SCORE.INTRA.POLAR.0>
0

>  <SCORE.INTRA.REPUL>
0

>  <SCORE.INTRA.REPUL.0>
0

>  <SCORE.INTRA.SOLV>
4.3921

>  <SCORE.INTRA.SOLV.lig_0>
-114.358

>  <SCORE.INTRA.VDW>
11.3967

>  <SCORE.INTRA.VDW.0>
-8.24257

>  <SCORE.INTRA.norm>
0.133429

>  <SCORE.RESTR>
10.9787

>  <SCORE.RESTR.CAVITY>
10.9787

>  <SCORE.RESTR.norm>
0.211128

>  <SCORE.SYSTEM>
0

>  <SCORE.SYSTEM.CONST>
0

>  <SCORE.SYSTEM.DIHEDRAL>
0

>  <SCORE.SYSTEM.SOLV>
0

>  <SCORE.SYSTEM.norm>
0

>  <SCORE.heavy>
52

>  <SCORE.norm>
0.199443

>  <RMSD>
12.293

$$$$
2esj_lig
 OpenBabel11021811423D
libRbt.so/2013.1/901 2013/11/27
 52 56  0  0  0  0  0  0  0  0999 V2000
   10.6441   -1.0983    7.9597 C   0  0  2  0  0  0  0  0  0  0  0  0
   10.3804   -2.0786    8.9816 O   0  0  0  0  0  0  0  0  0  0  0  0
    9.3807   -1.2314   13.0523 C   0  0  2  0  0  0  0  0  0  0  0  0
    9.4112   -1.0106   14.5076 N   0  0  0  0  0  0  0  0  0  0  0  0
   12.3885    0.7344   10.4214 C   0  0  1  0  0  0  0  0  0  0  0  0
   16.0801    0.7928   11.7733 C   0  0  1  0  0  0  0  0  0  0  0  0
   17.7949   -1.3418    7.7883 C   0  0  1  0  0  0  0  0  0  0  0  0
   10.1882   -1.7047    6.5998 C   0  0  2  0  0  0  0  0  0  0  0  0
    8.7831   -2.1101    6.6179 N   0  0  0  0  0  0  0  0  0  0  0  0
    9.9301   -2.6717   12.7039 C   0  0  0  0  0  0  0  0  0  0  0  0
   12.5052    1.6433   11.6457 C   0  0  2  0  0  0  0  0  0  0  0  0
   12.6084    3.0385   11.2878 O   0  0  0  0  0  0  0  0  0  0  0  0
   17.1739    1.6281   10.9689 C   0  0  2  0  0  0  0  0  0  0  0  0
   16.6969    1.9530    9.5985 N   0  0  0  0  0  0  0  0  0  0  0  0
   19.1266   -2.0810    7.8490 C   0  0  1  0  0  0  0  0  0  0  0  0
   18.9056   -3.4785    7.5722 O   0  0  0  0  0  0  0  0  0  0  0  0
   11.0854   -2.9199    6.2028 C   0  0  0  0  0  0  0  0  0  0  0  0
    9.8343   -2.9125   11.1437 C   0  0  2  0  0  0  0  0  0  0  0  0
   10.3513   -4.2391   10.7917 N   0  0  0  0  0  0  0  0  0  0  0  0
   13.7389    1.0791   12.2891 C   0  0  2  0  0  0  0  0  0  0  0  0
   14.8897    1.5049   11.6045 O   0  0  0  0  0  0  0  0  0  0  0  0
   18.5642    0.8547   11.0316 C   0  0  1  0  0  0  0  0  0  0  0  0
   18.8645    0.5529   12.3982 O   0  0  0  0  0  0  0  0  0  0  0  0
   20.1965   -1.5748    6.8892 C   0  0  1  0  0  0  0  0  0  0  0  0
   21.2713   -2.5204    6.9162 O   0  0  0  0  0  0  0  0  0  0  0  0
   12.5762   -2.4692    6.2135 C   0  0  2  0  0  0  0  0  0  0  0  0
   13.4427   -3.5051    5.7865 O   0  0  0  0  0  0  0  0  0  0  0  0
   10.6100   -1.8097   10.3774 C   0  0  2  0  0  0  0  0  0  0  0  0
   13.6922   -0.4411   12.0317 C   0  0  2  0  0  0  0  0  0  0  0  0
   12.9944   -0.5099   10.7983 O   0  0  0  0  0  0  0  0  0  0  0  0
   18.4830   -0.5421   10.2889 C   0  0  2  0  0  0  0  0  0  0  0  0
   18.2171   -0.2018    8.9274 O   0  0  0  0  0  0  0  0  0  0  0  0
   19.7048   -1.4073    5.4504 C   0  0  2  0  0  0  0  0  0  0  0  0
   20.7038   -0.6441    4.7546 O   0  0  0  0  0  0  0  0  0  0  0  0
   12.9286   -1.9830    7.6413 C   0  0  2  0  0  0  0  0  0  0  0  0
   12.0686   -0.8452    7.9354 O   0  0  0  0  0  0  0  0  0  0  0  0
   10.1986   -0.3528   10.7636 C   0  0  2  0  0  0  0  0  0  0  0  0
   11.0363    0.5955   10.0455 O   0  0  0  0  0  0  0  0  0  0  0  0
   12.9612   -1.2863   13.0742 C   0  0  0  0  0  0  0  0  0  0  0  0
   13.2682   -2.6626   12.8075 O   0  0  0  0  0  0  0  0  0  0  0  0
   17.2174   -1.2045   10.7983 C   0  0  1  0  0  0  0  0  0  0  0  0
   15.9684   -0.6164   11.2211 O   0  0  0  0  0  0  0  0  0  0  0  0
   18.3069   -0.8004    5.4042 C   0  0  2  0  0  0  0  0  0  0  0  0
   17.3471   -1.0570    6.4409 O   0  0  0  0  0  0  0  0  0  0  0  0
   14.3270   -1.4799    7.7589 C   0  0  0  0  0  0  0  0  0  0  0  0
   15.1841   -2.5136    7.3381 O   0  0  0  0  0  0  0  0  0  0  0  0
   10.2517   -0.1516   12.3156 C   0  0  1  0  0  0  0  0  0  0  0  0
    9.6742    1.1503   12.6001 O   0  0  0  0  0  0  0  0  0  0  0  0
   16.9454   -2.6570   10.2993 C   0  0  0  0  0  0  0  0  0  0  0  0
   15.5074   -2.9730   10.1695 N   0  0  0  0  0  0  0  0  0  0  0  0
   17.5594   -0.5286    4.1007 C   0  0  0  0  0  0  0  0  0  0  0  0
   16.5169    0.4574    4.3235 O   0  0  0  0  0  0  0  0  0  0  0  0
  1  2  1  1  0  0  0
  1  8  1  0  0  0  0
  1 36  1  0  0  0  0
  3  4  1  1  0  0  0
  3 10  1  0  0  0  0
  3 47  1  0  0  0  0
  5 11  1  0  0  0  0
  5 30  1  0  0  0  0
  5 38  1  1  0  0  0
  6 21  1  6  0  0  0
  6 42  1  0  0  0  0
  7 15  1  0  0  0  0
  7 44  1  0  0  0  0
  7 32  1  1  0  0  0
  8  9  1  1  0  0  0
  8 17  1  0  0  0  0
 11 12  1  6  0  0  0
 11 20  1  0  0  0  0
 13  6  1  0  0  0  0
 13 14  1  6  0  0  0
 15 16  1  6  0  0  0
 15 24  1  0  0  0  0
 17 26  1  0  0  0  0
 18 10  1  0  0  0  0
 18 19  1  1  0  0  0
 20 21  1  6  0  0  0
 20 29  1  0  0  0  0
 22 13  1  0  0  0  0
 22 23  1  1  0  0  0
 24 25  1  6  0  0  0
 24 33  1  0  0  0  0
 26 27  1  1  0  0  0
 26 35  1  0  0  0  0
 28  2  1  6  0  0  0
 28 18  1  0  0  0  0
 29 30  1  0  0  0  0
 29 39  1  1  0  0  0
 31 22  1  0  0  0  0
 31 32  1  6  0  0  0
 31 41  1  0  0  0  0
 33 34  1  6  0  0  0
 33 43  1  0  0  0  0
 35 36  1  0  0  0  0
 35 45  1  6  0  0  0
 37 28  1  0  0  0  0
 37 38  1  6  0  0  0
 39 40  1  0  0  0  0
 41 42  1  0  0  0  0
 41 49  1  6  0  0  0
 43 44  1  0  0  0  0
 43 51  1  6  0  0  0
 45 46  1  0  0  0  0
 47 37  1  0  0  0  0
 47 48  1  6  0  0  0
 49 50  1  0  0  0  0
 51 52  1  0  0  0  0
M  END
>  <CHROM.1>
-176.17908878,-80.81117599,-174.99891127,-64.61109173,-160.74062642,163.90440085
-168.14472327,-169.64682334,-56.44170115,-71.85906341,-148.28145497,-159.45832653
14.43145371,-0.95168458,9.36372356,2.70216594,0.16127949,1.20723690

>  <Name>
2esj_lig

>  <RI>
0

>  <Rbt.Current_Directory>
/home/itssahil/PROJECTS/Mol_Feturizer/New_Systems/rnas/2esj

>  <Rbt.Executable>
rbdock ($Id: //depot/dev/client3/rdock/2013.1/src/exe/rbdock.cxx#4 $)

>  <Rbt.Library>
libRbt.so (2013.1, Build901 2013/11/27)

>  <Rbt.Parameter_File>
/export/apps/rDock/src/rDock_2013.1_src/data/scripts/dock_solv.prm

>  <Rbt.Receptor>
prm/blind_docking_40.prm

>  <SCORE>
-1.809

>  <SCORE.INTER>
-9.87869

>  <SCORE.INTER.CONST>
1

>  <SCORE.INTER.POLAR>
-0.671172

>  <SCORE.INTER.ROT>
12

>  <SCORE.INTER.SOLV>
28.7662

>  <SCORE.INTER.VDW>
-25.5373

>  <SCORE.INTER.norm>
-0.189975

>  <SCORE.INTRA>
-0.562498

>  <SCORE.INTRA.DIHEDRAL>
-20.7074

>  <SCORE.INTRA.DIHEDRAL.0>
32.9766

>  <SCORE.INTRA.POLAR>
0

>  <SCORE.INTRA.POLAR.0>
0

>  <SCORE.INTRA.REPUL>
0.0143461

>  <SCORE.INTRA.REPUL.0>
0

>  <SCORE.INTRA.SOLV>
4.93511

>  <SCORE.INTRA.SOLV.lig_0>
-114.358

>  <SCORE.INTRA.VDW>
7.25191

>  <SCORE.INTRA.VDW.0>
-8.24257

>  <SCORE.INTRA.norm>
-0.0108173

>  <SCORE.RESTR>
8.63219

>  <SCORE.RESTR.CAVITY>
8.63219

>  <SCORE.RESTR.norm>
0.166004

>  <SCORE.SYSTEM>
0

>  <SCORE.SYSTEM.CONST>
0

>  <SCORE.SYSTEM.DIHEDRAL>
0

>  <SCORE.SYSTEM.SOLV>
0

>  <SCORE.SYSTEM.norm>
0

>  <SCORE.heavy>
52

>  <SCORE.norm>
-0.0347884

>  <RMSD>
12.394

$$$$
2esj_lig
 OpenBabel11021811423D
libRbt.so/2013.1/901 2013/11/27
 52 56  0  0  0  0  0  0  0  0999 V2000
   10.5555   -2.7244    8.4896 C   0  0  2  0  0  0  0  0  0  0  0  0
   10.2261   -1.5736    9.2907 O   0  0  0  0  0  0  0  0  0  0  0  0
    9.1125   -1.6567   13.4188 C   0  0  2  0  0  0  0  0  0  0  0  0
    9.1094   -1.7205   14.8896 N   0  0  0  0  0  0  0  0  0  0  0  0
   11.8949    1.0839   11.2402 C   0  0  1  0  0  0  0  0  0  0  0  0
   15.7063    1.2637   12.7783 C   0  0  1  0  0  0  0  0  0  0  0  0
   17.5920   -0.2376    8.9483 C   0  0  1  0  0  0  0  0  0  0  0  0
   11.9490   -2.4636    7.8452 C   0  0  2  0  0  0  0  0  0  0  0  0
   12.9777   -2.1827    8.8463 N   0  0  0  0  0  0  0  0  0  0  0  0
    9.8344   -2.9266   12.8158 C   0  0  0  0  0  0  0  0  0  0  0  0
   12.0035    1.2548   12.7560 C   0  0  2  0  0  0  0  0  0  0  0  0
   11.8510    2.6306   13.1673 O   0  0  0  0  0  0  0  0  0  0  0  0
   16.3832    1.5775   11.3695 C   0  0  2  0  0  0  0  0  0  0  0  0
   15.5999    0.9809   10.2553 N   0  0  0  0  0  0  0  0  0  0  0  0
   16.4559   -1.0380    8.3221 C   0  0  1  0  0  0  0  0  0  0  0  0
   15.7947   -0.2261    7.3310 O   0  0  0  0  0  0  0  0  0  0  0  0
   11.8765   -1.2909    6.8163 C   0  0  0  0  0  0  0  0  0  0  0  0
    9.7757   -2.8698   11.2363 C   0  0  2  0  0  0  0  0  0  0  0  0
   10.4517   -4.0321   10.6507 N   0  0  0  0  0  0  0  0  0  0  0  0
   13.3721    0.6870   12.9983 C   0  0  2  0  0  0  0  0  0  0  0  0
   14.3619    1.6076   12.6145 O   0  0  0  0  0  0  0  0  0  0  0  0
   17.9142    1.1434   11.4234 C   0  0  1  0  0  0  0  0  0  0  0  0
   18.5232    1.7374   12.5745 O   0  0  0  0  0  0  0  0  0  0  0  0
   16.8695   -2.3462    7.6589 C   0  0  1  0  0  0  0  0  0  0  0  0
   15.7342   -2.8306    6.9333 O   0  0  0  0  0  0  0  0  0  0  0  0
   10.7598   -1.6025    5.7763 C   0  0  2  0  0  0  0  0  0  0  0  0
   10.6910   -0.6132    4.7650 O   0  0  0  0  0  0  0  0  0  0  0  0
   10.4150   -1.5554   10.7180 C   0  0  2  0  0  0  0  0  0  0  0  0
   13.5321   -0.4734   11.9945 C   0  0  2  0  0  0  0  0  0  0  0  0
   12.7225   -0.0409   10.9126 O   0  0  0  0  0  0  0  0  0  0  0  0
   18.0652   -0.4218   11.6144 C   0  0  2  0  0  0  0  0  0  0  0  0
   17.4797   -0.9782   10.4363 O   0  0  0  0  0  0  0  0  0  0  0  0
   18.0579   -2.2055    6.7060 C   0  0  2  0  0  0  0  0  0  0  0  0
   18.5180   -3.5352    6.4145 O   0  0  0  0  0  0  0  0  0  0  0  0
    9.4146   -1.7404    6.5316 C   0  0  2  0  0  0  0  0  0  0  0  0
    9.5504   -2.8567    7.4570 O   0  0  0  0  0  0  0  0  0  0  0  0
    9.8278   -0.2602   11.3651 C   0  0  2  0  0  0  0  0  0  0  0  0
   10.5472    0.9017   10.8663 O   0  0  0  0  0  0  0  0  0  0  0  0
   13.0583   -1.8489   12.4626 C   0  0  0  0  0  0  0  0  0  0  0  0
   13.4093   -2.7968   11.4439 O   0  0  0  0  0  0  0  0  0  0  0  0
   17.1273   -0.7889   12.7483 C   0  0  1  0  0  0  0  0  0  0  0  0
   15.8659   -0.2027   13.1352 O   0  0  0  0  0  0  0  0  0  0  0  0
   19.1280   -1.2830    7.2789 C   0  0  2  0  0  0  0  0  0  0  0  0
   18.7838   -0.1773    8.1279 O   0  0  0  0  0  0  0  0  0  0  0  0
    8.2744   -2.0879    5.6362 C   0  0  0  0  0  0  0  0  0  0  0  0
    7.1214   -2.1798    6.4377 O   0  0  0  0  0  0  0  0  0  0  0  0
    9.8491   -0.3591   12.9278 C   0  0  1  0  0  0  0  0  0  0  0  0
    9.1162    0.7851   13.4407 O   0  0  0  0  0  0  0  0  0  0  0  0
   17.1555   -2.2760   13.2181 C   0  0  0  0  0  0  0  0  0  0  0  0
   16.5583   -2.4803   14.5546 N   0  0  0  0  0  0  0  0  0  0  0  0
   20.4226   -0.9498    6.5409 C   0  0  0  0  0  0  0  0  0  0  0  0
   21.0579   -2.1708    6.0781 O   0  0  0  0  0  0  0  0  0  0  0  0
  1  2  1  1  0  0  0
  1  8  1  0  0  0  0
  1 36  1  0  0  0  0
  3  4  1  1  0  0  0
  3 10  1  0  0  0  0
  3 47  1  0  0  0  0
  5 11  1  0  0  0  0
  5 30  1  0  0  0  0
  5 38  1  1  0  0  0
  6 21  1  6  0  0  0
  6 42  1  0  0  0  0
  7 15  1  0  0  0  0
  7 44  1  0  0  0  0
  7 32  1  1  0  0  0
  8  9  1  1  0  0  0
  8 17  1  0  0  0  0
 11 12  1  6  0  0  0
 11 20  1  0  0  0  0
 13  6  1  0  0  0  0
 13 14  1  6  0  0  0
 15 16  1  6  0  0  0
 15 24  1  0  0  0  0
 17 26  1  0  0  0  0
 18 10  1  0  0  0  0
 18 19  1  6  0  0  0
 20 21  1  6  0  0  0
 20 29  1  0  0  0  0
 22 13  1  0  0  0  0
 22 23  1  1  0  0  0
 24 25  1  6  0  0  0
 24 33  1  0  0  0  0
 26 27  1  6  0  0  0
 26 35  1  0  0  0  0
 28  2  1  6  0  0  0
 28 18  1  0  0  0  0
 29 30  1  0  0  0  0
 29 39  1  1  0  0  0
 31 22  1  0  0  0  0
 31 32  1  6  0  0  0
 31 41  1  0  0  0  0
 33 34  1  1  0  0  0
 33 43  1  0  0  0  0
 35 36  1  0  0  0  0
 35 45  1  6  0  0  0
 37 28  1  0  0  0  0
 37 38  1  1  0  0  0
 39 40  1  0  0  0  0
 41 42  1  0  0  0  0
 41 49  1  6  0  0  0
 43 44  1  0  0  0  0
 43 51  1  6  0  0  0
 45 46  1  0  0  0  0
 47 37  1  0  0  0  0
 47 48  1  1  0  0  0
 49 50  1  0  0  0  0
 51 52  1  0  0  0  0
M  END
>  <CHROM.1>
-99.31133411,-62.20701609,130.14836666,-162.92389658,179.32847767,-48.71741624
-174.61812845,34.72056109,-179.86643387,-68.34265431,162.22821567,-49.86877095
13.71250514,-0.96223370,10.04913549,3.01857869,0.08904819,1.26518738

>  <Name>
2esj_lig

>  <RI>
0

>  <Rbt.Current_Directory>
/home/itssahil/PROJECTS/Mol_Feturizer/New_Systems/rnas/2esj

>  <Rbt.Executable>
rbdock ($Id: //depot/dev/client3/rdock/2013.1/src/exe/rbdock.cxx#4 $)

>  <Rbt.Library>
libRbt.so (2013.1, Build901 2013/11/27)

>  <Rbt.Parameter_File>
/export/apps/rDock/src/rDock_2013.1_src/data/scripts/dock_solv.prm

>  <Rbt.Receptor>
prm/blind_docking_40.prm

>  <SCORE>
39.1784

>  <SCORE.INTER>
17.5657

>  <SCORE.INTER.CONST>
1

>  <SCORE.INTER.POLAR>
0

>  <SCORE.INTER.ROT>
12

>  <SCORE.INTER.SOLV>
31.4211

>  <SCORE.INTER.VDW>
-10.3633

>  <SCORE.INTER.norm>
0.337801

>  <SCORE.INTRA>
8.7469

>  <SCORE.INTRA.DIHEDRAL>
-10.6951

>  <SCORE.INTRA.DIHEDRAL.0>
32.9766

>  <SCORE.INTRA.POLAR>
0

>  <SCORE.INTRA.POLAR.0>
0

>  <SCORE.INTRA.REPUL>
0.242

>  <SCORE.INTRA.REPUL.0>
0

>  <SCORE.INTRA.SOLV>
11.0747

>  <SCORE.INTRA.SOLV.lig_0>
-114.358

>  <SCORE.INTRA.VDW>
7.34713

>  <SCORE.INTRA.VDW.0>
-8.24257

>  <SCORE.INTRA.norm>
0.16821

>  <SCORE.RESTR>
12.8659

>  <SCORE.RESTR.CAVITY>
12.8659

>  <SCORE.RESTR.norm>
0.247421

>  <SCORE.SYSTEM>
0

>  <SCORE.SYSTEM.CONST>
0

>  <SCORE.SYSTEM.DIHEDRAL>
0

>  <SCORE.SYSTEM.SOLV>
0

>  <SCORE.SYSTEM.norm>
0

>  <SCORE.heavy>
52

>  <SCORE.norm>
0.753431

>  <RMSD>
12.398

$$$$
2esj_lig
 OpenBabel11021811423D
libRbt.so/2013.1/901 2013/11/27
 52 56  0  0  0  0  0  0  0  0999 V2000
   12.4851   -1.8515   12.4198 C   0  0  2  0  0  0  0  0  0  0  0  0
   12.2796   -1.2457   11.1292 O   0  0  0  0  0  0  0  0  0  0  0  0
   11.0621    2.7178   12.1761 C   0  0  2  0  0  0  0  0  0  0  0  0
   10.8497    4.1738   12.2249 N   0  0  0  0  0  0  0  0  0  0  0  0
   10.8943   -0.7667    8.7782 C   0  0  1  0  0  0  0  0  0  0  0  0
   13.0346   -2.1106    8.0833 C   0  0  1  0  0  0  0  0  0  0  0  0
   18.1920   -2.8460    7.9356 C   0  0  1  0  0  0  0  0  0  0  0  0
   11.9238   -3.3025   12.3512 C   0  0  2  0  0  0  0  0  0  0  0  0
   12.5379   -4.0832   11.2776 N   0  0  0  0  0  0  0  0  0  0  0  0
   12.6076    2.3880   12.1774 C   0  0  0  0  0  0  0  0  0  0  0  0
   10.2758   -2.1246    8.4437 C   0  0  2  0  0  0  0  0  0  0  0  0
   10.6159   -3.1386    9.4141 O   0  0  0  0  0  0  0  0  0  0  0  0
   13.9800   -1.1947    7.1841 C   0  0  2  0  0  0  0  0  0  0  0  0
   14.5709   -1.9741    6.0641 N   0  0  0  0  0  0  0  0  0  0  0  0
   18.8714   -1.6172    8.5289 C   0  0  1  0  0  0  0  0  0  0  0  0
   19.8873   -2.0409    9.4599 O   0  0  0  0  0  0  0  0  0  0  0  0
   10.3717   -3.2919   12.1779 C   0  0  0  0  0  0  0  0  0  0  0  0
   12.8152    0.8201   12.1846 C   0  0  2  0  0  0  0  0  0  0  0  0
   14.2433    0.4866   12.1721 N   0  0  0  0  0  0  0  0  0  0  0  0
   10.8536   -2.3599    7.0780 C   0  0  2  0  0  0  0  0  0  0  0  0
   12.1966   -2.7619    7.1744 O   0  0  0  0  0  0  0  0  0  0  0  0
   15.0356   -0.4616    8.1240 C   0  0  1  0  0  0  0  0  0  0  0  0
   14.3337    0.1903    9.1875 O   0  0  0  0  0  0  0  0  0  0  0  0
   19.5212   -0.6805    7.5176 C   0  0  1  0  0  0  0  0  0  0  0  0
   20.2985    0.2676    8.2572 O   0  0  0  0  0  0  0  0  0  0  0  0
    9.7440   -2.4363   13.3179 C   0  0  2  0  0  0  0  0  0  0  0  0
    8.3286   -2.4472   13.2663 O   0  0  0  0  0  0  0  0  0  0  0  0
   12.0990    0.1739   10.9703 C   0  0  2  0  0  0  0  0  0  0  0  0
   10.9262   -0.9736    6.4053 C   0  0  2  0  0  0  0  0  0  0  0  0
   11.1124   -0.1148    7.5193 O   0  0  0  0  0  0  0  0  0  0  0  0
   16.0082   -1.4996    8.8212 C   0  0  2  0  0  0  0  0  0  0  0  0
   16.7136   -2.1043    7.7363 O   0  0  0  0  0  0  0  0  0  0  0  0
   20.4198   -1.3934    6.5056 C   0  0  2  0  0  0  0  0  0  0  0  0
   20.6963   -0.4507    5.4570 O   0  0  0  0  0  0  0  0  0  0  0  0
   10.3074   -0.9972   13.2144 C   0  0  2  0  0  0  0  0  0  0  0  0
   11.7493   -1.0827   13.4004 O   0  0  0  0  0  0  0  0  0  0  0  0
   10.5898    0.5565   10.8401 C   0  0  2  0  0  0  0  0  0  0  0  0
   10.0395   -0.0397    9.6326 O   0  0  0  0  0  0  0  0  0  0  0  0
    9.6892   -0.5295    5.6254 C   0  0  0  0  0  0  0  0  0  0  0  0
    9.4875   -1.4715    4.5617 O   0  0  0  0  0  0  0  0  0  0  0  0
   15.1128   -2.5875    9.3822 C   0  0  1  0  0  0  0  0  0  0  0  0
   13.8556   -3.0996    8.8902 O   0  0  0  0  0  0  0  0  0  0  0  0
   19.7961   -2.6995    6.0264 C   0  0  2  0  0  0  0  0  0  0  0  0
   18.9585   -3.4866    6.8871 O   0  0  0  0  0  0  0  0  0  0  0  0
    9.8089   -0.0955   14.2918 C   0  0  0  0  0  0  0  0  0  0  0  0
    8.9541   -0.8528   15.1139 O   0  0  0  0  0  0  0  0  0  0  0  0
   10.4029    2.1105   10.8862 C   0  0  1  0  0  0  0  0  0  0  0  0
    8.9755    2.3697   10.9562 O   0  0  0  0  0  0  0  0  0  0  0  0
   15.8145   -3.6996   10.2211 C   0  0  0  0  0  0  0  0  0  0  0  0
   15.1365   -5.0105   10.1411 N   0  0  0  0  0  0  0  0  0  0  0  0
   20.4745   -3.6270    5.0209 C   0  0  0  0  0  0  0  0  0  0  0  0
   19.4964   -4.1309    4.0731 O   0  0  0  0  0  0  0  0  0  0  0  0
  1  2  1  6  0  0  0
  1  8  1  0  0  0  0
  1 36  1  0  0  0  0
  3  4  1  6  0  0  0
  3 10  1  0  0  0  0
  3 47  1  0  0  0  0
  5 11  1  0  0  0  0
  5 30  1  0  0  0  0
  5 38  1  1  0  0  0
  6 21  1  6  0  0  0
  6 42  1  0  0  0  0
  7 15  1  0  0  0  0
  7 44  1  0  0  0  0
  7 32  1  6  0  0  0
  8  9  1  6  0  0  0
  8 17  1  0  0  0  0
 11 12  1  1  0  0  0
 11 20  1  0  0  0  0
 13  6  1  0  0  0  0
 13 14  1  6  0  0  0
 15 16  1  1  0  0  0
 15 24  1  0  0  0  0
 17 26  1  0  0  0  0
 18 10  1  0  0  0  0
 18 19  1  6  0  0  0
 20 21  1  1  0  0  0
 20 29  1  0  0  0  0
 22 13  1  0  0  0  0
 22 23  1  1  0  0  0
 24 25  1  1  0  0  0
 24 33  1  0  0  0  0
 26 27  1  6  0  0  0
 26 35  1  0  0  0  0
 28  2  1  1  0  0  0
 28 18  1  0  0  0  0
 29 30  1  0  0  0  0
 29 39  1  1  0  0  0
 31 22  1  0  0  0  0
 31 32  1  6  0  0  0
 31 41  1  0  0  0  0
 33 34  1  6  0  0  0
 33 43  1  0  0  0  0
 35 36  1  0  0  0  0
 35 45  1  1  0  0  0
 37 28  1  0  0  0  0
 37 38  1  6  0  0  0
 39 40  1  0  0  0  0
 41 42  1  0  0  0  0
 41 49  1  6  0  0  0
 43 44  1  0  0  0  0
 43 51  1  1  0  0  0
 45 46  1  0  0  0  0
 47 37  1  0  0  0  0
 47 48  1  1  0  0  0
 49 50  1  0  0  0  0
 51 52  1  0  0  0  0
M  END
>  <CHROM.1>
151.30925171,130.32087683,-106.45425599,-56.74140335,-42.55933150,26.00028747
-61.48694652,157.71738660,0.46124017,-2.97046843,-149.80200491,-138.68903071
13.62971856,-1.28972763,9.41535250,-2.59155959,0.04884601,-1.84674340

>  <Name>
2esj_lig

>  <RI>
0

>  <Rbt.Current_Directory>
/home/itssahil/PROJECTS/Mol_Feturizer/New_Systems/rnas/2esj

>  <Rbt.Executable>
rbdock ($Id: //depot/dev/client3/rdock/2013.1/src/exe/rbdock.cxx#4 $)

>  <Rbt.Library>
libRbt.so (2013.1, Build901 2013/11/27)

>  <Rbt.Parameter_File>
/export/apps/rDock/src/rDock_2013.1_src/data/scripts/dock_solv.prm

>  <Rbt.Receptor>
prm/blind_docking_40.prm

>  <SCORE>
30.3563

>  <SCORE.INTER>
-2.67028

>  <SCORE.INTER.CONST>
1

>  <SCORE.INTER.POLAR>
-0.667861

>  <SCORE.INTER.ROT>
12

>  <SCORE.INTER.SOLV>
32.0064

>  <SCORE.INTER.VDW>
-21.8228

>  <SCORE.INTER.norm>
-0.0513516

>  <SCORE.INTRA>
22.9272

>  <SCORE.INTRA.DIHEDRAL>
9.71648

>  <SCORE.INTRA.DIHEDRAL.0>
32.9766

>  <SCORE.INTRA.POLAR>
0

>  <SCORE.INTRA.POLAR.0>
0

>  <SCORE.INTRA.REPUL>
0.0642699

>  <SCORE.INTRA.REPUL.0>
0

>  <SCORE.INTRA.SOLV>
7.79156

>  <SCORE.INTRA.SOLV.lig_0>
-114.358

>  <SCORE.INTRA.VDW>
13.8519

>  <SCORE.INTRA.VDW.0>
-8.24257

>  <SCORE.INTRA.norm>
0.440908

>  <SCORE.RESTR>
10.0993

>  <SCORE.RESTR.CAVITY>
10.0993

>  <SCORE.RESTR.norm>
0.194218

>  <SCORE.SYSTEM>
0

>  <SCORE.SYSTEM.CONST>
0

>  <SCORE.SYSTEM.DIHEDRAL>
0

>  <SCORE.SYSTEM.SOLV>
0

>  <SCORE.SYSTEM.norm>
0

>  <SCORE.heavy>
52

>  <SCORE.norm>
0.583775

>  <RMSD>
12.429

$$$$
2esj_lig
 OpenBabel11021811423D
libRbt.so/2013.1/901 2013/11/27
 52 56  0  0  0  0  0  0  0  0999 V2000
   11.0244   -0.9381    8.0196 C   0  0  2  0  0  0  0  0  0  0  0  0
   10.4889   -1.8431    9.0040 O   0  0  0  0  0  0  0  0  0  0  0  0
    9.4901   -1.3769   13.1359 C   0  0  2  0  0  0  0  0  0  0  0  0
    9.5257   -1.2639   14.6033 N   0  0  0  0  0  0  0  0  0  0  0  0
   12.3722    0.6777   10.1944 C   0  0  1  0  0  0  0  0  0  0  0  0
   14.9541   -0.0313    9.4285 C   0  0  1  0  0  0  0  0  0  0  0  0
   18.8410   -3.0737    7.5665 C   0  0  1  0  0  0  0  0  0  0  0  0
    9.9188   -0.7032    6.9484 C   0  0  2  0  0  0  0  0  0  0  0  0
    8.6776   -0.1992    7.5356 N   0  0  0  0  0  0  0  0  0  0  0  0
   10.1358   -2.7436   12.6748 C   0  0  0  0  0  0  0  0  0  0  0  0
   13.0211    2.0102   10.5712 C   0  0  2  0  0  0  0  0  0  0  0  0
   13.1754    2.8881    9.4350 O   0  0  0  0  0  0  0  0  0  0  0  0
   15.9847   -1.0945   10.0192 C   0  0  2  0  0  0  0  0  0  0  0  0
   17.3628   -0.5375   10.0598 N   0  0  0  0  0  0  0  0  0  0  0  0
   19.9230   -2.2039    8.1960 C   0  0  1  0  0  0  0  0  0  0  0  0
   20.8844   -3.0494    8.8586 O   0  0  0  0  0  0  0  0  0  0  0  0
    9.6324   -2.0125    6.1467 C   0  0  0  0  0  0  0  0  0  0  0  0
   10.0350   -2.8736   11.1017 C   0  0  2  0  0  0  0  0  0  0  0  0
   10.6403   -4.1292   10.6459 N   0  0  0  0  0  0  0  0  0  0  0  0
   14.3162    1.5280   11.1580 C   0  0  2  0  0  0  0  0  0  0  0  0
   15.2055    1.1450   10.1398 O   0  0  0  0  0  0  0  0  0  0  0  0
   15.8348   -2.4611    9.2161 C   0  0  1  0  0  0  0  0  0  0  0  0
   14.4552   -2.8423    9.2051 O   0  0  0  0  0  0  0  0  0  0  0  0
   20.6783   -1.3017    7.2275 C   0  0  1  0  0  0  0  0  0  0  0  0
   21.7903   -0.7507    7.9418 O   0  0  0  0  0  0  0  0  0  0  0  0
   10.9713   -2.5412    5.5519 C   0  0  2  0  0  0  0  0  0  0  0  0
   10.7726   -3.6885    4.7455 O   0  0  0  0  0  0  0  0  0  0  0  0
   10.7188   -1.6634   10.4140 C   0  0  2  0  0  0  0  0  0  0  0  0
   13.9860    0.2065   11.8820 C   0  0  2  0  0  0  0  0  0  0  0  0
   12.9032   -0.2894   11.1109 O   0  0  0  0  0  0  0  0  0  0  0  0
   16.2467   -2.2871    7.6964 C   0  0  2  0  0  0  0  0  0  0  0  0
   17.6319   -1.9417    7.7446 O   0  0  0  0  0  0  0  0  0  0  0  0
   21.1861   -2.0254    5.9792 C   0  0  2  0  0  0  0  0  0  0  0  0
   21.5848   -1.0112    5.0427 O   0  0  0  0  0  0  0  0  0  0  0  0
   11.9451   -2.8279    6.7217 C   0  0  2  0  0  0  0  0  0  0  0  0
   12.1772   -1.5660    7.4107 O   0  0  0  0  0  0  0  0  0  0  0  0
   10.2101   -0.2730   10.9128 C   0  0  2  0  0  0  0  0  0  0  0  0
   10.9674    0.7843   10.2609 O   0  0  0  0  0  0  0  0  0  0  0  0
   13.5556    0.3200   13.3440 C   0  0  0  0  0  0  0  0  0  0  0  0
   12.5640    1.3545   13.4237 O   0  0  0  0  0  0  0  0  0  0  0  0
   15.5314   -1.0382    7.2181 C   0  0  1  0  0  0  0  0  0  0  0  0
   15.1760    0.1608    7.9396 O   0  0  0  0  0  0  0  0  0  0  0  0
   20.1493   -3.0045    5.4398 C   0  0  2  0  0  0  0  0  0  0  0  0
   19.2399   -3.6870    6.3167 O   0  0  0  0  0  0  0  0  0  0  0  0
   13.2846   -3.2970    6.2655 C   0  0  0  0  0  0  0  0  0  0  0  0
   13.0979   -4.5218    5.5982 O   0  0  0  0  0  0  0  0  0  0  0  0
   10.2710   -0.1849   12.4751 C   0  0  1  0  0  0  0  0  0  0  0  0
    9.6061    1.0469   12.8623 O   0  0  0  0  0  0  0  0  0  0  0  0
   15.6827   -0.6885    5.7056 C   0  0  0  0  0  0  0  0  0  0  0  0
   17.0574   -0.8740    5.1954 N   0  0  0  0  0  0  0  0  0  0  0  0
   20.3865   -3.8737    4.2069 C   0  0  0  0  0  0  0  0  0  0  0  0
   19.5041   -5.0266    4.2359 O   0  0  0  0  0  0  0  0  0  0  0  0
  1  2  1  1  0  0  0
  1  8  1  0  0  0  0
  1 36  1  0  0  0  0
  3  4  1  1  0  0  0
  3 10  1  0  0  0  0
  3 47  1  0  0  0  0
  5 11  1  0  0  0  0
  5 30  1  0  0  0  0
  5 38  1  1  0  0  0
  6 21  1  1  0  0  0
  6 42  1  0  0  0  0
  7 15  1  0  0  0  0
  7 44  1  0  0  0  0
  7 32  1  6  0  0  0
  8  9  1  1  0  0  0
  8 17  1  0  0  0  0
 11 12  1  6  0  0  0
 11 20  1  0  0  0  0
 13  6  1  0  0  0  0
 13 14  1  6  0  0  0
 15 16  1  6  0  0  0
 15 24  1  0  0  0  0
 17 26  1  0  0  0  0
 18 10  1  0  0  0  0
 18 19  1  6  0  0  0
 20 21  1  6  0  0  0
 20 29  1  0  0  0  0
 22 13  1  0  0  0  0
 22 23  1  6  0  0  0
 24 25  1  1  0  0  0
 24 33  1  0  0  0  0
 26 27  1  1  0  0  0
 26 35  1  0  0  0  0
 28  2  1  6  0  0  0
 28 18  1  0  0  0  0
 29 30  1  0  0  0  0
 29 39  1  1  0  0  0
 31 22  1  0  0  0  0
 31 32  1  1  0  0  0
 31 41  1  0  0  0  0
 33 34  1  6  0  0  0
 33 43  1  0  0  0  0
 35 36  1  0  0  0  0
 35 45  1  6  0  0  0
 37 28  1  0  0  0  0
 37 38  1  6  0  0  0
 39 40  1  0  0  0  0
 41 42  1  0  0  0  0
 41 49  1  6  0  0  0
 43 44  1  0  0  0  0
 43 51  1  1  0  0  0
 45 46  1  0  0  0  0
 47 37  1  0  0  0  0
 47 48  1  1  0  0  0
 49 50  1  0  0  0  0
 51 52  1  0  0  0  0
M  END
>  <CHROM.1>
-138.83808960,-134.60703639,-103.55851556,-161.02424004,-71.98141659,-177.44550172
47.40026605,95.93752828,-63.03070561,-46.38163501,-42.13696903,157.88564719
14.36099710,-1.33995628,8.72036680,2.65081359,0.07749962,1.05700810

>  <Name>
2esj_lig

>  <RI>
0

>  <Rbt.Current_Directory>
/home/itssahil/PROJECTS/Mol_Feturizer/New_Systems/rnas/2esj

>  <Rbt.Executable>
rbdock ($Id: //depot/dev/client3/rdock/2013.1/src/exe/rbdock.cxx#4 $)

>  <Rbt.Library>
libRbt.so (2013.1, Build901 2013/11/27)

>  <Rbt.Parameter_File>
/export/apps/rDock/src/rDock_2013.1_src/data/scripts/dock_solv.prm

>  <Rbt.Receptor>
prm/blind_docking_40.prm

>  <SCORE>
12.6369

>  <SCORE.INTER>
-4.43816

>  <SCORE.INTER.CONST>
1

>  <SCORE.INTER.POLAR>
-0.0193576

>  <SCORE.INTER.ROT>
12

>  <SCORE.INTER.SOLV>
26.9496

>  <SCORE.INTER.VDW>
-23.4775

>  <SCORE.INTER.norm>
-0.0853493

>  <SCORE.INTRA>
7.38405

>  <SCORE.INTRA.DIHEDRAL>
-1.75495

>  <SCORE.INTRA.DIHEDRAL.0>
32.9766

>  <SCORE.INTRA.POLAR>
0

>  <SCORE.INTRA.POLAR.0>
0

>  <SCORE.INTRA.REPUL>
0.00686282

>  <SCORE.INTRA.REPUL.0>
0

>  <SCORE.INTRA.SOLV>
3.95103

>  <SCORE.INTRA.SOLV.lig_0>
-114.358

>  <SCORE.INTRA.VDW>
6.2517

>  <SCORE.INTRA.VDW.0>
-8.24257

>  <SCORE.INTRA.norm>
0.142001

>  <SCORE.RESTR>
9.69097

>  <SCORE.RESTR.CAVITY>
9.69097

>  <SCORE.RESTR.norm>
0.186365

>  <SCORE.SYSTEM>
0

>  <SCORE.SYSTEM.CONST>
0

>  <SCORE.SYSTEM.DIHEDRAL>
0

>  <SCORE.SYSTEM.SOLV>
0

>  <SCORE.SYSTEM.norm>
0

>  <SCORE.heavy>
52

>  <SCORE.norm>
0.243017

>  <RMSD>
12.574

$$$$
2esj_lig
 OpenBabel11021811423D
libRbt.so/2013.1/901 2013/11/27
 52 56  0  0  0  0  0  0  0  0999 V2000
   32.1531   -1.7836   14.6942 C   0  0  2  0  0  0  0  0  0  0  0  0
   32.8253   -2.1439   15.9161 O   0  0  0  0  0  0  0  0  0  0  0  0
   31.5691   -4.4238   19.3091 C   0  0  2  0  0  0  0  0  0  0  0  0
   30.9779   -4.8734   20.5802 N   0  0  0  0  0  0  0  0  0  0  0  0
   29.0441   -4.0475   15.5736 C   0  0  1  0  0  0  0  0  0  0  0  0
   25.4389   -4.8623   14.4316 C   0  0  1  0  0  0  0  0  0  0  0  0
   21.6170   -8.1426   13.7460 C   0  0  1  0  0  0  0  0  0  0  0  0
   33.2441   -1.5769   13.6025 C   0  0  2  0  0  0  0  0  0  0  0  0
   34.0883   -2.7592   13.4329 N   0  0  0  0  0  0  0  0  0  0  0  0
   32.5207   -3.1860   19.5537 C   0  0  0  0  0  0  0  0  0  0  0  0
   28.1549   -3.4177   14.5006 C   0  0  2  0  0  0  0  0  0  0  0  0
   27.0557   -2.6707   15.0653 O   0  0  0  0  0  0  0  0  0  0  0  0
   24.7541   -5.5178   15.7132 C   0  0  2  0  0  0  0  0  0  0  0  0
   24.9967   -6.9842   15.7578 N   0  0  0  0  0  0  0  0  0  0  0  0
   20.2610   -7.6438   14.2320 C   0  0  1  0  0  0  0  0  0  0  0  0
   19.2948   -7.7907   13.1721 O   0  0  0  0  0  0  0  0  0  0  0  0
   34.1318   -0.3343   13.9300 C   0  0  0  0  0  0  0  0  0  0  0  0
   33.1918   -2.7551   18.1878 C   0  0  2  0  0  0  0  0  0  0  0  0
   34.0709   -1.5979   18.3850 N   0  0  0  0  0  0  0  0  0  0  0  0
   27.7403   -4.6413   13.7357 C   0  0  2  0  0  0  0  0  0  0  0  0
   26.7492   -5.3481   14.4375 O   0  0  0  0  0  0  0  0  0  0  0  0
   23.2217   -5.0879   15.7574 C   0  0  1  0  0  0  0  0  0  0  0  0
   23.1373   -3.6637   15.6426 O   0  0  0  0  0  0  0  0  0  0  0  0
   19.7136   -8.3467   15.4684 C   0  0  1  0  0  0  0  0  0  0  0  0
   18.3562   -7.9212   15.6312 O   0  0  0  0  0  0  0  0  0  0  0  0
   33.2092    0.9047   14.1286 C   0  0  2  0  0  0  0  0  0  0  0  0
   33.9562    2.0869   14.3535 O   0  0  0  0  0  0  0  0  0  0  0  0
   32.1053   -2.4338   17.1289 C   0  0  2  0  0  0  0  0  0  0  0  0
   28.9592   -5.5865   13.7574 C   0  0  2  0  0  0  0  0  0  0  0  0
   29.5752   -5.2447   14.9889 O   0  0  0  0  0  0  0  0  0  0  0  0
   22.4221   -5.6688   14.5195 C   0  0  2  0  0  0  0  0  0  0  0  0
   22.4981   -7.0856   14.6849 O   0  0  0  0  0  0  0  0  0  0  0  0
   19.7593   -9.8732   15.3807 C   0  0  2  0  0  0  0  0  0  0  0  0
   19.5157  -10.3742   16.7052 O   0  0  0  0  0  0  0  0  0  0  0  0
   32.2419    0.6094   15.3018 C   0  0  2  0  0  0  0  0  0  0  0  0
   31.4399   -0.5451   14.9211 O   0  0  0  0  0  0  0  0  0  0  0  0
   31.0561   -3.5731   16.9232 C   0  0  2  0  0  0  0  0  0  0  0  0
   30.0466   -3.1382   15.9702 O   0  0  0  0  0  0  0  0  0  0  0  0
   29.9698   -5.4208   12.6230 C   0  0  0  0  0  0  0  0  0  0  0  0
   31.0103   -6.3882   12.8262 O   0  0  0  0  0  0  0  0  0  0  0  0
   23.2683   -5.3547   13.3007 C   0  0  1  0  0  0  0  0  0  0  0  0
   24.7029   -5.2627   13.1663 O   0  0  0  0  0  0  0  0  0  0  0  0
   21.0627  -10.3588   14.7564 C   0  0  2  0  0  0  0  0  0  0  0  0
   21.7461   -9.5850   13.7583 O   0  0  0  0  0  0  0  0  0  0  0  0
   31.2737    1.7148   15.5534 C   0  0  0  0  0  0  0  0  0  0  0  0
   30.4490    1.3181   16.6223 O   0  0  0  0  0  0  0  0  0  0  0  0
   30.4418   -4.0189   18.2929 C   0  0  1  0  0  0  0  0  0  0  0  0
   29.6334   -5.1981   18.0377 O   0  0  0  0  0  0  0  0  0  0  0  0
   22.6569   -5.7309   11.9160 C   0  0  0  0  0  0  0  0  0  0  0  0
   21.7478   -4.6981   11.3761 N   0  0  0  0  0  0  0  0  0  0  0  0
   21.3803  -11.8357   14.5337 C   0  0  0  0  0  0  0  0  0  0  0  0
   20.2461  -12.4988   13.9151 O   0  0  0  0  0  0  0  0  0  0  0  0
  1  2  1  1  0  0  0
  1  8  1  0  0  0  0
  1 36  1  0  0  0  0
  3  4  1  1  0  0  0
  3 10  1  0  0  0  0
  3 47  1  0  0  0  0
  5 11  1  0  0  0  0
  5 30  1  0  0  0  0
  5 38  1  6  0  0  0
  6 21  1  6  0  0  0
  6 42  1  0  0  0  0
  7 15  1  0  0  0  0
  7 44  1  0  0  0  0
  7 32  1  1  0  0  0
  8  9  1  1  0  0  0
  8 17  1  0  0  0  0
 11 12  1  1  0  0  0
 11 20  1  0  0  0  0
 13  6  1  0  0  0  0
 13 14  1  6  0  0  0
 15 16  1  6  0  0  0
 15 24  1  0  0  0  0
 17 26  1  0  0  0  0
 18 10  1  0  0  0  0
 18 19  1  1  0  0  0
 20 21  1  1  0  0  0
 20 29  1  0  0  0  0
 22 13  1  0  0  0  0
 22 23  1  6  0  0  0
 24 25  1  6  0  0  0
 24 33  1  0  0  0  0
 26 27  1  1  0  0  0
 26 35  1  0  0  0  0
 28  2  1  6  0  0  0
 28 18  1  0  0  0  0
 29 30  1  0  0  0  0
 29 39  1  6  0  0  0
 31 22  1  0  0  0  0
 31 32  1  1  0  0  0
 31 41  1  0  0  0  0
 33 34  1  1  0  0  0
 33 43  1  0  0  0  0
 35 36  1  0  0  0  0
 35 45  1  6  0  0  0
 37 28  1  0  0  0  0
 37 38  1  6  0  0  0
 39 40  1  0  0  0  0
 41 42  1  0  0  0  0
 41 49  1  6  0  0  0
 43 44  1  0  0  0  0
 43 51  1  6  0  0  0
 45 46  1  0  0  0  0
 47 37  1  0  0  0  0
 47 48  1  6  0  0  0
 49 50  1  0  0  0  0
 51 52  1  0  0  0  0
M  END
>  <CHROM.1>
-178.78539744,-176.00868512,-158.57703965,-63.18082005,76.45708034,-179.42074782
-179.76485332,170.96090397,179.27530295,176.10903425,84.32138186,47.31679526
27.16020266,-4.72579900,15.17648259,0.29855201,-0.48482465,-0.78729753

>  <Name>
2esj_lig

>  <RI>
0

>  <Rbt.Current_Directory>
/home/itssahil/PROJECTS/Mol_Feturizer/New_Systems/rnas/2esj

>  <Rbt.Executable>
rbdock ($Id: //depot/dev/client3/rdock/2013.1/src/exe/rbdock.cxx#4 $)

>  <Rbt.Library>
libRbt.so (2013.1, Build901 2013/11/27)

>  <Rbt.Parameter_File>
/export/apps/rDock/src/rDock_2013.1_src/data/scripts/dock_solv.prm

>  <Rbt.Receptor>
prm/pocket_docking_6.prm

>  <SCORE>
-12.6836

>  <SCORE.INTER>
-1.71881

>  <SCORE.INTER.CONST>
1

>  <SCORE.INTER.POLAR>
-1.15291

>  <SCORE.INTER.ROT>
12

>  <SCORE.INTER.SOLV>
9.15192

>  <SCORE.INTER.VDW>
-11.9535

>  <SCORE.INTER.norm>
-0.0330541

>  <SCORE.INTRA>
-10.9648

>  <SCORE.INTRA.DIHEDRAL>
-23.9995

>  <SCORE.INTRA.DIHEDRAL.0>
32.9766

>  <SCORE.INTRA.POLAR>
0

>  <SCORE.INTRA.POLAR.0>
0

>  <SCORE.INTRA.REPUL>
0

>  <SCORE.INTRA.REPUL.0>
0

>  <SCORE.INTRA.SOLV>
-4.96955

>  <SCORE.INTRA.SOLV.lig_0>
-114.358

>  <SCORE.INTRA.VDW>
3.51969

>  <SCORE.INTRA.VDW.0>
-8.24257

>  <SCORE.INTRA.norm>
-0.210862

>  <SCORE.RESTR>
0

>  <SCORE.RESTR.CAVITY>
0

>  <SCORE.RESTR.norm>
0

>  <SCORE.SYSTEM>
0

>  <SCORE.SYSTEM.CONST>
0

>  <SCORE.SYSTEM.DIHEDRAL>
0

>  <SCORE.SYSTEM.SOLV>
0

>  <SCORE.SYSTEM.norm>
0

>  <SCORE.heavy>
52

>  <SCORE.norm>
-0.243916

>  <RMSD>
12.637

$$$$
2esj_lig
 OpenBabel11021811423D
libRbt.so/2013.1/901 2013/11/27
 52 56  0  0  0  0  0  0  0  0999 V2000
    9.1728   -1.3940    8.2510 C   0  0  2  0  0  0  0  0  0  0  0  0
    9.5378   -2.3341    9.2795 O   0  0  0  0  0  0  0  0  0  0  0  0
   10.6882   -1.3595   13.2813 C   0  0  2  0  0  0  0  0  0  0  0  0
   11.4383   -1.0662   14.5137 N   0  0  0  0  0  0  0  0  0  0  0  0
   11.7512    0.6439    9.4355 C   0  0  1  0  0  0  0  0  0  0  0  0
   14.2238    0.3061    8.2844 C   0  0  1  0  0  0  0  0  0  0  0  0
   18.7037   -2.4893    7.5484 C   0  0  1  0  0  0  0  0  0  0  0  0
    7.9647   -1.9953    7.4738 C   0  0  2  0  0  0  0  0  0  0  0  0
    6.8390   -2.3052    8.3547 N   0  0  0  0  0  0  0  0  0  0  0  0
   11.1018   -2.7738   12.7104 C   0  0  0  0  0  0  0  0  0  0  0  0
   11.9543    2.1090    9.0473 C   0  0  2  0  0  0  0  0  0  0  0  0
   11.6434    2.3589    7.6594 O   0  0  0  0  0  0  0  0  0  0  0  0
   15.2065   -0.2116    9.4279 C   0  0  2  0  0  0  0  0  0  0  0  0
   16.4930    0.5336    9.4048 N   0  0  0  0  0  0  0  0  0  0  0  0
   19.4842   -2.2147    8.8286 C   0  0  1  0  0  0  0  0  0  0  0  0
   20.3725   -3.3202    9.0880 O   0  0  0  0  0  0  0  0  0  0  0  0
    8.3899   -3.2755    6.6867 C   0  0  0  0  0  0  0  0  0  0  0  0
   10.2439   -3.0968   11.4214 C   0  0  2  0  0  0  0  0  0  0  0  0
   10.6184   -4.4003   10.8632 N   0  0  0  0  0  0  0  0  0  0  0  0
   13.4038    2.2863    9.3960 C   0  0  2  0  0  0  0  0  0  0  0  0
   14.2213    1.6972    8.4167 O   0  0  0  0  0  0  0  0  0  0  0  0
   15.3435   -1.7939    9.3145 C   0  0  1  0  0  0  0  0  0  0  0  0
   14.0338   -2.3706    9.2843 O   0  0  0  0  0  0  0  0  0  0  0  0
   20.3132   -0.9360    8.8241 C   0  0  1  0  0  0  0  0  0  0  0  0
   21.1462   -0.9673    9.9883 O   0  0  0  0  0  0  0  0  0  0  0  0
    9.6031   -2.9256    5.7748 C   0  0  2  0  0  0  0  0  0  0  0  0
    9.9932   -4.0255    4.9722 O   0  0  0  0  0  0  0  0  0  0  0  0
   10.4239   -1.9821   10.3584 C   0  0  2  0  0  0  0  0  0  0  0  0
   13.6450    1.4238   10.6520 C   0  0  2  0  0  0  0  0  0  0  0  0
   12.6998    0.3800   10.4786 O   0  0  0  0  0  0  0  0  0  0  0  0
   16.0337   -2.2187    7.9535 C   0  0  2  0  0  0  0  0  0  0  0  0
   17.3446   -1.6569    8.0334 O   0  0  0  0  0  0  0  0  0  0  0  0
   21.1875   -0.7725    7.5795 C   0  0  2  0  0  0  0  0  0  0  0  0
   21.6503    0.5878    7.5712 O   0  0  0  0  0  0  0  0  0  0  0  0
   10.7646   -2.4360    6.6749 C   0  0  2  0  0  0  0  0  0  0  0  0
   10.3039   -1.2375    7.3621 O   0  0  0  0  0  0  0  0  0  0  0  0
   10.1463   -0.5397   10.8909 C   0  0  2  0  0  0  0  0  0  0  0  0
   10.4170    0.4276    9.8386 O   0  0  0  0  0  0  0  0  0  0  0  0
   13.4071    2.1028   12.0003 C   0  0  0  0  0  0  0  0  0  0  0  0
   14.6855    2.2743   12.6296 O   0  0  0  0  0  0  0  0  0  0  0  0
   15.3194   -1.4347    6.8693 C   0  0  1  0  0  0  0  0  0  0  0  0
   14.7208   -0.1217    6.9158 O   0  0  0  0  0  0  0  0  0  0  0  0
   20.4445   -1.1900    6.3153 C   0  0  2  0  0  0  0  0  0  0  0  0
   19.4584   -2.2335    6.3392 O   0  0  0  0  0  0  0  0  0  0  0  0
   11.9708   -2.0254    5.9010 C   0  0  0  0  0  0  0  0  0  0  0  0
   11.8655   -2.5988    4.6202 O   0  0  0  0  0  0  0  0  0  0  0  0
   10.9668   -0.2596   12.1950 C   0  0  1  0  0  0  0  0  0  0  0  0
   10.5081    1.0118   12.7264 O   0  0  0  0  0  0  0  0  0  0  0  0
   15.7382   -1.7444    5.3991 C   0  0  0  0  0  0  0  0  0  0  0  0
   14.6289   -2.2606    4.5697 N   0  0  0  0  0  0  0  0  0  0  0  0
   21.0741   -1.1425    4.9250 C   0  0  0  0  0  0  0  0  0  0  0  0
   21.8609   -2.3413    4.6959 O   0  0  0  0  0  0  0  0  0  0  0  0
  1  2  1  1  0  0  0
  1  8  1  0  0  0  0
  1 36  1  0  0  0  0
  3  4  1  1  0  0  0
  3 10  1  0  0  0  0
  3 47  1  0  0  0  0
  5 11  1  0  0  0  0
  5 30  1  0  0  0  0
  5 38  1  1  0  0  0
  6 21  1  6  0  0  0
  6 42  1  0  0  0  0
  7 15  1  0  0  0  0
  7 44  1  0  0  0  0
  7 32  1  6  0  0  0
  8  9  1  1  0  0  0
  8 17  1  0  0  0  0
 11 12  1  6  0  0  0
 11 20  1  0  0  0  0
 13  6  1  0  0  0  0
 13 14  1  6  0  0  0
 15 16  1  6  0  0  0
 15 24  1  0  0  0  0
 17 26  1  0  0  0  0
 18 10  1  0  0  0  0
 18 19  1  6  0  0  0
 20 21  1  6  0  0  0
 20 29  1  0  0  0  0
 22 13  1  0  0  0  0
 22 23  1  6  0  0  0
 24 25  1  1  0  0  0
 24 33  1  0  0  0  0
 26 27  1  1  0  0  0
 26 35  1  0  0  0  0
 28  2  1  6  0  0  0
 28 18  1  0  0  0  0
 29 30  1  0  0  0  0
 29 39  1  1  0  0  0
 31 22  1  0  0  0  0
 31 32  1  1  0  0  0
 31 41  1  0  0  0  0
 33 34  1  6  0  0  0
 33 43  1  0  0  0  0
 35 36  1  0  0  0  0
 35 45  1  6  0  0  0
 37 28  1  0  0  0  0
 37 38  1  6  0  0  0
 39 40  1  0  0  0  0
 41 42  1  0  0  0  0
 41 49  1  6  0  0  0
 43 44  1  0  0  0  0
 43 51  1  6  0  0  0
 45 46  1  0  0  0  0
 47 37  1  0  0  0  0
 47 48  1  1  0  0  0
 49 50  1  0  0  0  0
 51 52  1  0  0  0  0
M  END
>  <CHROM.1>
-166.60853463,-145.69704344,-81.20055010,-130.20392887,-67.95452451,164.70015253
-110.23149979,137.94631653,-18.68808200,-69.70333615,118.91869303,83.19178200
13.99167105,-1.05375996,8.64832382,2.94414164,0.10196421,1.11855603

>  <Name>
2esj_lig

>  <RI>
0

>  <Rbt.Current_Directory>
/home/itssahil/PROJECTS/Mol_Feturizer/New_Systems/rnas/2esj

>  <Rbt.Executable>
rbdock ($Id: //depot/dev/client3/rdock/2013.1/src/exe/rbdock.cxx#4 $)

>  <Rbt.Library>
libRbt.so (2013.1, Build901 2013/11/27)

>  <Rbt.Parameter_File>
/export/apps/rDock/src/rDock_2013.1_src/data/scripts/dock_solv.prm

>  <Rbt.Receptor>
prm/blind_docking_40.prm

>  <SCORE>
49.7127

>  <SCORE.INTER>
22.7206

>  <SCORE.INTER.CONST>
1

>  <SCORE.INTER.POLAR>
-1.0198

>  <SCORE.INTER.ROT>
12

>  <SCORE.INTER.SOLV>
28.8207

>  <SCORE.INTER.VDW>
-2.66052

>  <SCORE.INTER.norm>
0.436934

>  <SCORE.INTRA>
16.3031

>  <SCORE.INTRA.DIHEDRAL>
2.83057

>  <SCORE.INTRA.DIHEDRAL.0>
32.9766

>  <SCORE.INTRA.POLAR>
0

>  <SCORE.INTRA.POLAR.0>
0

>  <SCORE.INTRA.REPUL>
0

>  <SCORE.INTRA.REPUL.0>
0

>  <SCORE.INTRA.SOLV>
1.01463

>  <SCORE.INTRA.SOLV.lig_0>
-114.358

>  <SCORE.INTRA.VDW>
14.3805

>  <SCORE.INTRA.VDW.0>
-8.24257

>  <SCORE.INTRA.norm>
0.313521

>  <SCORE.RESTR>
10.689

>  <SCORE.RESTR.CAVITY>
10.689

>  <SCORE.RESTR.norm>
0.205558

>  <SCORE.SYSTEM>
0

>  <SCORE.SYSTEM.CONST>
0

>  <SCORE.SYSTEM.DIHEDRAL>
0

>  <SCORE.SYSTEM.SOLV>
0

>  <SCORE.SYSTEM.norm>
0

>  <SCORE.heavy>
52

>  <SCORE.norm>
0.956013

>  <RMSD>
12.700

$$$$
2esj_lig
 OpenBabel11021811423D
libRbt.so/2013.1/901 2013/11/27
 52 56  0  0  0  0  0  0  0  0999 V2000
    8.1309   -2.7164    5.7838 C   0  0  2  0  0  0  0  0  0  0  0  0
    9.4220   -3.2508    6.1335 O   0  0  0  0  0  0  0  0  0  0  0  0
   13.4898   -2.7657    4.9063 C   0  0  2  0  0  0  0  0  0  0  0  0
   14.7953   -2.2256    4.4925 N   0  0  0  0  0  0  0  0  0  0  0  0
   12.4170   -2.3248    9.1518 C   0  0  1  0  0  0  0  0  0  0  0  0
   15.0963   -0.3049   11.5921 C   0  0  1  0  0  0  0  0  0  0  0  0
   18.1965   -0.6553    9.3876 C   0  0  1  0  0  0  0  0  0  0  0  0
    7.8682   -1.4868    6.7025 C   0  0  2  0  0  0  0  0  0  0  0  0
    8.9233   -0.4797    6.5943 N   0  0  0  0  0  0  0  0  0  0  0  0
   12.3522   -2.2572    3.9342 C   0  0  0  0  0  0  0  0  0  0  0  0
   12.3684   -0.9091    9.7278 C   0  0  2  0  0  0  0  0  0  0  0  0
   13.1554    0.0257    8.9582 O   0  0  0  0  0  0  0  0  0  0  0  0
   15.1912    0.7584   10.4082 C   0  0  2  0  0  0  0  0  0  0  0  0
   15.5439    0.0979    9.1235 N   0  0  0  0  0  0  0  0  0  0  0  0
   19.7200   -0.6549    9.4392 C   0  0  1  0  0  0  0  0  0  0  0  0
   20.1794   -1.9501    9.8750 O   0  0  0  0  0  0  0  0  0  0  0  0
    7.7073   -1.9283    8.1919 C   0  0  0  0  0  0  0  0  0  0  0  0
   10.9682   -2.8943    4.3585 C   0  0  2  0  0  0  0  0  0  0  0  0
    9.8916   -2.4271    3.4790 N   0  0  0  0  0  0  0  0  0  0  0  0
   12.8894   -1.1591   11.1135 C   0  0  2  0  0  0  0  0  0  0  0  0
   14.2843   -1.3264   11.0922 O   0  0  0  0  0  0  0  0  0  0  0  0
   16.1669    1.9370   10.8487 C   0  0  1  0  0  0  0  0  0  0  0  0
   15.7471    2.4326   12.1242 O   0  0  0  0  0  0  0  0  0  0  0  0
   20.4159   -0.3268    8.1238 C   0  0  1  0  0  0  0  0  0  0  0  0
   21.8094   -0.6040    8.3014 O   0  0  0  0  0  0  0  0  0  0  0  0
    6.5959   -3.0160    8.2770 C   0  0  2  0  0  0  0  0  0  0  0  0
    6.3433   -3.4074    9.6146 O   0  0  0  0  0  0  0  0  0  0  0  0
   10.6454   -2.5521    5.8362 C   0  0  2  0  0  0  0  0  0  0  0  0
   12.3531   -2.5464   11.5227 C   0  0  2  0  0  0  0  0  0  0  0  0
   12.2632   -3.2085   10.2711 O   0  0  0  0  0  0  0  0  0  0  0  0
   17.6483    1.4151   11.0546 C   0  0  2  0  0  0  0  0  0  0  0  0
   18.0447    0.9615    9.7594 O   0  0  0  0  0  0  0  0  0  0  0  0
   19.8882   -1.1261    6.9310 C   0  0  2  0  0  0  0  0  0  0  0  0
   20.4035   -0.4965    5.7466 O   0  0  0  0  0  0  0  0  0  0  0  0
    7.0237   -4.2200    7.4014 C   0  0  2  0  0  0  0  0  0  0  0  0
    7.1381   -3.7396    6.0314 O   0  0  0  0  0  0  0  0  0  0  0  0
   11.7835   -2.9204    6.8412 C   0  0  2  0  0  0  0  0  0  0  0  0
   11.4089   -2.4895    8.1793 O   0  0  0  0  0  0  0  0  0  0  0  0
   10.9876   -2.5734   12.2086 C   0  0  0  0  0  0  0  0  0  0  0  0
   10.0280   -2.0431   11.2825 O   0  0  0  0  0  0  0  0  0  0  0  0
   17.5282    0.1653   11.9053 C   0  0  1  0  0  0  0  0  0  0  0  0
   16.4749   -0.8207   11.9616 O   0  0  0  0  0  0  0  0  0  0  0  0
   18.3687   -1.2466    6.9668 C   0  0  2  0  0  0  0  0  0  0  0  0
   17.6534   -1.3011    8.2106 O   0  0  0  0  0  0  0  0  0  0  0  0
    6.0069   -5.3097    7.3691 C   0  0  0  0  0  0  0  0  0  0  0  0
    5.6370   -5.5812    8.6994 O   0  0  0  0  0  0  0  0  0  0  0  0
   13.1536   -2.3223    6.3752 C   0  0  1  0  0  0  0  0  0  0  0  0
   14.1794   -2.8681    7.2466 O   0  0  0  0  0  0  0  0  0  0  0  0
   18.8659   -0.5024   12.3498 C   0  0  0  0  0  0  0  0  0  0  0  0
   19.7590    0.4114   13.0927 N   0  0  0  0  0  0  0  0  0  0  0  0
   17.5677   -2.0000    5.9074 C   0  0  0  0  0  0  0  0  0  0  0  0
   18.3399   -3.1239    5.4082 O   0  0  0  0  0  0  0  0  0  0  0  0
  1  2  1  1  0  0  0
  1  8  1  0  0  0  0
  1 36  1  0  0  0  0
  3  4  1  6  0  0  0
  3 10  1  0  0  0  0
  3 47  1  0  0  0  0
  5 11  1  0  0  0  0
  5 30  1  0  0  0  0
  5 38  1  6  0  0  0
  6 21  1  6  0  0  0
  6 42  1  0  0  0  0
  7 15  1  0  0  0  0
  7 44  1  0  0  0  0
  7 32  1  6  0  0  0
  8  9  1  1  0  0  0
  8 17  1  0  0  0  0
 11 12  1  6  0  0  0
 11 20  1  0  0  0  0
 13  6  1  0  0  0  0
 13 14  1  6  0  0  0
 15 16  1  6  0  0  0
 15 24  1  0  0  0  0
 17 26  1  0  0  0  0
 18 10  1  0  0  0  0
 18 19  1  6  0  0  0
 20 21  1  6  0  0  0
 20 29  1  0  0  0  0
 22 13  1  0  0  0  0
 22 23  1  1  0  0  0
 24 25  1  1  0  0  0
 24 33  1  0  0  0  0
 26 27  1  1  0  0  0
 26 35  1  0  0  0  0
 28  2  1  1  0  0  0
 28 18  1  0  0  0  0
 29 30  1  0  0  0  0
 29 39  1  6  0  0  0
 31 22  1  0  0  0  0
 31 32  1  6  0  0  0
 31 41  1  0  0  0  0
 33 34  1  6  0  0  0
 33 43  1  0  0  0  0
 35 36  1  0  0  0  0
 35 45  1  6  0  0  0
 37 28  1  0  0  0  0
 37 38  1  1  0  0  0
 39 40  1  0  0  0  0
 41 42  1  0  0  0  0
 41 49  1  6  0  0  0
 43 44  1  0  0  0  0
 43 51  1  1  0  0  0
 45 46  1  0  0  0  0
 47 37  1  0  0  0  0
 47 48  1  1  0  0  0
 49 50  1  0  0  0  0
 51 52  1  0  0  0  0
M  END
>  <CHROM.1>
-69.87503458,124.20844117,-80.92791764,-103.88968607,107.05903456,-82.64546692
61.65267951,-107.34259101,-49.10458057,-160.01092282,56.65430520,32.67540712
13.71984062,-1.62984530,8.48471839,-2.88707491,0.20636408,1.30239085

>  <Name>
2esj_lig

>  <RI>
0

>  <Rbt.Current_Directory>
/home/itssahil/PROJECTS/Mol_Feturizer/New_Systems/rnas/2esj

>  <Rbt.Executable>
rbdock ($Id: //depot/dev/client3/rdock/2013.1/src/exe/rbdock.cxx#4 $)

>  <Rbt.Library>
libRbt.so (2013.1, Build901 2013/11/27)

>  <Rbt.Parameter_File>
/export/apps/rDock/src/rDock_2013.1_src/data/scripts/dock_solv.prm

>  <Rbt.Receptor>
prm/blind_docking_60.prm

>  <SCORE>
25.3093

>  <SCORE.INTER>
-2.5446

>  <SCORE.INTER.CONST>
1

>  <SCORE.INTER.POLAR>
0

>  <SCORE.INTER.ROT>
12

>  <SCORE.INTER.SOLV>
21.894

>  <SCORE.INTER.VDW>
-20.5944

>  <SCORE.INTER.norm>
-0.0489345

>  <SCORE.INTRA>
15.8157

>  <SCORE.INTRA.DIHEDRAL>
4.60156

>  <SCORE.INTRA.DIHEDRAL.0>
32.9766

>  <SCORE.INTRA.POLAR>
0

>  <SCORE.INTRA.POLAR.0>
0

>  <SCORE.INTRA.REPUL>
0.154829

>  <SCORE.INTRA.REPUL.0>
0

>  <SCORE.INTRA.SOLV>
8.4042

>  <SCORE.INTRA.SOLV.lig_0>
-114.358

>  <SCORE.INTRA.VDW>
8.53867

>  <SCORE.INTRA.VDW.0>
-8.24257

>  <SCORE.INTRA.norm>
0.304148

>  <SCORE.RESTR>
12.0382

>  <SCORE.RESTR.CAVITY>
12.0382

>  <SCORE.RESTR.norm>
0.231504

>  <SCORE.SYSTEM>
0

>  <SCORE.SYSTEM.CONST>
0

>  <SCORE.SYSTEM.DIHEDRAL>
0

>  <SCORE.SYSTEM.SOLV>
0

>  <SCORE.SYSTEM.norm>
0

>  <SCORE.heavy>
52

>  <SCORE.norm>
0.486717

>  <RMSD>
12.821

$$$$
2esj_lig
 OpenBabel11021811423D
libRbt.so/2013.1/901 2013/11/27
 52 56  0  0  0  0  0  0  0  0999 V2000
    9.5441   -2.1292    7.9188 C   0  0  2  0  0  0  0  0  0  0  0  0
   10.7419   -2.0187    8.7112 O   0  0  0  0  0  0  0  0  0  0  0  0
    8.9954   -0.9907   12.4769 C   0  0  2  0  0  0  0  0  0  0  0  0
    8.7529   -0.6980   13.8992 N   0  0  0  0  0  0  0  0  0  0  0  0
   12.5327    0.5975   10.0597 C   0  0  1  0  0  0  0  0  0  0  0  0
   15.0945   -0.1265    9.8863 C   0  0  1  0  0  0  0  0  0  0  0  0
   19.0519   -2.8368    7.8344 C   0  0  1  0  0  0  0  0  0  0  0  0
    9.9778   -2.2505    6.4281 C   0  0  2  0  0  0  0  0  0  0  0  0
   10.8852   -3.3758    6.2056 N   0  0  0  0  0  0  0  0  0  0  0  0
    9.6128   -2.4360   12.3114 C   0  0  0  0  0  0  0  0  0  0  0  0
   13.1478    1.9820   10.2681 C   0  0  2  0  0  0  0  0  0  0  0  0
   13.6326    2.5601    9.0368 O   0  0  0  0  0  0  0  0  0  0  0  0
   16.2371   -1.1316   10.3611 C   0  0  2  0  0  0  0  0  0  0  0  0
   17.5721   -0.4778   10.3270 N   0  0  0  0  0  0  0  0  0  0  0  0
   20.1141   -1.7779    8.1066 C   0  0  1  0  0  0  0  0  0  0  0  0
   21.2295   -2.3895    8.7852 O   0  0  0  0  0  0  0  0  0  0  0  0
   10.6425   -0.9273    5.9317 C   0  0  0  0  0  0  0  0  0  0  0  0
    9.8109   -2.7551   10.7750 C   0  0  2  0  0  0  0  0  0  0  0  0
   10.3962   -4.0876   10.5940 N   0  0  0  0  0  0  0  0  0  0  0  0
   14.2247    1.6565   11.2623 C   0  0  2  0  0  0  0  0  0  0  0  0
   15.3139    1.0399   10.6238 O   0  0  0  0  0  0  0  0  0  0  0  0
   16.1253   -2.4773    9.5175 C   0  0  1  0  0  0  0  0  0  0  0  0
   14.7786   -2.9571    9.5882 O   0  0  0  0  0  0  0  0  0  0  0  0
   20.6496   -1.0608    6.8731 C   0  0  1  0  0  0  0  0  0  0  0  0
   21.7833   -0.2916    7.2894 O   0  0  0  0  0  0  0  0  0  0  0  0
    9.6676    0.2571    6.2006 C   0  0  2  0  0  0  0  0  0  0  0  0
   10.1766    1.4816    5.7031 O   0  0  0  0  0  0  0  0  0  0  0  0
   10.7056   -1.6773   10.1095 C   0  0  2  0  0  0  0  0  0  0  0  0
   13.6451    0.5484   12.1656 C   0  0  2  0  0  0  0  0  0  0  0  0
   12.7595   -0.1196   11.2810 O   0  0  0  0  0  0  0  0  0  0  0  0
   16.4125   -2.2221    7.9807 C   0  0  2  0  0  0  0  0  0  0  0  0
   17.7699   -1.7788    7.9452 O   0  0  0  0  0  0  0  0  0  0  0  0
   21.0646   -2.0045    5.7429 C   0  0  2  0  0  0  0  0  0  0  0  0
   21.2410   -1.1958    4.5684 O   0  0  0  0  0  0  0  0  0  0  0  0
    9.3959    0.3291    7.7238 C   0  0  2  0  0  0  0  0  0  0  0  0
    8.7648   -0.9251    8.1105 O   0  0  0  0  0  0  0  0  0  0  0  0
   10.2166   -0.2109   10.3368 C   0  0  2  0  0  0  0  0  0  0  0  0
   11.1646    0.7161    9.7381 O   0  0  0  0  0  0  0  0  0  0  0  0
   12.8729    1.0110   13.4007 C   0  0  0  0  0  0  0  0  0  0  0  0
   11.8568    1.9231   12.9588 O   0  0  0  0  0  0  0  0  0  0  0  0
   15.5786   -1.0128    7.6030 C   0  0  1  0  0  0  0  0  0  0  0  0
   15.1935    0.1319    8.3942 O   0  0  0  0  0  0  0  0  0  0  0  0
   20.0690   -3.1468    5.5742 C   0  0  2  0  0  0  0  0  0  0  0  0
   19.3485   -3.6807    6.6956 O   0  0  0  0  0  0  0  0  0  0  0  0
    8.4318    1.4037    8.0954 C   0  0  0  0  0  0  0  0  0  0  0  0
    7.1835    1.0594    7.5445 O   0  0  0  0  0  0  0  0  0  0  0  0
    9.9785    0.0674   11.8593 C   0  0  1  0  0  0  0  0  0  0  0  0
    9.3465    1.3708   11.9641 O   0  0  0  0  0  0  0  0  0  0  0  0
   15.5947   -0.6016    6.0986 C   0  0  0  0  0  0  0  0  0  0  0  0
   15.0095   -1.6232    5.2050 N   0  0  0  0  0  0  0  0  0  0  0  0
   20.2331   -4.2471    4.5282 C   0  0  0  0  0  0  0  0  0  0  0  0
   20.7485   -3.6839    3.2929 O   0  0  0  0  0  0  0  0  0  0  0  0
  1  2  1  1  0  0  0
  1  8  1  0  0  0  0
  1 36  1  0  0  0  0
  3  4  1  1  0  0  0
  3 10  1  0  0  0  0
  3 47  1  0  0  0  0
  5 11  1  0  0  0  0
  5 30  1  0  0  0  0
  5 38  1  1  0  0  0
  6 21  1  1  0  0  0
  6 42  1  0  0  0  0
  7 15  1  0  0  0  0
  7 44  1  0  0  0  0
  7 32  1  6  0  0  0
  8  9  1  1  0  0  0
  8 17  1  0  0  0  0
 11 12  1  6  0  0  0
 11 20  1  0  0  0  0
 13  6  1  0  0  0  0
 13 14  1  6  0  0  0
 15 16  1  6  0  0  0
 15 24  1  0  0  0  0
 17 26  1  0  0  0  0
 18 10  1  0  0  0  0
 18 19  1  1  0  0  0
 20 21  1  6  0  0  0
 20 29  1  0  0  0  0
 22 13  1  0  0  0  0
 22 23  1  6  0  0  0
 24 25  1  1  0  0  0
 24 33  1  0  0  0  0
 26 27  1  1  0  0  0
 26 35  1  0  0  0  0
 28  2  1  6  0  0  0
 28 18  1  0  0  0  0
 29 30  1  0  0  0  0
 29 39  1  1  0  0  0
 31 22  1  0  0  0  0
 31 32  1  1  0  0  0
 31 41  1  0  0  0  0
 33 34  1  6  0  0  0
 33 43  1  0  0  0  0
 35 36  1  0  0  0  0
 35 45  1  6  0  0  0
 37 28  1  0  0  0  0
 37 38  1  1  0  0  0
 39 40  1  0  0  0  0
 41 42  1  0  0  0  0
 41 49  1  6  0  0  0
 43 44  1  0  0  0  0
 43 51  1  1  0  0  0
 45 46  1  0  0  0  0
 47 37  1  0  0  0  0
 47 48  1  6  0  0  0
 49 50  1  0  0  0  0
 51 52  1  0  0  0  0
M  END
>  <CHROM.1>
169.85911915,-138.58174930,-132.63661510,-170.06665403,-56.61617240,57.50759002
53.72720182,87.87721716,65.90350849,-51.66549251,64.07910597,-38.74103565
13.97773011,-0.88515318,8.74487995,2.76248867,-0.06964127,1.24187408

>  <Name>
2esj_lig

>  <RI>
0

>  <Rbt.Current_Directory>
/home/itssahil/PROJECTS/Mol_Feturizer/New_Systems/rnas/2esj

>  <Rbt.Executable>
rbdock ($Id: //depot/dev/client3/rdock/2013.1/src/exe/rbdock.cxx#4 $)

>  <Rbt.Library>
libRbt.so (2013.1, Build901 2013/11/27)

>  <Rbt.Parameter_File>
/export/apps/rDock/src/rDock_2013.1_src/data/scripts/dock_solv.prm

>  <Rbt.Receptor>
prm/blind_docking_40.prm

>  <SCORE>
17.3767

>  <SCORE.INTER>
-2.43045

>  <SCORE.INTER.CONST>
1

>  <SCORE.INTER.POLAR>
0

>  <SCORE.INTER.ROT>
12

>  <SCORE.INTER.SOLV>
27.4782

>  <SCORE.INTER.VDW>
-22.3797

>  <SCORE.INTER.norm>
-0.0467394

>  <SCORE.INTRA>
3.39556

>  <SCORE.INTRA.DIHEDRAL>
-10.7099

>  <SCORE.INTRA.DIHEDRAL.0>
32.9766

>  <SCORE.INTRA.POLAR>
0

>  <SCORE.INTRA.POLAR.0>
0

>  <SCORE.INTRA.REPUL>
0.115595

>  <SCORE.INTRA.REPUL.0>
0

>  <SCORE.INTRA.SOLV>
-0.583443

>  <SCORE.INTRA.SOLV.lig_0>
-114.358

>  <SCORE.INTRA.VDW>
8.46428

>  <SCORE.INTRA.VDW.0>
-8.24257

>  <SCORE.INTRA.norm>
0.0652993

>  <SCORE.RESTR>
16.4116

>  <SCORE.RESTR.CAVITY>
16.4116

>  <SCORE.RESTR.norm>
0.315607

>  <SCORE.SYSTEM>
0

>  <SCORE.SYSTEM.CONST>
0

>  <SCORE.SYSTEM.DIHEDRAL>
0

>  <SCORE.SYSTEM.SOLV>
0

>  <SCORE.SYSTEM.norm>
0

>  <SCORE.heavy>
52

>  <SCORE.norm>
0.334167

>  <RMSD>
12.825

$$$$
2esj_lig
 OpenBabel11021811423D
libRbt.so/2013.1/901 2013/11/27
 52 56  0  0  0  0  0  0  0  0999 V2000
    8.3056   -1.4843    8.5689 C   0  0  2  0  0  0  0  0  0  0  0  0
    9.4554   -2.1477    9.1280 O   0  0  0  0  0  0  0  0  0  0  0  0
   12.0190    1.0687   10.2986 C   0  0  2  0  0  0  0  0  0  0  0  0
   13.1734    1.9058   10.6648 N   0  0  0  0  0  0  0  0  0  0  0  0
   12.0631   -1.5748    6.6634 C   0  0  1  0  0  0  0  0  0  0  0  0
   14.5304   -2.4806    6.6420 C   0  0  1  0  0  0  0  0  0  0  0  0
   19.5724   -1.3595    5.4221 C   0  0  1  0  0  0  0  0  0  0  0  0
    7.0423   -2.2735    9.0232 C   0  0  2  0  0  0  0  0  0  0  0  0
    6.9537   -2.3857   10.4788 N   0  0  0  0  0  0  0  0  0  0  0  0
   11.9449   -0.2034   11.2333 C   0  0  0  0  0  0  0  0  0  0  0  0
   11.8099   -3.0094    7.1287 C   0  0  2  0  0  0  0  0  0  0  0  0
   12.2653   -3.2385    8.4798 O   0  0  0  0  0  0  0  0  0  0  0  0
   15.0189   -1.9012    5.2395 C   0  0  2  0  0  0  0  0  0  0  0  0
   15.7998   -2.9166    4.4845 N   0  0  0  0  0  0  0  0  0  0  0  0
   19.8828   -2.7480    5.9693 C   0  0  1  0  0  0  0  0  0  0  0  0
   21.1186   -3.2181    5.3946 O   0  0  0  0  0  0  0  0  0  0  0  0
    7.0123   -3.6959    8.3790 C   0  0  0  0  0  0  0  0  0  0  0  0
   10.6666   -1.0587   10.8644 C   0  0  2  0  0  0  0  0  0  0  0  0
   10.5816   -2.2541   11.7097 N   0  0  0  0  0  0  0  0  0  0  0  0
   12.5697   -3.7744    6.0840 C   0  0  2  0  0  0  0  0  0  0  0  0
   13.9505   -3.7150    6.3375 O   0  0  0  0  0  0  0  0  0  0  0  0
   15.7713   -0.5196    5.4847 C   0  0  1  0  0  0  0  0  0  0  0  0
   14.9322    0.3306    6.2731 O   0  0  0  0  0  0  0  0  0  0  0  0
   20.0048   -2.8379    7.4857 C   0  0  1  0  0  0  0  0  0  0  0  0
   20.5247   -4.1363    7.7924 O   0  0  0  0  0  0  0  0  0  0  0  0
    7.1314   -3.5506    6.8329 C   0  0  2  0  0  0  0  0  0  0  0  0
    7.0332   -4.8023    6.1772 O   0  0  0  0  0  0  0  0  0  0  0  0
   10.6964   -1.4576    9.3661 C   0  0  2  0  0  0  0  0  0  0  0  0
   12.3968   -2.9829    4.7712 C   0  0  2  0  0  0  0  0  0  0  0  0
   12.2613   -1.6524    5.2450 O   0  0  0  0  0  0  0  0  0  0  0  0
   17.0950   -0.7241    6.3305 C   0  0  2  0  0  0  0  0  0  0  0  0
   17.9188   -1.5457    5.5017 O   0  0  0  0  0  0  0  0  0  0  0  0
   20.9153   -1.7704    8.0953 C   0  0  2  0  0  0  0  0  0  0  0  0
   20.6832   -1.7850    9.5132 O   0  0  0  0  0  0  0  0  0  0  0  0
    8.4704   -2.8417    6.5113 C   0  0  2  0  0  0  0  0  0  0  0  0
    8.4205   -1.5228    7.1269 O   0  0  0  0  0  0  0  0  0  0  0  0
   10.8891   -0.2547    8.3878 C   0  0  2  0  0  0  0  0  0  0  0  0
   10.9782   -0.7481    7.0222 O   0  0  0  0  0  0  0  0  0  0  0  0
   11.1825   -3.3411    3.9150 C   0  0  0  0  0  0  0  0  0  0  0  0
   10.9433   -4.7475    4.0709 O   0  0  0  0  0  0  0  0  0  0  0  0
   16.6998   -1.5972    7.5059 C   0  0  1  0  0  0  0  0  0  0  0  0
   15.7010   -2.6360    7.5952 O   0  0  0  0  0  0  0  0  0  0  0  0
   20.7010   -0.4112    7.4386 C   0  0  2  0  0  0  0  0  0  0  0  0
   20.3299   -0.3004    6.0559 O   0  0  0  0  0  0  0  0  0  0  0  0
    8.6709   -2.6049    5.0531 C   0  0  0  0  0  0  0  0  0  0  0  0
    7.4919   -3.0017    4.3953 O   0  0  0  0  0  0  0  0  0  0  0  0
   12.1296    0.6068    8.8014 C   0  0  1  0  0  0  0  0  0  0  0  0
   12.1217    1.7979    7.9704 O   0  0  0  0  0  0  0  0  0  0  0  0
   17.8075   -1.8724    8.5690 C   0  0  0  0  0  0  0  0  0  0  0  0
   17.6649   -3.1821    9.2391 N   0  0  0  0  0  0  0  0  0  0  0  0
   21.4808    0.8393    7.8384 C   0  0  0  0  0  0  0  0  0  0  0  0
   21.6234    0.8940    9.2825 O   0  0  0  0  0  0  0  0  0  0  0  0
  1  2  1  1  0  0  0
  1  8  1  0  0  0  0
  1 36  1  0  0  0  0
  3  4  1  1  0  0  0
  3 10  1  0  0  0  0
  3 47  1  0  0  0  0
  5 11  1  0  0  0  0
  5 30  1  0  0  0  0
  5 38  1  6  0  0  0
  6 21  1  6  0  0  0
  6 42  1  0  0  0  0
  7 15  1  0  0  0  0
  7 44  1  0  0  0  0
  7 32  1  1  0  0  0
  8  9  1  1  0  0  0
  8 17  1  0  0  0  0
 11 12  1  1  0  0  0
 11 20  1  0  0  0  0
 13  6  1  0  0  0  0
 13 14  1  1  0  0  0
 15 16  1  6  0  0  0
 15 24  1  0  0  0  0
 17 26  1  0  0  0  0
 18 10  1  0  0  0  0
 18 19  1  1  0  0  0
 20 21  1  1  0  0  0
 20 29  1  0  0  0  0
 22 13  1  0  0  0  0
 22 23  1  1  0  0  0
 24 25  1  6  0  0  0
 24 33  1  0  0  0  0
 26 27  1  6  0  0  0
 26 35  1  0  0  0  0
 28  2  1  6  0  0  0
 28 18  1  0  0  0  0
 29 30  1  0  0  0  0
 29 39  1  1  0  0  0
 31 22  1  0  0  0  0
 31 32  1  6  0  0  0
 31 41  1  0  0  0  0
 33 34  1  1  0  0  0
 33 43  1  0  0  0  0
 35 36  1  0  0  0  0
 35 45  1  6  0  0  0
 37 28  1  0  0  0  0
 37 38  1  6  0  0  0
 39 40  1  0  0  0  0
 41 42  1  0  0  0  0
 41 49  1  6  0  0  0
 43 44  1  0  0  0  0
 43 51  1  6  0  0  0
 45 46  1  0  0  0  0
 47 37  1  0  0  0  0
 47 48  1  6  0  0  0
 49 50  1  0  0  0  0
 51 52  1  0  0  0  0
M  END
>  <CHROM.1>
-155.30693868,79.83355989,-92.26769922,117.49616133,-46.75427972,97.00551494
-33.63020220,143.46760512,5.32939916,-64.16645110,-149.74383456,-40.97066847
13.80383911,-1.83652067,7.35719856,3.12168165,-0.08893209,-2.12565443

>  <Name>
2esj_lig

>  <RI>
0

>  <Rbt.Current_Directory>
/home/itssahil/PROJECTS/Mol_Feturizer/New_Systems/rnas/2esj

>  <Rbt.Executable>
rbdock ($Id: //depot/dev/client3/rdock/2013.1/src/exe/rbdock.cxx#4 $)

>  <Rbt.Library>
libRbt.so (2013.1, Build901 2013/11/27)

>  <Rbt.Parameter_File>
/export/apps/rDock/src/rDock_2013.1_src/data/scripts/dock_solv.prm

>  <Rbt.Receptor>
prm/blind_docking_80.prm

>  <SCORE>
93.092

>  <SCORE.INTER>
61.0127

>  <SCORE.INTER.CONST>
1

>  <SCORE.INTER.POLAR>
0

>  <SCORE.INTER.ROT>
12

>  <SCORE.INTER.SOLV>
25.7609

>  <SCORE.INTER.VDW>
20.4881

>  <SCORE.INTER.norm>
1.17332

>  <SCORE.INTRA>
22.1574

>  <SCORE.INTRA.DIHEDRAL>
5.39302

>  <SCORE.INTRA.DIHEDRAL.0>
32.9766

>  <SCORE.INTRA.POLAR>
0

>  <SCORE.INTRA.POLAR.0>
0

>  <SCORE.INTRA.REPUL>
0

>  <SCORE.INTRA.REPUL.0>
0

>  <SCORE.INTRA.SOLV>
5.64393

>  <SCORE.INTRA.SOLV.lig_0>
-114.358

>  <SCORE.INTRA.VDW>
16.639

>  <SCORE.INTRA.VDW.0>
-8.24257

>  <SCORE.INTRA.norm>
0.426105

>  <SCORE.RESTR>
9.92196

>  <SCORE.RESTR.CAVITY>
9.92196

>  <SCORE.RESTR.norm>
0.190807

>  <SCORE.SYSTEM>
0

>  <SCORE.SYSTEM.CONST>
0

>  <SCORE.SYSTEM.DIHEDRAL>
0

>  <SCORE.SYSTEM.SOLV>
0

>  <SCORE.SYSTEM.norm>
0

>  <SCORE.heavy>
52

>  <SCORE.norm>
1.79023

>  <RMSD>
13.192

$$$$
2esj_lig
 OpenBabel11021811423D
libRbt.so/2013.1/901 2013/11/27
 52 56  0  0  0  0  0  0  0  0999 V2000
   18.8151    0.0257    9.0573 C   0  0  2  0  0  0  0  0  0  0  0  0
   18.1311   -1.2328    8.9056 O   0  0  0  0  0  0  0  0  0  0  0  0
   20.0001   -2.7664    5.3782 C   0  0  2  0  0  0  0  0  0  0  0  0
   20.3573   -3.5511    4.1849 N   0  0  0  0  0  0  0  0  0  0  0  0
   15.8408   -1.0956    7.0001 C   0  0  1  0  0  0  0  0  0  0  0  0
   12.2095   -2.3003    8.6755 C   0  0  1  0  0  0  0  0  0  0  0  0
   11.1781   -1.3486   12.6779 C   0  0  1  0  0  0  0  0  0  0  0  0
   19.9829   -0.1940   10.0638 C   0  0  2  0  0  0  0  0  0  0  0  0
   20.8888   -1.2596    9.6363 N   0  0  0  0  0  0  0  0  0  0  0  0
   19.9236   -3.7033    6.6486 C   0  0  0  0  0  0  0  0  0  0  0  0
   14.6602   -0.1242    6.9676 C   0  0  2  0  0  0  0  0  0  0  0  0
   14.7044    0.8323    8.0486 O   0  0  0  0  0  0  0  0  0  0  0  0
   11.0383   -1.2225    8.7644 C   0  0  2  0  0  0  0  0  0  0  0  0
   11.4350   -0.0712    9.6177 N   0  0  0  0  0  0  0  0  0  0  0  0
   10.7779    0.0325   13.1838 C   0  0  1  0  0  0  0  0  0  0  0  0
   11.0640    0.1216   14.5940 O   0  0  0  0  0  0  0  0  0  0  0  0
   19.4356   -0.5051   11.4931 C   0  0  0  0  0  0  0  0  0  0  0  0
   19.5974   -2.8343    7.9293 C   0  0  2  0  0  0  0  0  0  0  0  0
   19.5073   -3.6831    9.1219 N   0  0  0  0  0  0  0  0  0  0  0  0
   13.5109   -1.0872    7.0432 C   0  0  2  0  0  0  0  0  0  0  0  0
   13.3523   -1.5623    8.3561 O   0  0  0  0  0  0  0  0  0  0  0  0
    9.6945   -1.9544    9.2043 C   0  0  1  0  0  0  0  0  0  0  0  0
    9.4726   -3.0732    8.3396 O   0  0  0  0  0  0  0  0  0  0  0  0
   11.4628    1.2037   12.4899 C   0  0  1  0  0  0  0  0  0  0  0  0
   11.1522    2.3819   13.2419 O   0  0  0  0  0  0  0  0  0  0  0  0
   18.4570    0.6306   11.9153 C   0  0  2  0  0  0  0  0  0  0  0  0
   17.9810    0.4512   13.2372 O   0  0  0  0  0  0  0  0  0  0  0  0
   18.2774   -2.0460    7.7264 C   0  0  2  0  0  0  0  0  0  0  0  0
   13.9500   -2.3327    6.2459 C   0  0  2  0  0  0  0  0  0  0  0  0
   15.3567   -2.3195    6.4298 O   0  0  0  0  0  0  0  0  0  0  0  0
    9.8145   -2.5550   10.6651 C   0  0  2  0  0  0  0  0  0  0  0  0
   10.0004   -1.4119   11.5014 O   0  0  0  0  0  0  0  0  0  0  0  0
   12.9817    1.0554   12.3846 C   0  0  2  0  0  0  0  0  0  0  0  0
   13.4343    2.0518   11.4535 O   0  0  0  0  0  0  0  0  0  0  0  0
   17.2951    0.6787   10.8922 C   0  0  2  0  0  0  0  0  0  0  0  0
   17.8754    0.9872    9.5927 O   0  0  0  0  0  0  0  0  0  0  0  0
   18.2389   -1.1884    6.4210 C   0  0  2  0  0  0  0  0  0  0  0  0
   16.9353   -0.5554    6.2934 O   0  0  0  0  0  0  0  0  0  0  0  0
   13.6353   -2.3298    4.7504 C   0  0  0  0  0  0  0  0  0  0  0  0
   14.8842   -2.3865    4.0457 O   0  0  0  0  0  0  0  0  0  0  0  0
   11.1348   -3.3008   10.6947 C   0  0  1  0  0  0  0  0  0  0  0  0
   12.3693   -3.0290    9.9970 O   0  0  0  0  0  0  0  0  0  0  0  0
   13.3805   -0.3704   12.0205 C   0  0  2  0  0  0  0  0  0  0  0  0
   12.6007   -1.4967   12.4511 O   0  0  0  0  0  0  0  0  0  0  0  0
   16.3152    1.7670   11.1713 C   0  0  0  0  0  0  0  0  0  0  0  0
   15.6338    2.0392    9.9706 O   0  0  0  0  0  0  0  0  0  0  0  0
   18.6141   -2.0563    5.1728 C   0  0  1  0  0  0  0  0  0  0  0  0
   18.7447   -1.1517    4.0441 O   0  0  0  0  0  0  0  0  0  0  0  0
   11.4591   -4.0855   12.0030 C   0  0  0  0  0  0  0  0  0  0  0  0
   12.8944   -4.0696   12.3559 N   0  0  0  0  0  0  0  0  0  0  0  0
   14.8326   -0.8134   11.8574 C   0  0  0  0  0  0  0  0  0  0  0  0
   14.9360   -1.7894   10.7871 O   0  0  0  0  0  0  0  0  0  0  0  0
  1  2  1  1  0  0  0
  1  8  1  0  0  0  0
  1 36  1  0  0  0  0
  3  4  1  6  0  0  0
  3 10  1  0  0  0  0
  3 47  1  0  0  0  0
  5 11  1  0  0  0  0
  5 30  1  0  0  0  0
  5 38  1  6  0  0  0
  6 21  1  1  0  0  0
  6 42  1  0  0  0  0
  7 15  1  0  0  0  0
  7 44  1  0  0  0  0
  7 32  1  6  0  0  0
  8  9  1  6  0  0  0
  8 17  1  0  0  0  0
 11 12  1  1  0  0  0
 11 20  1  0  0  0  0
 13  6  1  0  0  0  0
 13 14  1  1  0  0  0
 15 16  1  1  0  0  0
 15 24  1  0  0  0  0
 17 26  1  0  0  0  0
 18 10  1  0  0  0  0
 18 19  1  1  0  0  0
 20 21  1  1  0  0  0
 20 29  1  0  0  0  0
 22 13  1  0  0  0  0
 22 23  1  6  0  0  0
 24 25  1  1  0  0  0
 24 33  1  0  0  0  0
 26 27  1  1  0  0  0
 26 35  1  0  0  0  0
 28  2  1  1  0  0  0
 28 18  1  0  0  0  0
 29 30  1  0  0  0  0
 29 39  1  6  0  0  0
 31 22  1  0  0  0  0
 31 32  1  1  0  0  0
 31 41  1  0  0  0  0
 33 34  1  6  0  0  0
 33 43  1  0  0  0  0
 35 36  1  0  0  0  0
 35 45  1  1  0  0  0
 37 28  1  0  0  0  0
 37 38  1  6  0  0  0
 39 40  1  0  0  0  0
 41 42  1  0  0  0  0
 41 49  1  1  0  0  0
 43 44  1  0  0  0  0
 43 51  1  1  0  0  0
 45 46  1  0  0  0  0
 47 37  1  0  0  0  0
 47 48  1  6  0  0  0
 49 50  1  0  0  0  0
 51 52  1  0  0  0  0
M  END
>  <CHROM.1>
-105.32468946,167.93051309,-75.07366487,-177.48925428,169.87485869,81.87211791
117.87741546,-133.03463834,158.28458677,-20.56865479,-144.36635842,-143.95362415
14.97929258,-1.10342211,9.37089861,-0.55630107,0.16278746,1.13524867

>  <Name>
2esj_lig

>  <RI>
0

>  <Rbt.Current_Directory>
/home/itssahil/PROJECTS/Mol_Feturizer/New_Systems/rnas/2esj

>  <Rbt.Executable>
rbdock ($Id: //depot/dev/client3/rdock/2013.1/src/exe/rbdock.cxx#4 $)

>  <Rbt.Library>
libRbt.so (2013.1, Build901 2013/11/27)

>  <Rbt.Parameter_File>
/export/apps/rDock/src/rDock_2013.1_src/data/scripts/dock_solv.prm

>  <Rbt.Receptor>
prm/blind_docking_40.prm

>  <SCORE>
19.0254

>  <SCORE.INTER>
-8.24851

>  <SCORE.INTER.CONST>
1

>  <SCORE.INTER.POLAR>
-1.50712

>  <SCORE.INTER.ROT>
12

>  <SCORE.INTER.SOLV>
24.3939

>  <SCORE.INTER.VDW>
-20.2066

>  <SCORE.INTER.norm>
-0.158625

>  <SCORE.INTRA>
17.1962

>  <SCORE.INTRA.DIHEDRAL>
1.59875

>  <SCORE.INTRA.DIHEDRAL.0>
32.9766

>  <SCORE.INTRA.POLAR>
0

>  <SCORE.INTRA.POLAR.0>
0

>  <SCORE.INTRA.REPUL>
0.694637

>  <SCORE.INTRA.REPUL.0>
0

>  <SCORE.INTRA.SOLV>
13.422

>  <SCORE.INTRA.SOLV.lig_0>
-114.358

>  <SCORE.INTRA.VDW>
6.21262

>  <SCORE.INTRA.VDW.0>
-8.24257

>  <SCORE.INTRA.norm>
0.330696

>  <SCORE.RESTR>
10.0777

>  <SCORE.RESTR.CAVITY>
10.0777

>  <SCORE.RESTR.norm>
0.193802

>  <SCORE.SYSTEM>
0

>  <SCORE.SYSTEM.CONST>
0

>  <SCORE.SYSTEM.DIHEDRAL>
0

>  <SCORE.SYSTEM.SOLV>
0

>  <SCORE.SYSTEM.norm>
0

>  <SCORE.heavy>
52

>  <SCORE.norm>
0.365873

>  <RMSD>
13.542

$$$$
2esj_lig
 OpenBabel11021811423D
libRbt.so/2013.1/901 2013/11/27
 52 56  0  0  0  0  0  0  0  0999 V2000
    9.9248   -1.7528    6.0746 C   0  0  2  0  0  0  0  0  0  0  0  0
    9.3378   -2.3621    7.2403 O   0  0  0  0  0  0  0  0  0  0  0  0
    5.1542   -3.2452    7.3173 C   0  0  2  0  0  0  0  0  0  0  0  0
    3.8349   -3.8896    7.2102 N   0  0  0  0  0  0  0  0  0  0  0  0
    9.4264   -3.2720    9.9951 C   0  0  1  0  0  0  0  0  0  0  0  0
   12.4172   -1.5401   11.7743 C   0  0  1  0  0  0  0  0  0  0  0  0
   17.0668   -1.6076    9.8594 C   0  0  1  0  0  0  0  0  0  0  0  0
   10.8006   -2.8321    5.3723 C   0  0  2  0  0  0  0  0  0  0  0  0
   10.0352   -4.0317    5.0344 N   0  0  0  0  0  0  0  0  0  0  0  0
    5.8986   -3.2837    5.9237 C   0  0  0  0  0  0  0  0  0  0  0  0
    9.0792   -1.8114   10.2859 C   0  0  2  0  0  0  0  0  0  0  0  0
    9.2533   -0.9635    9.1300 O   0  0  0  0  0  0  0  0  0  0  0  0
   13.5772   -0.6113   11.1973 C   0  0  2  0  0  0  0  0  0  0  0  0
   13.7439   -0.8115    9.7334 N   0  0  0  0  0  0  0  0  0  0  0  0
   16.2494   -0.3766    9.4850 C   0  0  1  0  0  0  0  0  0  0  0  0
   17.0946    0.7897    9.5459 O   0  0  0  0  0  0  0  0  0  0  0  0
   12.0269   -3.2180    6.2591 C   0  0  0  0  0  0  0  0  0  0  0  0
    7.2870   -2.5355    6.0435 C   0  0  2  0  0  0  0  0  0  0  0  0
    8.0051   -2.5687    4.7652 N   0  0  0  0  0  0  0  0  0  0  0  0
   10.0303   -1.5225   11.4111 C   0  0  2  0  0  0  0  0  0  0  0  0
   11.3323   -1.3320   10.9184 O   0  0  0  0  0  0  0  0  0  0  0  0
   14.8959   -0.8344   12.0612 C   0  0  1  0  0  0  0  0  0  0  0  0
   14.5742   -0.6732   13.4466 O   0  0  0  0  0  0  0  0  0  0  0  0
   15.6042   -0.4186    8.1050 C   0  0  1  0  0  0  0  0  0  0  0  0
   15.0902    0.8909    7.8379 O   0  0  0  0  0  0  0  0  0  0  0  0
   12.8112   -1.9229    6.6242 C   0  0  2  0  0  0  0  0  0  0  0  0
   13.9834   -2.2086    7.3662 O   0  0  0  0  0  0  0  0  0  0  0  0
    8.1496   -3.1718    7.1642 C   0  0  2  0  0  0  0  0  0  0  0  0
   10.1274   -2.8275   12.2279 C   0  0  2  0  0  0  0  0  0  0  0  0
    9.9049   -3.8148   11.2336 O   0  0  0  0  0  0  0  0  0  0  0  0
   15.4405   -2.3146   11.9140 C   0  0  2  0  0  0  0  0  0  0  0  0
   15.7821   -2.4279   10.5316 O   0  0  0  0  0  0  0  0  0  0  0  0
   16.5662   -0.8234    6.9867 C   0  0  2  0  0  0  0  0  0  0  0  0
   15.7629   -1.1196    5.8328 O   0  0  0  0  0  0  0  0  0  0  0  0
   11.8599   -0.9794    7.4015 C   0  0  2  0  0  0  0  0  0  0  0  0
   10.7545   -0.6509    6.5121 O   0  0  0  0  0  0  0  0  0  0  0  0
    7.4277   -3.2751    8.5460 C   0  0  2  0  0  0  0  0  0  0  0  0
    8.2949   -3.9517    9.4982 O   0  0  0  0  0  0  0  0  0  0  0  0
    9.1083   -3.0041   13.3531 C   0  0  0  0  0  0  0  0  0  0  0  0
    9.3405   -1.9637   14.3140 O   0  0  0  0  0  0  0  0  0  0  0  0
   14.2368   -3.2158   12.1117 C   0  0  1  0  0  0  0  0  0  0  0  0
   12.8486   -2.9950   11.7818 O   0  0  0  0  0  0  0  0  0  0  0  0
   17.4826   -1.9615    7.4219 C   0  0  2  0  0  0  0  0  0  0  0  0
   17.9075   -2.0974    8.7868 O   0  0  0  0  0  0  0  0  0  0  0  0
   12.4935    0.3205    7.7637 C   0  0  0  0  0  0  0  0  0  0  0  0
   11.6162    0.9882    8.6381 O   0  0  0  0  0  0  0  0  0  0  0  0
    6.0340   -3.9732    8.3959 C   0  0  1  0  0  0  0  0  0  0  0  0
    5.3540   -3.8541    9.6736 O   0  0  0  0  0  0  0  0  0  0  0  0
   14.5134   -4.7508   12.1197 C   0  0  0  0  0  0  0  0  0  0  0  0
   15.1950   -5.2176   13.3454 N   0  0  0  0  0  0  0  0  0  0  0  0
   18.5519   -2.5638    6.5135 C   0  0  0  0  0  0  0  0  0  0  0  0
   19.8434   -1.9671    6.8048 O   0  0  0  0  0  0  0  0  0  0  0  0
  1  2  1  1  0  0  0
  1  8  1  0  0  0  0
  1 36  1  0  0  0  0
  3  4  1  6  0  0  0
  3 10  1  0  0  0  0
  3 47  1  0  0  0  0
  5 11  1  0  0  0  0
  5 30  1  0  0  0  0
  5 38  1  1  0  0  0
  6 21  1  6  0  0  0
  6 42  1  0  0  0  0
  7 15  1  0  0  0  0
  7 44  1  0  0  0  0
  7 32  1  6  0  0  0
  8  9  1  1  0  0  0
  8 17  1  0  0  0  0
 11 12  1  6  0  0  0
 11 20  1  0  0  0  0
 13  6  1  0  0  0  0
 13 14  1  6  0  0  0
 15 16  1  6  0  0  0
 15 24  1  0  0  0  0
 17 26  1  0  0  0  0
 18 10  1  0  0  0  0
 18 19  1  6  0  0  0
 20 21  1  6  0  0  0
 20 29  1  0  0  0  0
 22 13  1  0  0  0  0
 22 23  1  1  0  0  0
 24 25  1  6  0  0  0
 24 33  1  0  0  0  0
 26 27  1  1  0  0  0
 26 35  1  0  0  0  0
 28  2  1  1  0  0  0
 28 18  1  0  0  0  0
 29 30  1  0  0  0  0
 29 39  1  1  0  0  0
 31 22  1  0  0  0  0
 31 32  1  6  0  0  0
 31 41  1  0  0  0  0
 33 34  1  6  0  0  0
 33 43  1  0  0  0  0
 35 36  1  0  0  0  0
 35 45  1  6  0  0  0
 37 28  1  0  0  0  0
 37 38  1  1  0  0  0
 39 40  1  0  0  0  0
 41 42  1  0  0  0  0
 41 49  1  6  0  0  0
 43 44  1  0  0  0  0
 43 51  1  6  0  0  0
 45 46  1  0  0  0  0
 47 37  1  0  0  0  0
 47 48  1  1  0  0  0
 49 50  1  0  0  0  0
 51 52  1  0  0  0  0
M  END
>  <CHROM.1>
-82.21870447,40.70244106,-153.39159860,-90.04831269,-156.67991072,-34.43558892
-63.35743203,69.27400914,-170.74976996,72.12937579,72.54228677,97.20376205
12.02185198,-2.08708633,9.03478125,-3.04825995,0.18066007,1.66526447

>  <Name>
2esj_lig

>  <RI>
0

>  <Rbt.Current_Directory>
/home/itssahil/PROJECTS/Mol_Feturizer/New_Systems/rnas/2esj

>  <Rbt.Executable>
rbdock ($Id: //depot/dev/client3/rdock/2013.1/src/exe/rbdock.cxx#4 $)

>  <Rbt.Library>
libRbt.so (2013.1, Build901 2013/11/27)

>  <Rbt.Parameter_File>
/export/apps/rDock/src/rDock_2013.1_src/data/scripts/dock_solv.prm

>  <Rbt.Receptor>
prm/blind_docking_60.prm

>  <SCORE>
36.2238

>  <SCORE.INTER>
4.30048

>  <SCORE.INTER.CONST>
1

>  <SCORE.INTER.POLAR>
-0.979796

>  <SCORE.INTER.ROT>
12

>  <SCORE.INTER.SOLV>
23.514

>  <SCORE.INTER.VDW>
-13.305

>  <SCORE.INTER.norm>
0.0827015

>  <SCORE.INTRA>
20.2812

>  <SCORE.INTRA.DIHEDRAL>
-10.0213

>  <SCORE.INTRA.DIHEDRAL.0>
32.9766

>  <SCORE.INTRA.POLAR>
0

>  <SCORE.INTRA.POLAR.0>
0

>  <SCORE.INTRA.REPUL>
0.424972

>  <SCORE.INTRA.REPUL.0>
0

>  <SCORE.INTRA.SOLV>
12.2764

>  <SCORE.INTRA.SOLV.lig_0>
-114.358

>  <SCORE.INTRA.VDW>
17.0288

>  <SCORE.INTRA.VDW.0>
-8.24257

>  <SCORE.INTRA.norm>
0.390023

>  <SCORE.RESTR>
11.6421

>  <SCORE.RESTR.CAVITY>
11.6421

>  <SCORE.RESTR.norm>
0.223887

>  <SCORE.SYSTEM>
0

>  <SCORE.SYSTEM.CONST>
0

>  <SCORE.SYSTEM.DIHEDRAL>
0

>  <SCORE.SYSTEM.SOLV>
0

>  <SCORE.SYSTEM.norm>
0

>  <SCORE.heavy>
52

>  <SCORE.norm>
0.696612

>  <RMSD>
13.890

$$$$
2esj_lig
 OpenBabel11021811423D
libRbt.so/2013.1/901 2013/11/27
 52 56  0  0  0  0  0  0  0  0999 V2000
    8.2772   -3.7580    5.5786 C   0  0  2  0  0  0  0  0  0  0  0  0
    8.7602   -2.4028    5.6496 O   0  0  0  0  0  0  0  0  0  0  0  0
   12.9072   -2.9310    4.7487 C   0  0  2  0  0  0  0  0  0  0  0  0
   14.3571   -2.7508    4.5677 N   0  0  0  0  0  0  0  0  0  0  0  0
   10.8259   -1.7868    8.5676 C   0  0  1  0  0  0  0  0  0  0  0  0
   13.1237    0.6902   10.4645 C   0  0  1  0  0  0  0  0  0  0  0  0
   17.1933   -1.8446    8.7962 C   0  0  1  0  0  0  0  0  0  0  0  0
    7.1399   -3.7951    4.5154 C   0  0  2  0  0  0  0  0  0  0  0  0
    7.5854   -3.3053    3.2113 N   0  0  0  0  0  0  0  0  0  0  0  0
   12.1130   -1.8071    3.9720 C   0  0  0  0  0  0  0  0  0  0  0  0
   12.2189   -1.2456    8.2432 C   0  0  2  0  0  0  0  0  0  0  0  0
   13.2334   -1.7720    9.1260 O   0  0  0  0  0  0  0  0  0  0  0  0
   14.1324    1.4324    9.4781 C   0  0  2  0  0  0  0  0  0  0  0  0
   14.1322    0.7953    8.1346 N   0  0  0  0  0  0  0  0  0  0  0  0
   18.4658   -1.3987    9.5071 C   0  0  1  0  0  0  0  0  0  0  0  0
   19.1175   -2.5507   10.0787 O   0  0  0  0  0  0  0  0  0  0  0  0
    5.9014   -2.9736    4.9954 C   0  0  0  0  0  0  0  0  0  0  0  0
   10.5583   -2.0515    4.1291 C   0  0  2  0  0  0  0  0  0  0  0  0
    9.7971   -1.0127    3.4276 N   0  0  0  0  0  0  0  0  0  0  0  0
   11.9804    0.2295    8.3884 C   0  0  2  0  0  0  0  0  0  0  0  0
   11.9295    0.5886    9.7460 O   0  0  0  0  0  0  0  0  0  0  0  0
   15.5602    1.5299   10.1761 C   0  0  1  0  0  0  0  0  0  0  0  0
   15.4002    2.1007   11.4789 O   0  0  0  0  0  0  0  0  0  0  0  0
   19.4793   -0.6707    8.6323 C   0  0  1  0  0  0  0  0  0  0  0  0
   20.6843   -0.5449    9.3954 O   0  0  0  0  0  0  0  0  0  0  0  0
    5.4614   -3.4980    6.3944 C   0  0  2  0  0  0  0  0  0  0  0  0
    4.2919   -2.8464    6.8570 O   0  0  0  0  0  0  0  0  0  0  0  0
   10.1654   -2.0893    5.6288 C   0  0  2  0  0  0  0  0  0  0  0  0
   10.5443    0.4772    7.8826 C   0  0  2  0  0  0  0  0  0  0  0  0
    9.9066   -0.7517    8.1926 O   0  0  0  0  0  0  0  0  0  0  0  0
   16.1900    0.0951   10.4077 C   0  0  2  0  0  0  0  0  0  0  0  0
   16.3665   -0.4286    9.0905 O   0  0  0  0  0  0  0  0  0  0  0  0
   19.7853   -1.3876    7.3161 C   0  0  2  0  0  0  0  0  0  0  0  0
   20.4901   -0.4508    6.4853 O   0  0  0  0  0  0  0  0  0  0  0  0
    6.6436   -3.3145    7.3781 C   0  0  2  0  0  0  0  0  0  0  0  0
    7.7511   -4.1171    6.8779 O   0  0  0  0  0  0  0  0  0  0  0  0
   10.9983   -3.0981    6.4830 C   0  0  2  0  0  0  0  0  0  0  0  0
   10.6014   -2.9970    7.8789 O   0  0  0  0  0  0  0  0  0  0  0  0
   10.3883    0.7656    6.3899 C   0  0  0  0  0  0  0  0  0  0  0  0
   10.9134    2.0788    6.1460 O   0  0  0  0  0  0  0  0  0  0  0  0
   15.0895   -0.7395   11.0342 C   0  0  1  0  0  0  0  0  0  0  0  0
   13.6588   -0.6765   10.8503 O   0  0  0  0  0  0  0  0  0  0  0  0
   18.5213   -1.9595    6.6838 C   0  0  2  0  0  0  0  0  0  0  0  0
   17.4279   -2.4243    7.4900 O   0  0  0  0  0  0  0  0  0  0  0  0
    6.3508   -3.8291    8.7462 C   0  0  0  0  0  0  0  0  0  0  0  0
    6.8808   -2.9060    9.6666 O   0  0  0  0  0  0  0  0  0  0  0  0
   12.5335   -2.8712    6.2732 C   0  0  1  0  0  0  0  0  0  0  0  0
   13.2239   -3.9613    6.9400 O   0  0  0  0  0  0  0  0  0  0  0  0
   15.4773   -2.1872   11.4663 C   0  0  0  0  0  0  0  0  0  0  0  0
   14.8362   -3.2359   10.6453 N   0  0  0  0  0  0  0  0  0  0  0  0
   18.5257   -2.7362    5.3691 C   0  0  0  0  0  0  0  0  0  0  0  0
   19.4069   -3.8855    5.4752 O   0  0  0  0  0  0  0  0  0  0  0  0
  1  2  1  1  0  0  0
  1  8  1  0  0  0  0
  1 36  1  0  0  0  0
  3  4  1  1  0  0  0
  3 10  1  0  0  0  0
  3 47  1  0  0  0  0
  5 11  1  0  0  0  0
  5 30  1  0  0  0  0
  5 38  1  6  0  0  0
  6 21  1  6  0  0  0
  6 42  1  0  0  0  0
  7 15  1  0  0  0  0
  7 44  1  0  0  0  0
  7 32  1  6  0  0  0
  8  9  1  6  0  0  0
  8 17  1  0  0  0  0
 11 12  1  1  0  0  0
 11 20  1  0  0  0  0
 13  6  1  0  0  0  0
 13 14  1  6  0  0  0
 15 16  1  6  0  0  0
 15 24  1  0  0  0  0
 17 26  1  0  0  0  0
 18 10  1  0  0  0  0
 18 19  1  6  0  0  0
 20 21  1  1  0  0  0
 20 29  1  0  0  0  0
 22 13  1  0  0  0  0
 22 23  1  1  0  0  0
 24 25  1  1  0  0  0
 24 33  1  0  0  0  0
 26 27  1  1  0  0  0
 26 35  1  0  0  0  0
 28  2  1  6  0  0  0
 28 18  1  0  0  0  0
 29 30  1  0  0  0  0
 29 39  1  6  0  0  0
 31 22  1  0  0  0  0
 31 32  1  6  0  0  0
 31 41  1  0  0  0  0
 33 34  1  6  0  0  0
 33 43  1  0  0  0  0
 35 36  1  0  0  0  0
 35 45  1  1  0  0  0
 37 28  1  0  0  0  0
 37 38  1  1  0  0  0
 39 40  1  0  0  0  0
 41 42  1  0  0  0  0
 41 49  1  6  0  0  0
 43 44  1  0  0  0  0
 43 51  1  1  0  0  0
 45 46  1  0  0  0  0
 47 37  1  0  0  0  0
 47 48  1  1  0  0  0
 49 50  1  0  0  0  0
 51 52  1  0  0  0  0
M  END
>  <CHROM.1>
-132.72816845,-43.57204220,42.24276120,-55.31981099,77.00622313,84.27727619
-71.40382380,171.55967086,-139.06898378,-63.78065724,-111.34633864,57.53953157
12.85335897,-1.62061506,7.62319069,-2.87563477,0.02926036,1.08543192

>  <Name>
2esj_lig

>  <RI>
0

>  <Rbt.Current_Directory>
/home/itssahil/PROJECTS/Mol_Feturizer/New_Systems/rnas/2esj

>  <Rbt.Executable>
rbdock ($Id: //depot/dev/client3/rdock/2013.1/src/exe/rbdock.cxx#4 $)

>  <Rbt.Library>
libRbt.so (2013.1, Build901 2013/11/27)

>  <Rbt.Parameter_File>
/export/apps/rDock/src/rDock_2013.1_src/data/scripts/dock_solv.prm

>  <Rbt.Receptor>
prm/blind_docking_60.prm

>  <SCORE>
46.327

>  <SCORE.INTER>
7.53032

>  <SCORE.INTER.CONST>
1

>  <SCORE.INTER.POLAR>
0

>  <SCORE.INTER.ROT>
12

>  <SCORE.INTER.SOLV>
25.3677

>  <SCORE.INTER.VDW>
-15.0357

>  <SCORE.INTER.norm>
0.144814

>  <SCORE.INTRA>
27.0531

>  <SCORE.INTRA.DIHEDRAL>
-9.75244

>  <SCORE.INTRA.DIHEDRAL.0>
32.9766

>  <SCORE.INTRA.POLAR>
0

>  <SCORE.INTRA.POLAR.0>
0

>  <SCORE.INTRA.REPUL>
0.0404348

>  <SCORE.INTRA.REPUL.0>
0

>  <SCORE.INTRA.SOLV>
8.45106

>  <SCORE.INTRA.SOLV.lig_0>
-114.358

>  <SCORE.INTRA.VDW>
27.5016

>  <SCORE.INTRA.VDW.0>
-8.24257

>  <SCORE.INTRA.norm>
0.520251

>  <SCORE.RESTR>
11.7436

>  <SCORE.RESTR.CAVITY>
11.7436

>  <SCORE.RESTR.norm>
0.225839

>  <SCORE.SYSTEM>
0

>  <SCORE.SYSTEM.CONST>
0

>  <SCORE.SYSTEM.DIHEDRAL>
0

>  <SCORE.SYSTEM.SOLV>
0

>  <SCORE.SYSTEM.norm>
0

>  <SCORE.heavy>
52

>  <SCORE.norm>
0.890904

>  <RMSD>
13.906

$$$$
2esj_lig
 OpenBabel11021811423D
libRbt.so/2013.1/901 2013/11/27
 52 56  0  0  0  0  0  0  0  0999 V2000
    7.1343   -3.9853    6.3624 C   0  0  2  0  0  0  0  0  0  0  0  0
    7.7787   -2.8256    6.9234 O   0  0  0  0  0  0  0  0  0  0  0  0
   10.2951   -1.5282   10.1284 C   0  0  2  0  0  0  0  0  0  0  0  0
   11.2380   -1.4580   11.2569 N   0  0  0  0  0  0  0  0  0  0  0  0
   12.0046   -2.2051    6.1180 C   0  0  1  0  0  0  0  0  0  0  0  0
   15.4104   -2.3565    7.0047 C   0  0  1  0  0  0  0  0  0  0  0  0
   16.6157    1.5057    9.8920 C   0  0  1  0  0  0  0  0  0  0  0  0
    6.4800   -3.5530    5.0170 C   0  0  2  0  0  0  0  0  0  0  0  0
    7.4505   -2.9672    4.0928 N   0  0  0  0  0  0  0  0  0  0  0  0
    9.1078   -2.5151   10.4656 C   0  0  0  0  0  0  0  0  0  0  0  0
   12.9164   -3.4310    6.1841 C   0  0  2  0  0  0  0  0  0  0  0  0
   13.4170   -3.6736    7.5167 O   0  0  0  0  0  0  0  0  0  0  0  0
   14.8285   -1.2159    7.9541 C   0  0  2  0  0  0  0  0  0  0  0  0
   14.9896    0.1272    7.3368 N   0  0  0  0  0  0  0  0  0  0  0  0
   17.6627    1.3281   10.9854 C   0  0  1  0  0  0  0  0  0  0  0  0
   17.9642    2.6130   11.5657 O   0  0  0  0  0  0  0  0  0  0  0  0
    5.3098   -2.5486    5.2638 C   0  0  0  0  0  0  0  0  0  0  0  0
    8.0757   -2.5319    9.2672 C   0  0  2  0  0  0  0  0  0  0  0  0
    6.9691   -3.4519    9.5496 N   0  0  0  0  0  0  0  0  0  0  0  0
   13.9721   -3.0412    5.1903 C   0  0  2  0  0  0  0  0  0  0  0  0
   14.8511   -2.0988    5.7503 O   0  0  0  0  0  0  0  0  0  0  0  0
   15.4703   -1.3718    9.4029 C   0  0  1  0  0  0  0  0  0  0  0  0
   15.2972   -2.7229    9.8426 O   0  0  0  0  0  0  0  0  0  0  0  0
   17.2712    0.3822   12.1143 C   0  0  1  0  0  0  0  0  0  0  0  0
   18.2545    0.5237   13.1455 O   0  0  0  0  0  0  0  0  0  0  0  0
    4.3035   -3.1854    6.2676 C   0  0  2  0  0  0  0  0  0  0  0  0
    3.1741   -2.3570    6.4780 O   0  0  0  0  0  0  0  0  0  0  0  0
    8.7857   -2.9299    7.9472 C   0  0  2  0  0  0  0  0  0  0  0  0
   13.2402   -2.2566    4.0820 C   0  0  2  0  0  0  0  0  0  0  0  0
   12.1663   -1.6676    4.7980 O   0  0  0  0  0  0  0  0  0  0  0  0
   17.0347   -1.1249    9.3721 C   0  0  2  0  0  0  0  0  0  0  0  0
   17.1680    0.2374    8.9638 O   0  0  0  0  0  0  0  0  0  0  0  0
   15.8835    0.6576   12.6960 C   0  0  2  0  0  0  0  0  0  0  0  0
   15.5377   -0.4786   13.5048 O   0  0  0  0  0  0  0  0  0  0  0  0
    5.0529   -3.4753    7.5917 C   0  0  2  0  0  0  0  0  0  0  0  0
    6.1140   -4.4258    7.2892 O   0  0  0  0  0  0  0  0  0  0  0  0
   10.0451   -2.0677    7.6133 C   0  0  2  0  0  0  0  0  0  0  0  0
   10.6730   -2.5729    6.4022 O   0  0  0  0  0  0  0  0  0  0  0  0
   12.6831   -3.0786    2.9203 C   0  0  0  0  0  0  0  0  0  0  0  0
   12.3376   -4.3735    3.4334 O   0  0  0  0  0  0  0  0  0  0  0  0
   17.5574   -1.9511    8.2127 C   0  0  1  0  0  0  0  0  0  0  0  0
   16.9262   -2.2963    6.9609 O   0  0  0  0  0  0  0  0  0  0  0  0
   14.8721    0.9795   11.6015 C   0  0  2  0  0  0  0  0  0  0  0  0
   15.2659    1.6525   10.3958 O   0  0  0  0  0  0  0  0  0  0  0  0
    4.1942   -4.1337    8.6172 C   0  0  0  0  0  0  0  0  0  0  0  0
    3.1340   -3.2550    8.9070 O   0  0  0  0  0  0  0  0  0  0  0  0
   11.0289   -2.0233    8.8308 C   0  0  1  0  0  0  0  0  0  0  0  0
   12.0635   -1.0551    8.5122 O   0  0  0  0  0  0  0  0  0  0  0  0
   19.1048   -1.9719    8.0178 C   0  0  0  0  0  0  0  0  0  0  0  0
   19.6201   -0.7933    7.2897 N   0  0  0  0  0  0  0  0  0  0  0  0
   13.4086    1.3064   11.8896 C   0  0  0  0  0  0  0  0  0  0  0  0
   12.7375    1.6985   10.6630 O   0  0  0  0  0  0  0  0  0  0  0  0
  1  2  1  1  0  0  0
  1  8  1  0  0  0  0
  1 36  1  0  0  0  0
  3  4  1  1  0  0  0
  3 10  1  0  0  0  0
  3 47  1  0  0  0  0
  5 11  1  0  0  0  0
  5 30  1  0  0  0  0
  5 38  1  6  0  0  0
  6 21  1  6  0  0  0
  6 42  1  0  0  0  0
  7 15  1  0  0  0  0
  7 44  1  0  0  0  0
  7 32  1  6  0  0  0
  8  9  1  6  0  0  0
  8 17  1  0  0  0  0
 11 12  1  1  0  0  0
 11 20  1  0  0  0  0
 13  6  1  0  0  0  0
 13 14  1  6  0  0  0
 15 16  1  1  0  0  0
 15 24  1  0  0  0  0
 17 26  1  0  0  0  0
 18 10  1  0  0  0  0
 18 19  1  1  0  0  0
 20 21  1  1  0  0  0
 20 29  1  0  0  0  0
 22 13  1  0  0  0  0
 22 23  1  6  0  0  0
 24 25  1  1  0  0  0
 24 33  1  0  0  0  0
 26 27  1  1  0  0  0
 26 35  1  0  0  0  0
 28  2  1  6  0  0  0
 28 18  1  0  0  0  0
 29 30  1  0  0  0  0
 29 39  1  6  0  0  0
 31 22  1  0  0  0  0
 31 32  1  6  0  0  0
 31 41  1  0  0  0  0
 33 34  1  6  0  0  0
 33 43  1  0  0  0  0
 35 36  1  0  0  0  0
 35 45  1  1  0  0  0
 37 28  1  0  0  0  0
 37 38  1  6  0  0  0
 39 40  1  0  0  0  0
 41 42  1  0  0  0  0
 41 49  1  6  0  0  0
 43 44  1  0  0  0  0
 43 51  1  1  0  0  0
 45 46  1  0  0  0  0
 47 37  1  0  0  0  0
 47 48  1  6  0  0  0
 49 50  1  0  0  0  0
 51 52  1  0  0  0  0
M  END
>  <CHROM.1>
-162.01823501,113.89072362,-115.54433160,69.35122280,49.67501920,-103.57727029
30.45966063,64.55329627,-61.19344716,-162.45452564,-82.02221700,174.23482218
12.21577973,-1.68161174,8.23002119,-2.77211998,0.15743337,1.16511656

>  <Name>
2esj_lig

>  <RI>
0

>  <Rbt.Current_Directory>
/home/itssahil/PROJECTS/Mol_Feturizer/New_Systems/rnas/2esj

>  <Rbt.Executable>
rbdock ($Id: //depot/dev/client3/rdock/2013.1/src/exe/rbdock.cxx#4 $)

>  <Rbt.Library>
libRbt.so (2013.1, Build901 2013/11/27)

>  <Rbt.Parameter_File>
/export/apps/rDock/src/rDock_2013.1_src/data/scripts/dock_solv.prm

>  <Rbt.Receptor>
prm/blind_docking_60.prm

>  <SCORE>
20.7554

>  <SCORE.INTER>
0.909164

>  <SCORE.INTER.CONST>
1

>  <SCORE.INTER.POLAR>
0

>  <SCORE.INTER.ROT>
12

>  <SCORE.INTER.SOLV>
22.2773

>  <SCORE.INTER.VDW>
-18.4197

>  <SCORE.INTER.norm>
0.0174839

>  <SCORE.INTRA>
9.02271

>  <SCORE.INTRA.DIHEDRAL>
-1.35184

>  <SCORE.INTRA.DIHEDRAL.0>
32.9766

>  <SCORE.INTRA.POLAR>
0

>  <SCORE.INTRA.POLAR.0>
0

>  <SCORE.INTRA.REPUL>
0

>  <SCORE.INTRA.REPUL.0>
0

>  <SCORE.INTRA.SOLV>
6.59942

>  <SCORE.INTRA.SOLV.lig_0>
-114.358

>  <SCORE.INTRA.VDW>
6.39892

>  <SCORE.INTRA.VDW.0>
-8.24257

>  <SCORE.INTRA.norm>
0.173514

>  <SCORE.RESTR>
10.8235

>  <SCORE.RESTR.CAVITY>
10.8235

>  <SCORE.RESTR.norm>
0.208144

>  <SCORE.SYSTEM>
0

>  <SCORE.SYSTEM.CONST>
0

>  <SCORE.SYSTEM.DIHEDRAL>
0

>  <SCORE.SYSTEM.SOLV>
0

>  <SCORE.SYSTEM.norm>
0

>  <SCORE.heavy>
52

>  <SCORE.norm>
0.399142

>  <RMSD>
13.965

$$$$
2esj_lig
 OpenBabel11021811423D
libRbt.so/2013.1/901 2013/11/27
 52 56  0  0  0  0  0  0  0  0999 V2000
   16.2902   -1.0786    9.4536 C   0  0  2  0  0  0  0  0  0  0  0  0
   16.5804   -0.5984    8.1269 O   0  0  0  0  0  0  0  0  0  0  0  0
   18.7101   -1.9252    4.6640 C   0  0  2  0  0  0  0  0  0  0  0  0
   19.2695   -2.7153    3.5549 N   0  0  0  0  0  0  0  0  0  0  0  0
   14.3311   -1.0764    6.7293 C   0  0  1  0  0  0  0  0  0  0  0  0
   12.4088   -2.2556    9.7520 C   0  0  1  0  0  0  0  0  0  0  0  0
   11.1704   -0.3576   13.6311 C   0  0  1  0  0  0  0  0  0  0  0  0
   15.3997   -0.0103   10.1543 C   0  0  2  0  0  0  0  0  0  0  0  0
   14.1807    0.2760    9.3984 N   0  0  0  0  0  0  0  0  0  0  0  0
   19.0335   -2.6160    6.0481 C   0  0  0  0  0  0  0  0  0  0  0  0
   12.8464   -0.8620    6.4322 C   0  0  2  0  0  0  0  0  0  0  0  0
   12.4324    0.5038    6.6529 O   0  0  0  0  0  0  0  0  0  0  0  0
   10.9229   -2.6373   10.1851 C   0  0  2  0  0  0  0  0  0  0  0  0
   10.0895   -1.4194   10.3669 N   0  0  0  0  0  0  0  0  0  0  0  0
    9.7781    0.2621   13.6013 C   0  0  1  0  0  0  0  0  0  0  0  0
    9.6526    1.1974   14.6911 O   0  0  0  0  0  0  0  0  0  0  0  0
   16.1979    1.3107   10.3931 C   0  0  0  0  0  0  0  0  0  0  0  0
   18.4769   -1.7233    7.2291 C   0  0  2  0  0  0  0  0  0  0  0  0
   18.7525   -2.3498    8.5262 N   0  0  0  0  0  0  0  0  0  0  0  0
   12.2319   -1.8529    7.3779 C   0  0  2  0  0  0  0  0  0  0  0  0
   12.2537   -1.3575    8.6926 O   0  0  0  0  0  0  0  0  0  0  0  0
   10.9850   -3.6046   11.4483 C   0  0  1  0  0  0  0  0  0  0  0  0
   11.8675   -4.6927   11.1548 O   0  0  0  0  0  0  0  0  0  0  0  0
    9.4171    0.9904   12.3122 C   0  0  1  0  0  0  0  0  0  0  0  0
    8.1952    1.6969   12.5530 O   0  0  0  0  0  0  0  0  0  0  0  0
   17.5008    0.9762   11.1782 C   0  0  2  0  0  0  0  0  0  0  0  0
   18.2376    2.1430   11.4973 O   0  0  0  0  0  0  0  0  0  0  0  0
   16.9541   -1.4860    7.0566 C   0  0  2  0  0  0  0  0  0  0  0  0
   13.1972   -3.0556    7.4160 C   0  0  2  0  0  0  0  0  0  0  0  0
   14.4497   -2.4359    7.1708 O   0  0  0  0  0  0  0  0  0  0  0  0
   11.6068   -2.8722   12.7077 C   0  0  2  0  0  0  0  0  0  0  0  0
   10.6860   -1.8177   12.9917 O   0  0  0  0  0  0  0  0  0  0  0  0
   10.4878    1.9758   11.8403 C   0  0  2  0  0  0  0  0  0  0  0  0
   10.1568    2.3354   10.4891 O   0  0  0  0  0  0  0  0  0  0  0  0
   18.3391   -0.0143   10.3326 C   0  0  2  0  0  0  0  0  0  0  0  0
   17.5424   -1.2217   10.1645 O   0  0  0  0  0  0  0  0  0  0  0  0
   16.5502   -0.9140    5.6599 C   0  0  2  0  0  0  0  0  0  0  0  0
   15.1019   -0.8026    5.5804 O   0  0  0  0  0  0  0  0  0  0  0  0
   12.9623   -4.1505    6.3760 C   0  0  0  0  0  0  0  0  0  0  0  0
   13.2983   -3.6059    5.0914 O   0  0  0  0  0  0  0  0  0  0  0  0
   12.8652   -2.1905   12.2057 C   0  0  1  0  0  0  0  0  0  0  0  0
   13.1599   -1.6252   10.9102 O   0  0  0  0  0  0  0  0  0  0  0  0
   11.8900    1.4022   12.0111 C   0  0  2  0  0  0  0  0  0  0  0  0
   12.2015    0.4987   13.0828 O   0  0  0  0  0  0  0  0  0  0  0  0
   19.5951   -0.4444   11.0108 C   0  0  0  0  0  0  0  0  0  0  0  0
   20.6262   -0.4042   10.0541 O   0  0  0  0  0  0  0  0  0  0  0  0
   17.1537   -1.7835    4.5058 C   0  0  1  0  0  0  0  0  0  0  0  0
   16.8988   -1.0812    3.2604 O   0  0  0  0  0  0  0  0  0  0  0  0
   13.7398   -1.4715   13.2785 C   0  0  0  0  0  0  0  0  0  0  0  0
   14.6017   -0.4101   12.7171 N   0  0  0  0  0  0  0  0  0  0  0  0
   13.1554    2.1688   11.6330 C   0  0  0  0  0  0  0  0  0  0  0  0
   13.0166    2.7277   10.2999 O   0  0  0  0  0  0  0  0  0  0  0  0
  1  2  1  6  0  0  0
  1  8  1  0  0  0  0
  1 36  1  0  0  0  0
  3  4  1  6  0  0  0
  3 10  1  0  0  0  0
  3 47  1  0  0  0  0
  5 11  1  0  0  0  0
  5 30  1  0  0  0  0
  5 38  1  6  0  0  0
  6 21  1  6  0  0  0
  6 42  1  0  0  0  0
  7 15  1  0  0  0  0
  7 44  1  0  0  0  0
  7 32  1  6  0  0  0
  8  9  1  6  0  0  0
  8 17  1  0  0  0  0
 11 12  1  1  0  0  0
 11 20  1  0  0  0  0
 13  6  1  0  0  0  0
 13 14  1  1  0  0  0
 15 16  1  1  0  0  0
 15 24  1  0  0  0  0
 17 26  1  0  0  0  0
 18 10  1  0  0  0  0
 18 19  1  1  0  0  0
 20 21  1  1  0  0  0
 20 29  1  0  0  0  0
 22 13  1  0  0  0  0
 22 23  1  6  0  0  0
 24 25  1  1  0  0  0
 24 33  1  0  0  0  0
 26 27  1  6  0  0  0
 26 35  1  0  0  0  0
 28  2  1  1  0  0  0
 28 18  1  0  0  0  0
 29 30  1  0  0  0  0
 29 39  1  6  0  0  0
 31 22  1  0  0  0  0
 31 32  1  6  0  0  0
 31 41  1  0  0  0  0
 33 34  1  6  0  0  0
 33 43  1  0  0  0  0
 35 36  1  0  0  0  0
 35 45  1  1  0  0  0
 37 28  1  0  0  0  0
 37 38  1  1  0  0  0
 39 40  1  0  0  0  0
 41 42  1  0  0  0  0
 41 49  1  1  0  0  0
 43 44  1  0  0  0  0
 43 51  1  1  0  0  0
 45 46  1  0  0  0  0
 47 37  1  0  0  0  0
 47 48  1  6  0  0  0
 49 50  1  0  0  0  0
 51 52  1  0  0  0  0
M  END
>  <CHROM.1>
-157.40930510,178.46768583,-92.10426966,177.29182667,-146.92314330,-83.16049166
69.01946212,-147.81252152,-136.06660585,5.86948787,-156.83929622,-48.51935543
14.16690005,-0.83059704,9.49821463,-0.72052616,0.16460255,1.12571733

>  <Name>
2esj_lig

>  <RI>
0

>  <Rbt.Current_Directory>
/home/itssahil/PROJECTS/Mol_Feturizer/New_Systems/rnas/2esj

>  <Rbt.Executable>
rbdock ($Id: //depot/dev/client3/rdock/2013.1/src/exe/rbdock.cxx#4 $)

>  <Rbt.Library>
libRbt.so (2013.1, Build901 2013/11/27)

>  <Rbt.Parameter_File>
/export/apps/rDock/src/rDock_2013.1_src/data/scripts/dock_solv.prm

>  <Rbt.Receptor>
prm/blind_docking_40.prm

>  <SCORE>
69.5107

>  <SCORE.INTER>
34.721

>  <SCORE.INTER.CONST>
1

>  <SCORE.INTER.POLAR>
-1.23526

>  <SCORE.INTER.ROT>
12

>  <SCORE.INTER.SOLV>
19.352

>  <SCORE.INTER.VDW>
9.21418

>  <SCORE.INTER.norm>
0.667711

>  <SCORE.INTRA>
22.415

>  <SCORE.INTRA.DIHEDRAL>
0.150093

>  <SCORE.INTRA.DIHEDRAL.0>
32.9766

>  <SCORE.INTRA.POLAR>
0

>  <SCORE.INTRA.POLAR.0>
0

>  <SCORE.INTRA.REPUL>
0.0650719

>  <SCORE.INTRA.REPUL.0>
0

>  <SCORE.INTRA.SOLV>
20.1469

>  <SCORE.INTRA.SOLV.lig_0>
-114.358

>  <SCORE.INTRA.VDW>
11.9412

>  <SCORE.INTRA.VDW.0>
-8.24257

>  <SCORE.INTRA.norm>
0.431058

>  <SCORE.RESTR>
12.3747

>  <SCORE.RESTR.CAVITY>
12.3747

>  <SCORE.RESTR.norm>
0.237974

>  <SCORE.SYSTEM>
0

>  <SCORE.SYSTEM.CONST>
0

>  <SCORE.SYSTEM.DIHEDRAL>
0

>  <SCORE.SYSTEM.SOLV>
0

>  <SCORE.SYSTEM.norm>
0

>  <SCORE.heavy>
52

>  <SCORE.norm>
1.33674

>  <RMSD>
14.073

$$$$
2esj_lig
 OpenBabel11021811423D
libRbt.so/2013.1/901 2013/11/27
 52 56  0  0  0  0  0  0  0  0999 V2000
   15.4054   -1.6571    7.7305 C   0  0  2  0  0  0  0  0  0  0  0  0
   15.8401   -1.3664    6.3883 O   0  0  0  0  0  0  0  0  0  0  0  0
   19.5942   -1.8680    4.4026 C   0  0  2  0  0  0  0  0  0  0  0  0
   20.9681   -1.7097    3.8981 N   0  0  0  0  0  0  0  0  0  0  0  0
   17.8174   -1.2980    8.7434 C   0  0  1  0  0  0  0  0  0  0  0  0
   16.0515    0.7478   11.8035 C   0  0  1  0  0  0  0  0  0  0  0  0
   10.9591   -0.2931   11.0019 C   0  0  1  0  0  0  0  0  0  0  0  0
   14.0756   -2.4610    7.6287 C   0  0  2  0  0  0  0  0  0  0  0  0
   14.2233   -3.6757    6.8275 N   0  0  0  0  0  0  0  0  0  0  0  0
   18.7303   -0.5919    4.0523 C   0  0  0  0  0  0  0  0  0  0  0  0
   17.4363   -1.7297   10.1601 C   0  0  2  0  0  0  0  0  0  0  0  0
   16.0251   -2.0071   10.2902 O   0  0  0  0  0  0  0  0  0  0  0  0
   15.4082   -0.6852   12.0754 C   0  0  2  0  0  0  0  0  0  0  0  0
   15.0048   -1.3401   10.8029 N   0  0  0  0  0  0  0  0  0  0  0  0
   10.4051   -0.9868   12.2410 C   0  0  1  0  0  0  0  0  0  0  0  0
    9.0904   -0.4686   12.5259 O   0  0  0  0  0  0  0  0  0  0  0  0
   12.9320   -1.5743    7.0412 C   0  0  0  0  0  0  0  0  0  0  0  0
   17.2439   -0.8050    4.5492 C   0  0  2  0  0  0  0  0  0  0  0  0
   16.4231    0.3724    4.2479 N   0  0  0  0  0  0  0  0  0  0  0  0
   17.9053   -0.5389   10.9449 C   0  0  2  0  0  0  0  0  0  0  0  0
   17.0036    0.5295   10.8042 O   0  0  0  0  0  0  0  0  0  0  0  0
   14.2453   -0.5340   13.1523 C   0  0  1  0  0  0  0  0  0  0  0  0
   14.7574    0.1660   14.2910 O   0  0  0  0  0  0  0  0  0  0  0  0
   10.3024   -2.5043   12.1463 C   0  0  1  0  0  0  0  0  0  0  0  0
    9.5543   -2.9498   13.2831 O   0  0  0  0  0  0  0  0  0  0  0  0
   12.8105   -0.2783    7.8964 C   0  0  2  0  0  0  0  0  0  0  0  0
   11.7374    0.5390    7.4644 O   0  0  0  0  0  0  0  0  0  0  0  0
   17.2199   -1.1052    6.0705 C   0  0  2  0  0  0  0  0  0  0  0  0
   19.1840   -0.0439   10.2381 C   0  0  2  0  0  0  0  0  0  0  0  0
   18.9392   -0.4165    8.8911 O   0  0  0  0  0  0  0  0  0  0  0  0
   13.0561    0.3541   12.5987 C   0  0  2  0  0  0  0  0  0  0  0  0
   12.5494   -0.3887   11.4887 O   0  0  0  0  0  0  0  0  0  0  0  0
    9.6231   -2.9977   10.8675 C   0  0  2  0  0  0  0  0  0  0  0  0
    9.8801   -4.4086   10.7769 O   0  0  0  0  0  0  0  0  0  0  0  0
   14.1622    0.4753    7.8346 C   0  0  2  0  0  0  0  0  0  0  0  0
   15.1729   -0.4010    8.4104 O   0  0  0  0  0  0  0  0  0  0  0  0
   18.1491   -2.2839    6.5045 C   0  0  2  0  0  0  0  0  0  0  0  0
   18.1075   -2.4284    7.9515 O   0  0  0  0  0  0  0  0  0  0  0  0
   20.5019   -0.6627   10.7026 C   0  0  0  0  0  0  0  0  0  0  0  0
   21.5590   -0.0349    9.9623 O   0  0  0  0  0  0  0  0  0  0  0  0
   13.7082    1.5861   12.0012 C   0  0  1  0  0  0  0  0  0  0  0  0
   14.9905    1.7357   11.3547 O   0  0  0  0  0  0  0  0  0  0  0  0
   10.0747   -2.1985    9.6503 C   0  0  2  0  0  0  0  0  0  0  0  0
   10.4290   -0.8111    9.7577 O   0  0  0  0  0  0  0  0  0  0  0  0
   14.1780    1.7160    8.6611 C   0  0  0  0  0  0  0  0  0  0  0  0
   15.5136    2.1513    8.7431 O   0  0  0  0  0  0  0  0  0  0  0  0
   19.6025   -2.0776    5.9593 C   0  0  1  0  0  0  0  0  0  0  0  0
   20.3423   -3.2963    6.2365 O   0  0  0  0  0  0  0  0  0  0  0  0
   12.7451    2.6916   11.4690 C   0  0  0  0  0  0  0  0  0  0  0  0
   11.7566    2.1879   10.4924 N   0  0  0  0  0  0  0  0  0  0  0  0
    9.5535   -2.4633    8.2396 C   0  0  0  0  0  0  0  0  0  0  0  0
    8.2798   -3.1577    8.3040 O   0  0  0  0  0  0  0  0  0  0  0  0
  1  2  1  6  0  0  0
  1  8  1  0  0  0  0
  1 36  1  0  0  0  0
  3  4  1  1  0  0  0
  3 10  1  0  0  0  0
  3 47  1  0  0  0  0
  5 11  1  0  0  0  0
  5 30  1  0  0  0  0
  5 38  1  6  0  0  0
  6 21  1  6  0  0  0
  6 42  1  0  0  0  0
  7 15  1  0  0  0  0
  7 44  1  0  0  0  0
  7 32  1  6  0  0  0
  8  9  1  6  0  0  0
  8 17  1  0  0  0  0
 11 12  1  6  0  0  0
 11 20  1  0  0  0  0
 13  6  1  0  0  0  0
 13 14  1  6  0  0  0
 15 16  1  6  0  0  0
 15 24  1  0  0  0  0
 17 26  1  0  0  0  0
 18 10  1  0  0  0  0
 18 19  1  1  0  0  0
 20 21  1  6  0  0  0
 20 29  1  0  0  0  0
 22 13  1  0  0  0  0
 22 23  1  1  0  0  0
 24 25  1  1  0  0  0
 24 33  1  0  0  0  0
 26 27  1  6  0  0  0
 26 35  1  0  0  0  0
 28  2  1  6  0  0  0
 28 18  1  0  0  0  0
 29 30  1  0  0  0  0
 29 39  1  1  0  0  0
 31 22  1  0  0  0  0
 31 32  1  6  0  0  0
 31 41  1  0  0  0  0
 33 34  1  6  0  0  0
 33 43  1  0  0  0  0
 35 36  1  0  0  0  0
 35 45  1  1  0  0  0
 37 28  1  0  0  0  0
 37 38  1  1  0  0  0
 39 40  1  0  0  0  0
 41 42  1  0  0  0  0
 41 49  1  6  0  0  0
 43 44  1  0  0  0  0
 43 51  1  6  0  0  0
 45 46  1  0  0  0  0
 47 37  1  0  0  0  0
 47 48  1  6  0  0  0
 49 50  1  0  0  0  0
 51 52  1  0  0  0  0
M  END
>  <CHROM.1>
-155.93937658,164.04533058,-47.99362912,-68.33214980,98.07874146,-178.45391188
-177.85168749,151.47512371,168.17712663,-27.22191658,-54.22563314,21.65847789
14.80755552,-0.86941742,9.24606573,0.44519966,-0.17899069,-1.92012679

>  <Name>
2esj_lig

>  <RI>
0

>  <Rbt.Current_Directory>
/home/itssahil/PROJECTS/Mol_Feturizer/New_Systems/rnas/2esj

>  <Rbt.Executable>
rbdock ($Id: //depot/dev/client3/rdock/2013.1/src/exe/rbdock.cxx#4 $)

>  <Rbt.Library>
libRbt.so (2013.1, Build901 2013/11/27)

>  <Rbt.Parameter_File>
/export/apps/rDock/src/rDock_2013.1_src/data/scripts/dock_solv.prm

>  <Rbt.Receptor>
prm/blind_docking_40.prm

>  <SCORE>
53.0409

>  <SCORE.INTER>
9.42152

>  <SCORE.INTER.CONST>
1

>  <SCORE.INTER.POLAR>
-0.248189

>  <SCORE.INTER.ROT>
12

>  <SCORE.INTER.SOLV>
29.7782

>  <SCORE.INTER.VDW>
-14.4178

>  <SCORE.INTER.norm>
0.181183

>  <SCORE.INTRA>
33.2444

>  <SCORE.INTRA.DIHEDRAL>
-9.72918

>  <SCORE.INTRA.DIHEDRAL.0>
32.9766

>  <SCORE.INTRA.POLAR>
0

>  <SCORE.INTRA.POLAR.0>
0

>  <SCORE.INTRA.REPUL>
0.428594

>  <SCORE.INTRA.REPUL.0>
0

>  <SCORE.INTRA.SOLV>
11.1149

>  <SCORE.INTRA.SOLV.lig_0>
-114.358

>  <SCORE.INTRA.VDW>
30.4086

>  <SCORE.INTRA.VDW.0>
-8.24257

>  <SCORE.INTRA.norm>
0.639316

>  <SCORE.RESTR>
10.3749

>  <SCORE.RESTR.CAVITY>
10.3749

>  <SCORE.RESTR.norm>
0.199518

>  <SCORE.SYSTEM>
0

>  <SCORE.SYSTEM.CONST>
0

>  <SCORE.SYSTEM.DIHEDRAL>
0

>  <SCORE.SYSTEM.SOLV>
0

>  <SCORE.SYSTEM.norm>
0

>  <SCORE.heavy>
52

>  <SCORE.norm>
1.02002

>  <RMSD>
14.079

$$$$
2esj_lig
 OpenBabel11021811423D
libRbt.so/2013.1/901 2013/11/27
 52 56  0  0  0  0  0  0  0  0999 V2000
   15.7726   -1.1181    9.3088 C   0  0  2  0  0  0  0  0  0  0  0  0
   17.1849   -1.3632    9.4514 O   0  0  0  0  0  0  0  0  0  0  0  0
   19.2466   -0.8592    5.7388 C   0  0  2  0  0  0  0  0  0  0  0  0
   20.1138   -1.0227    4.5603 N   0  0  0  0  0  0  0  0  0  0  0  0
   14.8386   -2.5235    6.9424 C   0  0  1  0  0  0  0  0  0  0  0  0
   12.5784   -1.3339    7.5226 C   0  0  1  0  0  0  0  0  0  0  0  0
    9.1020    0.6637   11.0232 C   0  0  1  0  0  0  0  0  0  0  0  0
   15.3857   -0.0030   10.3246 C   0  0  2  0  0  0  0  0  0  0  0  0
   16.1730    1.2151   10.1357 N   0  0  0  0  0  0  0  0  0  0  0  0
   20.1041   -0.9246    7.0647 C   0  0  0  0  0  0  0  0  0  0  0  0
   14.6558   -1.6116    5.7286 C   0  0  2  0  0  0  0  0  0  0  0  0
   14.8103   -0.2148    6.0611 O   0  0  0  0  0  0  0  0  0  0  0  0
   11.2553   -1.8814    8.2234 C   0  0  2  0  0  0  0  0  0  0  0  0
   10.0444   -1.2188    7.6706 N   0  0  0  0  0  0  0  0  0  0  0  0
    9.9028    1.7567   11.7215 C   0  0  1  0  0  0  0  0  0  0  0  0
    8.9956    2.7468   12.2460 O   0  0  0  0  0  0  0  0  0  0  0  0
   15.5381   -0.5102   11.7938 C   0  0  0  0  0  0  0  0  0  0  0  0
   19.1653   -0.6881    8.3154 C   0  0  2  0  0  0  0  0  0  0  0  0
   19.9355   -0.7574    9.5616 N   0  0  0  0  0  0  0  0  0  0  0  0
   13.2673   -1.9945    5.3049 C   0  0  2  0  0  0  0  0  0  0  0  0
   12.3140   -1.4051    6.1523 O   0  0  0  0  0  0  0  0  0  0  0  0
   11.4222   -1.7684    9.8027 C   0  0  1  0  0  0  0  0  0  0  0  0
   12.6541   -2.3899   10.1834 O   0  0  0  0  0  0  0  0  0  0  0  0
   10.7932    1.2825   12.8637 C   0  0  1  0  0  0  0  0  0  0  0  0
   11.2720    2.4502   13.5402 O   0  0  0  0  0  0  0  0  0  0  0  0
   14.7106   -1.8188   11.9627 C   0  0  2  0  0  0  0  0  0  0  0  0
   14.7420   -2.2933   13.2969 O   0  0  0  0  0  0  0  0  0  0  0  0
   18.0150   -1.7280    8.3328 C   0  0  2  0  0  0  0  0  0  0  0  0
   13.1392   -3.5048    5.5920 C   0  0  2  0  0  0  0  0  0  0  0  0
   14.0100   -3.6690    6.7001 O   0  0  0  0  0  0  0  0  0  0  0  0
   11.5396   -0.2580   10.2654 C   0  0  2  0  0  0  0  0  0  0  0  0
   10.2850    0.3200    9.9018 O   0  0  0  0  0  0  0  0  0  0  0  0
   10.0792    0.3733   13.8655 C   0  0  2  0  0  0  0  0  0  0  0  0
   11.0976   -0.2306   14.6797 O   0  0  0  0  0  0  0  0  0  0  0  0
   15.2577   -2.8736   10.9691 C   0  0  2  0  0  0  0  0  0  0  0  0
   15.0690   -2.3420    9.6265 O   0  0  0  0  0  0  0  0  0  0  0  0
   17.1984   -1.8007    7.0028 C   0  0  2  0  0  0  0  0  0  0  0  0
   16.2003   -2.8544    7.1020 O   0  0  0  0  0  0  0  0  0  0  0  0
   13.5655   -4.4500    4.4693 C   0  0  0  0  0  0  0  0  0  0  0  0
   13.0681   -5.7569    4.7922 O   0  0  0  0  0  0  0  0  0  0  0  0
   12.5631    0.3752    9.3425 C   0  0  1  0  0  0  0  0  0  0  0  0
   12.8670    0.0903    7.9601 O   0  0  0  0  0  0  0  0  0  0  0  0
    9.1648   -0.6239   13.1627 C   0  0  2  0  0  0  0  0  0  0  0  0
    8.5034   -0.2915   11.9323 O   0  0  0  0  0  0  0  0  0  0  0  0
   14.5051   -4.1599   11.0092 C   0  0  0  0  0  0  0  0  0  0  0  0
   14.1364   -4.3914   12.3473 O   0  0  0  0  0  0  0  0  0  0  0  0
   18.1508   -1.9841    5.7734 C   0  0  1  0  0  0  0  0  0  0  0  0
   17.3392   -1.8466    4.5769 O   0  0  0  0  0  0  0  0  0  0  0  0
   12.9510    1.8547    9.6478 C   0  0  0  0  0  0  0  0  0  0  0  0
   13.3165    2.0855   11.0613 N   0  0  0  0  0  0  0  0  0  0  0  0
    8.3179   -1.6496   13.9127 C   0  0  0  0  0  0  0  0  0  0  0  0
    9.1445   -2.3785   14.8584 O   0  0  0  0  0  0  0  0  0  0  0  0
  1  2  1  1  0  0  0
  1  8  1  0  0  0  0
  1 36  1  0  0  0  0
  3  4  1  6  0  0  0
  3 10  1  0  0  0  0
  3 47  1  0  0  0  0
  5 11  1  0  0  0  0
  5 30  1  0  0  0  0
  5 38  1  6  0  0  0
  6 21  1  6  0  0  0
  6 42  1  0  0  0  0
  7 15  1  0  0  0  0
  7 44  1  0  0  0  0
  7 32  1  6  0  0  0
  8  9  1  1  0  0  0
  8 17  1  0  0  0  0
 11 12  1  1  0  0  0
 11 20  1  0  0  0  0
 13  6  1  0  0  0  0
 13 14  1  6  0  0  0
 15 16  1  1  0  0  0
 15 24  1  0  0  0  0
 17 26  1  0  0  0  0
 18 10  1  0  0  0  0
 18 19  1  1  0  0  0
 20 21  1  1  0  0  0
 20 29  1  0  0  0  0
 22 13  1  0  0  0  0
 22 23  1  6  0  0  0
 24 25  1  1  0  0  0
 24 33  1  0  0  0  0
 26 27  1  1  0  0  0
 26 35  1  0  0  0  0
 28  2  1  1  0  0  0
 28 18  1  0  0  0  0
 29 30  1  0  0  0  0
 29 39  1  6  0  0  0
 31 22  1  0  0  0  0
 31 32  1  6  0  0  0
 31 41  1  0  0  0  0
 33 34  1  6  0  0  0
 33 43  1  0  0  0  0
 35 36  1  0  0  0  0
 35 45  1  6  0  0  0
 37 28  1  0  0  0  0
 37 38  1  1  0  0  0
 39 40  1  0  0  0  0
 41 42  1  0  0  0  0
 41 49  1  6  0  0  0
 43 44  1  0  0  0  0
 43 51  1  1  0  0  0
 45 46  1  0  0  0  0
 47 37  1  0  0  0  0
 47 48  1  6  0  0  0
 49 50  1  0  0  0  0
 51 52  1  0  0  0  0
M  END
>  <CHROM.1>
-146.22227195,45.89646490,-131.46373299,66.72069856,-39.26422629,125.18218645
-165.90724594,104.77672639,-36.22267443,121.27673218,50.19001749,-50.64913848
13.72042399,-1.15738351,9.36170083,-0.74590169,0.07121084,1.18363352

>  <Name>
2esj_lig

>  <RI>
0

>  <Rbt.Current_Directory>
/home/itssahil/PROJECTS/Mol_Feturizer/New_Systems/rnas/2esj

>  <Rbt.Executable>
rbdock ($Id: //depot/dev/client3/rdock/2013.1/src/exe/rbdock.cxx#4 $)

>  <Rbt.Library>
libRbt.so (2013.1, Build901 2013/11/27)

>  <Rbt.Parameter_File>
/export/apps/rDock/src/rDock_2013.1_src/data/scripts/dock_solv.prm

>  <Rbt.Receptor>
prm/blind_docking_40.prm

>  <SCORE>
27.6113

>  <SCORE.INTER>
-3.8496

>  <SCORE.INTER.CONST>
1

>  <SCORE.INTER.POLAR>
-2.07977

>  <SCORE.INTER.ROT>
12

>  <SCORE.INTER.SOLV>
22.3227

>  <SCORE.INTER.VDW>
-14.6747

>  <SCORE.INTER.norm>
-0.0740308

>  <SCORE.INTRA>
17.3833

>  <SCORE.INTRA.DIHEDRAL>
8.32016

>  <SCORE.INTRA.DIHEDRAL.0>
32.9766

>  <SCORE.INTRA.POLAR>
0

>  <SCORE.INTRA.POLAR.0>
0

>  <SCORE.INTRA.REPUL>
0

>  <SCORE.INTRA.REPUL.0>
0

>  <SCORE.INTRA.SOLV>
7.66101

>  <SCORE.INTRA.SOLV.lig_0>
-114.358

>  <SCORE.INTRA.VDW>
9.39276

>  <SCORE.INTRA.VDW.0>
-8.24257

>  <SCORE.INTRA.norm>
0.334295

>  <SCORE.RESTR>
14.0775

>  <SCORE.RESTR.CAVITY>
14.0775

>  <SCORE.RESTR.norm>
0.270722

>  <SCORE.SYSTEM>
0

>  <SCORE.SYSTEM.CONST>
0

>  <SCORE.SYSTEM.DIHEDRAL>
0

>  <SCORE.SYSTEM.SOLV>
0

>  <SCORE.SYSTEM.norm>
0

>  <SCORE.heavy>
52

>  <SCORE.norm>
0.530986

>  <RMSD>
14.113

$$$$
2esj_lig
 OpenBabel11021811423D
libRbt.so/2013.1/901 2013/11/27
 52 56  0  0  0  0  0  0  0  0999 V2000
   19.9662   -0.3904    8.8457 C   0  0  2  0  0  0  0  0  0  0  0  0
   19.5532   -1.7608    8.6835 O   0  0  0  0  0  0  0  0  0  0  0  0
   16.5537   -1.2877    5.6724 C   0  0  2  0  0  0  0  0  0  0  0  0
   15.6024   -1.4950    4.5682 N   0  0  0  0  0  0  0  0  0  0  0  0
   15.5456   -2.7194    9.8180 C   0  0  1  0  0  0  0  0  0  0  0  0
   12.2389   -2.1919   11.5300 C   0  0  1  0  0  0  0  0  0  0  0  0
   10.5222   -0.5250    7.9144 C   0  0  1  0  0  0  0  0  0  0  0  0
   20.8887   -0.3240   10.0985 C   0  0  2  0  0  0  0  0  0  0  0  0
   22.0321   -1.2298    9.9923 N   0  0  0  0  0  0  0  0  0  0  0  0
   18.0184   -1.6629    5.2129 C   0  0  0  0  0  0  0  0  0  0  0  0
   15.3273   -3.9159   10.7449 C   0  0  2  0  0  0  0  0  0  0  0  0
   14.8247   -5.0727   10.0417 O   0  0  0  0  0  0  0  0  0  0  0  0
   10.7605   -2.7207   11.2545 C   0  0  2  0  0  0  0  0  0  0  0  0
   10.6519   -3.3226    9.8992 N   0  0  0  0  0  0  0  0  0  0  0  0
    9.3239   -0.4964    6.9727 C   0  0  1  0  0  0  0  0  0  0  0  0
    9.5764    0.4484    5.9135 O   0  0  0  0  0  0  0  0  0  0  0  0
   20.0841   -0.6363   11.4001 C   0  0  0  0  0  0  0  0  0  0  0  0
   19.0334   -1.3778    6.3919 C   0  0  2  0  0  0  0  0  0  0  0  0
   20.4005   -1.7310    5.9954 N   0  0  0  0  0  0  0  0  0  0  0  0
   14.3610   -3.3259   11.7309 C   0  0  2  0  0  0  0  0  0  0  0  0
   13.0722   -3.2563   11.1755 O   0  0  0  0  0  0  0  0  0  0  0  0
    9.7274   -1.5469   11.5542 C   0  0  1  0  0  0  0  0  0  0  0  0
    9.9885   -1.0229   12.8603 O   0  0  0  0  0  0  0  0  0  0  0  0
    8.9650   -1.8332    6.3350 C   0  0  1  0  0  0  0  0  0  0  0  0
    7.9892   -1.5701    5.3208 O   0  0  0  0  0  0  0  0  0  0  0  0
   18.8607    0.3244   11.4780 C   0  0  2  0  0  0  0  0  0  0  0  0
   18.1276    0.1474   12.6769 O   0  0  0  0  0  0  0  0  0  0  0  0
   18.6199   -2.1632    7.6636 C   0  0  2  0  0  0  0  0  0  0  0  0
   14.7760   -1.8496   11.8978 C   0  0  2  0  0  0  0  0  0  0  0  0
   15.3307   -1.5539   10.6258 O   0  0  0  0  0  0  0  0  0  0  0  0
    9.9247   -0.3337   10.5550 C   0  0  2  0  0  0  0  0  0  0  0  0
    9.6239   -0.8827    9.2710 O   0  0  0  0  0  0  0  0  0  0  0  0
   10.1589   -2.5601    5.7135 C   0  0  2  0  0  0  0  0  0  0  0  0
    9.7336   -3.9061    5.4450 O   0  0  0  0  0  0  0  0  0  0  0  0
   17.9760    0.0897   10.2285 C   0  0  2  0  0  0  0  0  0  0  0  0
   18.7826    0.4141    9.0601 O   0  0  0  0  0  0  0  0  0  0  0  0
   17.1398   -1.9301    8.1062 C   0  0  2  0  0  0  0  0  0  0  0  0
   16.8385   -2.7681    9.2566 O   0  0  0  0  0  0  0  0  0  0  0  0
   15.8104   -1.5514   12.9825 C   0  0  0  0  0  0  0  0  0  0  0  0
   15.8105   -0.1331   13.2016 O   0  0  0  0  0  0  0  0  0  0  0  0
   11.4151   -0.0534   10.5395 C   0  0  1  0  0  0  0  0  0  0  0  0
   12.5303   -0.9565   10.6982 O   0  0  0  0  0  0  0  0  0  0  0  0
   11.3974   -2.4581    6.5967 C   0  0  2  0  0  0  0  0  0  0  0  0
   11.6370   -1.3034    7.4159 O   0  0  0  0  0  0  0  0  0  0  0  0
   16.7923    0.9943   10.1721 C   0  0  0  0  0  0  0  0  0  0  0  0
   17.2726    2.3169   10.1550 O   0  0  0  0  0  0  0  0  0  0  0  0
   16.1566   -2.1685    6.9109 C   0  0  1  0  0  0  0  0  0  0  0  0
   14.8378   -1.7458    7.3484 O   0  0  0  0  0  0  0  0  0  0  0  0
   11.8807    1.1782    9.7033 C   0  0  0  0  0  0  0  0  0  0  0  0
   13.3463    1.3697    9.7075 N   0  0  0  0  0  0  0  0  0  0  0  0
   12.7406   -3.0811    6.2232 C   0  0  0  0  0  0  0  0  0  0  0  0
   13.2807   -2.4256    5.0453 O   0  0  0  0  0  0  0  0  0  0  0  0
  1  2  1  1  0  0  0
  1  8  1  0  0  0  0
  1 36  1  0  0  0  0
  3  4  1  6  0  0  0
  3 10  1  0  0  0  0
  3 47  1  0  0  0  0
  5 11  1  0  0  0  0
  5 30  1  0  0  0  0
  5 38  1  1  0  0  0
  6 21  1  6  0  0  0
  6 42  1  0  0  0  0
  7 15  1  0  0  0  0
  7 44  1  0  0  0  0
  7 32  1  1  0  0  0
  8  9  1  6  0  0  0
  8 17  1  0  0  0  0
 11 12  1  6  0  0  0
 11 20  1  0  0  0  0
 13  6  1  0  0  0  0
 13 14  1  6  0  0  0
 15 16  1  6  0  0  0
 15 24  1  0  0  0  0
 17 26  1  0  0  0  0
 18 10  1  0  0  0  0
 18 19  1  6  0  0  0
 20 21  1  6  0  0  0
 20 29  1  0  0  0  0
 22 13  1  0  0  0  0
 22 23  1  1  0  0  0
 24 25  1  6  0  0  0
 24 33  1  0  0  0  0
 26 27  1  1  0  0  0
 26 35  1  0  0  0  0
 28  2  1  1  0  0  0
 28 18  1  0  0  0  0
 29 30  1  0  0  0  0
 29 39  1  1  0  0  0
 31 22  1  0  0  0  0
 31 32  1  6  0  0  0
 31 41  1  0  0  0  0
 33 34  1  1  0  0  0
 33 43  1  0  0  0  0
 35 36  1  0  0  0  0
 35 45  1  1  0  0  0
 37 28  1  0  0  0  0
 37 38  1  1  0  0  0
 39 40  1  0  0  0  0
 41 42  1  0  0  0  0
 41 49  1  6  0  0  0
 43 44  1  0  0  0  0
 43 51  1  6  0  0  0
 45 46  1  0  0  0  0
 47 37  1  0  0  0  0
 47 48  1  1  0  0  0
 49 50  1  0  0  0  0
 51 52  1  0  0  0  0
M  END
>  <CHROM.1>
175.97958704,164.82247240,-156.98329986,-142.67344184,-146.08472307,41.91353837
-165.95044371,-138.54388560,59.52577843,-179.69369740,-178.57850459,65.73279771
14.50677009,-1.37879006,9.01529349,-0.17485761,-0.06057938,-1.72027701

>  <Name>
2esj_lig

>  <RI>
0

>  <Rbt.Current_Directory>
/home/itssahil/PROJECTS/Mol_Feturizer/New_Systems/rnas/2esj

>  <Rbt.Executable>
rbdock ($Id: //depot/dev/client3/rdock/2013.1/src/exe/rbdock.cxx#4 $)

>  <Rbt.Library>
libRbt.so (2013.1, Build901 2013/11/27)

>  <Rbt.Parameter_File>
/export/apps/rDock/src/rDock_2013.1_src/data/scripts/dock_solv.prm

>  <Rbt.Receptor>
prm/blind_docking_40.prm

>  <SCORE>
18.4053

>  <SCORE.INTER>
-5.29903

>  <SCORE.INTER.CONST>
1

>  <SCORE.INTER.POLAR>
0

>  <SCORE.INTER.ROT>
12

>  <SCORE.INTER.SOLV>
21.7803

>  <SCORE.INTER.VDW>
-22.3928

>  <SCORE.INTER.norm>
-0.101904

>  <SCORE.INTRA>
13.4134

>  <SCORE.INTRA.DIHEDRAL>
-7.96384

>  <SCORE.INTRA.DIHEDRAL.0>
32.9766

>  <SCORE.INTRA.POLAR>
0

>  <SCORE.INTRA.POLAR.0>
0

>  <SCORE.INTRA.REPUL>
1.17758

>  <SCORE.INTRA.REPUL.0>
0

>  <SCORE.INTRA.SOLV>
6.09933

>  <SCORE.INTRA.SOLV.lig_0>
-114.358

>  <SCORE.INTRA.VDW>
8.45779

>  <SCORE.INTRA.VDW.0>
-8.24257

>  <SCORE.INTRA.norm>
0.257951

>  <SCORE.RESTR>
10.2909

>  <SCORE.RESTR.CAVITY>
10.2909

>  <SCORE.RESTR.norm>
0.197903

>  <SCORE.SYSTEM>
0

>  <SCORE.SYSTEM.CONST>
0

>  <SCORE.SYSTEM.DIHEDRAL>
0

>  <SCORE.SYSTEM.SOLV>
0

>  <SCORE.SYSTEM.norm>
0

>  <SCORE.heavy>
52

>  <SCORE.norm>
0.353949

>  <RMSD>
14.195

$$$$
2esj_lig
 OpenBabel11021811423D
libRbt.so/2013.1/901 2013/11/27
 52 56  0  0  0  0  0  0  0  0999 V2000
    7.5045   -2.8724    7.8000 C   0  0  2  0  0  0  0  0  0  0  0  0
    7.9906   -3.5176    6.6074 O   0  0  0  0  0  0  0  0  0  0  0  0
   11.4124   -2.9267    4.1114 C   0  0  2  0  0  0  0  0  0  0  0  0
   12.3808   -2.4283    3.1209 N   0  0  0  0  0  0  0  0  0  0  0  0
   10.9993   -0.9037    8.1211 C   0  0  1  0  0  0  0  0  0  0  0  0
   13.7316    0.7913   10.7210 C   0  0  1  0  0  0  0  0  0  0  0  0
   16.9822   -1.7802    9.6979 C   0  0  1  0  0  0  0  0  0  0  0  0
    6.6357   -3.9085    8.5724 C   0  0  2  0  0  0  0  0  0  0  0  0
    7.3751   -5.1332    8.8769 N   0  0  0  0  0  0  0  0  0  0  0  0
   10.0281   -3.2398    3.4165 C   0  0  0  0  0  0  0  0  0  0  0  0
   10.5899    0.4032    8.8016 C   0  0  2  0  0  0  0  0  0  0  0  0
   10.8083    1.5549    7.9583 O   0  0  0  0  0  0  0  0  0  0  0  0
   14.9561    1.5824   10.0760 C   0  0  2  0  0  0  0  0  0  0  0  0
   15.3399    0.9962    8.7646 N   0  0  0  0  0  0  0  0  0  0  0  0
   17.9075   -1.6409    8.4946 C   0  0  1  0  0  0  0  0  0  0  0  0
   18.4850   -2.9262    8.1900 O   0  0  0  0  0  0  0  0  0  0  0  0
    5.3404   -4.2564    7.7723 C   0  0  0  0  0  0  0  0  0  0  0  0
    9.0204   -3.8293    4.4836 C   0  0  2  0  0  0  0  0  0  0  0  0
    7.7214   -4.1163    3.8662 N   0  0  0  0  0  0  0  0  0  0  0  0
   11.4605    0.3600   10.0239 C   0  0  2  0  0  0  0  0  0  0  0  0
   12.7839    0.7019    9.6980 O   0  0  0  0  0  0  0  0  0  0  0  0
   16.1340    1.6713   11.1437 C   0  0  1  0  0  0  0  0  0  0  0  0
   15.6088    2.1908   12.3697 O   0  0  0  0  0  0  0  0  0  0  0  0
   17.2512   -1.1075    7.2269 C   0  0  1  0  0  0  0  0  0  0  0  0
   18.1944   -1.2688    6.1618 O   0  0  0  0  0  0  0  0  0  0  0  0
    4.5841   -2.9359    7.4406 C   0  0  2  0  0  0  0  0  0  0  0  0
    3.3560   -3.1840    6.7802 O   0  0  0  0  0  0  0  0  0  0  0  0
    8.8493   -2.8436    5.6685 C   0  0  2  0  0  0  0  0  0  0  0  0
   11.5477   -1.1260   10.4286 C   0  0  2  0  0  0  0  0  0  0  0  0
   11.4174   -1.7804    9.1765 O   0  0  0  0  0  0  0  0  0  0  0  0
   16.7074    0.2367   11.4932 C   0  0  2  0  0  0  0  0  0  0  0  0
   17.2514   -0.2350   10.2595 O   0  0  0  0  0  0  0  0  0  0  0  0
   15.9473   -1.8190    6.8615 C   0  0  2  0  0  0  0  0  0  0  0  0
   15.3031   -1.0186    5.8570 O   0  0  0  0  0  0  0  0  0  0  0  0
    5.5181   -2.0393    6.5904 C   0  0  2  0  0  0  0  0  0  0  0  0
    6.6908   -1.7441    7.4017 O   0  0  0  0  0  0  0  0  0  0  0  0
   10.1934   -2.3969    6.3279 C   0  0  2  0  0  0  0  0  0  0  0  0
    9.9221   -1.4206    7.3717 O   0  0  0  0  0  0  0  0  0  0  0  0
   10.4673   -1.6369   11.3812 C   0  0  0  0  0  0  0  0  0  0  0  0
   10.7866   -2.9975   11.7072 O   0  0  0  0  0  0  0  0  0  0  0  0
   15.4958   -0.6344   11.7641 C   0  0  1  0  0  0  0  0  0  0  0  0
   14.1700   -0.5821   11.1947 O   0  0  0  0  0  0  0  0  0  0  0  0
   15.0914   -2.0863    8.0946 C   0  0  2  0  0  0  0  0  0  0  0  0
   15.6874   -2.3430    9.3755 O   0  0  0  0  0  0  0  0  0  0  0  0
    4.9124   -0.7198    6.2517 C   0  0  0  0  0  0  0  0  0  0  0  0
    4.4923   -0.7804    4.9101 O   0  0  0  0  0  0  0  0  0  0  0  0
   11.1942   -1.8643    5.2476 C   0  0  1  0  0  0  0  0  0  0  0  0
   12.4704   -1.6572    5.9092 O   0  0  0  0  0  0  0  0  0  0  0  0
   15.7818   -2.0923   12.2389 C   0  0  0  0  0  0  0  0  0  0  0  0
   14.5580   -2.8513   12.5719 N   0  0  0  0  0  0  0  0  0  0  0  0
   13.7391   -2.7928    8.0328 C   0  0  0  0  0  0  0  0  0  0  0  0
   13.7334   -3.7584    6.9483 O   0  0  0  0  0  0  0  0  0  0  0  0
  1  2  1  6  0  0  0
  1  8  1  0  0  0  0
  1 36  1  0  0  0  0
  3  4  1  6  0  0  0
  3 10  1  0  0  0  0
  3 47  1  0  0  0  0
  5 11  1  0  0  0  0
  5 30  1  0  0  0  0
  5 38  1  1  0  0  0
  6 21  1  6  0  0  0
  6 42  1  0  0  0  0
  7 15  1  0  0  0  0
  7 44  1  0  0  0  0
  7 32  1  6  0  0  0
  8  9  1  6  0  0  0
  8 17  1  0  0  0  0
 11 12  1  6  0  0  0
 11 20  1  0  0  0  0
 13  6  1  0  0  0  0
 13 14  1  6  0  0  0
 15 16  1  6  0  0  0
 15 24  1  0  0  0  0
 17 26  1  0  0  0  0
 18 10  1  0  0  0  0
 18 19  1  6  0  0  0
 20 21  1  6  0  0  0
 20 29  1  0  0  0  0
 22 13  1  0  0  0  0
 22 23  1  1  0  0  0
 24 25  1  6  0  0  0
 24 33  1  0  0  0  0
 26 27  1  6  0  0  0
 26 35  1  0  0  0  0
 28  2  1  1  0  0  0
 28 18  1  0  0  0  0
 29 30  1  0  0  0  0
 29 39  1  1  0  0  0
 31 22  1  0  0  0  0
 31 32  1  6  0  0  0
 31 41  1  0  0  0  0
 33 34  1  6  0  0  0
 33 43  1  0  0  0  0
 35 36  1  0  0  0  0
 35 45  1  1  0  0  0
 37 28  1  0  0  0  0
 37 38  1  1  0  0  0
 39 40  1  0  0  0  0
 41 42  1  0  0  0  0
 41 49  1  6  0  0  0
 43 44  1  0  0  0  0
 43 51  1  6  0  0  0
 45 46  1  0  0  0  0
 47 37  1  0  0  0  0
 47 48  1  1  0  0  0
 49 50  1  0  0  0  0
 51 52  1  0  0  0  0
M  END
>  <CHROM.1>
-179.01641927,160.83954137,-164.24541918,-175.00107860,176.43528033,-174.67409219
-175.70697643,-134.65801399,-103.23429212,178.58405380,176.03709065,31.52020684
11.86175106,-1.62460010,8.14257187,2.76805544,-0.08655987,-1.90746985

>  <Name>
2esj_lig

>  <RI>
0

>  <Rbt.Current_Directory>
/home/itssahil/PROJECTS/Mol_Feturizer/New_Systems/rnas/2esj

>  <Rbt.Executable>
rbdock ($Id: //depot/dev/client3/rdock/2013.1/src/exe/rbdock.cxx#4 $)

>  <Rbt.Library>
libRbt.so (2013.1, Build901 2013/11/27)

>  <Rbt.Parameter_File>
/export/apps/rDock/src/rDock_2013.1_src/data/scripts/dock_solv.prm

>  <Rbt.Receptor>
prm/blind_docking_60.prm

>  <SCORE>
-1.53776

>  <SCORE.INTER>
-8.51739

>  <SCORE.INTER.CONST>
1

>  <SCORE.INTER.POLAR>
-0.87304

>  <SCORE.INTER.ROT>
12

>  <SCORE.INTER.SOLV>
24.0561

>  <SCORE.INTER.VDW>
-22.3868

>  <SCORE.INTER.norm>
-0.163796

>  <SCORE.INTRA>
-1.53063

>  <SCORE.INTRA.DIHEDRAL>
-14.0276

>  <SCORE.INTRA.DIHEDRAL.0>
32.9766

>  <SCORE.INTRA.POLAR>
0

>  <SCORE.INTRA.POLAR.0>
0

>  <SCORE.INTRA.REPUL>
0

>  <SCORE.INTRA.REPUL.0>
0

>  <SCORE.INTRA.SOLV>
3.5079

>  <SCORE.INTRA.SOLV.lig_0>
-114.358

>  <SCORE.INTRA.VDW>
3.72924

>  <SCORE.INTRA.VDW.0>
-8.24257

>  <SCORE.INTRA.norm>
-0.0294352

>  <SCORE.RESTR>
8.51026

>  <SCORE.RESTR.CAVITY>
8.51026

>  <SCORE.RESTR.norm>
0.163659

>  <SCORE.SYSTEM>
0

>  <SCORE.SYSTEM.CONST>
0

>  <SCORE.SYSTEM.DIHEDRAL>
0

>  <SCORE.SYSTEM.SOLV>
0

>  <SCORE.SYSTEM.norm>
0

>  <SCORE.heavy>
52

>  <SCORE.norm>
-0.0295723

>  <RMSD>
14.318

$$$$
2esj_lig
 OpenBabel11021811423D
libRbt.so/2013.1/901 2013/11/27
 52 56  0  0  0  0  0  0  0  0999 V2000
   20.0967   -2.0267    7.8344 C   0  0  2  0  0  0  0  0  0  0  0  0
   19.5615   -0.6991    7.6735 O   0  0  0  0  0  0  0  0  0  0  0  0
   17.6471    0.0907   11.4150 C   0  0  2  0  0  0  0  0  0  0  0  0
   16.7836    0.6088   12.4890 N   0  0  0  0  0  0  0  0  0  0  0  0
   15.5916   -1.6167    7.9912 C   0  0  1  0  0  0  0  0  0  0  0  0
   11.4785   -1.2827    7.3168 C   0  0  1  0  0  0  0  0  0  0  0  0
   10.4825   -0.1502   11.6072 C   0  0  1  0  0  0  0  0  0  0  0  0
   21.6161   -1.9633    7.4989 C   0  0  2  0  0  0  0  0  0  0  0  0
   22.3246   -0.9853    8.3240 N   0  0  0  0  0  0  0  0  0  0  0  0
   18.4090    1.2778   10.7024 C   0  0  0  0  0  0  0  0  0  0  0  0
   14.8957   -2.6750    7.1343 C   0  0  2  0  0  0  0  0  0  0  0  0
   15.0233   -2.4098    5.7205 O   0  0  0  0  0  0  0  0  0  0  0  0
   11.2593    0.2833    7.5188 C   0  0  2  0  0  0  0  0  0  0  0  0
   12.1996    0.8281    8.5336 N   0  0  0  0  0  0  0  0  0  0  0  0
   10.3871    1.1305   12.4283 C   0  0  1  0  0  0  0  0  0  0  0  0
    9.9976    0.8007   13.7766 O   0  0  0  0  0  0  0  0  0  0  0  0
   21.8400   -1.6426    5.9869 C   0  0  0  0  0  0  0  0  0  0  0  0
   19.3751    0.6974    9.5927 C   0  0  2  0  0  0  0  0  0  0  0  0
   20.0853    1.7812    8.9059 N   0  0  0  0  0  0  0  0  0  0  0  0
   13.4920   -2.5709    7.6568 C   0  0  2  0  0  0  0  0  0  0  0  0
   12.8561   -1.4315    7.1357 O   0  0  0  0  0  0  0  0  0  0  0  0
    9.7187    0.5558    7.8141 C   0  0  1  0  0  0  0  0  0  0  0  0
    8.9339   -0.0761    6.7975 O   0  0  0  0  0  0  0  0  0  0  0  0
   11.6657    1.9567   12.4967 C   0  0  1  0  0  0  0  0  0  0  0  0
   11.4609    2.9729   13.4845 O   0  0  0  0  0  0  0  0  0  0  0  0
   21.0577   -2.6823    5.1309 C   0  0  2  0  0  0  0  0  0  0  0  0
   21.2795   -2.4967    3.7444 O   0  0  0  0  0  0  0  0  0  0  0  0
   18.5771   -0.1566    8.5734 C   0  0  2  0  0  0  0  0  0  0  0  0
   13.6234   -2.2689    9.1638 C   0  0  2  0  0  0  0  0  0  0  0  0
   14.8467   -1.5521    9.2152 O   0  0  0  0  0  0  0  0  0  0  0  0
    9.2663   -0.1040    9.1813 C   0  0  2  0  0  0  0  0  0  0  0  0
   10.0421    0.5720   10.1720 O   0  0  0  0  0  0  0  0  0  0  0  0
   12.9082    1.1411   12.8586 C   0  0  2  0  0  0  0  0  0  0  0  0
   14.0475    1.9709   12.5786 O   0  0  0  0  0  0  0  0  0  0  0  0
   19.5542   -2.5752    5.4874 C   0  0  2  0  0  0  0  0  0  0  0  0
   19.4203   -2.9009    6.9005 O   0  0  0  0  0  0  0  0  0  0  0  0
   17.7039   -1.2774    9.2231 C   0  0  2  0  0  0  0  0  0  0  0  0
   16.9444   -1.9630    8.1889 O   0  0  0  0  0  0  0  0  0  0  0  0
   13.7056   -3.4773   10.0959 C   0  0  0  0  0  0  0  0  0  0  0  0
   14.8957   -4.2044    9.7572 O   0  0  0  0  0  0  0  0  0  0  0  0
    9.7973   -1.5242    9.1467 C   0  0  1  0  0  0  0  0  0  0  0  0
   10.9905   -2.0534    8.5297 O   0  0  0  0  0  0  0  0  0  0  0  0
   12.9216   -0.2050   12.1428 C   0  0  2  0  0  0  0  0  0  0  0  0
   11.7027   -0.8972   11.8318 O   0  0  0  0  0  0  0  0  0  0  0  0
   18.7088   -3.5631    4.7582 C   0  0  0  0  0  0  0  0  0  0  0  0
   18.6088   -3.1289    3.4234 O   0  0  0  0  0  0  0  0  0  0  0  0
   16.7926   -0.6895   10.3527 C   0  0  1  0  0  0  0  0  0  0  0  0
   16.1670   -1.8127   11.0283 O   0  0  0  0  0  0  0  0  0  0  0  0
    9.4008   -2.4424   10.3436 C   0  0  0  0  0  0  0  0  0  0  0  0
    8.1492   -2.0276   11.0115 N   0  0  0  0  0  0  0  0  0  0  0  0
   14.0368   -1.2326   12.3219 C   0  0  0  0  0  0  0  0  0  0  0  0
   13.5419   -2.3762   13.0676 O   0  0  0  0  0  0  0  0  0  0  0  0
  1  2  1  6  0  0  0
  1  8  1  0  0  0  0
  1 36  1  0  0  0  0
  3  4  1  1  0  0  0
  3 10  1  0  0  0  0
  3 47  1  0  0  0  0
  5 11  1  0  0  0  0
  5 30  1  0  0  0  0
  5 38  1  1  0  0  0
  6 21  1  1  0  0  0
  6 42  1  0  0  0  0
  7 15  1  0  0  0  0
  7 44  1  0  0  0  0
  7 32  1  6  0  0  0
  8  9  1  1  0  0  0
  8 17  1  0  0  0  0
 11 12  1  6  0  0  0
 11 20  1  0  0  0  0
 13  6  1  0  0  0  0
 13 14  1  1  0  0  0
 15 16  1  1  0  0  0
 15 24  1  0  0  0  0
 17 26  1  0  0  0  0
 18 10  1  0  0  0  0
 18 19  1  6  0  0  0
 20 21  1  6  0  0  0
 20 29  1  0  0  0  0
 22 13  1  0  0  0  0
 22 23  1  6  0  0  0
 24 25  1  1  0  0  0
 24 33  1  0  0  0  0
 26 27  1  6  0  0  0
 26 35  1  0  0  0  0
 28  2  1  6  0  0  0
 28 18  1  0  0  0  0
 29 30  1  0  0  0  0
 29 39  1  1  0  0  0
 31 22  1  0  0  0  0
 31 32  1  1  0  0  0
 31 41  1  0  0  0  0
 33 34  1  6  0  0  0
 33 43  1  0  0  0  0
 35 36  1  0  0  0  0
 35 45  1  6  0  0  0
 37 28  1  0  0  0  0
 37 38  1  6  0  0  0
 39 40  1  0  0  0  0
 41 42  1  0  0  0  0
 41 49  1  1  0  0  0
 43 44  1  0  0  0  0
 43 51  1  1  0  0  0
 45 46  1  0  0  0  0
 47 37  1  0  0  0  0
 47 48  1  1  0  0  0
 49 50  1  0  0  0  0
 51 52  1  0  0  0  0
M  END
>  <CHROM.1>
-140.84531028,-165.49347281,144.41321755,-145.40759902,169.04613108,97.12837013
62.55633013,-151.13650139,-73.75308041,-99.75243075,24.84704246,109.65771331
14.90297494,-0.98799138,9.15165299,-0.45407730,0.04407575,1.09668055

>  <Name>
2esj_lig

>  <RI>
0

>  <Rbt.Current_Directory>
/home/itssahil/PROJECTS/Mol_Feturizer/New_Systems/rnas/2esj

>  <Rbt.Executable>
rbdock ($Id: //depot/dev/client3/rdock/2013.1/src/exe/rbdock.cxx#4 $)

>  <Rbt.Library>
libRbt.so (2013.1, Build901 2013/11/27)

>  <Rbt.Parameter_File>
/export/apps/rDock/src/rDock_2013.1_src/data/scripts/dock_solv.prm

>  <Rbt.Receptor>
prm/blind_docking_40.prm

>  <SCORE>
37.4257

>  <SCORE.INTER>
4.55097

>  <SCORE.INTER.CONST>
1

>  <SCORE.INTER.POLAR>
-1.43146

>  <SCORE.INTER.ROT>
12

>  <SCORE.INTER.SOLV>
26.7243

>  <SCORE.INTER.VDW>
-12.7026

>  <SCORE.INTER.norm>
0.0875186

>  <SCORE.INTRA>
17.6561

>  <SCORE.INTRA.DIHEDRAL>
3.56136

>  <SCORE.INTRA.DIHEDRAL.0>
32.9766

>  <SCORE.INTRA.POLAR>
0

>  <SCORE.INTRA.POLAR.0>
0

>  <SCORE.INTRA.REPUL>
0

>  <SCORE.INTRA.REPUL.0>
0

>  <SCORE.INTRA.SOLV>
7.9148

>  <SCORE.INTRA.SOLV.lig_0>
-114.358

>  <SCORE.INTRA.VDW>
11.918

>  <SCORE.INTRA.VDW.0>
-8.24257

>  <SCORE.INTRA.norm>
0.33954

>  <SCORE.RESTR>
15.2186

>  <SCORE.RESTR.CAVITY>
15.2186

>  <SCORE.RESTR.norm>
0.292666

>  <SCORE.SYSTEM>
0

>  <SCORE.SYSTEM.CONST>
0

>  <SCORE.SYSTEM.DIHEDRAL>
0

>  <SCORE.SYSTEM.SOLV>
0

>  <SCORE.SYSTEM.norm>
0

>  <SCORE.heavy>
52

>  <SCORE.norm>
0.719725

>  <RMSD>
14.350

$$$$
2esj_lig
 OpenBabel11021811423D
libRbt.so/2013.1/901 2013/11/27
 52 56  0  0  0  0  0  0  0  0999 V2000
   10.0849   -2.1413    6.1375 C   0  0  2  0  0  0  0  0  0  0  0  0
   11.3938   -2.5677    5.7133 O   0  0  0  0  0  0  0  0  0  0  0  0
   12.0516   -6.4333    4.0068 C   0  0  2  0  0  0  0  0  0  0  0  0
   12.1929   -7.5787    3.0928 N   0  0  0  0  0  0  0  0  0  0  0  0
   14.1484   -2.0347    5.3276 C   0  0  1  0  0  0  0  0  0  0  0  0
   14.8646    0.4170    8.7211 C   0  0  1  0  0  0  0  0  0  0  0  0
   12.5147    0.2274   13.3453 C   0  0  1  0  0  0  0  0  0  0  0  0
   10.0877   -0.5844    6.1724 C   0  0  2  0  0  0  0  0  0  0  0  0
   10.4601   -0.0027    4.8833 N   0  0  0  0  0  0  0  0  0  0  0  0
   10.6159   -5.7889    3.8616 C   0  0  0  0  0  0  0  0  0  0  0  0
   14.3907   -2.6031    6.7264 C   0  0  2  0  0  0  0  0  0  0  0  0
   13.1603   -2.8546    7.4393 O   0  0  0  0  0  0  0  0  0  0  0  0
   15.3727   -0.5785    9.8578 C   0  0  2  0  0  0  0  0  0  0  0  0
   14.3684   -1.6418   10.1251 N   0  0  0  0  0  0  0  0  0  0  0  0
   12.0502   -1.2243   13.3556 C   0  0  1  0  0  0  0  0  0  0  0  0
   11.5632   -1.5564   14.6713 O   0  0  0  0  0  0  0  0  0  0  0  0
   11.0419   -0.0538    7.2891 C   0  0  0  0  0  0  0  0  0  0  0  0
   10.4622   -4.5989    4.8921 C   0  0  2  0  0  0  0  0  0  0  0  0
    9.1412   -3.9740    4.7683 N   0  0  0  0  0  0  0  0  0  0  0  0
   15.2366   -1.5148    7.3215 C   0  0  2  0  0  0  0  0  0  0  0  0
   14.4410   -0.4136    7.6803 O   0  0  0  0  0  0  0  0  0  0  0  0
   15.8085    0.2710   11.1320 C   0  0  1  0  0  0  0  0  0  0  0  0
   16.7225    1.2914   10.7172 O   0  0  0  0  0  0  0  0  0  0  0  0
   10.9575   -1.5653   12.3495 C   0  0  1  0  0  0  0  0  0  0  0  0
   10.4899   -2.8820   12.6623 O   0  0  0  0  0  0  0  0  0  0  0  0
   10.6400   -0.7048    8.6456 C   0  0  2  0  0  0  0  0  0  0  0  0
   11.4182   -0.2075    9.7195 O   0  0  0  0  0  0  0  0  0  0  0  0
   11.5802   -3.5465    4.6739 C   0  0  2  0  0  0  0  0  0  0  0  0
   16.1130   -0.9826    6.1689 C   0  0  2  0  0  0  0  0  0  0  0  0
   15.2821   -1.2043    5.0404 O   0  0  0  0  0  0  0  0  0  0  0  0
   14.5739    1.0309   11.7704 C   0  0  2  0  0  0  0  0  0  0  0  0
   13.7020   -0.0150   12.2021 O   0  0  0  0  0  0  0  0  0  0  0  0
    9.7781   -0.5913   12.3664 C   0  0  2  0  0  0  0  0  0  0  0  0
    9.0059   -0.8513   11.1829 O   0  0  0  0  0  0  0  0  0  0  0  0
   10.7743   -2.2417    8.5078 C   0  0  2  0  0  0  0  0  0  0  0  0
    9.8493   -2.6651    7.4657 O   0  0  0  0  0  0  0  0  0  0  0  0
   13.0262   -4.1379    4.6856 C   0  0  2  0  0  0  0  0  0  0  0  0
   13.9855   -3.0827    4.3978 O   0  0  0  0  0  0  0  0  0  0  0  0
   17.4547   -1.6824    5.9545 C   0  0  0  0  0  0  0  0  0  0  0  0
   18.2411   -1.4815    7.1381 O   0  0  0  0  0  0  0  0  0  0  0  0
   13.8624    1.7029   10.6119 C   0  0  1  0  0  0  0  0  0  0  0  0
   13.7316    1.2855    9.2360 O   0  0  0  0  0  0  0  0  0  0  0  0
   10.2473    0.8527   12.5045 C   0  0  2  0  0  0  0  0  0  0  0  0
   11.4331    1.1849   13.2430 O   0  0  0  0  0  0  0  0  0  0  0  0
   10.3672   -2.9768    9.7392 C   0  0  0  0  0  0  0  0  0  0  0  0
   11.5396   -3.2827   10.4549 O   0  0  0  0  0  0  0  0  0  0  0  0
   13.1421   -5.3463    3.6963 C   0  0  1  0  0  0  0  0  0  0  0  0
   14.4440   -5.9535    3.9104 O   0  0  0  0  0  0  0  0  0  0  0  0
   12.6521    2.6165   10.9771 C   0  0  0  0  0  0  0  0  0  0  0  0
   11.4240    2.2932   10.2209 N   0  0  0  0  0  0  0  0  0  0  0  0
    9.2873    2.0389   12.5597 C   0  0  0  0  0  0  0  0  0  0  0  0
    9.2963    2.6226   13.8893 O   0  0  0  0  0  0  0  0  0  0  0  0
  1  2  1  1  0  0  0
  1  8  1  0  0  0  0
  1 36  1  0  0  0  0
  3  4  1  6  0  0  0
  3 10  1  0  0  0  0
  3 47  1  0  0  0  0
  5 11  1  0  0  0  0
  5 30  1  0  0  0  0
  5 38  1  6  0  0  0
  6 21  1  6  0  0  0
  6 42  1  0  0  0  0
  7 15  1  0  0  0  0
  7 44  1  0  0  0  0
  7 32  1  6  0  0  0
  8  9  1  6  0  0  0
  8 17  1  0  0  0  0
 11 12  1  1  0  0  0
 11 20  1  0  0  0  0
 13  6  1  0  0  0  0
 13 14  1  1  0  0  0
 15 16  1  1  0  0  0
 15 24  1  0  0  0  0
 17 26  1  0  0  0  0
 18 10  1  0  0  0  0
 18 19  1  6  0  0  0
 20 21  1  6  0  0  0
 20 29  1  0  0  0  0
 22 13  1  0  0  0  0
 22 23  1  6  0  0  0
 24 25  1  1  0  0  0
 24 33  1  0  0  0  0
 26 27  1  1  0  0  0
 26 35  1  0  0  0  0
 28  2  1  1  0  0  0
 28 18  1  0  0  0  0
 29 30  1  0  0  0  0
 29 39  1  6  0  0  0
 31 22  1  0  0  0  0
 31 32  1  6  0  0  0
 31 41  1  0  0  0  0
 33 34  1  6  0  0  0
 33 43  1  0  0  0  0
 35 36  1  0  0  0  0
 35 45  1  1  0  0  0
 37 28  1  0  0  0  0
 37 38  1  6  0  0  0
 39 40  1  0  0  0  0
 41 42  1  0  0  0  0
 41 49  1  1  0  0  0
 43 44  1  0  0  0  0
 43 51  1  1  0  0  0
 45 46  1  0  0  0  0
 47 37  1  0  0  0  0
 47 48  1  1  0  0  0
 49 50  1  0  0  0  0
 51 52  1  0  0  0  0
M  END
>  <CHROM.1>
-131.53668762,51.29773072,-43.62608883,-177.85700453,152.56138344,-38.69661913
-62.75076869,160.18203025,-98.19943239,66.29200323,-128.09852101,110.76929715
12.51577175,-1.44252520,8.56322882,1.44750482,-0.28867295,-2.15266210

>  <Name>
2esj_lig

>  <RI>
0

>  <Rbt.Current_Directory>
/home/itssahil/PROJECTS/Mol_Feturizer/New_Systems/rnas/2esj

>  <Rbt.Executable>
rbdock ($Id: //depot/dev/client3/rdock/2013.1/src/exe/rbdock.cxx#4 $)

>  <Rbt.Library>
libRbt.so (2013.1, Build901 2013/11/27)

>  <Rbt.Parameter_File>
/export/apps/rDock/src/rDock_2013.1_src/data/scripts/dock_solv.prm

>  <Rbt.Receptor>
prm/blind_docking_60.prm

>  <SCORE>
15.0522

>  <SCORE.INTER>
-6.66641

>  <SCORE.INTER.CONST>
1

>  <SCORE.INTER.POLAR>
-1.01897

>  <SCORE.INTER.ROT>
12

>  <SCORE.INTER.SOLV>
25.5013

>  <SCORE.INTER.VDW>
-21.1481

>  <SCORE.INTER.norm>
-0.1282

>  <SCORE.INTRA>
10.4728

>  <SCORE.INTRA.DIHEDRAL>
-7.51225

>  <SCORE.INTRA.DIHEDRAL.0>
32.9766

>  <SCORE.INTRA.POLAR>
0

>  <SCORE.INTRA.POLAR.0>
0

>  <SCORE.INTRA.REPUL>
0.258884

>  <SCORE.INTRA.REPUL.0>
0

>  <SCORE.INTRA.SOLV>
13.7693

>  <SCORE.INTRA.SOLV.lig_0>
-114.358

>  <SCORE.INTRA.VDW>
6.04986

>  <SCORE.INTRA.VDW.0>
-8.24257

>  <SCORE.INTRA.norm>
0.2014

>  <SCORE.RESTR>
11.2458

>  <SCORE.RESTR.CAVITY>
11.2458

>  <SCORE.RESTR.norm>
0.216266

>  <SCORE.SYSTEM>
0

>  <SCORE.SYSTEM.CONST>
0

>  <SCORE.SYSTEM.DIHEDRAL>
0

>  <SCORE.SYSTEM.SOLV>
0

>  <SCORE.SYSTEM.norm>
0

>  <SCORE.heavy>
52

>  <SCORE.norm>
0.289466

>  <RMSD>
14.379

$$$$
2esj_lig
 OpenBabel11021811423D
libRbt.so/2013.1/901 2013/11/27
 52 56  0  0  0  0  0  0  0  0999 V2000
    8.1894   -2.8632    5.4543 C   0  0  2  0  0  0  0  0  0  0  0  0
    9.5336   -3.3623    5.5914 O   0  0  0  0  0  0  0  0  0  0  0  0
   12.1758   -5.6374    3.1155 C   0  0  2  0  0  0  0  0  0  0  0  0
   13.0069   -6.1415    2.0098 N   0  0  0  0  0  0  0  0  0  0  0  0
   12.8320   -2.3180    6.6172 C   0  0  1  0  0  0  0  0  0  0  0  0
   15.0049   -2.3188   10.2231 C   0  0  1  0  0  0  0  0  0  0  0  0
   13.5385    1.4859   12.0201 C   0  0  1  0  0  0  0  0  0  0  0  0
    8.0514   -1.6254    6.3891 C   0  0  2  0  0  0  0  0  0  0  0  0
    9.0484   -0.5964    6.0955 N   0  0  0  0  0  0  0  0  0  0  0  0
   10.6801   -5.4549    2.6390 C   0  0  0  0  0  0  0  0  0  0  0  0
   14.0251   -3.2572    6.7986 C   0  0  2  0  0  0  0  0  0  0  0  0
   13.6257   -4.5797    7.2192 O   0  0  0  0  0  0  0  0  0  0  0  0
   14.0265   -2.5549   11.4594 C   0  0  2  0  0  0  0  0  0  0  0  0
   12.7154   -1.8894   11.2381 N   0  0  0  0  0  0  0  0  0  0  0  0
   12.0380    1.4886   12.2889 C   0  0  1  0  0  0  0  0  0  0  0  0
   11.5801    2.8507   12.4050 O   0  0  0  0  0  0  0  0  0  0  0  0
    8.1503   -2.0467    7.8897 C   0  0  0  0  0  0  0  0  0  0  0  0
    9.7919   -4.9700    3.8545 C   0  0  2  0  0  0  0  0  0  0  0  0
    8.3995   -4.7797    3.4351 N   0  0  0  0  0  0  0  0  0  0  0  0
   14.8182   -2.4979    7.8226 C   0  0  2  0  0  0  0  0  0  0  0  0
   14.2442   -2.6436    9.0969 O   0  0  0  0  0  0  0  0  0  0  0  0
   14.7764   -2.1351   12.7997 C   0  0  1  0  0  0  0  0  0  0  0  0
   16.0435   -2.7990   12.8483 O   0  0  0  0  0  0  0  0  0  0  0  0
   11.1862    0.7942   11.2332 C   0  0  1  0  0  0  0  0  0  0  0  0
    9.8181    1.0998   11.5248 O   0  0  0  0  0  0  0  0  0  0  0  0
    7.0960   -3.1580    8.1708 C   0  0  2  0  0  0  0  0  0  0  0  0
    7.0782   -3.5337    9.5363 O   0  0  0  0  0  0  0  0  0  0  0  0
   10.3610   -3.6561    4.4503 C   0  0  2  0  0  0  0  0  0  0  0  0
   14.6171   -1.0049    7.4909 C   0  0  2  0  0  0  0  0  0  0  0  0
   13.3199   -1.0028    6.9163 O   0  0  0  0  0  0  0  0  0  0  0  0
   15.1003   -0.5846   12.8199 C   0  0  2  0  0  0  0  0  0  0  0  0
   13.8174    0.0432   12.8051 O   0  0  0  0  0  0  0  0  0  0  0  0
   11.5076    1.2246    9.8009 C   0  0  2  0  0  0  0  0  0  0  0  0
   10.8670    0.2798    8.9281 O   0  0  0  0  0  0  0  0  0  0  0  0
    7.4032   -4.3657    7.2509 C   0  0  2  0  0  0  0  0  0  0  0  0
    7.2773   -3.9048    5.8752 O   0  0  0  0  0  0  0  0  0  0  0  0
   11.8738   -3.7303    4.8333 C   0  0  2  0  0  0  0  0  0  0  0  0
   12.3196   -2.4294    5.3079 O   0  0  0  0  0  0  0  0  0  0  0  0
   15.6081   -0.3868    6.5052 C   0  0  0  0  0  0  0  0  0  0  0  0
   16.8861   -0.9972    6.7370 O   0  0  0  0  0  0  0  0  0  0  0  0
   15.7201   -0.2776   11.4702 C   0  0  1  0  0  0  0  0  0  0  0  0
   15.4757   -0.8768   10.1795 O   0  0  0  0  0  0  0  0  0  0  0  0
   13.0101    1.3619    9.5819 C   0  0  2  0  0  0  0  0  0  0  0  0
   13.8846    1.7738   10.6437 O   0  0  0  0  0  0  0  0  0  0  0  0
    6.4229   -5.4788    7.4006 C   0  0  0  0  0  0  0  0  0  0  0  0
    5.1344   -4.9148    7.3571 O   0  0  0  0  0  0  0  0  0  0  0  0
   12.7275   -4.2605    3.6324 C   0  0  1  0  0  0  0  0  0  0  0  0
   14.0745   -4.4828    4.1277 O   0  0  0  0  0  0  0  0  0  0  0  0
   16.2349    1.1795   11.2585 C   0  0  0  0  0  0  0  0  0  0  0  0
   17.4043    1.2634   10.3585 N   0  0  0  0  0  0  0  0  0  0  0  0
   13.6223    1.7885    8.2496 C   0  0  0  0  0  0  0  0  0  0  0  0
   14.9833    2.2514    8.4550 O   0  0  0  0  0  0  0  0  0  0  0  0
  1  2  1  1  0  0  0
  1  8  1  0  0  0  0
  1 36  1  0  0  0  0
  3  4  1  6  0  0  0
  3 10  1  0  0  0  0
  3 47  1  0  0  0  0
  5 11  1  0  0  0  0
  5 30  1  0  0  0  0
  5 38  1  6  0  0  0
  6 21  1  6  0  0  0
  6 42  1  0  0  0  0
  7 15  1  0  0  0  0
  7 44  1  0  0  0  0
  7 32  1  6  0  0  0
  8  9  1  6  0  0  0
  8 17  1  0  0  0  0
 11 12  1  1  0  0  0
 11 20  1  0  0  0  0
 13  6  1  0  0  0  0
 13 14  1  6  0  0  0
 15 16  1  6  0  0  0
 15 24  1  0  0  0  0
 17 26  1  0  0  0  0
 18 10  1  0  0  0  0
 18 19  1  6  0  0  0
 20 21  1  1  0  0  0
 20 29  1  0  0  0  0
 22 13  1  0  0  0  0
 22 23  1  6  0  0  0
 24 25  1  1  0  0  0
 24 33  1  0  0  0  0
 26 27  1  1  0  0  0
 26 35  1  0  0  0  0
 28  2  1  1  0  0  0
 28 18  1  0  0  0  0
 29 30  1  0  0  0  0
 29 39  1  6  0  0  0
 31 22  1  0  0  0  0
 31 32  1  6  0  0  0
 31 41  1  0  0  0  0
 33 34  1  6  0  0  0
 33 43  1  0  0  0  0
 35 36  1  0  0  0  0
 35 45  1  1  0  0  0
 37 28  1  0  0  0  0
 37 38  1  6  0  0  0
 39 40  1  0  0  0  0
 41 42  1  0  0  0  0
 41 49  1  6  0  0  0
 43 44  1  0  0  0  0
 43 51  1  6  0  0  0
 45 46  1  0  0  0  0
 47 37  1  0  0  0  0
 47 48  1  1  0  0  0
 49 50  1  0  0  0  0
 51 52  1  0  0  0  0
M  END
>  <CHROM.1>
-130.90427373,57.69424570,178.04343115,175.22477519,163.37464514,-73.85012920
-35.30250627,-145.62592295,47.46726419,120.11717770,148.40500365,161.22530142
12.14006950,-1.80096699,8.14082971,2.17578387,-0.11322501,-2.15358367

>  <Name>
2esj_lig

>  <RI>
0

>  <Rbt.Current_Directory>
/home/itssahil/PROJECTS/Mol_Feturizer/New_Systems/rnas/2esj

>  <Rbt.Executable>
rbdock ($Id: //depot/dev/client3/rdock/2013.1/src/exe/rbdock.cxx#4 $)

>  <Rbt.Library>
libRbt.so (2013.1, Build901 2013/11/27)

>  <Rbt.Parameter_File>
/export/apps/rDock/src/rDock_2013.1_src/data/scripts/dock_solv.prm

>  <Rbt.Receptor>
prm/blind_docking_60.prm

>  <SCORE>
36.1696

>  <SCORE.INTER>
16.9395

>  <SCORE.INTER.CONST>
1

>  <SCORE.INTER.POLAR>
0

>  <SCORE.INTER.ROT>
12

>  <SCORE.INTER.SOLV>
19.5623

>  <SCORE.INTER.VDW>
-6.82775

>  <SCORE.INTER.norm>
0.32576

>  <SCORE.INTRA>
6.83025

>  <SCORE.INTRA.DIHEDRAL>
-4.92706

>  <SCORE.INTRA.DIHEDRAL.0>
32.9766

>  <SCORE.INTRA.POLAR>
0

>  <SCORE.INTRA.POLAR.0>
0

>  <SCORE.INTRA.REPUL>
0.0036284

>  <SCORE.INTRA.REPUL.0>
0

>  <SCORE.INTRA.SOLV>
6.62124

>  <SCORE.INTRA.SOLV.lig_0>
-114.358

>  <SCORE.INTRA.VDW>
5.96502

>  <SCORE.INTRA.VDW.0>
-8.24257

>  <SCORE.INTRA.norm>
0.131351

>  <SCORE.RESTR>
12.3998

>  <SCORE.RESTR.CAVITY>
12.3998

>  <SCORE.RESTR.norm>
0.238458

>  <SCORE.SYSTEM>
0

>  <SCORE.SYSTEM.CONST>
0

>  <SCORE.SYSTEM.DIHEDRAL>
0

>  <SCORE.SYSTEM.SOLV>
0

>  <SCORE.SYSTEM.norm>
0

>  <SCORE.heavy>
52

>  <SCORE.norm>
0.695569

>  <RMSD>
14.412

$$$$
2esj_lig
 OpenBabel11021811423D
libRbt.so/2013.1/901 2013/11/27
 52 56  0  0  0  0  0  0  0  0999 V2000
   17.6578   -0.9556    7.5752 C   0  0  2  0  0  0  0  0  0  0  0  0
   17.0021   -2.1110    8.1317 O   0  0  0  0  0  0  0  0  0  0  0  0
   15.2111   -2.7291   11.9656 C   0  0  2  0  0  0  0  0  0  0  0  0
   14.3475   -2.6760   13.1567 N   0  0  0  0  0  0  0  0  0  0  0  0
   13.4819   -3.1077    7.8487 C   0  0  1  0  0  0  0  0  0  0  0  0
   11.7869    0.0892    7.4258 C   0  0  1  0  0  0  0  0  0  0  0  0
   11.0786    0.5989   12.5378 C   0  0  1  0  0  0  0  0  0  0  0  0
   17.6227   -1.0982    6.0249 C   0  0  2  0  0  0  0  0  0  0  0  0
   16.2609   -1.2520    5.5140 N   0  0  0  0  0  0  0  0  0  0  0  0
   15.7670   -1.2892   11.6260 C   0  0  0  0  0  0  0  0  0  0  0  0
   13.9218   -1.8598    7.0820 C   0  0  2  0  0  0  0  0  0  0  0  0
   14.1370   -0.7269    7.9513 O   0  0  0  0  0  0  0  0  0  0  0  0
   12.5387   -0.2203    8.7970 C   0  0  2  0  0  0  0  0  0  0  0  0
   11.8902   -1.3462    9.5199 N   0  0  0  0  0  0  0  0  0  0  0  0
   11.8284   -0.7246   12.4390 C   0  0  1  0  0  0  0  0  0  0  0  0
   12.8677   -0.7557   13.4377 O   0  0  0  0  0  0  0  0  0  0  0  0
   18.5037   -2.2994    5.5557 C   0  0  0  0  0  0  0  0  0  0  0  0
   16.7385   -1.3761   10.3809 C   0  0  2  0  0  0  0  0  0  0  0  0
   17.2585   -0.0488   10.0360 N   0  0  0  0  0  0  0  0  0  0  0  0
   12.7681   -1.6995    6.1347 C   0  0  2  0  0  0  0  0  0  0  0  0
   11.6574   -1.1533    6.7997 O   0  0  0  0  0  0  0  0  0  0  0  0
   12.6683    1.1294    9.6317 C   0  0  1  0  0  0  0  0  0  0  0  0
   13.2472    2.1366    8.7956 O   0  0  0  0  0  0  0  0  0  0  0  0
   10.9717   -1.9728   12.6125 C   0  0  1  0  0  0  0  0  0  0  0  0
   11.8643   -3.0866   12.7268 O   0  0  0  0  0  0  0  0  0  0  0  0
   19.9404   -2.1244    6.1311 C   0  0  2  0  0  0  0  0  0  0  0  0
   20.8160   -3.1423    5.6799 O   0  0  0  0  0  0  0  0  0  0  0  0
   16.0059   -2.0017    9.1656 C   0  0  2  0  0  0  0  0  0  0  0  0
   12.3190   -3.1295    5.7699 C   0  0  2  0  0  0  0  0  0  0  0  0
   12.6553   -3.8524    6.9435 O   0  0  0  0  0  0  0  0  0  0  0  0
   11.2471    1.6854   10.0565 C   0  0  2  0  0  0  0  0  0  0  0  0
   10.7154    0.6741   10.9137 O   0  0  0  0  0  0  0  0  0  0  0  0
   10.0577   -1.9279   13.8383 C   0  0  2  0  0  0  0  0  0  0  0  0
    9.1121   -3.0000   13.6926 O   0  0  0  0  0  0  0  0  0  0  0  0
   19.8467   -2.0965    7.6769 C   0  0  2  0  0  0  0  0  0  0  0  0
   19.0281   -0.9481    8.0400 O   0  0  0  0  0  0  0  0  0  0  0  0
   15.3275   -3.3765    9.4663 C   0  0  2  0  0  0  0  0  0  0  0  0
   14.6097   -3.8330    8.2861 O   0  0  0  0  0  0  0  0  0  0  0  0
   13.0056   -3.7726    4.5655 C   0  0  0  0  0  0  0  0  0  0  0  0
   13.4996   -2.7132    3.7328 O   0  0  0  0  0  0  0  0  0  0  0  0
   10.3981    1.6431    8.8005 C   0  0  1  0  0  0  0  0  0  0  0  0
   10.4336    0.7240    7.6876 O   0  0  0  0  0  0  0  0  0  0  0  0
    9.4242   -0.5522   14.0134 C   0  0  2  0  0  0  0  0  0  0  0  0
   10.1140    0.6431   13.6171 O   0  0  0  0  0  0  0  0  0  0  0  0
   21.1656   -1.8843    8.3386 C   0  0  0  0  0  0  0  0  0  0  0  0
   21.4052   -0.4979    8.3668 O   0  0  0  0  0  0  0  0  0  0  0  0
   14.4103   -3.2805   10.7319 C   0  0  1  0  0  0  0  0  0  0  0  0
   13.9787   -4.6295   11.0531 O   0  0  0  0  0  0  0  0  0  0  0  0
    8.9615    2.2399    8.9139 C   0  0  0  0  0  0  0  0  0  0  0  0
    7.8973    1.2793    8.5541 N   0  0  0  0  0  0  0  0  0  0  0  0
    8.4738   -0.2125   15.1593 C   0  0  0  0  0  0  0  0  0  0  0  0
    9.0228    0.8720   15.9537 O   0  0  0  0  0  0  0  0  0  0  0  0
  1  2  1  1  0  0  0
  1  8  1  0  0  0  0
  1 36  1  0  0  0  0
  3  4  1  1  0  0  0
  3 10  1  0  0  0  0
  3 47  1  0  0  0  0
  5 11  1  0  0  0  0
  5 30  1  0  0  0  0
  5 38  1  6  0  0  0
  6 21  1  1  0  0  0
  6 42  1  0  0  0  0
  7 15  1  0  0  0  0
  7 44  1  0  0  0  0
  7 32  1  6  0  0  0
  8  9  1  1  0  0  0
  8 17  1  0  0  0  0
 11 12  1  1  0  0  0
 11 20  1  0  0  0  0
 13  6  1  0  0  0  0
 13 14  1  1  0  0  0
 15 16  1  1  0  0  0
 15 24  1  0  0  0  0
 17 26  1  0  0  0  0
 18 10  1  0  0  0  0
 18 19  1  6  0  0  0
 20 21  1  1  0  0  0
 20 29  1  0  0  0  0
 22 13  1  0  0  0  0
 22 23  1  6  0  0  0
 24 25  1  1  0  0  0
 24 33  1  0  0  0  0
 26 27  1  1  0  0  0
 26 35  1  0  0  0  0
 28  2  1  6  0  0  0
 28 18  1  0  0  0  0
 29 30  1  0  0  0  0
 29 39  1  6  0  0  0
 31 22  1  0  0  0  0
 31 32  1  1  0  0  0
 31 41  1  0  0  0  0
 33 34  1  6  0  0  0
 33 43  1  0  0  0  0
 35 36  1  0  0  0  0
 35 45  1  1  0  0  0
 37 28  1  0  0  0  0
 37 38  1  6  0  0  0
 39 40  1  0  0  0  0
 41 42  1  0  0  0  0
 41 49  1  1  0  0  0
 43 44  1  0  0  0  0
 43 51  1  1  0  0  0
 45 46  1  0  0  0  0
 47 37  1  0  0  0  0
 47 48  1  1  0  0  0
 49 50  1  0  0  0  0
 51 52  1  0  0  0  0
M  END
>  <CHROM.1>
-132.54761308,78.86656178,-78.71718765,-114.43911059,58.45323795,-62.46301969
-23.71574711,84.24999410,84.10536222,-66.62745452,-122.87752260,119.96235369
13.78198172,-1.27147947,9.40812345,-0.58477952,-0.21868964,1.57858240

>  <Name>
2esj_lig

>  <RI>
0

>  <Rbt.Current_Directory>
/home/itssahil/PROJECTS/Mol_Feturizer/New_Systems/rnas/2esj

>  <Rbt.Executable>
rbdock ($Id: //depot/dev/client3/rdock/2013.1/src/exe/rbdock.cxx#4 $)

>  <Rbt.Library>
libRbt.so (2013.1, Build901 2013/11/27)

>  <Rbt.Parameter_File>
/export/apps/rDock/src/rDock_2013.1_src/data/scripts/dock_solv.prm

>  <Rbt.Receptor>
prm/blind_docking_40.prm

>  <SCORE>
30.1936

>  <SCORE.INTER>
-10.5027

>  <SCORE.INTER.CONST>
1

>  <SCORE.INTER.POLAR>
-2.29969

>  <SCORE.INTER.ROT>
12

>  <SCORE.INTER.SOLV>
21.8338

>  <SCORE.INTER.VDW>
-18.2141

>  <SCORE.INTER.norm>
-0.201976

>  <SCORE.INTRA>
29.3527

>  <SCORE.INTRA.DIHEDRAL>
-1.7952

>  <SCORE.INTRA.DIHEDRAL.0>
32.9766

>  <SCORE.INTRA.POLAR>
0

>  <SCORE.INTRA.POLAR.0>
0

>  <SCORE.INTRA.REPUL>
0

>  <SCORE.INTRA.REPUL.0>
0

>  <SCORE.INTRA.SOLV>
14.4887

>  <SCORE.INTRA.SOLV.lig_0>
-114.358

>  <SCORE.INTRA.VDW>
23.006

>  <SCORE.INTRA.VDW.0>
-8.24257

>  <SCORE.INTRA.norm>
0.564475

>  <SCORE.RESTR>
11.3437

>  <SCORE.RESTR.CAVITY>
11.3437

>  <SCORE.RESTR.norm>
0.218147

>  <SCORE.SYSTEM>
0

>  <SCORE.SYSTEM.CONST>
0

>  <SCORE.SYSTEM.DIHEDRAL>
0

>  <SCORE.SYSTEM.SOLV>
0

>  <SCORE.SYSTEM.norm>
0

>  <SCORE.heavy>
52

>  <SCORE.norm>
0.580646

>  <RMSD>
14.417

$$$$
2esj_lig
 OpenBabel11021811423D
libRbt.so/2013.1/901 2013/11/27
 52 56  0  0  0  0  0  0  0  0999 V2000
   10.7418   -1.1763    4.3794 C   0  0  2  0  0  0  0  0  0  0  0  0
    9.5601   -1.9910    4.5003 O   0  0  0  0  0  0  0  0  0  0  0  0
    6.5394   -2.9848    7.3596 C   0  0  2  0  0  0  0  0  0  0  0  0
    5.8050   -3.4192    8.5593 N   0  0  0  0  0  0  0  0  0  0  0  0
   10.1244   -0.2076    7.4899 C   0  0  1  0  0  0  0  0  0  0  0  0
   13.0099   -0.4096   10.5501 C   0  0  1  0  0  0  0  0  0  0  0  0
   16.6988   -2.1960    8.7401 C   0  0  1  0  0  0  0  0  0  0  0  0
   11.4742   -1.6040    3.0734 C   0  0  2  0  0  0  0  0  0  0  0  0
   10.6138   -1.4958    1.8956 N   0  0  0  0  0  0  0  0  0  0  0  0
    7.4943   -4.1376    6.8529 C   0  0  0  0  0  0  0  0  0  0  0  0
    9.9355    0.5860    8.7834 C   0  0  2  0  0  0  0  0  0  0  0  0
   10.3868    1.9524    8.6618 O   0  0  0  0  0  0  0  0  0  0  0  0
   14.2170    0.6268   10.4498 C   0  0  2  0  0  0  0  0  0  0  0  0
   14.6917    0.7603    9.0470 N   0  0  0  0  0  0  0  0  0  0  0  0
   18.2051   -2.0630    8.5479 C   0  0  1  0  0  0  0  0  0  0  0  0
   18.7541   -3.3509    8.2038 O   0  0  0  0  0  0  0  0  0  0  0  0
   12.0258   -3.0600    3.1950 C   0  0  0  0  0  0  0  0  0  0  0  0
    8.2294   -3.6746    5.5312 C   0  0  2  0  0  0  0  0  0  0  0  0
    9.1333   -4.7230    5.0469 N   0  0  0  0  0  0  0  0  0  0  0  0
   10.7425   -0.2473    9.7365 C   0  0  2  0  0  0  0  0  0  0  0  0
   12.1160   -0.0165    9.5505 O   0  0  0  0  0  0  0  0  0  0  0  0
   15.3384    0.2178   11.5035 C   0  0  1  0  0  0  0  0  0  0  0  0
   14.7303    0.0636   12.7900 O   0  0  0  0  0  0  0  0  0  0  0  0
   18.6396   -1.0659    7.4806 C   0  0  1  0  0  0  0  0  0  0  0  0
   20.0452   -1.2483    7.2778 O   0  0  0  0  0  0  0  0  0  0  0  0
   12.9187   -3.1551    4.4675 C   0  0  2  0  0  0  0  0  0  0  0  0
   13.5159   -4.4328    4.5976 O   0  0  0  0  0  0  0  0  0  0  0  0
    9.0120   -2.3590    5.7799 C   0  0  2  0  0  0  0  0  0  0  0  0
   10.5458   -1.7106    9.2894 C   0  0  2  0  0  0  0  0  0  0  0  0
   10.3414   -1.5670    7.8928 O   0  0  0  0  0  0  0  0  0  0  0  0
   15.9736   -1.1908   11.1546 C   0  0  2  0  0  0  0  0  0  0  0  0
   16.5982   -0.9907    9.8857 O   0  0  0  0  0  0  0  0  0  0  0  0
   17.9092   -1.2329    6.1469 C   0  0  2  0  0  0  0  0  0  0  0  0
   18.1868   -0.0567    5.3695 O   0  0  0  0  0  0  0  0  0  0  0  0
   12.0497   -2.8035    5.7005 C   0  0  2  0  0  0  0  0  0  0  0  0
   11.5856   -1.4341    5.5264 O   0  0  0  0  0  0  0  0  0  0  0  0
    8.1514   -1.2095    6.3954 C   0  0  2  0  0  0  0  0  0  0  0  0
    8.9972   -0.0550    6.6561 O   0  0  0  0  0  0  0  0  0  0  0  0
    9.3595   -2.4557    9.9003 C   0  0  0  0  0  0  0  0  0  0  0  0
    9.7283   -2.8360   11.2341 O   0  0  0  0  0  0  0  0  0  0  0  0
   14.8008   -2.1154   10.8905 C   0  0  1  0  0  0  0  0  0  0  0  0
   13.5014   -1.8284   10.3303 O   0  0  0  0  0  0  0  0  0  0  0  0
   16.4247   -1.5122    6.3534 C   0  0  2  0  0  0  0  0  0  0  0  0
   15.9542   -2.2392    7.4988 O   0  0  0  0  0  0  0  0  0  0  0  0
   12.8167   -2.8159    6.9788 C   0  0  0  0  0  0  0  0  0  0  0  0
   13.5719   -4.0029    7.0062 O   0  0  0  0  0  0  0  0  0  0  0  0
    7.3931   -1.7041    7.6732 C   0  0  1  0  0  0  0  0  0  0  0  0
    6.4765   -0.6477    8.0647 O   0  0  0  0  0  0  0  0  0  0  0  0
   15.1449   -3.6126   10.6208 C   0  0  0  0  0  0  0  0  0  0  0  0
   14.2051   -4.5553   11.2634 N   0  0  0  0  0  0  0  0  0  0  0  0
   15.4500   -1.7327    5.1988 C   0  0  0  0  0  0  0  0  0  0  0  0
   16.1819   -2.0591    3.9877 O   0  0  0  0  0  0  0  0  0  0  0  0
  1  2  1  1  0  0  0
  1  8  1  0  0  0  0
  1 36  1  0  0  0  0
  3  4  1  1  0  0  0
  3 10  1  0  0  0  0
  3 47  1  0  0  0  0
  5 11  1  0  0  0  0
  5 30  1  0  0  0  0
  5 38  1  6  0  0  0
  6 21  1  6  0  0  0
  6 42  1  0  0  0  0
  7 15  1  0  0  0  0
  7 44  1  0  0  0  0
  7 32  1  1  0  0  0
  8  9  1  6  0  0  0
  8 17  1  0  0  0  0
 11 12  1  6  0  0  0
 11 20  1  0  0  0  0
 13  6  1  0  0  0  0
 13 14  1  6  0  0  0
 15 16  1  6  0  0  0
 15 24  1  0  0  0  0
 17 26  1  0  0  0  0
 18 10  1  0  0  0  0
 18 19  1  1  0  0  0
 20 21  1  6  0  0  0
 20 29  1  0  0  0  0
 22 13  1  0  0  0  0
 22 23  1  1  0  0  0
 24 25  1  6  0  0  0
 24 33  1  0  0  0  0
 26 27  1  1  0  0  0
 26 35  1  0  0  0  0
 28  2  1  6  0  0  0
 28 18  1  0  0  0  0
 29 30  1  0  0  0  0
 29 39  1  1  0  0  0
 31 22  1  0  0  0  0
 31 32  1  6  0  0  0
 31 41  1  0  0  0  0
 33 34  1  6  0  0  0
 33 43  1  0  0  0  0
 35 36  1  0  0  0  0
 35 45  1  1  0  0  0
 37 28  1  0  0  0  0
 37 38  1  1  0  0  0
 39 40  1  0  0  0  0
 41 42  1  0  0  0  0
 41 49  1  6  0  0  0
 43 44  1  0  0  0  0
 43 51  1  6  0  0  0
 45 46  1  0  0  0  0
 47 37  1  0  0  0  0
 47 48  1  6  0  0  0
 49 50  1  0  0  0  0
 51 52  1  0  0  0  0
M  END
>  <CHROM.1>
149.24716680,-113.27005644,-149.83119477,-127.46280950,163.18767091,-154.79534319
-77.48768078,-147.09404597,-47.34694846,-57.00071940,139.83721253,18.11387267
12.65296892,-1.75020413,7.59989907,-2.94890718,0.02525425,1.35322524

>  <Name>
2esj_lig

>  <RI>
0

>  <Rbt.Current_Directory>
/home/itssahil/PROJECTS/Mol_Feturizer/New_Systems/rnas/2esj

>  <Rbt.Executable>
rbdock ($Id: //depot/dev/client3/rdock/2013.1/src/exe/rbdock.cxx#4 $)

>  <Rbt.Library>
libRbt.so (2013.1, Build901 2013/11/27)

>  <Rbt.Parameter_File>
/export/apps/rDock/src/rDock_2013.1_src/data/scripts/dock_solv.prm

>  <Rbt.Receptor>
prm/blind_docking_60.prm

>  <SCORE>
11.2442

>  <SCORE.INTER>
-7.1517

>  <SCORE.INTER.CONST>
1

>  <SCORE.INTER.POLAR>
-0.413987

>  <SCORE.INTER.ROT>
12

>  <SCORE.INTER.SOLV>
22.7695

>  <SCORE.INTER.VDW>
-22.5777

>  <SCORE.INTER.norm>
-0.137533

>  <SCORE.INTRA>
7.02238

>  <SCORE.INTRA.DIHEDRAL>
4.00017

>  <SCORE.INTRA.DIHEDRAL.0>
32.9766

>  <SCORE.INTRA.POLAR>
0

>  <SCORE.INTRA.POLAR.0>
0

>  <SCORE.INTRA.REPUL>
0.0253394

>  <SCORE.INTRA.REPUL.0>
0

>  <SCORE.INTRA.SOLV>
1.60862

>  <SCORE.INTRA.SOLV.lig_0>
-114.358

>  <SCORE.INTRA.VDW>
4.09129

>  <SCORE.INTRA.VDW.0>
-8.24257

>  <SCORE.INTRA.norm>
0.135046

>  <SCORE.RESTR>
11.3736

>  <SCORE.RESTR.CAVITY>
11.3736

>  <SCORE.RESTR.norm>
0.218722

>  <SCORE.SYSTEM>
0

>  <SCORE.SYSTEM.CONST>
0

>  <SCORE.SYSTEM.DIHEDRAL>
0

>  <SCORE.SYSTEM.SOLV>
0

>  <SCORE.SYSTEM.norm>
0

>  <SCORE.heavy>
52

>  <SCORE.norm>
0.216235

>  <RMSD>
14.417

$$$$
2esj_lig
 OpenBabel11021811423D
libRbt.so/2013.1/901 2013/11/27
 52 56  0  0  0  0  0  0  0  0999 V2000
   10.6019   -1.9754    5.3788 C   0  0  2  0  0  0  0  0  0  0  0  0
    9.9263   -3.2257    5.6141 O   0  0  0  0  0  0  0  0  0  0  0  0
    6.0558   -1.7980    6.7406 C   0  0  2  0  0  0  0  0  0  0  0  0
    4.6588   -1.6810    7.1902 N   0  0  0  0  0  0  0  0  0  0  0  0
    9.7440   -2.1025    9.5402 C   0  0  1  0  0  0  0  0  0  0  0  0
   11.1856   -0.0610   12.6483 C   0  0  1  0  0  0  0  0  0  0  0  0
   15.5989    1.0329   10.0591 C   0  0  1  0  0  0  0  0  0  0  0  0
   10.8695   -1.8682    3.8485 C   0  0  2  0  0  0  0  0  0  0  0  0
    9.6411   -1.9813    3.0626 N   0  0  0  0  0  0  0  0  0  0  0  0
    6.1566   -2.7898    5.5144 C   0  0  0  0  0  0  0  0  0  0  0  0
    9.1730   -2.5920   10.8717 C   0  0  2  0  0  0  0  0  0  0  0  0
    7.8616   -2.0505   11.1406 O   0  0  0  0  0  0  0  0  0  0  0  0
   11.6984    0.9715   11.5473 C   0  0  2  0  0  0  0  0  0  0  0  0
   11.9098    0.2969   10.2392 N   0  0  0  0  0  0  0  0  0  0  0  0
   14.7702    0.8420    8.7941 C   0  0  1  0  0  0  0  0  0  0  0  0
   15.0138    1.9444    7.8975 O   0  0  0  0  0  0  0  0  0  0  0  0
   11.8967   -2.9496    3.3853 C   0  0  0  0  0  0  0  0  0  0  0  0
    7.6536   -2.8568    5.0083 C   0  0  2  0  0  0  0  0  0  0  0  0
    7.7772   -3.7823    3.8774 N   0  0  0  0  0  0  0  0  0  0  0  0
   10.2401   -2.1213   11.8170 C   0  0  2  0  0  0  0  0  0  0  0  0
   10.1262   -0.7384   12.0386 O   0  0  0  0  0  0  0  0  0  0  0  0
   12.9668    1.7472   12.1170 C   0  0  1  0  0  0  0  0  0  0  0  0
   12.6399    2.2882   13.4012 O   0  0  0  0  0  0  0  0  0  0  0  0
   15.0337   -0.4512    8.0322 C   0  0  1  0  0  0  0  0  0  0  0  0
   14.3563   -0.3475    6.7750 O   0  0  0  0  0  0  0  0  0  0  0  0
   13.1849   -2.8236    4.2515 C   0  0  2  0  0  0  0  0  0  0  0  0
   14.1918   -3.7272    3.8324 O   0  0  0  0  0  0  0  0  0  0  0  0
    8.5964   -3.2854    6.1626 C   0  0  2  0  0  0  0  0  0  0  0  0
   11.5739   -2.2690   11.0563 C   0  0  2  0  0  0  0  0  0  0  0  0
   11.1681   -2.0780    9.7102 O   0  0  0  0  0  0  0  0  0  0  0  0
   14.1849    0.7641   12.3601 C   0  0  2  0  0  0  0  0  0  0  0  0
   14.5046    0.2713   11.0580 O   0  0  0  0  0  0  0  0  0  0  0  0
   16.5175   -0.7309    7.7870 C   0  0  2  0  0  0  0  0  0  0  0  0
   16.6181   -2.0977    7.3550 O   0  0  0  0  0  0  0  0  0  0  0  0
   12.7990   -3.0474    5.7348 C   0  0  2  0  0  0  0  0  0  0  0  0
   11.8564   -1.9990    6.0996 O   0  0  0  0  0  0  0  0  0  0  0  0
    8.4613   -2.4172    7.4545 C   0  0  2  0  0  0  0  0  0  0  0  0
    9.3304   -2.9507    8.4920 O   0  0  0  0  0  0  0  0  0  0  0  0
   12.2852   -3.6156   11.1840 C   0  0  0  0  0  0  0  0  0  0  0  0
   11.2826   -4.6125   11.4304 O   0  0  0  0  0  0  0  0  0  0  0  0
   13.6118   -0.4200   13.1148 C   0  0  1  0  0  0  0  0  0  0  0  0
   12.2971   -1.0131   13.0497 O   0  0  0  0  0  0  0  0  0  0  0  0
   17.3597   -0.3972    9.0132 C   0  0  2  0  0  0  0  0  0  0  0  0
   16.9915    0.6667    9.9046 O   0  0  0  0  0  0  0  0  0  0  0  0
   13.9531   -2.9023    6.6672 C   0  0  0  0  0  0  0  0  0  0  0  0
   13.8876   -3.9643    7.5881 O   0  0  0  0  0  0  0  0  0  0  0  0
    6.9656   -2.3227    7.9086 C   0  0  1  0  0  0  0  0  0  0  0  0
    6.9044   -1.3510    8.9863 O   0  0  0  0  0  0  0  0  0  0  0  0
   14.6308   -1.5061   13.5784 C   0  0  0  0  0  0  0  0  0  0  0  0
   14.3510   -2.8474   13.0240 N   0  0  0  0  0  0  0  0  0  0  0  0
   18.8766   -0.5672    9.0534 C   0  0  0  0  0  0  0  0  0  0  0  0
   19.3013   -0.9130   10.3984 O   0  0  0  0  0  0  0  0  0  0  0  0
  1  2  1  6  0  0  0
  1  8  1  0  0  0  0
  1 36  1  0  0  0  0
  3  4  1  1  0  0  0
  3 10  1  0  0  0  0
  3 47  1  0  0  0  0
  5 11  1  0  0  0  0
  5 30  1  0  0  0  0
  5 38  1  6  0  0  0
  6 21  1  6  0  0  0
  6 42  1  0  0  0  0
  7 15  1  0  0  0  0
  7 44  1  0  0  0  0
  7 32  1  1  0  0  0
  8  9  1  6  0  0  0
  8 17  1  0  0  0  0
 11 12  1  1  0  0  0
 11 20  1  0  0  0  0
 13  6  1  0  0  0  0
 13 14  1  6  0  0  0
 15 16  1  6  0  0  0
 15 24  1  0  0  0  0
 17 26  1  0  0  0  0
 18 10  1  0  0  0  0
 18 19  1  6  0  0  0
 20 21  1  6  0  0  0
 20 29  1  0  0  0  0
 22 13  1  0  0  0  0
 22 23  1  1  0  0  0
 24 25  1  6  0  0  0
 24 33  1  0  0  0  0
 26 27  1  6  0  0  0
 26 35  1  0  0  0  0
 28  2  1  6  0  0  0
 28 18  1  0  0  0  0
 29 30  1  0  0  0  0
 29 39  1  6  0  0  0
 31 22  1  0  0  0  0
 31 32  1  6  0  0  0
 31 41  1  0  0  0  0
 33 34  1  1  0  0  0
 33 43  1  0  0  0  0
 35 36  1  0  0  0  0
 35 45  1  1  0  0  0
 37 28  1  0  0  0  0
 37 38  1  1  0  0  0
 39 40  1  0  0  0  0
 41 42  1  0  0  0  0
 41 49  1  6  0  0  0
 43 44  1  0  0  0  0
 43 51  1  6  0  0  0
 45 46  1  0  0  0  0
 47 37  1  0  0  0  0
 47 48  1  1  0  0  0
 49 50  1  0  0  0  0
 51 52  1  0  0  0  0
M  END
>  <CHROM.1>
-117.74099889,115.07531811,116.57133611,-138.83195622,-166.22485623,74.51195221
27.60734868,89.81389469,-135.85997407,157.45468552,-120.46796953,-148.00874704
12.02829694,-1.51326359,8.72779712,-2.52794227,0.16172496,1.31371550

>  <Name>
2esj_lig

>  <RI>
0

>  <Rbt.Current_Directory>
/home/itssahil/PROJECTS/Mol_Feturizer/New_Systems/rnas/2esj

>  <Rbt.Executable>
rbdock ($Id: //depot/dev/client3/rdock/2013.1/src/exe/rbdock.cxx#4 $)

>  <Rbt.Library>
libRbt.so (2013.1, Build901 2013/11/27)

>  <Rbt.Parameter_File>
/export/apps/rDock/src/rDock_2013.1_src/data/scripts/dock_solv.prm

>  <Rbt.Receptor>
prm/blind_docking_60.prm

>  <SCORE>
31.0725

>  <SCORE.INTER>
-1.87991

>  <SCORE.INTER.CONST>
1

>  <SCORE.INTER.POLAR>
-0.840802

>  <SCORE.INTER.ROT>
12

>  <SCORE.INTER.SOLV>
24.8174

>  <SCORE.INTER.VDW>
-18.3231

>  <SCORE.INTER.norm>
-0.0361521

>  <SCORE.INTRA>
22.638

>  <SCORE.INTRA.DIHEDRAL>
14.8087

>  <SCORE.INTRA.DIHEDRAL.0>
32.9766

>  <SCORE.INTRA.POLAR>
0

>  <SCORE.INTRA.POLAR.0>
0

>  <SCORE.INTRA.REPUL>
0.322812

>  <SCORE.INTRA.REPUL.0>
0

>  <SCORE.INTRA.SOLV>
9.77045

>  <SCORE.INTRA.SOLV.lig_0>
-114.358

>  <SCORE.INTRA.VDW>
8.73436

>  <SCORE.INTRA.VDW.0>
-8.24257

>  <SCORE.INTRA.norm>
0.435346

>  <SCORE.RESTR>
10.3145

>  <SCORE.RESTR.CAVITY>
10.3145

>  <SCORE.RESTR.norm>
0.198355

>  <SCORE.SYSTEM>
0

>  <SCORE.SYSTEM.CONST>
0

>  <SCORE.SYSTEM.DIHEDRAL>
0

>  <SCORE.SYSTEM.SOLV>
0

>  <SCORE.SYSTEM.norm>
0

>  <SCORE.heavy>
52

>  <SCORE.norm>
0.597549

>  <RMSD>
14.476

$$$$
2esj_lig
 OpenBabel11021811423D
libRbt.so/2013.1/901 2013/11/27
 52 56  0  0  0  0  0  0  0  0999 V2000
   10.0107   -2.7993    6.3297 C   0  0  2  0  0  0  0  0  0  0  0  0
   11.3834   -3.1170    6.0306 O   0  0  0  0  0  0  0  0  0  0  0  0
   13.5197   -4.4522    2.5749 C   0  0  2  0  0  0  0  0  0  0  0  0
   14.0801   -4.6099    1.2227 N   0  0  0  0  0  0  0  0  0  0  0  0
   14.1819   -1.6837    6.6714 C   0  0  1  0  0  0  0  0  0  0  0  0
   15.7049   -1.1432   10.5615 C   0  0  1  0  0  0  0  0  0  0  0  0
   11.8016    0.4299   13.6480 C   0  0  1  0  0  0  0  0  0  0  0  0
    9.7104   -1.3982    5.7201 C   0  0  2  0  0  0  0  0  0  0  0  0
    9.9813   -1.3501    4.2836 N   0  0  0  0  0  0  0  0  0  0  0  0
   11.9404   -4.4416    2.5169 C   0  0  0  0  0  0  0  0  0  0  0  0
   15.6004   -1.1520    6.8808 C   0  0  2  0  0  0  0  0  0  0  0  0
   16.5960   -2.1953    6.8064 O   0  0  0  0  0  0  0  0  0  0  0  0
   14.8647   -2.1751   11.4393 C   0  0  2  0  0  0  0  0  0  0  0  0
   13.4652   -2.2794   10.9479 N   0  0  0  0  0  0  0  0  0  0  0  0
   10.7517   -0.6731   13.7161 C   0  0  1  0  0  0  0  0  0  0  0  0
    9.8852   -0.4332   14.8430 O   0  0  0  0  0  0  0  0  0  0  0  0
   10.5271   -0.2857    6.4511 C   0  0  0  0  0  0  0  0  0  0  0  0
   11.3568   -4.3311    3.9828 C   0  0  2  0  0  0  0  0  0  0  0  0
    9.8907   -4.3056    3.9560 N   0  0  0  0  0  0  0  0  0  0  0  0
   15.4614   -0.5283    8.2395 C   0  0  2  0  0  0  0  0  0  0  0  0
   15.4614   -1.5175    9.2374 O   0  0  0  0  0  0  0  0  0  0  0  0
   15.0108   -1.7855   12.9761 C   0  0  1  0  0  0  0  0  0  0  0  0
   16.4013   -1.6585   13.2910 O   0  0  0  0  0  0  0  0  0  0  0  0
    9.8797   -0.8193   12.4749 C   0  0  1  0  0  0  0  0  0  0  0  0
    8.8189   -1.7220   12.8066 O   0  0  0  0  0  0  0  0  0  0  0  0
   10.2398   -0.3727    7.9794 C   0  0  2  0  0  0  0  0  0  0  0  0
   10.8909    0.6601    8.6974 O   0  0  0  0  0  0  0  0  0  0  0  0
   11.9063   -3.0651    4.6900 C   0  0  2  0  0  0  0  0  0  0  0  0
   14.0345    0.0556    8.2925 C   0  0  2  0  0  0  0  0  0  0  0  0
   13.3245   -0.8229    7.4339 O   0  0  0  0  0  0  0  0  0  0  0  0
   14.3688   -0.3690   13.2773 C   0  0  2  0  0  0  0  0  0  0  0  0
   12.9813   -0.5423   12.9857 O   0  0  0  0  0  0  0  0  0  0  0  0
    9.2859    0.5006   11.9796 C   0  0  2  0  0  0  0  0  0  0  0  0
    8.7677    0.2561   10.6618 O   0  0  0  0  0  0  0  0  0  0  0  0
   10.6721   -1.7740    8.4779 C   0  0  2  0  0  0  0  0  0  0  0  0
    9.8622   -2.7546    7.7684 O   0  0  0  0  0  0  0  0  0  0  0  0
   13.4644   -2.9514    4.6783 C   0  0  2  0  0  0  0  0  0  0  0  0
   13.8652   -1.6973    5.2971 O   0  0  0  0  0  0  0  0  0  0  0  0
   13.8675    1.4917    7.7971 C   0  0  0  0  0  0  0  0  0  0  0  0
   14.7447    2.3214    8.5729 O   0  0  0  0  0  0  0  0  0  0  0  0
   14.8989    0.5586   12.2009 C   0  0  1  0  0  0  0  0  0  0  0  0
   15.2532    0.2807   10.8291 O   0  0  0  0  0  0  0  0  0  0  0  0
   10.3029    1.6340   12.0533 C   0  0  2  0  0  0  0  0  0  0  0  0
   11.3121    1.6661   13.0742 O   0  0  0  0  0  0  0  0  0  0  0  0
   10.3979   -1.9890    9.9274 C   0  0  0  0  0  0  0  0  0  0  0  0
   10.9047   -3.2565   10.2692 O   0  0  0  0  0  0  0  0  0  0  0  0
   14.0241   -3.1141    3.2248 C   0  0  1  0  0  0  0  0  0  0  0  0
   15.4708   -3.1914    3.3277 O   0  0  0  0  0  0  0  0  0  0  0  0
   14.5001    2.0616   12.3224 C   0  0  0  0  0  0  0  0  0  0  0  0
   13.2084    2.3796   11.6781 N   0  0  0  0  0  0  0  0  0  0  0  0
    9.9849    3.0673   11.6333 C   0  0  0  0  0  0  0  0  0  0  0  0
   11.1074    3.9351   11.9427 O   0  0  0  0  0  0  0  0  0  0  0  0
  1  2  1  1  0  0  0
  1  8  1  0  0  0  0
  1 36  1  0  0  0  0
  3  4  1  6  0  0  0
  3 10  1  0  0  0  0
  3 47  1  0  0  0  0
  5 11  1  0  0  0  0
  5 30  1  0  0  0  0
  5 38  1  6  0  0  0
  6 21  1  6  0  0  0
  6 42  1  0  0  0  0
  7 15  1  0  0  0  0
  7 44  1  0  0  0  0
  7 32  1  6  0  0  0
  8  9  1  6  0  0  0
  8 17  1  0  0  0  0
 11 12  1  1  0  0  0
 11 20  1  0  0  0  0
 13  6  1  0  0  0  0
 13 14  1  6  0  0  0
 15 16  1  1  0  0  0
 15 24  1  0  0  0  0
 17 26  1  0  0  0  0
 18 10  1  0  0  0  0
 18 19  1  6  0  0  0
 20 21  1  1  0  0  0
 20 29  1  0  0  0  0
 22 13  1  0  0  0  0
 22 23  1  6  0  0  0
 24 25  1  1  0  0  0
 24 33  1  0  0  0  0
 26 27  1  1  0  0  0
 26 35  1  0  0  0  0
 28  2  1  1  0  0  0
 28 18  1  0  0  0  0
 29 30  1  0  0  0  0
 29 39  1  6  0  0  0
 31 22  1  0  0  0  0
 31 32  1  6  0  0  0
 31 41  1  0  0  0  0
 33 34  1  6  0  0  0
 33 43  1  0  0  0  0
 35 36  1  0  0  0  0
 35 45  1  1  0  0  0
 37 28  1  0  0  0  0
 37 38  1  6  0  0  0
 39 40  1  0  0  0  0
 41 42  1  0  0  0  0
 41 49  1  6  0  0  0
 43 44  1  0  0  0  0
 43 51  1  1  0  0  0
 45 46  1  0  0  0  0
 47 37  1  0  0  0  0
 47 48  1  1  0  0  0
 49 50  1  0  0  0  0
 51 52  1  0  0  0  0
M  END
>  <CHROM.1>
-52.93873413,122.92554250,148.69996310,-146.69403995,162.83966844,-75.49486112
-57.21899258,156.84476275,-176.57075472,93.84958080,-87.14291582,174.39758229
12.49924321,-1.04263816,8.86238684,1.48743504,-0.01593206,-1.97933932

>  <Name>
2esj_lig

>  <RI>
0

>  <Rbt.Current_Directory>
/home/itssahil/PROJECTS/Mol_Feturizer/New_Systems/rnas/2esj

>  <Rbt.Executable>
rbdock ($Id: //depot/dev/client3/rdock/2013.1/src/exe/rbdock.cxx#4 $)

>  <Rbt.Library>
libRbt.so (2013.1, Build901 2013/11/27)

>  <Rbt.Parameter_File>
/export/apps/rDock/src/rDock_2013.1_src/data/scripts/dock_solv.prm

>  <Rbt.Receptor>
prm/blind_docking_60.prm

>  <SCORE>
20.6817

>  <SCORE.INTER>
-2.5221

>  <SCORE.INTER.CONST>
1

>  <SCORE.INTER.POLAR>
-0.085536

>  <SCORE.INTER.ROT>
12

>  <SCORE.INTER.SOLV>
21.8612

>  <SCORE.INTER.VDW>
-20.2833

>  <SCORE.INTER.norm>
-0.0485019

>  <SCORE.INTRA>
7.73058

>  <SCORE.INTRA.DIHEDRAL>
-3.39039

>  <SCORE.INTRA.DIHEDRAL.0>
32.9766

>  <SCORE.INTRA.POLAR>
0

>  <SCORE.INTRA.POLAR.0>
0

>  <SCORE.INTRA.REPUL>
0.182068

>  <SCORE.INTRA.REPUL.0>
0

>  <SCORE.INTRA.SOLV>
14.2932

>  <SCORE.INTRA.SOLV.lig_0>
-114.358

>  <SCORE.INTRA.VDW>
1.36886

>  <SCORE.INTRA.VDW.0>
-8.24257

>  <SCORE.INTRA.norm>
0.148665

>  <SCORE.RESTR>
15.4732

>  <SCORE.RESTR.CAVITY>
15.4732

>  <SCORE.RESTR.norm>
0.297561

>  <SCORE.SYSTEM>
0

>  <SCORE.SYSTEM.CONST>
0

>  <SCORE.SYSTEM.DIHEDRAL>
0

>  <SCORE.SYSTEM.SOLV>
0

>  <SCORE.SYSTEM.norm>
0

>  <SCORE.heavy>
52

>  <SCORE.norm>
0.397725

>  <RMSD>
14.545

$$$$
2esj_lig
 OpenBabel11021811423D
libRbt.so/2013.1/901 2013/11/27
 52 56  0  0  0  0  0  0  0  0999 V2000
   18.4017   -2.3215    7.8294 C   0  0  2  0  0  0  0  0  0  0  0  0
   17.3600   -1.6095    7.1346 O   0  0  0  0  0  0  0  0  0  0  0  0
   13.3844   -1.9489    5.5961 C   0  0  2  0  0  0  0  0  0  0  0  0
   12.1203   -2.4330    5.0173 N   0  0  0  0  0  0  0  0  0  0  0  0
   14.4750   -2.4701   10.0194 C   0  0  1  0  0  0  0  0  0  0  0  0
   12.5413   -1.3270   13.0698 C   0  0  1  0  0  0  0  0  0  0  0  0
   10.4522   -0.6746   10.3739 C   0  0  1  0  0  0  0  0  0  0  0  0
   18.5158   -1.7098    9.2569 C   0  0  2  0  0  0  0  0  0  0  0  0
   17.2462   -1.7557    9.9816 N   0  0  0  0  0  0  0  0  0  0  0  0
   14.5895   -2.2628    4.6231 C   0  0  0  0  0  0  0  0  0  0  0  0
   14.8424   -3.4029   11.1740 C   0  0  2  0  0  0  0  0  0  0  0  0
   14.1106   -4.6471   11.1309 O   0  0  0  0  0  0  0  0  0  0  0  0
   10.9769   -1.6299   13.1164 C   0  0  2  0  0  0  0  0  0  0  0  0
   10.4984   -2.1714   11.8169 N   0  0  0  0  0  0  0  0  0  0  0  0
   11.2255    0.3882    9.6020 C   0  0  1  0  0  0  0  0  0  0  0  0
   12.4630   -0.1782    9.1265 O   0  0  0  0  0  0  0  0  0  0  0  0
   19.0368   -0.2390    9.1929 C   0  0  0  0  0  0  0  0  0  0  0  0
   15.9286   -1.6834    5.2336 C   0  0  2  0  0  0  0  0  0  0  0  0
   17.0664   -1.9737    4.3550 N   0  0  0  0  0  0  0  0  0  0  0  0
   14.5063   -2.5305   12.3487 C   0  0  2  0  0  0  0  0  0  0  0  0
   13.1162   -2.4896   12.5497 O   0  0  0  0  0  0  0  0  0  0  0  0
   10.2133   -0.3287   13.6251 C   0  0  1  0  0  0  0  0  0  0  0  0
   10.8175    0.1153   14.8444 O   0  0  0  0  0  0  0  0  0  0  0  0
   10.4928    0.9875    8.4076 C   0  0  1  0  0  0  0  0  0  0  0  0
   11.4425    1.7733    7.6791 O   0  0  0  0  0  0  0  0  0  0  0  0
   20.3756   -0.2137    8.3974 C   0  0  2  0  0  0  0  0  0  0  0  0
   20.9455    1.0826    8.3666 O   0  0  0  0  0  0  0  0  0  0  0  0
   16.1757   -2.2684    6.6485 C   0  0  2  0  0  0  0  0  0  0  0  0
   14.8645   -1.0917   11.9228 C   0  0  2  0  0  0  0  0  0  0  0  0
   14.6517   -1.1379   10.5208 O   0  0  0  0  0  0  0  0  0  0  0  0
   10.3712    0.8713   12.6032 C   0  0  2  0  0  0  0  0  0  0  0  0
    9.7297    0.4076   11.4141 O   0  0  0  0  0  0  0  0  0  0  0  0
    9.8770   -0.0568    7.4748 C   0  0  2  0  0  0  0  0  0  0  0  0
    8.9773    0.6441    6.6007 O   0  0  0  0  0  0  0  0  0  0  0  0
   20.1054   -0.7521    6.9705 C   0  0  2  0  0  0  0  0  0  0  0  0
   19.6401   -2.1253    7.1071 O   0  0  0  0  0  0  0  0  0  0  0  0
   14.9720   -2.0982    7.6299 C   0  0  2  0  0  0  0  0  0  0  0  0
   15.2813   -2.7456    8.8955 O   0  0  0  0  0  0  0  0  0  0  0  0
   16.2959   -0.6351   12.2025 C   0  0  0  0  0  0  0  0  0  0  0  0
   16.3209    0.7962   12.0999 O   0  0  0  0  0  0  0  0  0  0  0  0
   11.8496    0.9348   12.2707 C   0  0  1  0  0  0  0  0  0  0  0  0
   12.8287   -0.1233   12.1915 O   0  0  0  0  0  0  0  0  0  0  0  0
    9.2316   -1.1948    8.2576 C   0  0  2  0  0  0  0  0  0  0  0  0
    9.7542   -1.6186    9.5261 O   0  0  0  0  0  0  0  0  0  0  0  0
   21.3338   -0.8184    6.1284 C   0  0  0  0  0  0  0  0  0  0  0  0
   22.1442   -1.8464    6.6446 O   0  0  0  0  0  0  0  0  0  0  0  0
   13.6481   -2.6317    6.9859 C   0  0  1  0  0  0  0  0  0  0  0  0
   12.5593   -2.2617    7.8730 O   0  0  0  0  0  0  0  0  0  0  0  0
   12.3038    2.1098   11.3509 C   0  0  0  0  0  0  0  0  0  0  0  0
   13.7252    2.0279   10.9537 N   0  0  0  0  0  0  0  0  0  0  0  0
    8.5477   -2.3841    7.5873 C   0  0  0  0  0  0  0  0  0  0  0  0
    8.4030   -3.4728    8.5373 O   0  0  0  0  0  0  0  0  0  0  0  0
  1  2  1  6  0  0  0
  1  8  1  0  0  0  0
  1 36  1  0  0  0  0
  3  4  1  6  0  0  0
  3 10  1  0  0  0  0
  3 47  1  0  0  0  0
  5 11  1  0  0  0  0
  5 30  1  0  0  0  0
  5 38  1  6  0  0  0
  6 21  1  6  0  0  0
  6 42  1  0  0  0  0
  7 15  1  0  0  0  0
  7 44  1  0  0  0  0
  7 32  1  1  0  0  0
  8  9  1  6  0  0  0
  8 17  1  0  0  0  0
 11 12  1  1  0  0  0
 11 20  1  0  0  0  0
 13  6  1  0  0  0  0
 13 14  1  6  0  0  0
 15 16  1  6  0  0  0
 15 24  1  0  0  0  0
 17 26  1  0  0  0  0
 18 10  1  0  0  0  0
 18 19  1  6  0  0  0
 20 21  1  6  0  0  0
 20 29  1  0  0  0  0
 22 13  1  0  0  0  0
 22 23  1  1  0  0  0
 24 25  1  6  0  0  0
 24 33  1  0  0  0  0
 26 27  1  6  0  0  0
 26 35  1  0  0  0  0
 28  2  1  1  0  0  0
 28 18  1  0  0  0  0
 29 30  1  0  0  0  0
 29 39  1  6  0  0  0
 31 22  1  0  0  0  0
 31 32  1  6  0  0  0
 31 41  1  0  0  0  0
 33 34  1  1  0  0  0
 33 43  1  0  0  0  0
 35 36  1  0  0  0  0
 35 45  1  6  0  0  0
 37 28  1  0  0  0  0
 37 38  1  1  0  0  0
 39 40  1  0  0  0  0
 41 42  1  0  0  0  0
 41 49  1  6  0  0  0
 43 44  1  0  0  0  0
 43 51  1  6  0  0  0
 45 46  1  0  0  0  0
 47 37  1  0  0  0  0
 47 48  1  1  0  0  0
 49 50  1  0  0  0  0
 51 52  1  0  0  0  0
M  END
>  <CHROM.1>
-118.83300924,171.59699150,178.39593591,-84.73690952,-148.30002682,-137.30773038
-163.78148515,-77.42908209,69.86667418,166.11959501,-173.90492019,162.54740238
14.05408970,-1.09508336,9.31891877,0.37025780,0.00690658,-1.75663114

>  <Name>
2esj_lig

>  <RI>
0

>  <Rbt.Current_Directory>
/home/itssahil/PROJECTS/Mol_Feturizer/New_Systems/rnas/2esj

>  <Rbt.Executable>
rbdock ($Id: //depot/dev/client3/rdock/2013.1/src/exe/rbdock.cxx#4 $)

>  <Rbt.Library>
libRbt.so (2013.1, Build901 2013/11/27)

>  <Rbt.Parameter_File>
/export/apps/rDock/src/rDock_2013.1_src/data/scripts/dock_solv.prm

>  <Rbt.Receptor>
prm/blind_docking_40.prm

>  <SCORE>
34.8994

>  <SCORE.INTER>
-10.8101

>  <SCORE.INTER.CONST>
1

>  <SCORE.INTER.POLAR>
-1.15001

>  <SCORE.INTER.ROT>
12

>  <SCORE.INTER.SOLV>
19.9584

>  <SCORE.INTER.VDW>
-21.6262

>  <SCORE.INTER.norm>
-0.207887

>  <SCORE.INTRA>
37.6469

>  <SCORE.INTRA.DIHEDRAL>
-4.74705

>  <SCORE.INTRA.DIHEDRAL.0>
32.9766

>  <SCORE.INTRA.POLAR>
0

>  <SCORE.INTRA.POLAR.0>
0

>  <SCORE.INTRA.REPUL>
0.085276

>  <SCORE.INTRA.REPUL.0>
0

>  <SCORE.INTRA.SOLV>
15.1824

>  <SCORE.INTRA.SOLV.lig_0>
-114.358

>  <SCORE.INTRA.VDW>
32.0028

>  <SCORE.INTRA.VDW.0>
-8.24257

>  <SCORE.INTRA.norm>
0.723978

>  <SCORE.RESTR>
8.06265

>  <SCORE.RESTR.CAVITY>
8.06265

>  <SCORE.RESTR.norm>
0.155051

>  <SCORE.SYSTEM>
0

>  <SCORE.SYSTEM.CONST>
0

>  <SCORE.SYSTEM.DIHEDRAL>
0

>  <SCORE.SYSTEM.SOLV>
0

>  <SCORE.SYSTEM.norm>
0

>  <SCORE.heavy>
52

>  <SCORE.norm>
0.671142

>  <RMSD>
14.569

$$$$
2esj_lig
 OpenBabel11021811423D
libRbt.so/2013.1/901 2013/11/27
 52 56  0  0  0  0  0  0  0  0999 V2000
   11.0672   -2.9294    4.6015 C   0  0  2  0  0  0  0  0  0  0  0  0
   10.7098   -3.1946    5.9715 O   0  0  0  0  0  0  0  0  0  0  0  0
   10.9051    0.7532    7.6040 C   0  0  2  0  0  0  0  0  0  0  0  0
   10.9138    1.9238    8.4967 N   0  0  0  0  0  0  0  0  0  0  0  0
   14.0968   -2.0600    8.3244 C   0  0  1  0  0  0  0  0  0  0  0  0
   16.1849   -0.8131   10.7437 C   0  0  1  0  0  0  0  0  0  0  0  0
   12.5023    0.9138   11.6268 C   0  0  1  0  0  0  0  0  0  0  0  0
    9.9498   -3.5331    3.7004 C   0  0  2  0  0  0  0  0  0  0  0  0
    8.6265   -3.0052    4.0313 N   0  0  0  0  0  0  0  0  0  0  0  0
    9.5608   -0.0594    7.7772 C   0  0  0  0  0  0  0  0  0  0  0  0
   14.8707   -3.3173    8.7228 C   0  0  2  0  0  0  0  0  0  0  0  0
   14.1582   -4.1191    9.6897 O   0  0  0  0  0  0  0  0  0  0  0  0
   15.9673   -0.6008   12.3085 C   0  0  2  0  0  0  0  0  0  0  0  0
   14.6785   -1.1937   12.7542 N   0  0  0  0  0  0  0  0  0  0  0  0
   11.4686    1.3224   12.6699 C   0  0  1  0  0  0  0  0  0  0  0  0
   10.2614    1.7405   12.0020 O   0  0  0  0  0  0  0  0  0  0  0  0
    9.9380   -5.0918    3.7964 C   0  0  0  0  0  0  0  0  0  0  0  0
    9.5441   -1.2780    6.7691 C   0  0  2  0  0  0  0  0  0  0  0  0
    8.3110   -2.0576    6.9192 N   0  0  0  0  0  0  0  0  0  0  0  0
   16.1385   -2.7049    9.2442 C   0  0  2  0  0  0  0  0  0  0  0  0
   15.9355   -2.1711   10.5280 O   0  0  0  0  0  0  0  0  0  0  0  0
   16.1518    0.9430   12.6514 C   0  0  1  0  0  0  0  0  0  0  0  0
   17.3988    1.3912   12.1104 O   0  0  0  0  0  0  0  0  0  0  0  0
   11.0984    0.2411   13.6779 C   0  0  1  0  0  0  0  0  0  0  0  0
    9.9651    0.7171   14.4124 O   0  0  0  0  0  0  0  0  0  0  0  0
   11.3620   -5.6272    3.4628 C   0  0  2  0  0  0  0  0  0  0  0  0
   11.4041   -7.0430    3.4559 O   0  0  0  0  0  0  0  0  0  0  0  0
   10.7848   -2.1814    6.9918 C   0  0  2  0  0  0  0  0  0  0  0  0
   16.4037   -1.4671    8.3627 C   0  0  2  0  0  0  0  0  0  0  0  0
   15.0887   -1.0755    8.0014 O   0  0  0  0  0  0  0  0  0  0  0  0
   15.0367    1.8273   11.9558 C   0  0  2  0  0  0  0  0  0  0  0  0
   13.8143    1.3778   12.5425 O   0  0  0  0  0  0  0  0  0  0  0  0
   10.7588   -1.1068   13.0393 C   0  0  2  0  0  0  0  0  0  0  0  0
   10.7435   -2.0777   14.0985 O   0  0  0  0  0  0  0  0  0  0  0  0
   12.3593   -5.0320    4.4876 C   0  0  2  0  0  0  0  0  0  0  0  0
   12.3287   -3.5845    4.3305 O   0  0  0  0  0  0  0  0  0  0  0  0
   12.1472   -1.4177    6.9529 C   0  0  2  0  0  0  0  0  0  0  0  0
   13.2314   -2.3420    7.2471 O   0  0  0  0  0  0  0  0  0  0  0  0
   17.2289   -1.6965    7.0970 C   0  0  0  0  0  0  0  0  0  0  0  0
   18.5078   -2.2069    7.5014 O   0  0  0  0  0  0  0  0  0  0  0  0
   14.9896    1.3664   10.5117 C   0  0  1  0  0  0  0  0  0  0  0  0
   15.2340    0.0606    9.9465 O   0  0  0  0  0  0  0  0  0  0  0  0
   11.7116   -1.4402   11.8967 C   0  0  2  0  0  0  0  0  0  0  0  0
   12.2860   -0.4091   11.0788 O   0  0  0  0  0  0  0  0  0  0  0  0
   13.7705   -5.4409    4.2352 C   0  0  0  0  0  0  0  0  0  0  0  0
   14.2022   -4.7726    3.0745 O   0  0  0  0  0  0  0  0  0  0  0  0
   12.1237   -0.1863    7.9200 C   0  0  1  0  0  0  0  0  0  0  0  0
   13.3391    0.5717    7.6801 O   0  0  0  0  0  0  0  0  0  0  0  0
   14.0341    2.1538    9.5631 C   0  0  0  0  0  0  0  0  0  0  0  0
   14.7074    2.6793    8.3568 N   0  0  0  0  0  0  0  0  0  0  0  0
   11.6052   -2.7194   11.0697 C   0  0  0  0  0  0  0  0  0  0  0  0
   10.2926   -2.8042   10.4544 O   0  0  0  0  0  0  0  0  0  0  0  0
  1  2  1  1  0  0  0
  1  8  1  0  0  0  0
  1 36  1  0  0  0  0
  3  4  1  1  0  0  0
  3 10  1  0  0  0  0
  3 47  1  0  0  0  0
  5 11  1  0  0  0  0
  5 30  1  0  0  0  0
  5 38  1  6  0  0  0
  6 21  1  1  0  0  0
  6 42  1  0  0  0  0
  7 15  1  0  0  0  0
  7 44  1  0  0  0  0
  7 32  1  1  0  0  0
  8  9  1  1  0  0  0
  8 17  1  0  0  0  0
 11 12  1  1  0  0  0
 11 20  1  0  0  0  0
 13  6  1  0  0  0  0
 13 14  1  6  0  0  0
 15 16  1  6  0  0  0
 15 24  1  0  0  0  0
 17 26  1  0  0  0  0
 18 10  1  0  0  0  0
 18 19  1  1  0  0  0
 20 21  1  1  0  0  0
 20 29  1  0  0  0  0
 22 13  1  0  0  0  0
 22 23  1  6  0  0  0
 24 25  1  6  0  0  0
 24 33  1  0  0  0  0
 26 27  1  1  0  0  0
 26 35  1  0  0  0  0
 28  2  1  6  0  0  0
 28 18  1  0  0  0  0
 29 30  1  0  0  0  0
 29 39  1  6  0  0  0
 31 22  1  0  0  0  0
 31 32  1  1  0  0  0
 31 41  1  0  0  0  0
 33 34  1  1  0  0  0
 33 43  1  0  0  0  0
 35 36  1  0  0  0  0
 35 45  1  6  0  0  0
 37 28  1  0  0  0  0
 37 38  1  1  0  0  0
 39 40  1  0  0  0  0
 41 42  1  0  0  0  0
 41 49  1  1  0  0  0
 43 44  1  0  0  0  0
 43 51  1  6  0  0  0
 45 46  1  0  0  0  0
 47 37  1  0  0  0  0
 47 48  1  6  0  0  0
 49 50  1  0  0  0  0
 51 52  1  0  0  0  0
M  END
>  <CHROM.1>
-133.91662909,162.97990004,-175.49233281,-150.50965556,-121.73276948,76.76593765
-59.95199537,-128.40376562,71.17661168,-123.23451662,125.59087555,57.71306306
12.89972472,-1.41757921,8.78562108,1.80117474,0.00070971,-2.12108087

>  <Name>
2esj_lig

>  <RI>
0

>  <Rbt.Current_Directory>
/home/itssahil/PROJECTS/Mol_Feturizer/New_Systems/rnas/2esj

>  <Rbt.Executable>
rbdock ($Id: //depot/dev/client3/rdock/2013.1/src/exe/rbdock.cxx#4 $)

>  <Rbt.Library>
libRbt.so (2013.1, Build901 2013/11/27)

>  <Rbt.Parameter_File>
/export/apps/rDock/src/rDock_2013.1_src/data/scripts/dock_solv.prm

>  <Rbt.Receptor>
prm/blind_docking_60.prm

>  <SCORE>
24.272

>  <SCORE.INTER>
-7.89464

>  <SCORE.INTER.CONST>
1

>  <SCORE.INTER.POLAR>
-0.248447

>  <SCORE.INTER.ROT>
12

>  <SCORE.INTER.SOLV>
25.2921

>  <SCORE.INTER.VDW>
-24.4656

>  <SCORE.INTER.norm>
-0.15182

>  <SCORE.INTRA>
24.1093

>  <SCORE.INTRA.DIHEDRAL>
5.55135

>  <SCORE.INTRA.DIHEDRAL.0>
32.9766

>  <SCORE.INTRA.POLAR>
0

>  <SCORE.INTRA.POLAR.0>
0

>  <SCORE.INTRA.REPUL>
0

>  <SCORE.INTRA.REPUL.0>
0

>  <SCORE.INTRA.SOLV>
10.1049

>  <SCORE.INTRA.SOLV.lig_0>
-114.358

>  <SCORE.INTRA.VDW>
16.2812

>  <SCORE.INTRA.VDW.0>
-8.24257

>  <SCORE.INTRA.norm>
0.463641

>  <SCORE.RESTR>
8.05731

>  <SCORE.RESTR.CAVITY>
8.05731

>  <SCORE.RESTR.norm>
0.154948

>  <SCORE.SYSTEM>
0

>  <SCORE.SYSTEM.CONST>
0

>  <SCORE.SYSTEM.DIHEDRAL>
0

>  <SCORE.SYSTEM.SOLV>
0

>  <SCORE.SYSTEM.norm>
0

>  <SCORE.heavy>
52

>  <SCORE.norm>
0.466769

>  <RMSD>
14.607

$$$$
2esj_lig
 OpenBabel11021811423D
libRbt.so/2013.1/901 2013/11/27
 52 56  0  0  0  0  0  0  0  0999 V2000
    9.2061   -2.5743    4.9430 C   0  0  2  0  0  0  0  0  0  0  0  0
    8.6533   -3.5411    5.8565 O   0  0  0  0  0  0  0  0  0  0  0  0
    4.8600   -1.7444    6.6753 C   0  0  2  0  0  0  0  0  0  0  0  0
    3.4539   -1.4904    7.0301 N   0  0  0  0  0  0  0  0  0  0  0  0
    9.1147   -2.4593    9.0665 C   0  0  1  0  0  0  0  0  0  0  0  0
   11.8761    0.0411   11.0920 C   0  0  1  0  0  0  0  0  0  0  0  0
   16.4054   -0.4152   10.5088 C   0  0  1  0  0  0  0  0  0  0  0  0
   10.6078   -3.0919    4.5044 C   0  0  2  0  0  0  0  0  0  0  0  0
   10.5441   -4.4279    3.9127 N   0  0  0  0  0  0  0  0  0  0  0  0
    4.9481   -2.7967    5.4995 C   0  0  0  0  0  0  0  0  0  0  0  0
    8.9083   -1.6824   10.3673 C   0  0  2  0  0  0  0  0  0  0  0  0
    8.4471   -0.3337   10.1358 O   0  0  0  0  0  0  0  0  0  0  0  0
   12.4873    1.0732   10.0419 C   0  0  2  0  0  0  0  0  0  0  0  0
   13.1600    0.3618    8.9228 N   0  0  0  0  0  0  0  0  0  0  0  0
   16.9640   -0.2925    9.0958 C   0  0  1  0  0  0  0  0  0  0  0  0
   18.3235   -0.7722    9.0807 O   0  0  0  0  0  0  0  0  0  0  0  0
   11.6033   -3.0920    5.7078 C   0  0  0  0  0  0  0  0  0  0  0  0
    6.4613   -3.0118    5.0928 C   0  0  2  0  0  0  0  0  0  0  0  0
    6.5720   -3.9956    4.0108 N   0  0  0  0  0  0  0  0  0  0  0  0
   10.2849   -1.7700   10.9601 C   0  0  2  0  0  0  0  0  0  0  0  0
   11.1551   -0.8724   10.3185 O   0  0  0  0  0  0  0  0  0  0  0  0
   13.4005    2.1211   10.8186 C   0  0  1  0  0  0  0  0  0  0  0  0
   12.6478    2.6774   11.9014 O   0  0  0  0  0  0  0  0  0  0  0  0
   16.1878   -1.0444    8.0213 C   0  0  1  0  0  0  0  0  0  0  0  0
   16.9778   -1.0122    6.8276 O   0  0  0  0  0  0  0  0  0  0  0  0
   11.6356   -1.6664    6.3341 C   0  0  2  0  0  0  0  0  0  0  0  0
   12.5793   -1.5746    7.3863 O   0  0  0  0  0  0  0  0  0  0  0  0
    7.2927   -3.4641    6.3213 C   0  0  2  0  0  0  0  0  0  0  0  0
   10.8265   -3.1601   10.5676 C   0  0  2  0  0  0  0  0  0  0  0  0
   10.1701   -3.3938    9.3317 O   0  0  0  0  0  0  0  0  0  0  0  0
   14.6542    1.4158   11.4818 C   0  0  2  0  0  0  0  0  0  0  0  0
   15.3969    0.9039   10.3742 O   0  0  0  0  0  0  0  0  0  0  0  0
   15.8799   -2.4977    8.3863 C   0  0  2  0  0  0  0  0  0  0  0  0
   14.8992   -2.9648    7.4456 O   0  0  0  0  0  0  0  0  0  0  0  0
   10.2068   -1.3133    6.8170 C   0  0  2  0  0  0  0  0  0  0  0  0
    9.3412   -1.3167    5.6459 O   0  0  0  0  0  0  0  0  0  0  0  0
    7.1560   -2.5290    7.5654 C   0  0  2  0  0  0  0  0  0  0  0  0
    7.9121   -3.0848    8.6770 O   0  0  0  0  0  0  0  0  0  0  0  0
   10.5181   -4.3074   11.5290 C   0  0  0  0  0  0  0  0  0  0  0  0
   11.7538   -4.6996   12.1446 O   0  0  0  0  0  0  0  0  0  0  0  0
   14.1065    0.1990   12.2027 C   0  0  1  0  0  0  0  0  0  0  0  0
   12.9804   -0.6435   11.8762 O   0  0  0  0  0  0  0  0  0  0  0  0
   15.4618   -2.6311    9.8464 C   0  0  2  0  0  0  0  0  0  0  0  0
   15.9899   -1.7582   10.8568 O   0  0  0  0  0  0  0  0  0  0  0  0
   10.1072    0.0571    7.3952 C   0  0  0  0  0  0  0  0  0  0  0  0
   10.2505    0.9731    6.3366 O   0  0  0  0  0  0  0  0  0  0  0  0
    5.6495   -2.2889    7.9193 C   0  0  1  0  0  0  0  0  0  0  0  0
    5.6080   -1.2668    8.9503 O   0  0  0  0  0  0  0  0  0  0  0  0
   15.1289   -0.6304   13.0391 C   0  0  0  0  0  0  0  0  0  0  0  0
   14.5843   -1.9164   13.5231 N   0  0  0  0  0  0  0  0  0  0  0  0
   15.1047   -3.9681   10.4918 C   0  0  0  0  0  0  0  0  0  0  0  0
   13.6659   -4.0686   10.6603 O   0  0  0  0  0  0  0  0  0  0  0  0
  1  2  1  1  0  0  0
  1  8  1  0  0  0  0
  1 36  1  0  0  0  0
  3  4  1  1  0  0  0
  3 10  1  0  0  0  0
  3 47  1  0  0  0  0
  5 11  1  0  0  0  0
  5 30  1  0  0  0  0
  5 38  1  1  0  0  0
  6 21  1  6  0  0  0
  6 42  1  0  0  0  0
  7 15  1  0  0  0  0
  7 44  1  0  0  0  0
  7 32  1  6  0  0  0
  8  9  1  1  0  0  0
  8 17  1  0  0  0  0
 11 12  1  6  0  0  0
 11 20  1  0  0  0  0
 13  6  1  0  0  0  0
 13 14  1  6  0  0  0
 15 16  1  1  0  0  0
 15 24  1  0  0  0  0
 17 26  1  0  0  0  0
 18 10  1  0  0  0  0
 18 19  1  6  0  0  0
 20 21  1  6  0  0  0
 20 29  1  0  0  0  0
 22 13  1  0  0  0  0
 22 23  1  1  0  0  0
 24 25  1  6  0  0  0
 24 33  1  0  0  0  0
 26 27  1  1  0  0  0
 26 35  1  0  0  0  0
 28  2  1  6  0  0  0
 28 18  1  0  0  0  0
 29 30  1  0  0  0  0
 29 39  1  1  0  0  0
 31 22  1  0  0  0  0
 31 32  1  6  0  0  0
 31 41  1  0  0  0  0
 33 34  1  6  0  0  0
 33 43  1  0  0  0  0
 35 36  1  0  0  0  0
 35 45  1  6  0  0  0
 37 28  1  0  0  0  0
 37 38  1  1  0  0  0
 39 40  1  0  0  0  0
 41 42  1  0  0  0  0
 41 49  1  6  0  0  0
 43 44  1  0  0  0  0
 43 51  1  1  0  0  0
 45 46  1  0  0  0  0
 47 37  1  0  0  0  0
 47 48  1  1  0  0  0
 49 50  1  0  0  0  0
 51 52  1  0  0  0  0
M  END
>  <CHROM.1>
-171.68329192,105.43013917,-168.12741231,-173.43151554,126.19151025,39.05124920
-110.94667626,-153.68711096,70.17813112,107.55891011,-170.25708640,-104.90438146
11.42140391,-1.64796892,8.74209564,-2.66752597,0.03429132,1.22937468

>  <Name>
2esj_lig

>  <RI>
0

>  <Rbt.Current_Directory>
/home/itssahil/PROJECTS/Mol_Feturizer/New_Systems/rnas/2esj

>  <Rbt.Executable>
rbdock ($Id: //depot/dev/client3/rdock/2013.1/src/exe/rbdock.cxx#4 $)

>  <Rbt.Library>
libRbt.so (2013.1, Build901 2013/11/27)

>  <Rbt.Parameter_File>
/export/apps/rDock/src/rDock_2013.1_src/data/scripts/dock_solv.prm

>  <Rbt.Receptor>
prm/blind_docking_60.prm

>  <SCORE>
13.7297

>  <SCORE.INTER>
-7.81172

>  <SCORE.INTER.CONST>
1

>  <SCORE.INTER.POLAR>
-0.283792

>  <SCORE.INTER.ROT>
12

>  <SCORE.INTER.SOLV>
20.3794

>  <SCORE.INTER.VDW>
-22.655

>  <SCORE.INTER.norm>
-0.150225

>  <SCORE.INTRA>
9.95234

>  <SCORE.INTRA.DIHEDRAL>
3.60584

>  <SCORE.INTRA.DIHEDRAL.0>
32.9766

>  <SCORE.INTRA.POLAR>
0

>  <SCORE.INTRA.POLAR.0>
0

>  <SCORE.INTRA.REPUL>
0.200271

>  <SCORE.INTRA.REPUL.0>
0

>  <SCORE.INTRA.SOLV>
8.05912

>  <SCORE.INTRA.SOLV.lig_0>
-114.358

>  <SCORE.INTRA.VDW>
3.1185

>  <SCORE.INTRA.VDW.0>
-8.24257

>  <SCORE.INTRA.norm>
0.191391

>  <SCORE.RESTR>
11.5891

>  <SCORE.RESTR.CAVITY>
11.5891

>  <SCORE.RESTR.norm>
0.222867

>  <SCORE.SYSTEM>
0

>  <SCORE.SYSTEM.CONST>
0

>  <SCORE.SYSTEM.DIHEDRAL>
0

>  <SCORE.SYSTEM.SOLV>
0

>  <SCORE.SYSTEM.norm>
0

>  <SCORE.heavy>
52

>  <SCORE.norm>
0.264033

>  <RMSD>
14.619

$$$$
2esj_lig
 OpenBabel11021811423D
libRbt.so/2013.1/901 2013/11/27
 52 56  0  0  0  0  0  0  0  0999 V2000
    9.1677   -1.9171    7.1750 C   0  0  2  0  0  0  0  0  0  0  0  0
   10.2518   -2.7915    6.8076 O   0  0  0  0  0  0  0  0  0  0  0  0
   12.2538   -2.7638    3.0289 C   0  0  2  0  0  0  0  0  0  0  0  0
   13.1292   -2.4565    1.8858 N   0  0  0  0  0  0  0  0  0  0  0  0
   13.6494   -3.0238    7.3693 C   0  0  1  0  0  0  0  0  0  0  0  0
   15.4681    0.2468    9.1101 C   0  0  1  0  0  0  0  0  0  0  0  0
   12.5943   -0.2961   11.5890 C   0  0  1  0  0  0  0  0  0  0  0  0
    8.7186   -2.3066    8.6143 C   0  0  2  0  0  0  0  0  0  0  0  0
    9.8205   -2.2429    9.5740 N   0  0  0  0  0  0  0  0  0  0  0  0
   11.4172   -1.4872    3.4386 C   0  0  0  0  0  0  0  0  0  0  0  0
   14.1338   -1.9239    6.4238 C   0  0  2  0  0  0  0  0  0  0  0  0
   15.4198   -2.2262    5.8405 O   0  0  0  0  0  0  0  0  0  0  0  0
   15.8956   -0.4707   10.4679 C   0  0  2  0  0  0  0  0  0  0  0  0
   14.9536   -1.5686   10.8119 N   0  0  0  0  0  0  0  0  0  0  0  0
   11.5362    0.4630   12.3813 C   0  0  1  0  0  0  0  0  0  0  0  0
   10.4155    0.7498   11.5210 O   0  0  0  0  0  0  0  0  0  0  0  0
    8.0813   -3.7323    8.6326 C   0  0  0  0  0  0  0  0  0  0  0  0
   10.4409   -1.8523    4.6281 C   0  0  2  0  0  0  0  0  0  0  0  0
    9.6614   -0.6794    5.0371 N   0  0  0  0  0  0  0  0  0  0  0  0
   14.1406   -0.7459    7.3546 C   0  0  2  0  0  0  0  0  0  0  0  0
   15.2588   -0.7962    8.2040 O   0  0  0  0  0  0  0  0  0  0  0  0
   16.0836    0.6337   11.5993 C   0  0  1  0  0  0  0  0  0  0  0  0
   16.9599    1.6537   11.1090 O   0  0  0  0  0  0  0  0  0  0  0  0
   11.0087   -0.2552   13.6175 C   0  0  1  0  0  0  0  0  0  0  0  0
    9.8772    0.4859   14.0872 O   0  0  0  0  0  0  0  0  0  0  0  0
    6.9277   -3.7812    7.5874 C   0  0  2  0  0  0  0  0  0  0  0  0
    6.2531   -5.0265    7.6055 O   0  0  0  0  0  0  0  0  0  0  0  0
   11.2410   -2.4155    5.8313 C   0  0  2  0  0  0  0  0  0  0  0  0
   12.9415   -0.9499    8.3033 C   0  0  2  0  0  0  0  0  0  0  0  0
   12.8467   -2.3645    8.3584 O   0  0  0  0  0  0  0  0  0  0  0  0
   14.7161    1.3616   11.9299 C   0  0  2  0  0  0  0  0  0  0  0  0
   13.8810    0.3242   12.4464 O   0  0  0  0  0  0  0  0  0  0  0  0
   10.5933   -1.7044   13.3583 C   0  0  2  0  0  0  0  0  0  0  0  0
   10.4250   -2.3259   14.6429 O   0  0  0  0  0  0  0  0  0  0  0  0
    7.5221   -3.4747    6.1903 C   0  0  2  0  0  0  0  0  0  0  0  0
    8.0813   -2.1310    6.2433 O   0  0  0  0  0  0  0  0  0  0  0  0
   12.1837   -3.6080    5.4706 C   0  0  2  0  0  0  0  0  0  0  0  0
   12.9375   -4.0058    6.6495 O   0  0  0  0  0  0  0  0  0  0  0  0
   11.6037   -0.3708    7.8443 C   0  0  0  0  0  0  0  0  0  0  0  0
   10.8796    0.0273    9.0176 O   0  0  0  0  0  0  0  0  0  0  0  0
   14.1169    1.7375   10.5883 C   0  0  1  0  0  0  0  0  0  0  0  0
   14.2089    1.0696    9.3116 O   0  0  0  0  0  0  0  0  0  0  0  0
   11.5840   -2.4149   12.4428 C   0  0  2  0  0  0  0  0  0  0  0  0
   12.2979   -1.7035   11.4200 O   0  0  0  0  0  0  0  0  0  0  0  0
    6.4941   -3.4475    5.1110 C   0  0  0  0  0  0  0  0  0  0  0  0
    5.9364   -2.1557    5.0921 O   0  0  0  0  0  0  0  0  0  0  0  0
   13.1057   -3.2427    4.2587 C   0  0  1  0  0  0  0  0  0  0  0  0
   13.8021   -4.4557    3.8676 O   0  0  0  0  0  0  0  0  0  0  0  0
   12.7982    2.5697   10.6262 C   0  0  0  0  0  0  0  0  0  0  0  0
   11.8610    2.2336    9.5338 N   0  0  0  0  0  0  0  0  0  0  0  0
   11.4185   -3.8682   12.0042 C   0  0  0  0  0  0  0  0  0  0  0  0
   10.1873   -4.0211   11.2495 O   0  0  0  0  0  0  0  0  0  0  0  0
  1  2  1  6  0  0  0
  1  8  1  0  0  0  0
  1 36  1  0  0  0  0
  3  4  1  6  0  0  0
  3 10  1  0  0  0  0
  3 47  1  0  0  0  0
  5 11  1  0  0  0  0
  5 30  1  0  0  0  0
  5 38  1  6  0  0  0
  6 21  1  6  0  0  0
  6 42  1  0  0  0  0
  7 15  1  0  0  0  0
  7 44  1  0  0  0  0
  7 32  1  1  0  0  0
  8  9  1  1  0  0  0
  8 17  1  0  0  0  0
 11 12  1  1  0  0  0
 11 20  1  0  0  0  0
 13  6  1  0  0  0  0
 13 14  1  1  0  0  0
 15 16  1  6  0  0  0
 15 24  1  0  0  0  0
 17 26  1  0  0  0  0
 18 10  1  0  0  0  0
 18 19  1  1  0  0  0
 20 21  1  1  0  0  0
 20 29  1  0  0  0  0
 22 13  1  0  0  0  0
 22 23  1  6  0  0  0
 24 25  1  6  0  0  0
 24 33  1  0  0  0  0
 26 27  1  6  0  0  0
 26 35  1  0  0  0  0
 28  2  1  1  0  0  0
 28 18  1  0  0  0  0
 29 30  1  0  0  0  0
 29 39  1  6  0  0  0
 31 22  1  0  0  0  0
 31 32  1  6  0  0  0
 31 41  1  0  0  0  0
 33 34  1  1  0  0  0
 33 43  1  0  0  0  0
 35 36  1  0  0  0  0
 35 45  1  6  0  0  0
 37 28  1  0  0  0  0
 37 38  1  1  0  0  0
 39 40  1  0  0  0  0
 41 42  1  0  0  0  0
 41 49  1  1  0  0  0
 43 44  1  0  0  0  0
 43 51  1  6  0  0  0
 45 46  1  0  0  0  0
 47 37  1  0  0  0  0
 47 48  1  6  0  0  0
 49 50  1  0  0  0  0
 51 52  1  0  0  0  0
M  END
>  <CHROM.1>
-154.68196765,-31.36894264,137.17586312,-102.87395859,177.51308958,-47.41525793
-148.02595312,-108.24679185,85.04142097,-52.07029147,-144.76094629,61.49298670
11.73593635,-1.49922814,8.62293758,2.05122208,-0.33092964,-1.84585055

>  <Name>
2esj_lig

>  <RI>
0

>  <Rbt.Current_Directory>
/home/itssahil/PROJECTS/Mol_Feturizer/New_Systems/rnas/2esj

>  <Rbt.Executable>
rbdock ($Id: //depot/dev/client3/rdock/2013.1/src/exe/rbdock.cxx#4 $)

>  <Rbt.Library>
libRbt.so (2013.1, Build901 2013/11/27)

>  <Rbt.Parameter_File>
/export/apps/rDock/src/rDock_2013.1_src/data/scripts/dock_solv.prm

>  <Rbt.Receptor>
prm/blind_docking_60.prm

>  <SCORE>
19.6874

>  <SCORE.INTER>
-9.25249

>  <SCORE.INTER.CONST>
1

>  <SCORE.INTER.POLAR>
-0.0441454

>  <SCORE.INTER.ROT>
12

>  <SCORE.INTER.SOLV>
23.8826

>  <SCORE.INTER.VDW>
-25.5821

>  <SCORE.INTER.norm>
-0.177932

>  <SCORE.INTRA>
24.9257

>  <SCORE.INTRA.DIHEDRAL>
1.72753

>  <SCORE.INTRA.DIHEDRAL.0>
32.9766

>  <SCORE.INTRA.POLAR>
0

>  <SCORE.INTRA.POLAR.0>
0

>  <SCORE.INTRA.REPUL>
0.323637

>  <SCORE.INTRA.REPUL.0>
0

>  <SCORE.INTRA.SOLV>
19.9959

>  <SCORE.INTRA.SOLV.lig_0>
-114.358

>  <SCORE.INTRA.VDW>
12.4458

>  <SCORE.INTRA.VDW.0>
-8.24257

>  <SCORE.INTRA.norm>
0.479341

>  <SCORE.RESTR>
4.01414

>  <SCORE.RESTR.CAVITY>
4.01414

>  <SCORE.RESTR.norm>
0.077195

>  <SCORE.SYSTEM>
0

>  <SCORE.SYSTEM.CONST>
0

>  <SCORE.SYSTEM.DIHEDRAL>
0

>  <SCORE.SYSTEM.SOLV>
0

>  <SCORE.SYSTEM.norm>
0

>  <SCORE.heavy>
52

>  <SCORE.norm>
0.378604

>  <RMSD>
14.699

$$$$
2esj_lig
 OpenBabel11021811423D
libRbt.so/2013.1/901 2013/11/27
 52 56  0  0  0  0  0  0  0  0999 V2000
   16.7005   -0.0806   11.5643 C   0  0  2  0  0  0  0  0  0  0  0  0
   15.6410   -0.1550   10.5913 O   0  0  0  0  0  0  0  0  0  0  0  0
   14.1279   -4.0791   11.3657 C   0  0  2  0  0  0  0  0  0  0  0  0
   13.4018   -5.3588   11.3144 N   0  0  0  0  0  0  0  0  0  0  0  0
   16.1417   -2.2162    7.7585 C   0  0  1  0  0  0  0  0  0  0  0  0
   14.1912   -2.2914    6.0093 C   0  0  1  0  0  0  0  0  0  0  0  0
    9.4555   -3.3238    4.6282 C   0  0  1  0  0  0  0  0  0  0  0  0
   17.1980    1.3945   11.6036 C   0  0  2  0  0  0  0  0  0  0  0  0
   16.1179    2.3351   11.8996 N   0  0  0  0  0  0  0  0  0  0  0  0
   13.1097   -2.8706   11.3842 C   0  0  0  0  0  0  0  0  0  0  0  0
   15.8578   -0.7324    7.5214 C   0  0  2  0  0  0  0  0  0  0  0  0
   14.5683   -0.3301    8.0321 O   0  0  0  0  0  0  0  0  0  0  0  0
   13.9691   -3.3285    4.8193 C   0  0  2  0  0  0  0  0  0  0  0  0
   13.3508   -2.6654    3.6408 N   0  0  0  0  0  0  0  0  0  0  0  0
    9.6968   -1.9207    4.0836 C   0  0  1  0  0  0  0  0  0  0  0  0
    8.5741   -1.5297    3.2681 O   0  0  0  0  0  0  0  0  0  0  0  0
   17.8879    1.7858   10.2582 C   0  0  0  0  0  0  0  0  0  0  0  0
   13.9055   -1.5086   11.4992 C   0  0  2  0  0  0  0  0  0  0  0  0
   12.9830   -0.3685   11.5047 N   0  0  0  0  0  0  0  0  0  0  0  0
   15.9767   -0.6662    6.0263 C   0  0  2  0  0  0  0  0  0  0  0  0
   14.8271   -1.1971    5.4171 O   0  0  0  0  0  0  0  0  0  0  0  0
   13.1737   -4.5908    5.3752 C   0  0  1  0  0  0  0  0  0  0  0  0
   13.8442   -5.0841    6.5395 O   0  0  0  0  0  0  0  0  0  0  0  0
    9.9114   -0.8412    5.1375 C   0  0  1  0  0  0  0  0  0  0  0  0
    9.8825    0.4213    4.4625 O   0  0  0  0  0  0  0  0  0  0  0  0
   19.0172    0.7572    9.9540 C   0  0  2  0  0  0  0  0  0  0  0  0
   19.7377    1.0971    8.7829 O   0  0  0  0  0  0  0  0  0  0  0  0
   14.9215   -1.3756   10.3351 C   0  0  2  0  0  0  0  0  0  0  0  0
   17.0933   -1.6605    5.6467 C   0  0  2  0  0  0  0  0  0  0  0  0
   16.9858   -2.6313    6.6757 O   0  0  0  0  0  0  0  0  0  0  0  0
   11.7168   -4.1920    5.8525 C   0  0  2  0  0  0  0  0  0  0  0  0
   11.0687   -3.7383    4.6632 O   0  0  0  0  0  0  0  0  0  0  0  0
    8.8597   -0.8463    6.2483 C   0  0  2  0  0  0  0  0  0  0  0  0
    9.3618   -0.0077    7.3016 O   0  0  0  0  0  0  0  0  0  0  0  0
   18.3785   -0.6495    9.8427 C   0  0  2  0  0  0  0  0  0  0  0  0
   17.7714   -0.9522   11.1313 O   0  0  0  0  0  0  0  0  0  0  0  0
   15.8845   -2.5966   10.1842 C   0  0  2  0  0  0  0  0  0  0  0  0
   16.7386   -2.4017    9.0228 O   0  0  0  0  0  0  0  0  0  0  0  0
   18.5177   -1.1073    5.6200 C   0  0  0  0  0  0  0  0  0  0  0  0
   18.5147    0.0541    4.7770 O   0  0  0  0  0  0  0  0  0  0  0  0
   11.8919   -2.9586    6.7174 C   0  0  1  0  0  0  0  0  0  0  0  0
   12.8643   -1.8949    6.6299 O   0  0  0  0  0  0  0  0  0  0  0  0
    8.5160   -2.2655    6.6865 C   0  0  2  0  0  0  0  0  0  0  0  0
    8.5537   -3.3624    5.7607 O   0  0  0  0  0  0  0  0  0  0  0  0
   19.3786   -1.7278    9.5985 C   0  0  0  0  0  0  0  0  0  0  0  0
   19.9443   -1.4992    8.3304 O   0  0  0  0  0  0  0  0  0  0  0  0
   15.0785   -3.9379   10.1233 C   0  0  1  0  0  0  0  0  0  0  0  0
   16.0433   -5.0219   10.1803 O   0  0  0  0  0  0  0  0  0  0  0  0
   10.6072   -2.4093    7.4106 C   0  0  0  0  0  0  0  0  0  0  0  0
   10.8883   -1.6362    8.6386 N   0  0  0  0  0  0  0  0  0  0  0  0
    7.4887   -2.5762    7.7728 C   0  0  0  0  0  0  0  0  0  0  0  0
    6.6767   -1.4018    8.0377 O   0  0  0  0  0  0  0  0  0  0  0  0
  1  2  1  6  0  0  0
  1  8  1  0  0  0  0
  1 36  1  0  0  0  0
  3  4  1  6  0  0  0
  3 10  1  0  0  0  0
  3 47  1  0  0  0  0
  5 11  1  0  0  0  0
  5 30  1  0  0  0  0
  5 38  1  1  0  0  0
  6 21  1  6  0  0  0
  6 42  1  0  0  0  0
  7 15  1  0  0  0  0
  7 44  1  0  0  0  0
  7 32  1  1  0  0  0
  8  9  1  6  0  0  0
  8 17  1  0  0  0  0
 11 12  1  6  0  0  0
 11 20  1  0  0  0  0
 13  6  1  0  0  0  0
 13 14  1  6  0  0  0
 15 16  1  1  0  0  0
 15 24  1  0  0  0  0
 17 26  1  0  0  0  0
 18 10  1  0  0  0  0
 18 19  1  6  0  0  0
 20 21  1  6  0  0  0
 20 29  1  0  0  0  0
 22 13  1  0  0  0  0
 22 23  1  1  0  0  0
 24 25  1  6  0  0  0
 24 33  1  0  0  0  0
 26 27  1  6  0  0  0
 26 35  1  0  0  0  0
 28  2  1  1  0  0  0
 28 18  1  0  0  0  0
 29 30  1  0  0  0  0
 29 39  1  1  0  0  0
 31 22  1  0  0  0  0
 31 32  1  6  0  0  0
 31 41  1  0  0  0  0
 33 34  1  1  0  0  0
 33 43  1  0  0  0  0
 35 36  1  0  0  0  0
 35 45  1  1  0  0  0
 37 28  1  0  0  0  0
 37 38  1  6  0  0  0
 39 40  1  0  0  0  0
 41 42  1  0  0  0  0
 41 49  1  6  0  0  0
 43 44  1  0  0  0  0
 43 51  1  6  0  0  0
 45 46  1  0  0  0  0
 47 37  1  0  0  0  0
 47 48  1  1  0  0  0
 49 50  1  0  0  0  0
 51 52  1  0  0  0  0
M  END
>  <CHROM.1>
-177.81621857,88.43138885,-131.39519590,124.24889518,-36.07218846,78.52864512
-53.07772694,174.75210173,-65.34891558,-57.81659203,154.93154140,15.08457225
13.98044075,-1.72390769,7.81001236,0.44268696,0.14525044,1.47517695

>  <Name>
2esj_lig

>  <RI>
0

>  <Rbt.Current_Directory>
/home/itssahil/PROJECTS/Mol_Feturizer/New_Systems/rnas/2esj

>  <Rbt.Executable>
rbdock ($Id: //depot/dev/client3/rdock/2013.1/src/exe/rbdock.cxx#4 $)

>  <Rbt.Library>
libRbt.so (2013.1, Build901 2013/11/27)

>  <Rbt.Parameter_File>
/export/apps/rDock/src/rDock_2013.1_src/data/scripts/dock_solv.prm

>  <Rbt.Receptor>
prm/blind_docking_40.prm

>  <SCORE>
132.622

>  <SCORE.INTER>
89.886

>  <SCORE.INTER.CONST>
1

>  <SCORE.INTER.POLAR>
0

>  <SCORE.INTER.ROT>
12

>  <SCORE.INTER.SOLV>
34.2855

>  <SCORE.INTER.VDW>
36.8955

>  <SCORE.INTER.norm>
1.72858

>  <SCORE.INTRA>
31.4828

>  <SCORE.INTRA.DIHEDRAL>
-5.28254

>  <SCORE.INTRA.DIHEDRAL.0>
32.9766

>  <SCORE.INTRA.POLAR>
0

>  <SCORE.INTRA.POLAR.0>
0

>  <SCORE.INTRA.REPUL>
0

>  <SCORE.INTRA.REPUL.0>
0

>  <SCORE.INTRA.SOLV>
7.12283

>  <SCORE.INTRA.SOLV.lig_0>
-114.358

>  <SCORE.INTRA.VDW>
30.5627

>  <SCORE.INTRA.VDW.0>
-8.24257

>  <SCORE.INTRA.norm>
0.605439

>  <SCORE.RESTR>
11.2533

>  <SCORE.RESTR.CAVITY>
11.2533

>  <SCORE.RESTR.norm>
0.21641

>  <SCORE.SYSTEM>
0

>  <SCORE.SYSTEM.CONST>
0

>  <SCORE.SYSTEM.DIHEDRAL>
0

>  <SCORE.SYSTEM.SOLV>
0

>  <SCORE.SYSTEM.norm>
0

>  <SCORE.heavy>
52

>  <SCORE.norm>
2.55043

>  <RMSD>
14.723

$$$$
2esj_lig
 OpenBabel11021811423D
libRbt.so/2013.1/901 2013/11/27
 52 56  0  0  0  0  0  0  0  0999 V2000
   17.6190   -0.9166    7.2491 C   0  0  2  0  0  0  0  0  0  0  0  0
   16.5019   -1.8256    7.2717 O   0  0  0  0  0  0  0  0  0  0  0  0
   15.0369   -2.6995   11.1932 C   0  0  2  0  0  0  0  0  0  0  0  0
   14.2452   -2.7693   12.4324 N   0  0  0  0  0  0  0  0  0  0  0  0
   13.1037   -3.3286    7.2192 C   0  0  1  0  0  0  0  0  0  0  0  0
   10.8120   -0.4073    6.8298 C   0  0  1  0  0  0  0  0  0  0  0  0
    9.1566    0.6456   11.6646 C   0  0  1  0  0  0  0  0  0  0  0  0
   18.1494   -0.8622    5.7859 C   0  0  2  0  0  0  0  0  0  0  0  0
   17.1092   -0.4727    4.8344 N   0  0  0  0  0  0  0  0  0  0  0  0
   15.3753   -1.1964   10.8417 C   0  0  0  0  0  0  0  0  0  0  0  0
   13.2537   -2.0475    6.3977 C   0  0  2  0  0  0  0  0  0  0  0  0
   13.3730   -0.8719    7.2279 O   0  0  0  0  0  0  0  0  0  0  0  0
   11.3511   -0.4840    8.3281 C   0  0  2  0  0  0  0  0  0  0  0  0
   10.6859   -1.5809    9.0799 N   0  0  0  0  0  0  0  0  0  0  0  0
   10.1993    1.7575   11.6532 C   0  0  1  0  0  0  0  0  0  0  0  0
    9.9574    2.6450   12.7633 O   0  0  0  0  0  0  0  0  0  0  0  0
   18.7658   -2.2341    5.3653 C   0  0  0  0  0  0  0  0  0  0  0  0
   16.2751   -1.1454    9.5420 C   0  0  2  0  0  0  0  0  0  0  0  0
   16.5926    0.2414    9.1859 N   0  0  0  0  0  0  0  0  0  0  0  0
   11.9966   -2.0986    5.5785 C   0  0  2  0  0  0  0  0  0  0  0  0
   10.8880   -1.7189    6.3539 O   0  0  0  0  0  0  0  0  0  0  0  0
   11.2323    0.9570    8.9947 C   0  0  1  0  0  0  0  0  0  0  0  0
   11.8572    1.9168    8.1363 O   0  0  0  0  0  0  0  0  0  0  0  0
   11.6483    1.2919   11.7301 C   0  0  1  0  0  0  0  0  0  0  0  0
   12.4557    2.4545   11.9463 O   0  0  0  0  0  0  0  0  0  0  0  0
   19.8527   -2.6374    6.4055 C   0  0  2  0  0  0  0  0  0  0  0  0
   20.5090   -3.8389    6.0424 O   0  0  0  0  0  0  0  0  0  0  0  0
   15.5623   -1.8563    8.3623 C   0  0  2  0  0  0  0  0  0  0  0  0
   11.7484   -3.5911    5.2778 C   0  0  2  0  0  0  0  0  0  0  0  0
   12.3180   -4.2195    6.4153 O   0  0  0  0  0  0  0  0  0  0  0  0
    9.7204    1.4121    9.1228 C   0  0  2  0  0  0  0  0  0  0  0  0
    9.1388    0.4553   10.0097 O   0  0  0  0  0  0  0  0  0  0  0  0
   11.9117    0.2775   12.8444 C   0  0  2  0  0  0  0  0  0  0  0  0
   13.2080   -0.2896   12.5939 O   0  0  0  0  0  0  0  0  0  0  0  0
   19.1786   -2.7531    7.7952 C   0  0  2  0  0  0  0  0  0  0  0  0
   18.6433   -1.4400    8.1270 O   0  0  0  0  0  0  0  0  0  0  0  0
   15.0918   -3.3113    8.6827 C   0  0  2  0  0  0  0  0  0  0  0  0
   14.3732   -3.8528    7.5396 O   0  0  0  0  0  0  0  0  0  0  0  0
   12.4000   -4.1485    4.0127 C   0  0  0  0  0  0  0  0  0  0  0  0
   12.1360   -3.2240    2.9472 O   0  0  0  0  0  0  0  0  0  0  0  0
    9.0953    1.1443    7.7672 C   0  0  1  0  0  0  0  0  0  0  0  0
    9.3872    0.1142    6.7985 O   0  0  0  0  0  0  0  0  0  0  0  0
   10.7875   -0.7475   12.9447 C   0  0  2  0  0  0  0  0  0  0  0  0
    9.4307   -0.4007   12.6275 O   0  0  0  0  0  0  0  0  0  0  0  0
   20.1391   -3.0903    8.8844 C   0  0  0  0  0  0  0  0  0  0  0  0
   20.2164   -4.4934    8.9592 O   0  0  0  0  0  0  0  0  0  0  0  0
   14.2457   -3.3460   10.0000 C   0  0  1  0  0  0  0  0  0  0  0  0
   14.0171   -4.7424   10.3272 O   0  0  0  0  0  0  0  0  0  0  0  0
    7.6161    1.6032    7.5825 C   0  0  0  0  0  0  0  0  0  0  0  0
    7.1683    2.5666    8.6102 N   0  0  0  0  0  0  0  0  0  0  0  0
   10.7772   -1.8745   13.9750 C   0  0  0  0  0  0  0  0  0  0  0  0
   11.9469   -1.7754   14.8298 O   0  0  0  0  0  0  0  0  0  0  0  0
  1  2  1  6  0  0  0
  1  8  1  0  0  0  0
  1 36  1  0  0  0  0
  3  4  1  1  0  0  0
  3 10  1  0  0  0  0
  3 47  1  0  0  0  0
  5 11  1  0  0  0  0
  5 30  1  0  0  0  0
  5 38  1  6  0  0  0
  6 21  1  1  0  0  0
  6 42  1  0  0  0  0
  7 15  1  0  0  0  0
  7 44  1  0  0  0  0
  7 32  1  6  0  0  0
  8  9  1  6  0  0  0
  8 17  1  0  0  0  0
 11 12  1  1  0  0  0
 11 20  1  0  0  0  0
 13  6  1  0  0  0  0
 13 14  1  1  0  0  0
 15 16  1  1  0  0  0
 15 24  1  0  0  0  0
 17 26  1  0  0  0  0
 18 10  1  0  0  0  0
 18 19  1  6  0  0  0
 20 21  1  1  0  0  0
 20 29  1  0  0  0  0
 22 13  1  0  0  0  0
 22 23  1  6  0  0  0
 24 25  1  1  0  0  0
 24 33  1  0  0  0  0
 26 27  1  6  0  0  0
 26 35  1  0  0  0  0
 28  2  1  6  0  0  0
 28 18  1  0  0  0  0
 29 30  1  0  0  0  0
 29 39  1  6  0  0  0
 31 22  1  0  0  0  0
 31 32  1  1  0  0  0
 31 41  1  0  0  0  0
 33 34  1  6  0  0  0
 33 43  1  0  0  0  0
 35 36  1  0  0  0  0
 35 45  1  1  0  0  0
 37 28  1  0  0  0  0
 37 38  1  6  0  0  0
 39 40  1  0  0  0  0
 41 42  1  0  0  0  0
 41 49  1  1  0  0  0
 43 44  1  0  0  0  0
 43 51  1  1  0  0  0
 45 46  1  0  0  0  0
 47 37  1  0  0  0  0
 47 48  1  1  0  0  0
 49 50  1  0  0  0  0
 51 52  1  0  0  0  0
M  END
>  <CHROM.1>
-163.54269161,82.61863758,-97.78980903,-13.99907032,65.33315051,-18.24680910
-46.90632185,87.96308162,-88.74396827,-69.87610978,16.53081166,1.84091804
13.42701327,-1.22106092,8.79844360,-0.46036319,-0.31876025,1.37181221

>  <Name>
2esj_lig

>  <RI>
0

>  <Rbt.Current_Directory>
/home/itssahil/PROJECTS/Mol_Feturizer/New_Systems/rnas/2esj

>  <Rbt.Executable>
rbdock ($Id: //depot/dev/client3/rdock/2013.1/src/exe/rbdock.cxx#4 $)

>  <Rbt.Library>
libRbt.so (2013.1, Build901 2013/11/27)

>  <Rbt.Parameter_File>
/export/apps/rDock/src/rDock_2013.1_src/data/scripts/dock_solv.prm

>  <Rbt.Receptor>
prm/blind_docking_40.prm

>  <SCORE>
39.1345

>  <SCORE.INTER>
-0.128399

>  <SCORE.INTER.CONST>
1

>  <SCORE.INTER.POLAR>
-1.74833

>  <SCORE.INTER.ROT>
12

>  <SCORE.INTER.SOLV>
26.9563

>  <SCORE.INTER.VDW>
-14.8432

>  <SCORE.INTER.norm>
-0.00246921

>  <SCORE.INTRA>
22.8773

>  <SCORE.INTRA.DIHEDRAL>
0.748311

>  <SCORE.INTRA.DIHEDRAL.0>
32.9766

>  <SCORE.INTRA.POLAR>
0

>  <SCORE.INTRA.POLAR.0>
0

>  <SCORE.INTRA.REPUL>
0

>  <SCORE.INTRA.REPUL.0>
0

>  <SCORE.INTRA.SOLV>
7.60273

>  <SCORE.INTRA.SOLV.lig_0>
-114.358

>  <SCORE.INTRA.VDW>
18.7018

>  <SCORE.INTRA.VDW.0>
-8.24257

>  <SCORE.INTRA.norm>
0.439949

>  <SCORE.RESTR>
16.3856

>  <SCORE.RESTR.CAVITY>
16.3856

>  <SCORE.RESTR.norm>
0.315107

>  <SCORE.SYSTEM>
0

>  <SCORE.SYSTEM.CONST>
0

>  <SCORE.SYSTEM.DIHEDRAL>
0

>  <SCORE.SYSTEM.SOLV>
0

>  <SCORE.SYSTEM.norm>
0

>  <SCORE.heavy>
52

>  <SCORE.norm>
0.752587

>  <RMSD>
14.801

$$$$
2esj_lig
 OpenBabel11021811423D
libRbt.so/2013.1/901 2013/11/27
 52 56  0  0  0  0  0  0  0  0999 V2000
    6.6122   -3.1662    5.2923 C   0  0  2  0  0  0  0  0  0  0  0  0
    7.7314   -2.2607    5.3389 O   0  0  0  0  0  0  0  0  0  0  0  0
   11.5169   -3.9500    4.2882 C   0  0  2  0  0  0  0  0  0  0  0  0
   12.7534   -4.3475    3.5949 N   0  0  0  0  0  0  0  0  0  0  0  0
   10.2946    0.0063    6.7744 C   0  0  1  0  0  0  0  0  0  0  0  0
   10.2926    0.9414   10.9067 C   0  0  1  0  0  0  0  0  0  0  0  0
   14.8369   -0.0257   12.5965 C   0  0  1  0  0  0  0  0  0  0  0  0
    5.3464   -2.3694    5.7258 C   0  0  2  0  0  0  0  0  0  0  0  0
    5.1261   -1.1860    4.8951 N   0  0  0  0  0  0  0  0  0  0  0  0
   10.2521   -4.3689    3.4384 C   0  0  0  0  0  0  0  0  0  0  0  0
    9.3001   -0.6274    7.7480 C   0  0  2  0  0  0  0  0  0  0  0  0
    8.0412    0.0790    7.7867 O   0  0  0  0  0  0  0  0  0  0  0  0
   11.2996    2.1743   10.9909 C   0  0  2  0  0  0  0  0  0  0  0  0
   12.4582    1.9814   10.0790 N   0  0  0  0  0  0  0  0  0  0  0  0
   15.8984    0.6683   11.7509 C   0  0  1  0  0  0  0  0  0  0  0  0
   17.2034    0.3520   12.2759 O   0  0  0  0  0  0  0  0  0  0  0  0
    5.4375   -1.9530    7.2283 C   0  0  0  0  0  0  0  0  0  0  0  0
    8.9344   -3.9874    4.2256 C   0  0  2  0  0  0  0  0  0  0  0  0
    7.7440   -4.3540    3.4514 N   0  0  0  0  0  0  0  0  0  0  0  0
   10.0855   -0.5580    9.0257 C   0  0  2  0  0  0  0  0  0  0  0  0
   10.0743    0.7496    9.5399 O   0  0  0  0  0  0  0  0  0  0  0  0
   11.6791    2.4286   12.5162 C   0  0  1  0  0  0  0  0  0  0  0  0
   10.4741    2.5309   13.2818 O   0  0  0  0  0  0  0  0  0  0  0  0
   15.8876    0.3101   10.2697 C   0  0  1  0  0  0  0  0  0  0  0  0
   17.0777    0.8587    9.6927 O   0  0  0  0  0  0  0  0  0  0  0  0
    5.6952   -3.2256    8.0884 C   0  0  2  0  0  0  0  0  0  0  0  0
    5.7123   -2.9306    9.4736 O   0  0  0  0  0  0  0  0  0  0  0  0
    8.9198   -2.4718    4.5538 C   0  0  2  0  0  0  0  0  0  0  0  0
   11.5581   -0.7909    8.6297 C   0  0  2  0  0  0  0  0  0  0  0  0
   11.5962   -0.2636    7.3131 O   0  0  0  0  0  0  0  0  0  0  0  0
   12.4754    1.2027   13.1263 C   0  0  2  0  0  0  0  0  0  0  0  0
   13.6821    1.1522   12.3635 O   0  0  0  0  0  0  0  0  0  0  0  0
   15.8407   -1.1949    9.9997 C   0  0  2  0  0  0  0  0  0  0  0  0
   15.5217   -1.3589    8.6083 O   0  0  0  0  0  0  0  0  0  0  0  0
    7.0273   -3.8659    7.6251 C   0  0  2  0  0  0  0  0  0  0  0  0
    6.8638   -4.2414    6.2275 O   0  0  0  0  0  0  0  0  0  0  0  0
   10.2006   -1.9647    5.2908 C   0  0  2  0  0  0  0  0  0  0  0  0
   10.1146   -0.5248    5.4803 O   0  0  0  0  0  0  0  0  0  0  0  0
   12.0359   -2.2424    8.6073 C   0  0  0  0  0  0  0  0  0  0  0  0
   11.9929   -2.7326    9.9554 O   0  0  0  0  0  0  0  0  0  0  0  0
   11.6910   -0.0335   12.7308 C   0  0  1  0  0  0  0  0  0  0  0  0
   10.8988   -0.2914   11.5515 O   0  0  0  0  0  0  0  0  0  0  0  0
   14.8829   -1.9041   10.9506 C   0  0  2  0  0  0  0  0  0  0  0  0
   14.6757   -1.4320   12.2908 O   0  0  0  0  0  0  0  0  0  0  0  0
    7.3539   -5.1261    8.3516 C   0  0  0  0  0  0  0  0  0  0  0  0
    6.2232   -5.9605    8.2781 O   0  0  0  0  0  0  0  0  0  0  0  0
   11.4942   -2.3968    4.5214 C   0  0  1  0  0  0  0  0  0  0  0  0
   12.6281   -2.0605    5.3643 O   0  0  0  0  0  0  0  0  0  0  0  0
   12.2058   -1.3925   13.2975 C   0  0  0  0  0  0  0  0  0  0  0  0
   11.4080   -2.5540   12.8511 N   0  0  0  0  0  0  0  0  0  0  0  0
   14.6421   -3.4116   10.9194 C   0  0  0  0  0  0  0  0  0  0  0  0
   14.1754   -3.8661   12.2172 O   0  0  0  0  0  0  0  0  0  0  0  0
  1  2  1  1  0  0  0
  1  8  1  0  0  0  0
  1 36  1  0  0  0  0
  3  4  1  6  0  0  0
  3 10  1  0  0  0  0
  3 47  1  0  0  0  0
  5 11  1  0  0  0  0
  5 30  1  0  0  0  0
  5 38  1  6  0  0  0
  6 21  1  6  0  0  0
  6 42  1  0  0  0  0
  7 15  1  0  0  0  0
  7 44  1  0  0  0  0
  7 32  1  6  0  0  0
  8  9  1  6  0  0  0
  8 17  1  0  0  0  0
 11 12  1  1  0  0  0
 11 20  1  0  0  0  0
 13  6  1  0  0  0  0
 13 14  1  6  0  0  0
 15 16  1  1  0  0  0
 15 24  1  0  0  0  0
 17 26  1  0  0  0  0
 18 10  1  0  0  0  0
 18 19  1  6  0  0  0
 20 21  1  6  0  0  0
 20 29  1  0  0  0  0
 22 13  1  0  0  0  0
 22 23  1  1  0  0  0
 24 25  1  1  0  0  0
 24 33  1  0  0  0  0
 26 27  1  1  0  0  0
 26 35  1  0  0  0  0
 28  2  1  1  0  0  0
 28 18  1  0  0  0  0
 29 30  1  0  0  0  0
 29 39  1  6  0  0  0
 31 22  1  0  0  0  0
 31 32  1  6  0  0  0
 31 41  1  0  0  0  0
 33 34  1  6  0  0  0
 33 43  1  0  0  0  0
 35 36  1  0  0  0  0
 35 45  1  1  0  0  0
 37 28  1  0  0  0  0
 37 38  1  6  0  0  0
 39 40  1  0  0  0  0
 41 42  1  0  0  0  0
 41 49  1  6  0  0  0
 43 44  1  0  0  0  0
 43 51  1  1  0  0  0
 45 46  1  0  0  0  0
 47 37  1  0  0  0  0
 47 48  1  1  0  0  0
 49 50  1  0  0  0  0
 51 52  1  0  0  0  0
M  END
>  <CHROM.1>
-155.95949628,-56.24895478,136.14540689,-168.27604046,156.38653787,-22.27516650
-65.62074278,-177.54619289,51.37361390,127.13535785,-178.96416355,155.82621123
10.94155694,-1.46167387,8.71209471,2.34652154,-0.02895667,-2.03090836

>  <Name>
2esj_lig

>  <RI>
0

>  <Rbt.Current_Directory>
/home/itssahil/PROJECTS/Mol_Feturizer/New_Systems/rnas/2esj

>  <Rbt.Executable>
rbdock ($Id: //depot/dev/client3/rdock/2013.1/src/exe/rbdock.cxx#4 $)

>  <Rbt.Library>
libRbt.so (2013.1, Build901 2013/11/27)

>  <Rbt.Parameter_File>
/export/apps/rDock/src/rDock_2013.1_src/data/scripts/dock_solv.prm

>  <Rbt.Receptor>
prm/blind_docking_60.prm

>  <SCORE>
7.60893

>  <SCORE.INTER>
-10.9102

>  <SCORE.INTER.CONST>
1

>  <SCORE.INTER.POLAR>
-1.19043

>  <SCORE.INTER.ROT>
12

>  <SCORE.INTER.SOLV>
22.96

>  <SCORE.INTER.VDW>
-22.5587

>  <SCORE.INTER.norm>
-0.209812

>  <SCORE.INTRA>
7.51766

>  <SCORE.INTRA.DIHEDRAL>
-3.77566

>  <SCORE.INTRA.DIHEDRAL.0>
32.9766

>  <SCORE.INTRA.POLAR>
0

>  <SCORE.INTRA.POLAR.0>
0

>  <SCORE.INTRA.REPUL>
0

>  <SCORE.INTRA.REPUL.0>
0

>  <SCORE.INTRA.SOLV>
6.6318

>  <SCORE.INTRA.SOLV.lig_0>
-114.358

>  <SCORE.INTRA.VDW>
6.08959

>  <SCORE.INTRA.VDW.0>
-8.24257

>  <SCORE.INTRA.norm>
0.14457

>  <SCORE.RESTR>
11.0015

>  <SCORE.RESTR.CAVITY>
11.0015

>  <SCORE.RESTR.norm>
0.211567

>  <SCORE.SYSTEM>
0

>  <SCORE.SYSTEM.CONST>
0

>  <SCORE.SYSTEM.DIHEDRAL>
0

>  <SCORE.SYSTEM.SOLV>
0

>  <SCORE.SYSTEM.norm>
0

>  <SCORE.heavy>
52

>  <SCORE.norm>
0.146326

>  <RMSD>
14.890

$$$$
2esj_lig
 OpenBabel11021811423D
libRbt.so/2013.1/901 2013/11/27
 52 56  0  0  0  0  0  0  0  0999 V2000
   11.7417   -4.0517    5.0081 C   0  0  2  0  0  0  0  0  0  0  0  0
   12.0654   -3.2741    3.8397 O   0  0  0  0  0  0  0  0  0  0  0  0
   16.2693   -2.5020    3.7006 C   0  0  2  0  0  0  0  0  0  0  0  0
   17.5972   -1.8825    3.5584 N   0  0  0  0  0  0  0  0  0  0  0  0
   13.9780   -1.3875    7.2702 C   0  0  1  0  0  0  0  0  0  0  0  0
   15.5809    0.5456   10.4647 C   0  0  1  0  0  0  0  0  0  0  0  0
   11.7212   -0.6732   13.2658 C   0  0  1  0  0  0  0  0  0  0  0  0
   10.6748   -5.1057    4.5888 C   0  0  2  0  0  0  0  0  0  0  0  0
   11.1324   -5.9466    3.4831 N   0  0  0  0  0  0  0  0  0  0  0  0
   15.4338   -2.3208    2.3715 C   0  0  0  0  0  0  0  0  0  0  0  0
   14.4319    0.0443    6.9829 C   0  0  2  0  0  0  0  0  0  0  0  0
   15.7322    0.0944    6.3568 O   0  0  0  0  0  0  0  0  0  0  0  0
   15.6780   -0.8473   11.2340 C   0  0  2  0  0  0  0  0  0  0  0  0
   14.6238   -1.7882   10.7710 N   0  0  0  0  0  0  0  0  0  0  0  0
   11.3640   -2.1549   13.2884 C   0  0  1  0  0  0  0  0  0  0  0  0
   10.2374   -2.3571   14.1651 O   0  0  0  0  0  0  0  0  0  0  0  0
    9.3280   -4.4136    4.2064 C   0  0  0  0  0  0  0  0  0  0  0  0
   14.0348   -3.0431    2.5219 C   0  0  2  0  0  0  0  0  0  0  0  0
   13.2331   -2.8781    1.3050 N   0  0  0  0  0  0  0  0  0  0  0  0
   14.3907    0.6275    8.3657 C   0  0  2  0  0  0  0  0  0  0  0  0
   15.5030    0.2034    9.1122 O   0  0  0  0  0  0  0  0  0  0  0  0
   15.6923   -0.5719   12.8021 C   0  0  1  0  0  0  0  0  0  0  0  0
   16.7079    0.3939   13.0930 O   0  0  0  0  0  0  0  0  0  0  0  0
   11.0209   -2.7625   11.9336 C   0  0  1  0  0  0  0  0  0  0  0  0
   10.4902   -4.0697   12.1781 O   0  0  0  0  0  0  0  0  0  0  0  0
    8.8745   -3.5073    5.3891 C   0  0  2  0  0  0  0  0  0  0  0  0
    7.6162   -2.9067    5.1399 O   0  0  0  0  0  0  0  0  0  0  0  0
   13.2696   -2.4896    3.7520 C   0  0  2  0  0  0  0  0  0  0  0  0
   13.1916   -0.0399    9.0703 C   0  0  2  0  0  0  0  0  0  0  0  0
   13.1452   -1.3078    8.4353 O   0  0  0  0  0  0  0  0  0  0  0  0
   14.3302    0.0743   13.2884 C   0  0  2  0  0  0  0  0  0  0  0  0
   13.3485   -0.9267   13.0150 O   0  0  0  0  0  0  0  0  0  0  0  0
   10.0070   -1.9458   11.1305 C   0  0  2  0  0  0  0  0  0  0  0  0
   10.0270   -2.4598    9.7888 O   0  0  0  0  0  0  0  0  0  0  0  0
    9.9740   -2.4453    5.6391 C   0  0  2  0  0  0  0  0  0  0  0  0
   11.1898   -3.1590    6.0043 O   0  0  0  0  0  0  0  0  0  0  0  0
   14.0861   -2.5281    5.0835 C   0  0  2  0  0  0  0  0  0  0  0  0
   13.3062   -1.9192    6.1500 O   0  0  0  0  0  0  0  0  0  0  0  0
   11.8385    0.6534    8.9153 C   0  0  0  0  0  0  0  0  0  0  0  0
   11.5921    0.8114    7.5104 O   0  0  0  0  0  0  0  0  0  0  0  0
   14.0425    1.2034   12.3177 C   0  0  1  0  0  0  0  0  0  0  0  0
   14.3567    1.3221   10.9135 O   0  0  0  0  0  0  0  0  0  0  0  0
   10.2860   -0.4505   11.2336 C   0  0  2  0  0  0  0  0  0  0  0  0
   10.8551    0.1225   12.4209 O   0  0  0  0  0  0  0  0  0  0  0  0
    9.6672   -1.5457    6.7876 C   0  0  0  0  0  0  0  0  0  0  0  0
    8.4759   -0.8622    6.4816 O   0  0  0  0  0  0  0  0  0  0  0  0
   15.4868   -1.8530    4.8980 C   0  0  1  0  0  0  0  0  0  0  0  0
   16.2479   -2.1026    6.1095 O   0  0  0  0  0  0  0  0  0  0  0  0
   12.7943    2.0852   12.6296 C   0  0  0  0  0  0  0  0  0  0  0  0
   12.0354    2.4754   11.4227 N   0  0  0  0  0  0  0  0  0  0  0  0
    9.4282    0.6066   10.5419 C   0  0  0  0  0  0  0  0  0  0  0  0
    8.9602    0.1053    9.2619 O   0  0  0  0  0  0  0  0  0  0  0  0
  1  2  1  6  0  0  0
  1  8  1  0  0  0  0
  1 36  1  0  0  0  0
  3  4  1  6  0  0  0
  3 10  1  0  0  0  0
  3 47  1  0  0  0  0
  5 11  1  0  0  0  0
  5 30  1  0  0  0  0
  5 38  1  6  0  0  0
  6 21  1  6  0  0  0
  6 42  1  0  0  0  0
  7 15  1  0  0  0  0
  7 44  1  0  0  0  0
  7 32  1  6  0  0  0
  8  9  1  6  0  0  0
  8 17  1  0  0  0  0
 11 12  1  1  0  0  0
 11 20  1  0  0  0  0
 13  6  1  0  0  0  0
 13 14  1  1  0  0  0
 15 16  1  1  0  0  0
 15 24  1  0  0  0  0
 17 26  1  0  0  0  0
 18 10  1  0  0  0  0
 18 19  1  6  0  0  0
 20 21  1  1  0  0  0
 20 29  1  0  0  0  0
 22 13  1  0  0  0  0
 22 23  1  6  0  0  0
 24 25  1  1  0  0  0
 24 33  1  0  0  0  0
 26 27  1  6  0  0  0
 26 35  1  0  0  0  0
 28  2  1  1  0  0  0
 28 18  1  0  0  0  0
 29 30  1  0  0  0  0
 29 39  1  6  0  0  0
 31 22  1  0  0  0  0
 31 32  1  6  0  0  0
 31 41  1  0  0  0  0
 33 34  1  6  0  0  0
 33 43  1  0  0  0  0
 35 36  1  0  0  0  0
 35 45  1  1  0  0  0
 37 28  1  0  0  0  0
 37 38  1  1  0  0  0
 39 40  1  0  0  0  0
 41 42  1  0  0  0  0
 41 49  1  6  0  0  0
 43 44  1  0  0  0  0
 43 51  1  1  0  0  0
 45 46  1  0  0  0  0
 47 37  1  0  0  0  0
 47 48  1  1  0  0  0
 49 50  1  0  0  0  0
 51 52  1  0  0  0  0
M  END
>  <CHROM.1>
-161.35614169,84.94759791,121.67589760,-160.84564933,-174.36327206,120.96077915
54.51011737,-175.92728627,-61.36933298,-156.25260446,-141.13114992,-35.23841085
12.60319381,-1.39308665,8.27982672,1.57772316,-0.28686361,-1.89361284

>  <Name>
2esj_lig

>  <RI>
0

>  <Rbt.Current_Directory>
/home/itssahil/PROJECTS/Mol_Feturizer/New_Systems/rnas/2esj

>  <Rbt.Executable>
rbdock ($Id: //depot/dev/client3/rdock/2013.1/src/exe/rbdock.cxx#4 $)

>  <Rbt.Library>
libRbt.so (2013.1, Build901 2013/11/27)

>  <Rbt.Parameter_File>
/export/apps/rDock/src/rDock_2013.1_src/data/scripts/dock_solv.prm

>  <Rbt.Receptor>
prm/blind_docking_60.prm

>  <SCORE>
39.2179

>  <SCORE.INTER>
4.25164

>  <SCORE.INTER.CONST>
1

>  <SCORE.INTER.POLAR>
0

>  <SCORE.INTER.ROT>
12

>  <SCORE.INTER.SOLV>
17.8992

>  <SCORE.INTER.VDW>
-14.732

>  <SCORE.INTER.norm>
0.0817623

>  <SCORE.INTRA>
17.4126

>  <SCORE.INTRA.DIHEDRAL>
-4.28704

>  <SCORE.INTRA.DIHEDRAL.0>
32.9766

>  <SCORE.INTRA.POLAR>
0

>  <SCORE.INTRA.POLAR.0>
0

>  <SCORE.INTRA.REPUL>
0.257348

>  <SCORE.INTRA.REPUL.0>
0

>  <SCORE.INTRA.SOLV>
9.63296

>  <SCORE.INTRA.SOLV.lig_0>
-114.358

>  <SCORE.INTRA.VDW>
13.4529

>  <SCORE.INTRA.VDW.0>
-8.24257

>  <SCORE.INTRA.norm>
0.334858

>  <SCORE.RESTR>
17.5537

>  <SCORE.RESTR.CAVITY>
17.5537

>  <SCORE.RESTR.norm>
0.337571

>  <SCORE.SYSTEM>
0

>  <SCORE.SYSTEM.CONST>
0

>  <SCORE.SYSTEM.DIHEDRAL>
0

>  <SCORE.SYSTEM.SOLV>
0

>  <SCORE.SYSTEM.norm>
0

>  <SCORE.heavy>
52

>  <SCORE.norm>
0.754191

>  <RMSD>
14.966

$$$$
2esj_lig
 OpenBabel11021811423D
libRbt.so/2013.1/901 2013/11/27
 52 56  0  0  0  0  0  0  0  0999 V2000
   12.5866   -1.3899   12.6286 C   0  0  2  0  0  0  0  0  0  0  0  0
   12.5383   -2.1799   11.4250 O   0  0  0  0  0  0  0  0  0  0  0  0
   16.0021   -4.6305   11.9585 C   0  0  2  0  0  0  0  0  0  0  0  0
   17.1103   -5.5837   11.7828 N   0  0  0  0  0  0  0  0  0  0  0  0
   14.5635   -1.4336    8.9334 C   0  0  1  0  0  0  0  0  0  0  0  0
   12.6047   -1.2821    7.1329 C   0  0  1  0  0  0  0  0  0  0  0  0
    7.8290   -2.0936    5.4360 C   0  0  1  0  0  0  0  0  0  0  0  0
   11.1869   -0.7332   12.8145 C   0  0  2  0  0  0  0  0  0  0  0  0
   10.1117   -1.7239   12.8544 N   0  0  0  0  0  0  0  0  0  0  0  0
   14.6169   -5.3447   11.6968 C   0  0  0  0  0  0  0  0  0  0  0  0
   14.8313   -0.1821    8.0966 C   0  0  2  0  0  0  0  0  0  0  0  0
   13.7872    0.8060    8.2341 O   0  0  0  0  0  0  0  0  0  0  0  0
   11.6950   -2.4144    6.4759 C   0  0  2  0  0  0  0  0  0  0  0  0
   11.3974   -2.1021    5.0529 N   0  0  0  0  0  0  0  0  0  0  0  0
    6.8594   -1.8539    6.5875 C   0  0  1  0  0  0  0  0  0  0  0  0
    5.5101   -1.8611    6.0798 O   0  0  0  0  0  0  0  0  0  0  0  0
   10.9059    0.3088   11.6856 C   0  0  0  0  0  0  0  0  0  0  0  0
   13.4371   -4.3217   11.9478 C   0  0  2  0  0  0  0  0  0  0  0  0
   12.1389   -4.9567   11.6982 N   0  0  0  0  0  0  0  0  0  0  0  0
   14.9321   -0.7856    6.7256 C   0  0  2  0  0  0  0  0  0  0  0  0
   13.6548   -1.0970    6.2297 O   0  0  0  0  0  0  0  0  0  0  0  0
   10.4161   -2.6482    7.3950 C   0  0  1  0  0  0  0  0  0  0  0  0
   10.8485   -2.8731    8.7408 O   0  0  0  0  0  0  0  0  0  0  0  0
    6.9390   -2.8632    7.7265 C   0  0  1  0  0  0  0  0  0  0  0  0
    5.8174   -2.6237    8.5836 O   0  0  0  0  0  0  0  0  0  0  0  0
   12.0747    1.3375   11.6481 C   0  0  2  0  0  0  0  0  0  0  0  0
   11.8462    2.3598   10.6948 O   0  0  0  0  0  0  0  0  0  0  0  0
   13.6071   -3.0688   11.0498 C   0  0  2  0  0  0  0  0  0  0  0  0
   15.6036   -2.1611    6.9176 C   0  0  2  0  0  0  0  0  0  0  0  0
   15.1750   -2.5186    8.2220 O   0  0  0  0  0  0  0  0  0  0  0  0
    9.4974   -1.3588    7.4466 C   0  0  2  0  0  0  0  0  0  0  0  0
    9.0584   -1.1853    6.0984 O   0  0  0  0  0  0  0  0  0  0  0  0
    6.9195   -4.3204    7.2614 C   0  0  2  0  0  0  0  0  0  0  0  0
    7.3116   -5.1225    8.3873 O   0  0  0  0  0  0  0  0  0  0  0  0
   13.3895    0.5715   11.3591 C   0  0  2  0  0  0  0  0  0  0  0  0
   13.5940   -0.3658   12.4548 O   0  0  0  0  0  0  0  0  0  0  0  0
   15.0044   -2.3804   11.1704 C   0  0  2  0  0  0  0  0  0  0  0  0
   15.0812   -1.2689   10.2349 O   0  0  0  0  0  0  0  0  0  0  0  0
   17.1307   -2.1871    6.8621 C   0  0  0  0  0  0  0  0  0  0  0  0
   17.5280   -1.5996    5.6144 O   0  0  0  0  0  0  0  0  0  0  0  0
   10.4342   -0.1986    7.7229 C   0  0  1  0  0  0  0  0  0  0  0  0
   11.8104   -0.0044    7.3320 O   0  0  0  0  0  0  0  0  0  0  0  0
    7.7785   -4.5222    6.0181 C   0  0  2  0  0  0  0  0  0  0  0  0
    7.9308   -3.4827    5.0393 O   0  0  0  0  0  0  0  0  0  0  0  0
   14.5902    1.4551   11.3474 C   0  0  0  0  0  0  0  0  0  0  0  0
   14.6079    2.1589   12.5657 O   0  0  0  0  0  0  0  0  0  0  0  0
   16.1574   -3.4207   10.9687 C   0  0  1  0  0  0  0  0  0  0  0  0
   17.4042   -2.7473   11.2871 O   0  0  0  0  0  0  0  0  0  0  0  0
    9.7684    1.1969    7.9283 C   0  0  0  0  0  0  0  0  0  0  0  0
    8.5830    1.4128    7.0721 N   0  0  0  0  0  0  0  0  0  0  0  0
    7.9378   -5.8740    5.3261 C   0  0  0  0  0  0  0  0  0  0  0  0
    9.3403   -6.1249    5.0453 O   0  0  0  0  0  0  0  0  0  0  0  0
  1  2  1  6  0  0  0
  1  8  1  0  0  0  0
  1 36  1  0  0  0  0
  3  4  1  6  0  0  0
  3 10  1  0  0  0  0
  3 47  1  0  0  0  0
  5 11  1  0  0  0  0
  5 30  1  0  0  0  0
  5 38  1  1  0  0  0
  6 21  1  6  0  0  0
  6 42  1  0  0  0  0
  7 15  1  0  0  0  0
  7 44  1  0  0  0  0
  7 32  1  1  0  0  0
  8  9  1  6  0  0  0
  8 17  1  0  0  0  0
 11 12  1  6  0  0  0
 11 20  1  0  0  0  0
 13  6  1  0  0  0  0
 13 14  1  6  0  0  0
 15 16  1  6  0  0  0
 15 24  1  0  0  0  0
 17 26  1  0  0  0  0
 18 10  1  0  0  0  0
 18 19  1  6  0  0  0
 20 21  1  1  0  0  0
 20 29  1  0  0  0  0
 22 13  1  0  0  0  0
 22 23  1  1  0  0  0
 24 25  1  1  0  0  0
 24 33  1  0  0  0  0
 26 27  1  6  0  0  0
 26 35  1  0  0  0  0
 28  2  1  1  0  0  0
 28 18  1  0  0  0  0
 29 30  1  0  0  0  0
 29 39  1  1  0  0  0
 31 22  1  0  0  0  0
 31 32  1  6  0  0  0
 31 41  1  0  0  0  0
 33 34  1  1  0  0  0
 33 43  1  0  0  0  0
 35 36  1  0  0  0  0
 35 45  1  1  0  0  0
 37 28  1  0  0  0  0
 37 38  1  6  0  0  0
 39 40  1  0  0  0  0
 41 42  1  0  0  0  0
 41 49  1  6  0  0  0
 43 44  1  0  0  0  0
 43 51  1  6  0  0  0
 45 46  1  0  0  0  0
 47 37  1  0  0  0  0
 47 48  1  1  0  0  0
 49 50  1  0  0  0  0
 51 52  1  0  0  0  0
M  END
>  <CHROM.1>
-171.38529697,-176.24863037,-145.55574097,49.80104470,-22.48988940,77.35619634
-55.21787631,78.67240528,54.00563262,-41.95715410,-35.94233865,-133.11895686
11.94628879,-1.89381359,8.84371459,0.48475242,-0.22528432,0.88747746

>  <Name>
2esj_lig

>  <RI>
0

>  <Rbt.Current_Directory>
/home/itssahil/PROJECTS/Mol_Feturizer/New_Systems/rnas/2esj

>  <Rbt.Executable>
rbdock ($Id: //depot/dev/client3/rdock/2013.1/src/exe/rbdock.cxx#4 $)

>  <Rbt.Library>
libRbt.so (2013.1, Build901 2013/11/27)

>  <Rbt.Parameter_File>
/export/apps/rDock/src/rDock_2013.1_src/data/scripts/dock_solv.prm

>  <Rbt.Receptor>
prm/blind_docking_20.prm

>  <SCORE>
31.7566

>  <SCORE.INTER>
9.70116

>  <SCORE.INTER.CONST>
1

>  <SCORE.INTER.POLAR>
0

>  <SCORE.INTER.ROT>
12

>  <SCORE.INTER.SOLV>
28.4534

>  <SCORE.INTER.VDW>
-14.617

>  <SCORE.INTER.norm>
0.186561

>  <SCORE.INTRA>
8.73065

>  <SCORE.INTRA.DIHEDRAL>
-11.8834

>  <SCORE.INTRA.DIHEDRAL.0>
32.9766

>  <SCORE.INTRA.POLAR>
0

>  <SCORE.INTRA.POLAR.0>
0

>  <SCORE.INTRA.REPUL>
1

>  <SCORE.INTRA.REPUL.0>
0

>  <SCORE.INTRA.SOLV>
1.966

>  <SCORE.INTRA.SOLV.lig_0>
-114.358

>  <SCORE.INTRA.VDW>
8.68934

>  <SCORE.INTRA.VDW.0>
-8.24257

>  <SCORE.INTRA.norm>
0.167897

>  <SCORE.RESTR>
13.3248

>  <SCORE.RESTR.CAVITY>
13.3248

>  <SCORE.RESTR.norm>
0.256247

>  <SCORE.SYSTEM>
0

>  <SCORE.SYSTEM.CONST>
0

>  <SCORE.SYSTEM.DIHEDRAL>
0

>  <SCORE.SYSTEM.SOLV>
0

>  <SCORE.SYSTEM.norm>
0

>  <SCORE.heavy>
52

>  <SCORE.norm>
0.610705

>  <RMSD>
14.988

$$$$
2esj_lig
 OpenBabel11021811423D
libRbt.so/2013.1/901 2013/11/27
 52 56  0  0  0  0  0  0  0  0999 V2000
   11.0669   -3.6037    4.9485 C   0  0  2  0  0  0  0  0  0  0  0  0
    9.8753   -4.2387    4.4467 O   0  0  0  0  0  0  0  0  0  0  0  0
    6.0536   -2.4981    5.2546 C   0  0  2  0  0  0  0  0  0  0  0  0
    4.6931   -2.2185    5.7426 N   0  0  0  0  0  0  0  0  0  0  0  0
   10.2884   -1.7164    7.3135 C   0  0  1  0  0  0  0  0  0  0  0  0
   11.5870    0.8384    9.7625 C   0  0  1  0  0  0  0  0  0  0  0  0
   14.7625    0.1374   12.0280 C   0  0  1  0  0  0  0  0  0  0  0  0
   11.3937   -2.4085    4.0052 C   0  0  2  0  0  0  0  0  0  0  0  0
   10.2786   -1.4684    3.8965 N   0  0  0  0  0  0  0  0  0  0  0  0
    6.0955   -3.8942    4.5152 C   0  0  0  0  0  0  0  0  0  0  0  0
   10.9774   -1.8871    8.6680 C   0  0  2  0  0  0  0  0  0  0  0  0
   10.1599   -1.4225    9.7640 O   0  0  0  0  0  0  0  0  0  0  0  0
   12.5327    2.1097    9.9368 C   0  0  2  0  0  0  0  0  0  0  0  0
   13.9527    1.7606    9.6673 N   0  0  0  0  0  0  0  0  0  0  0  0
   16.0753    0.4333   12.7438 C   0  0  1  0  0  0  0  0  0  0  0  0
   16.6172   -0.7961   13.2668 O   0  0  0  0  0  0  0  0  0  0  0  0
   11.8008   -2.9147    2.5849 C   0  0  0  0  0  0  0  0  0  0  0  0
    7.5493   -4.1498    3.9470 C   0  0  2  0  0  0  0  0  0  0  0  0
    7.6188   -5.4472    3.2667 N   0  0  0  0  0  0  0  0  0  0  0  0
   12.2244   -1.0815    8.4445 C   0  0  2  0  0  0  0  0  0  0  0  0
   11.9439    0.2929    8.5265 O   0  0  0  0  0  0  0  0  0  0  0  0
   12.2600    2.7654   11.3618 C   0  0  1  0  0  0  0  0  0  0  0  0
   10.8535    2.9872   11.5075 O   0  0  0  0  0  0  0  0  0  0  0  0
   17.1490    1.0941   11.8878 C   0  0  1  0  0  0  0  0  0  0  0  0
   18.3644    1.0761   12.6445 O   0  0  0  0  0  0  0  0  0  0  0  0
   12.9726   -3.9303    2.7295 C   0  0  2  0  0  0  0  0  0  0  0  0
   13.4445   -4.3728    1.4695 O   0  0  0  0  0  0  0  0  0  0  0  0
    8.5963   -4.0819    5.0890 C   0  0  2  0  0  0  0  0  0  0  0  0
   12.6073   -1.2969    6.9657 C   0  0  2  0  0  0  0  0  0  0  0  0
   11.3414   -1.5105    6.3617 O   0  0  0  0  0  0  0  0  0  0  0  0
   12.6663    1.7844   12.5373 C   0  0  2  0  0  0  0  0  0  0  0  0
   14.0759    1.6135   12.3816 O   0  0  0  0  0  0  0  0  0  0  0  0
   17.3786    0.4014   10.5434 C   0  0  2  0  0  0  0  0  0  0  0  0
   18.1653    1.2976    9.7417 O   0  0  0  0  0  0  0  0  0  0  0  0
   12.4879   -5.1130    3.6044 C   0  0  2  0  0  0  0  0  0  0  0  0
   12.1423   -4.5712    4.9113 O   0  0  0  0  0  0  0  0  0  0  0  0
    8.5302   -2.7734    5.9401 C   0  0  2  0  0  0  0  0  0  0  0  0
    9.4987   -2.8483    7.0230 O   0  0  0  0  0  0  0  0  0  0  0  0
   13.5187   -2.4862    6.6645 C   0  0  0  0  0  0  0  0  0  0  0  0
   14.0364   -2.3090    5.3378 O   0  0  0  0  0  0  0  0  0  0  0  0
   12.0515    0.4439   12.1836 C   0  0  1  0  0  0  0  0  0  0  0  0
   11.8058   -0.1518   10.8915 O   0  0  0  0  0  0  0  0  0  0  0  0
   16.0628   -0.0236    9.9013 C   0  0  2  0  0  0  0  0  0  0  0  0
   14.9341   -0.4125   10.6992 O   0  0  0  0  0  0  0  0  0  0  0  0
   13.5488   -6.1308    3.8512 C   0  0  0  0  0  0  0  0  0  0  0  0
   12.9572   -7.1939    4.5582 O   0  0  0  0  0  0  0  0  0  0  0  0
    7.0726   -2.5131    6.4499 C   0  0  1  0  0  0  0  0  0  0  0  0
    7.0592   -1.1942    7.0578 O   0  0  0  0  0  0  0  0  0  0  0  0
   12.2128   -0.6934   13.2388 C   0  0  0  0  0  0  0  0  0  0  0  0
   10.9659   -1.4487   13.4822 N   0  0  0  0  0  0  0  0  0  0  0  0
   15.9864   -0.7472    8.5588 C   0  0  0  0  0  0  0  0  0  0  0  0
   15.0507   -0.0665    7.6813 O   0  0  0  0  0  0  0  0  0  0  0  0
  1  2  1  6  0  0  0
  1  8  1  0  0  0  0
  1 36  1  0  0  0  0
  3  4  1  1  0  0  0
  3 10  1  0  0  0  0
  3 47  1  0  0  0  0
  5 11  1  0  0  0  0
  5 30  1  0  0  0  0
  5 38  1  6  0  0  0
  6 21  1  6  0  0  0
  6 42  1  0  0  0  0
  7 15  1  0  0  0  0
  7 44  1  0  0  0  0
  7 32  1  6  0  0  0
  8  9  1  6  0  0  0
  8 17  1  0  0  0  0
 11 12  1  1  0  0  0
 11 20  1  0  0  0  0
 13  6  1  0  0  0  0
 13 14  1  1  0  0  0
 15 16  1  6  0  0  0
 15 24  1  0  0  0  0
 17 26  1  0  0  0  0
 18 10  1  0  0  0  0
 18 19  1  1  0  0  0
 20 21  1  6  0  0  0
 20 29  1  0  0  0  0
 22 13  1  0  0  0  0
 22 23  1  6  0  0  0
 24 25  1  1  0  0  0
 24 33  1  0  0  0  0
 26 27  1  6  0  0  0
 26 35  1  0  0  0  0
 28  2  1  6  0  0  0
 28 18  1  0  0  0  0
 29 30  1  0  0  0  0
 29 39  1  1  0  0  0
 31 22  1  0  0  0  0
 31 32  1  6  0  0  0
 31 41  1  0  0  0  0
 33 34  1  6  0  0  0
 33 43  1  0  0  0  0
 35 36  1  0  0  0  0
 35 45  1  1  0  0  0
 37 28  1  0  0  0  0
 37 38  1  1  0  0  0
 39 40  1  0  0  0  0
 41 42  1  0  0  0  0
 41 49  1  1  0  0  0
 43 44  1  0  0  0  0
 43 51  1  6  0  0  0
 45 46  1  0  0  0  0
 47 37  1  0  0  0  0
 47 48  1  6  0  0  0
 49 50  1  0  0  0  0
 51 52  1  0  0  0  0
M  END
>  <CHROM.1>
-105.29805056,166.35780097,130.02008007,-150.30372730,68.21480756,148.04199608
-164.91780735,-116.48625998,-175.32795251,136.57458379,134.75345917,-128.81206098
12.10926631,-1.47472294,7.89465555,-2.13236072,-0.02159248,0.99097633

>  <Name>
2esj_lig

>  <RI>
0

>  <Rbt.Current_Directory>
/home/itssahil/PROJECTS/Mol_Feturizer/New_Systems/rnas/2esj

>  <Rbt.Executable>
rbdock ($Id: //depot/dev/client3/rdock/2013.1/src/exe/rbdock.cxx#4 $)

>  <Rbt.Library>
libRbt.so (2013.1, Build901 2013/11/27)

>  <Rbt.Parameter_File>
/export/apps/rDock/src/rDock_2013.1_src/data/scripts/dock_solv.prm

>  <Rbt.Receptor>
prm/blind_docking_60.prm

>  <SCORE>
19.3237

>  <SCORE.INTER>
-9.39132

>  <SCORE.INTER.CONST>
1

>  <SCORE.INTER.POLAR>
0

>  <SCORE.INTER.ROT>
12

>  <SCORE.INTER.SOLV>
22.3735

>  <SCORE.INTER.VDW>
-25.3187

>  <SCORE.INTER.norm>
-0.180602

>  <SCORE.INTRA>
16.7277

>  <SCORE.INTRA.DIHEDRAL>
8.60989

>  <SCORE.INTRA.DIHEDRAL.0>
32.9766

>  <SCORE.INTRA.POLAR>
0

>  <SCORE.INTRA.POLAR.0>
0

>  <SCORE.INTRA.REPUL>
0

>  <SCORE.INTRA.REPUL.0>
0

>  <SCORE.INTRA.SOLV>
8.23098

>  <SCORE.INTRA.SOLV.lig_0>
-114.358

>  <SCORE.INTRA.VDW>
8.30726

>  <SCORE.INTRA.VDW.0>
-8.24257

>  <SCORE.INTRA.norm>
0.321686

>  <SCORE.RESTR>
11.9874

>  <SCORE.RESTR.CAVITY>
11.9874

>  <SCORE.RESTR.norm>
0.230526

>  <SCORE.SYSTEM>
0

>  <SCORE.SYSTEM.CONST>
0

>  <SCORE.SYSTEM.DIHEDRAL>
0

>  <SCORE.SYSTEM.SOLV>
0

>  <SCORE.SYSTEM.norm>
0

>  <SCORE.heavy>
52

>  <SCORE.norm>
0.37161

>  <RMSD>
14.988

$$$$
2esj_lig
 OpenBabel11021811423D
libRbt.so/2013.1/901 2013/11/27
 52 56  0  0  0  0  0  0  0  0999 V2000
   16.0812   -0.4884    6.1703 C   0  0  2  0  0  0  0  0  0  0  0  0
   16.9751   -1.3707    6.8754 O   0  0  0  0  0  0  0  0  0  0  0  0
   21.1921   -1.9505    6.4641 C   0  0  2  0  0  0  0  0  0  0  0  0
   22.6555   -1.7903    6.4592 N   0  0  0  0  0  0  0  0  0  0  0  0
   17.3698   -1.2517    9.5056 C   0  0  1  0  0  0  0  0  0  0  0  0
   13.5834   -0.2856   10.9372 C   0  0  1  0  0  0  0  0  0  0  0  0
   10.7730   -1.2553    7.7301 C   0  0  1  0  0  0  0  0  0  0  0  0
   14.6327   -0.8173    6.6378 C   0  0  2  0  0  0  0  0  0  0  0  0
   14.4801   -0.7042    8.0880 N   0  0  0  0  0  0  0  0  0  0  0  0
   20.5114   -0.8030    5.6172 C   0  0  0  0  0  0  0  0  0  0  0  0
   16.6208   -1.7458   10.7439 C   0  0  2  0  0  0  0  0  0  0  0  0
   15.6877   -2.8044   10.4370 O   0  0  0  0  0  0  0  0  0  0  0  0
   13.2549   -1.8436   10.8598 C   0  0  2  0  0  0  0  0  0  0  0  0
   13.5386   -2.3829    9.5035 N   0  0  0  0  0  0  0  0  0  0  0  0
    9.2521   -1.1539    7.7270 C   0  0  1  0  0  0  0  0  0  0  0  0
    8.8592    0.0515    7.0407 O   0  0  0  0  0  0  0  0  0  0  0  0
   14.2068   -2.2451    6.1697 C   0  0  0  0  0  0  0  0  0  0  0  0
   18.9458   -1.0254    5.5848 C   0  0  2  0  0  0  0  0  0  0  0  0
   18.2877    0.0354    4.8151 N   0  0  0  0  0  0  0  0  0  0  0  0
   15.9762   -0.4694   11.2016 C   0  0  2  0  0  0  0  0  0  0  0  0
   14.8661   -0.1624   10.3968 O   0  0  0  0  0  0  0  0  0  0  0  0
   11.7709   -2.0857   11.3833 C   0  0  1  0  0  0  0  0  0  0  0  0
   11.6242   -1.4618   12.6631 O   0  0  0  0  0  0  0  0  0  0  0  0
    8.5230   -2.3240    7.0775 C   0  0  1  0  0  0  0  0  0  0  0  0
    7.1465   -1.9495    6.9547 O   0  0  0  0  0  0  0  0  0  0  0  0
   14.4002   -2.3476    4.6277 C   0  0  2  0  0  0  0  0  0  0  0  0
   13.9588   -3.5954    4.1234 O   0  0  0  0  0  0  0  0  0  0  0  0
   18.3770   -1.0789    7.0266 C   0  0  2  0  0  0  0  0  0  0  0  0
   16.9878    0.6517   10.8861 C   0  0  2  0  0  0  0  0  0  0  0  0
   17.6580    0.1322    9.7485 O   0  0  0  0  0  0  0  0  0  0  0  0
   10.7043   -1.3916   10.4399 C   0  0  2  0  0  0  0  0  0  0  0  0
   10.8554   -2.0599    9.1865 O   0  0  0  0  0  0  0  0  0  0  0  0
    9.0699   -2.7033    5.7002 C   0  0  2  0  0  0  0  0  0  0  0  0
    8.5092   -3.9837    5.3673 O   0  0  0  0  0  0  0  0  0  0  0  0
   15.8947   -2.0987    4.3060 C   0  0  2  0  0  0  0  0  0  0  0  0
   16.2148   -0.7503    4.7534 O   0  0  0  0  0  0  0  0  0  0  0  0
   19.0885   -2.1130    7.9568 C   0  0  2  0  0  0  0  0  0  0  0  0
   18.5300   -2.0261    9.2973 O   0  0  0  0  0  0  0  0  0  0  0  0
   18.0119    0.9711   11.9746 C   0  0  0  0  0  0  0  0  0  0  0  0
   17.3701    0.7748   13.2431 O   0  0  0  0  0  0  0  0  0  0  0  0
   11.2134    0.0190   10.2137 C   0  0  1  0  0  0  0  0  0  0  0  0
   12.5670    0.5168   10.1460 O   0  0  0  0  0  0  0  0  0  0  0  0
   10.5937   -2.6594    5.6720 C   0  0  2  0  0  0  0  0  0  0  0  0
   11.3285   -1.7256    6.4781 O   0  0  0  0  0  0  0  0  0  0  0  0
   16.1905   -2.1258    2.8451 C   0  0  0  0  0  0  0  0  0  0  0  0
   17.5830   -1.9907    2.6940 O   0  0  0  0  0  0  0  0  0  0  0  0
   20.6407   -1.9071    7.9343 C   0  0  1  0  0  0  0  0  0  0  0  0
   21.2319   -3.0175    8.6602 O   0  0  0  0  0  0  0  0  0  0  0  0
   10.2875    0.9671    9.3912 C   0  0  0  0  0  0  0  0  0  0  0  0
   11.0040    2.1138    8.7942 N   0  0  0  0  0  0  0  0  0  0  0  0
   11.4134   -2.9812    4.4246 C   0  0  0  0  0  0  0  0  0  0  0  0
   11.7456   -1.7556    3.7200 O   0  0  0  0  0  0  0  0  0  0  0  0
  1  2  1  1  0  0  0
  1  8  1  0  0  0  0
  1 36  1  0  0  0  0
  3  4  1  1  0  0  0
  3 10  1  0  0  0  0
  3 47  1  0  0  0  0
  5 11  1  0  0  0  0
  5 30  1  0  0  0  0
  5 38  1  1  0  0  0
  6 21  1  6  0  0  0
  6 42  1  0  0  0  0
  7 15  1  0  0  0  0
  7 44  1  0  0  0  0
  7 32  1  1  0  0  0
  8  9  1  1  0  0  0
  8 17  1  0  0  0  0
 11 12  1  6  0  0  0
 11 20  1  0  0  0  0
 13  6  1  0  0  0  0
 13 14  1  6  0  0  0
 15 16  1  6  0  0  0
 15 24  1  0  0  0  0
 17 26  1  0  0  0  0
 18 10  1  0  0  0  0
 18 19  1  6  0  0  0
 20 21  1  6  0  0  0
 20 29  1  0  0  0  0
 22 13  1  0  0  0  0
 22 23  1  1  0  0  0
 24 25  1  6  0  0  0
 24 33  1  0  0  0  0
 26 27  1  1  0  0  0
 26 35  1  0  0  0  0
 28  2  1  6  0  0  0
 28 18  1  0  0  0  0
 29 30  1  0  0  0  0
 29 39  1  1  0  0  0
 31 22  1  0  0  0  0
 31 32  1  6  0  0  0
 31 41  1  0  0  0  0
 33 34  1  1  0  0  0
 33 43  1  0  0  0  0
 35 36  1  0  0  0  0
 35 45  1  6  0  0  0
 37 28  1  0  0  0  0
 37 38  1  1  0  0  0
 39 40  1  0  0  0  0
 41 42  1  0  0  0  0
 41 49  1  6  0  0  0
 43 44  1  0  0  0  0
 43 51  1  6  0  0  0
 45 46  1  0  0  0  0
 47 37  1  0  0  0  0
 47 48  1  1  0  0  0
 49 50  1  0  0  0  0
 51 52  1  0  0  0  0
M  END
>  <CHROM.1>
-159.56647297,155.59875371,-79.97429757,-77.68864808,109.04585217,-61.45042981
-33.99853042,-140.73632424,-175.59251343,9.88200455,-159.10277474,95.51456358
14.55606554,-1.32290788,7.81362307,-0.00039844,-0.02650489,-1.81755530

>  <Name>
2esj_lig

>  <RI>
0

>  <Rbt.Current_Directory>
/home/itssahil/PROJECTS/Mol_Feturizer/New_Systems/rnas/2esj

>  <Rbt.Executable>
rbdock ($Id: //depot/dev/client3/rdock/2013.1/src/exe/rbdock.cxx#4 $)

>  <Rbt.Library>
libRbt.so (2013.1, Build901 2013/11/27)

>  <Rbt.Parameter_File>
/export/apps/rDock/src/rDock_2013.1_src/data/scripts/dock_solv.prm

>  <Rbt.Receptor>
prm/blind_docking_40.prm

>  <SCORE>
36.3725

>  <SCORE.INTER>
-6.78406

>  <SCORE.INTER.CONST>
1

>  <SCORE.INTER.POLAR>
-0.524466

>  <SCORE.INTER.ROT>
12

>  <SCORE.INTER.SOLV>
19.4674

>  <SCORE.INTER.VDW>
-20.8636

>  <SCORE.INTER.norm>
-0.130463

>  <SCORE.INTRA>
29.5363

>  <SCORE.INTRA.DIHEDRAL>
0.757609

>  <SCORE.INTRA.DIHEDRAL.0>
32.9766

>  <SCORE.INTRA.POLAR>
0

>  <SCORE.INTRA.POLAR.0>
0

>  <SCORE.INTRA.REPUL>
0.839932

>  <SCORE.INTRA.REPUL.0>
0

>  <SCORE.INTRA.SOLV>
16.3041

>  <SCORE.INTRA.SOLV.lig_0>
-114.358

>  <SCORE.INTRA.VDW>
16.8058

>  <SCORE.INTRA.VDW.0>
-8.24257

>  <SCORE.INTRA.norm>
0.568006

>  <SCORE.RESTR>
13.6202

>  <SCORE.RESTR.CAVITY>
13.6202

>  <SCORE.RESTR.norm>
0.261927

>  <SCORE.SYSTEM>
0

>  <SCORE.SYSTEM.CONST>
0

>  <SCORE.SYSTEM.DIHEDRAL>
0

>  <SCORE.SYSTEM.SOLV>
0

>  <SCORE.SYSTEM.norm>
0

>  <SCORE.heavy>
52

>  <SCORE.norm>
0.699471

>  <RMSD>
15.077

$$$$
2esj_lig
 OpenBabel11021811423D
libRbt.so/2013.1/901 2013/11/27
 52 56  0  0  0  0  0  0  0  0999 V2000
   15.0217    1.3190    9.6325 C   0  0  2  0  0  0  0  0  0  0  0  0
   14.3885    0.6585   10.7450 O   0  0  0  0  0  0  0  0  0  0  0  0
   11.3737    2.5072   13.1496 C   0  0  2  0  0  0  0  0  0  0  0  0
   10.1050    3.0147   13.6975 N   0  0  0  0  0  0  0  0  0  0  0  0
   11.8535   -1.7115   11.6070 C   0  0  1  0  0  0  0  0  0  0  0  0
   10.7901   -2.4223    9.3120 C   0  0  1  0  0  0  0  0  0  0  0  0
   10.6327   -2.2766    4.1603 C   0  0  1  0  0  0  0  0  0  0  0  0
   14.6845    0.5034    8.3495 C   0  0  2  0  0  0  0  0  0  0  0  0
   13.2430    0.3577    8.1494 N   0  0  0  0  0  0  0  0  0  0  0  0
   11.5955    3.0523   11.6829 C   0  0  0  0  0  0  0  0  0  0  0  0
   12.0052   -3.2293   11.7144 C   0  0  2  0  0  0  0  0  0  0  0  0
   13.0236   -3.7449   10.8299 O   0  0  0  0  0  0  0  0  0  0  0  0
    9.4766   -1.9132    8.5659 C   0  0  2  0  0  0  0  0  0  0  0  0
    8.8266   -3.0188    7.8137 N   0  0  0  0  0  0  0  0  0  0  0  0
    9.7992   -3.5495    4.0663 C   0  0  1  0  0  0  0  0  0  0  0  0
    9.3971   -3.7522    2.6968 O   0  0  0  0  0  0  0  0  0  0  0  0
   15.3589   -0.9047    8.3911 C   0  0  0  0  0  0  0  0  0  0  0  0
   12.9894    2.5453   11.1339 C   0  0  2  0  0  0  0  0  0  0  0  0
   13.2139    3.0268    9.7669 N   0  0  0  0  0  0  0  0  0  0  0  0
   10.6110   -3.6689   11.3719 C   0  0  2  0  0  0  0  0  0  0  0  0
   10.3933   -3.5799    9.9866 O   0  0  0  0  0  0  0  0  0  0  0  0
    9.8406   -0.6304    7.6957 C   0  0  1  0  0  0  0  0  0  0  0  0
   10.5136    0.3185    8.5296 O   0  0  0  0  0  0  0  0  0  0  0  0
   10.4929   -4.8188    4.5459 C   0  0  1  0  0  0  0  0  0  0  0  0
    9.6643   -5.9232    4.1666 O   0  0  0  0  0  0  0  0  0  0  0  0
   16.8875   -0.7235    8.6281 C   0  0  2  0  0  0  0  0  0  0  0  0
   17.5752   -1.9615    8.6000 O   0  0  0  0  0  0  0  0  0  0  0  0
   13.0579    0.9966   11.1791 C   0  0  2  0  0  0  0  0  0  0  0  0
    9.6724   -2.5990   11.9669 C   0  0  2  0  0  0  0  0  0  0  0  0
   10.4787   -1.4331   11.9063 O   0  0  0  0  0  0  0  0  0  0  0  0
   10.8608   -0.9876    6.5378 C   0  0  2  0  0  0  0  0  0  0  0  0
   10.1460   -1.9064    5.7100 O   0  0  0  0  0  0  0  0  0  0  0  0
   11.8942   -5.0130    3.9639 C   0  0  2  0  0  0  0  0  0  0  0  0
   12.5242   -6.0512    4.7320 O   0  0  0  0  0  0  0  0  0  0  0  0
   17.0883    0.0099    9.9774 C   0  0  2  0  0  0  0  0  0  0  0  0
   16.4508    1.3140    9.8601 O   0  0  0  0  0  0  0  0  0  0  0  0
   12.7296    0.3826   12.5777 C   0  0  2  0  0  0  0  0  0  0  0  0
   12.7485   -1.0693   12.4878 O   0  0  0  0  0  0  0  0  0  0  0  0
    9.2124   -2.8216   13.4072 C   0  0  0  0  0  0  0  0  0  0  0  0
    9.1557   -1.5379   14.0463 O   0  0  0  0  0  0  0  0  0  0  0  0
   11.9593   -1.8007    7.1954 C   0  0  1  0  0  0  0  0  0  0  0  0
   11.8959   -2.7117    8.3137 O   0  0  0  0  0  0  0  0  0  0  0  0
   12.6708   -3.7016    3.9261 C   0  0  2  0  0  0  0  0  0  0  0  0
   12.0046   -2.4450    3.7284 O   0  0  0  0  0  0  0  0  0  0  0  0
   18.5210    0.2816   10.2875 C   0  0  0  0  0  0  0  0  0  0  0  0
   18.5611    1.0150   11.4878 O   0  0  0  0  0  0  0  0  0  0  0  0
   11.3709    0.9366   13.1246 C   0  0  1  0  0  0  0  0  0  0  0  0
   11.2385    0.4737   14.4948 O   0  0  0  0  0  0  0  0  0  0  0  0
   13.1636   -2.2009    6.2887 C   0  0  0  0  0  0  0  0  0  0  0  0
   13.8779   -3.4059    6.7604 N   0  0  0  0  0  0  0  0  0  0  0  0
   14.0946   -3.5918    3.3852 C   0  0  0  0  0  0  0  0  0  0  0  0
   14.7607   -2.4428    3.9724 O   0  0  0  0  0  0  0  0  0  0  0  0
  1  2  1  1  0  0  0
  1  8  1  0  0  0  0
  1 36  1  0  0  0  0
  3  4  1  6  0  0  0
  3 10  1  0  0  0  0
  3 47  1  0  0  0  0
  5 11  1  0  0  0  0
  5 30  1  0  0  0  0
  5 38  1  1  0  0  0
  6 21  1  6  0  0  0
  6 42  1  0  0  0  0
  7 15  1  0  0  0  0
  7 44  1  0  0  0  0
  7 32  1  1  0  0  0
  8  9  1  1  0  0  0
  8 17  1  0  0  0  0
 11 12  1  6  0  0  0
 11 20  1  0  0  0  0
 13  6  1  0  0  0  0
 13 14  1  6  0  0  0
 15 16  1  6  0  0  0
 15 24  1  0  0  0  0
 17 26  1  0  0  0  0
 18 10  1  0  0  0  0
 18 19  1  6  0  0  0
 20 21  1  6  0  0  0
 20 29  1  0  0  0  0
 22 13  1  0  0  0  0
 22 23  1  1  0  0  0
 24 25  1  6  0  0  0
 24 33  1  0  0  0  0
 26 27  1  1  0  0  0
 26 35  1  0  0  0  0
 28  2  1  1  0  0  0
 28 18  1  0  0  0  0
 29 30  1  0  0  0  0
 29 39  1  1  0  0  0
 31 22  1  0  0  0  0
 31 32  1  6  0  0  0
 31 41  1  0  0  0  0
 33 34  1  1  0  0  0
 33 43  1  0  0  0  0
 35 36  1  0  0  0  0
 35 45  1  6  0  0  0
 37 28  1  0  0  0  0
 37 38  1  6  0  0  0
 39 40  1  0  0  0  0
 41 42  1  0  0  0  0
 41 49  1  6  0  0  0
 43 44  1  0  0  0  0
 43 51  1  6  0  0  0
 45 46  1  0  0  0  0
 47 37  1  0  0  0  0
 47 48  1  1  0  0  0
 49 50  1  0  0  0  0
 51 52  1  0  0  0  0
M  END
>  <CHROM.1>
-90.80345704,-177.70758455,-125.00463093,162.36852539,-46.33327336,-42.43297266
143.02145935,163.90440819,176.56744226,-60.26819951,-155.64701234,-155.71432484
12.39765357,-1.39171303,8.84283091,-1.39499754,-0.35188911,-2.03903663

>  <Name>
2esj_lig

>  <RI>
0

>  <Rbt.Current_Directory>
/home/itssahil/PROJECTS/Mol_Feturizer/New_Systems/rnas/2esj

>  <Rbt.Executable>
rbdock ($Id: //depot/dev/client3/rdock/2013.1/src/exe/rbdock.cxx#4 $)

>  <Rbt.Library>
libRbt.so (2013.1, Build901 2013/11/27)

>  <Rbt.Parameter_File>
/export/apps/rDock/src/rDock_2013.1_src/data/scripts/dock_solv.prm

>  <Rbt.Receptor>
prm/blind_docking_60.prm

>  <SCORE>
24.0632

>  <SCORE.INTER>
1.37293

>  <SCORE.INTER.CONST>
1

>  <SCORE.INTER.POLAR>
-0.289709

>  <SCORE.INTER.ROT>
12

>  <SCORE.INTER.SOLV>
31.0684

>  <SCORE.INTER.VDW>
-20.0752

>  <SCORE.INTER.norm>
0.0264024

>  <SCORE.INTRA>
13.3224

>  <SCORE.INTRA.DIHEDRAL>
-8.08269

>  <SCORE.INTRA.DIHEDRAL.0>
32.9766

>  <SCORE.INTRA.POLAR>
0

>  <SCORE.INTRA.POLAR.0>
0

>  <SCORE.INTRA.REPUL>
0

>  <SCORE.INTRA.REPUL.0>
0

>  <SCORE.INTRA.SOLV>
13.5615

>  <SCORE.INTRA.SOLV.lig_0>
-114.358

>  <SCORE.INTRA.VDW>
10.5829

>  <SCORE.INTRA.VDW.0>
-8.24257

>  <SCORE.INTRA.norm>
0.2562

>  <SCORE.RESTR>
9.36791

>  <SCORE.RESTR.CAVITY>
9.36791

>  <SCORE.RESTR.norm>
0.180152

>  <SCORE.SYSTEM>
0

>  <SCORE.SYSTEM.CONST>
0

>  <SCORE.SYSTEM.DIHEDRAL>
0

>  <SCORE.SYSTEM.SOLV>
0

>  <SCORE.SYSTEM.norm>
0

>  <SCORE.heavy>
52

>  <SCORE.norm>
0.462754

>  <RMSD>
15.106

$$$$
2esj_lig
 OpenBabel11021811423D
libRbt.so/2013.1/901 2013/11/27
 52 56  0  0  0  0  0  0  0  0999 V2000
   13.6515   -1.9185    5.7893 C   0  0  2  0  0  0  0  0  0  0  0  0
   14.6739   -2.2824    4.8422 O   0  0  0  0  0  0  0  0  0  0  0  0
   18.8608   -1.4407    4.6203 C   0  0  2  0  0  0  0  0  0  0  0  0
   20.1759   -0.8159    4.4024 N   0  0  0  0  0  0  0  0  0  0  0  0
   15.6357   -1.1788    8.2213 C   0  0  1  0  0  0  0  0  0  0  0  0
   14.6599   -2.4759   11.7663 C   0  0  1  0  0  0  0  0  0  0  0  0
   10.2046   -1.5083   10.1824 C   0  0  1  0  0  0  0  0  0  0  0  0
   13.4486   -3.1288    6.7480 C   0  0  2  0  0  0  0  0  0  0  0  0
   14.6911   -3.5240    7.4108 N   0  0  0  0  0  0  0  0  0  0  0  0
   18.0318   -1.4585    3.2750 C   0  0  0  0  0  0  0  0  0  0  0  0
   16.4607   -0.4580    9.2883 C   0  0  2  0  0  0  0  0  0  0  0  0
   17.7842   -1.0175    9.4320 O   0  0  0  0  0  0  0  0  0  0  0  0
   13.9985   -3.6099   10.8620 C   0  0  2  0  0  0  0  0  0  0  0  0
   13.7076   -3.1017    9.4952 N   0  0  0  0  0  0  0  0  0  0  0  0
    9.0606   -2.3604    9.6450 C   0  0  1  0  0  0  0  0  0  0  0  0
    7.8081   -1.7057    9.9298 O   0  0  0  0  0  0  0  0  0  0  0  0
   12.8437   -4.3494    5.9843 C   0  0  0  0  0  0  0  0  0  0  0  0
   16.6478   -2.1857    3.5146 C   0  0  2  0  0  0  0  0  0  0  0  0
   15.8521   -2.2038    2.2828 N   0  0  0  0  0  0  0  0  0  0  0  0
   15.5787   -0.6447   10.4889 C   0  0  2  0  0  0  0  0  0  0  0  0
   15.6950   -1.9538   10.9862 O   0  0  0  0  0  0  0  0  0  0  0  0
   12.7467   -4.2214   11.6329 C   0  0  1  0  0  0  0  0  0  0  0  0
   13.1573   -4.6080   12.9485 O   0  0  0  0  0  0  0  0  0  0  0  0
    9.1110   -2.6497    8.1497 C   0  0  1  0  0  0  0  0  0  0  0  0
    7.8590   -3.2446    7.7910 O   0  0  0  0  0  0  0  0  0  0  0  0
   11.5360   -3.8975    5.2691 C   0  0  2  0  0  0  0  0  0  0  0  0
   10.8916   -4.9777    4.6180 O   0  0  0  0  0  0  0  0  0  0  0  0
   15.8613   -1.4896    4.6556 C   0  0  2  0  0  0  0  0  0  0  0  0
   14.1299   -0.5719    9.9644 C   0  0  2  0  0  0  0  0  0  0  0  0
   14.2692   -1.0706    8.6435 O   0  0  0  0  0  0  0  0  0  0  0  0
   11.6079   -3.1394   11.8366 C   0  0  2  0  0  0  0  0  0  0  0  0
   11.2003   -2.8033   10.5095 O   0  0  0  0  0  0  0  0  0  0  0  0
    9.3468   -1.4073    7.2890 C   0  0  2  0  0  0  0  0  0  0  0  0
    9.6787   -1.8708    5.9700 O   0  0  0  0  0  0  0  0  0  0  0  0
   11.8903   -2.7626    4.2763 C   0  0  2  0  0  0  0  0  0  0  0  0
   12.4311   -1.6583    5.0567 O   0  0  0  0  0  0  0  0  0  0  0  0
   16.6681   -1.3305    5.9839 C   0  0  2  0  0  0  0  0  0  0  0  0
   15.8669   -0.6018    6.9552 O   0  0  0  0  0  0  0  0  0  0  0  0
   13.4920    0.8161    9.9164 C   0  0  0  0  0  0  0  0  0  0  0  0
   13.4182    1.3048   11.2638 O   0  0  0  0  0  0  0  0  0  0  0  0
   12.3065   -1.9049   12.3735 C   0  0  1  0  0  0  0  0  0  0  0  0
   13.6395   -1.4104   12.1220 O   0  0  0  0  0  0  0  0  0  0  0  0
   10.3902   -0.4858    7.9110 C   0  0  2  0  0  0  0  0  0  0  0  0
   10.5411   -0.3830    9.3352 O   0  0  0  0  0  0  0  0  0  0  0  0
   10.6999   -2.2159    3.5645 C   0  0  0  0  0  0  0  0  0  0  0  0
   11.0265   -0.9173    3.1322 O   0  0  0  0  0  0  0  0  0  0  0  0
   18.0551   -0.6548    5.7160 C   0  0  1  0  0  0  0  0  0  0  0  0
   18.8122   -0.7222    6.9536 O   0  0  0  0  0  0  0  0  0  0  0  0
   11.3907   -0.7045   12.7648 C   0  0  0  0  0  0  0  0  0  0  0  0
   11.3721   -0.4300   14.2170 N   0  0  0  0  0  0  0  0  0  0  0  0
   10.8195    0.8349    7.2761 C   0  0  0  0  0  0  0  0  0  0  0  0
    9.6562    1.6694    7.0330 O   0  0  0  0  0  0  0  0  0  0  0  0
  1  2  1  6  0  0  0
  1  8  1  0  0  0  0
  1 36  1  0  0  0  0
  3  4  1  6  0  0  0
  3 10  1  0  0  0  0
  3 47  1  0  0  0  0
  5 11  1  0  0  0  0
  5 30  1  0  0  0  0
  5 38  1  6  0  0  0
  6 21  1  6  0  0  0
  6 42  1  0  0  0  0
  7 15  1  0  0  0  0
  7 44  1  0  0  0  0
  7 32  1  6  0  0  0
  8  9  1  6  0  0  0
  8 17  1  0  0  0  0
 11 12  1  1  0  0  0
 11 20  1  0  0  0  0
 13  6  1  0  0  0  0
 13 14  1  6  0  0  0
 15 16  1  6  0  0  0
 15 24  1  0  0  0  0
 17 26  1  0  0  0  0
 18 10  1  0  0  0  0
 18 19  1  6  0  0  0
 20 21  1  6  0  0  0
 20 29  1  0  0  0  0
 22 13  1  0  0  0  0
 22 23  1  1  0  0  0
 24 25  1  6  0  0  0
 24 33  1  0  0  0  0
 26 27  1  6  0  0  0
 26 35  1  0  0  0  0
 28  2  1  1  0  0  0
 28 18  1  0  0  0  0
 29 30  1  0  0  0  0
 29 39  1  6  0  0  0
 31 22  1  0  0  0  0
 31 32  1  6  0  0  0
 31 41  1  0  0  0  0
 33 34  1  6  0  0  0
 33 43  1  0  0  0  0
 35 36  1  0  0  0  0
 35 45  1  1  0  0  0
 37 28  1  0  0  0  0
 37 38  1  1  0  0  0
 39 40  1  0  0  0  0
 41 42  1  0  0  0  0
 41 49  1  6  0  0  0
 43 44  1  0  0  0  0
 43 51  1  1  0  0  0
 45 46  1  0  0  0  0
 47 37  1  0  0  0  0
 47 48  1  1  0  0  0
 49 50  1  0  0  0  0
 51 52  1  0  0  0  0
M  END
>  <CHROM.1>
-124.29744149,106.81987981,111.02089817,-115.75168183,-157.73713550,-177.29998998
-62.88469575,-169.05352312,157.13983796,125.17569415,112.65993434,54.68236415
13.29537420,-1.73109769,7.97423457,0.77911267,-0.10447384,-1.63578685

>  <Name>
2esj_lig

>  <RI>
0

>  <Rbt.Current_Directory>
/home/itssahil/PROJECTS/Mol_Feturizer/New_Systems/rnas/2esj

>  <Rbt.Executable>
rbdock ($Id: //depot/dev/client3/rdock/2013.1/src/exe/rbdock.cxx#4 $)

>  <Rbt.Library>
libRbt.so (2013.1, Build901 2013/11/27)

>  <Rbt.Parameter_File>
/export/apps/rDock/src/rDock_2013.1_src/data/scripts/dock_solv.prm

>  <Rbt.Receptor>
prm/blind_docking_40.prm

>  <SCORE>
32.8824

>  <SCORE.INTER>
-7.02276

>  <SCORE.INTER.CONST>
1

>  <SCORE.INTER.POLAR>
-1.11165

>  <SCORE.INTER.ROT>
12

>  <SCORE.INTER.SOLV>
26.086

>  <SCORE.INTER.VDW>
-21.2717

>  <SCORE.INTER.norm>
-0.135053

>  <SCORE.INTRA>
24.1197

>  <SCORE.INTRA.DIHEDRAL>
10.9276

>  <SCORE.INTRA.DIHEDRAL.0>
32.9766

>  <SCORE.INTRA.POLAR>
0

>  <SCORE.INTRA.POLAR.0>
0

>  <SCORE.INTRA.REPUL>
0

>  <SCORE.INTRA.REPUL.0>
0

>  <SCORE.INTRA.SOLV>
10.5117

>  <SCORE.INTRA.SOLV.lig_0>
-114.358

>  <SCORE.INTRA.VDW>
13.4001

>  <SCORE.INTRA.VDW.0>
-8.24257

>  <SCORE.INTRA.norm>
0.46384

>  <SCORE.RESTR>
15.7854

>  <SCORE.RESTR.CAVITY>
15.7854

>  <SCORE.RESTR.norm>
0.303566

>  <SCORE.SYSTEM>
0

>  <SCORE.SYSTEM.CONST>
0

>  <SCORE.SYSTEM.DIHEDRAL>
0

>  <SCORE.SYSTEM.SOLV>
0

>  <SCORE.SYSTEM.norm>
0

>  <SCORE.heavy>
52

>  <SCORE.norm>
0.632354

>  <RMSD>
15.111

$$$$
2esj_lig
 OpenBabel11021811423D
libRbt.so/2013.1/901 2013/11/27
 52 56  0  0  0  0  0  0  0  0999 V2000
   10.8316   -2.9341   12.4719 C   0  0  2  0  0  0  0  0  0  0  0  0
   12.2088   -2.5859   12.7105 O   0  0  0  0  0  0  0  0  0  0  0  0
   15.9682   -3.7736   11.0540 C   0  0  2  0  0  0  0  0  0  0  0  0
   17.0896   -4.0870   10.1531 N   0  0  0  0  0  0  0  0  0  0  0  0
   13.2557   -0.0131   10.9670 C   0  0  1  0  0  0  0  0  0  0  0  0
   11.3035    1.0175    8.0134 C   0  0  1  0  0  0  0  0  0  0  0  0
    7.6659   -1.8767    7.2301 C   0  0  1  0  0  0  0  0  0  0  0  0
   10.4452   -2.3825   11.0678 C   0  0  2  0  0  0  0  0  0  0  0  0
   11.3259   -2.8856   10.0141 N   0  0  0  0  0  0  0  0  0  0  0  0
   14.6768   -4.5760   10.6227 C   0  0  0  0  0  0  0  0  0  0  0  0
   12.9112    1.4588   11.1981 C   0  0  2  0  0  0  0  0  0  0  0  0
   11.7721    1.6274   12.0695 O   0  0  0  0  0  0  0  0  0  0  0  0
    9.7351    0.8553    7.7788 C   0  0  2  0  0  0  0  0  0  0  0  0
    9.1056    0.0878    8.8859 N   0  0  0  0  0  0  0  0  0  0  0  0
    7.5561   -2.8431    8.4038 C   0  0  1  0  0  0  0  0  0  0  0  0
    6.4234   -2.4749    9.2161 O   0  0  0  0  0  0  0  0  0  0  0  0
   10.4501   -0.8207   11.0620 C   0  0  0  0  0  0  0  0  0  0  0  0
   13.5009   -4.2723   11.6360 C   0  0  2  0  0  0  0  0  0  0  0  0
   12.2848   -4.9954   11.2499 N   0  0  0  0  0  0  0  0  0  0  0  0
   12.6788    1.9108    9.7854 C   0  0  2  0  0  0  0  0  0  0  0  0
   11.4240    1.4735    9.3288 O   0  0  0  0  0  0  0  0  0  0  0  0
    9.4889    0.2603    6.3227 C   0  0  1  0  0  0  0  0  0  0  0  0
   10.2010    1.0573    5.3707 O   0  0  0  0  0  0  0  0  0  0  0  0
    7.4065   -4.3119    8.0259 C   0  0  1  0  0  0  0  0  0  0  0  0
    7.0829   -5.0264    9.2237 O   0  0  0  0  0  0  0  0  0  0  0  0
    9.5246   -0.3105   12.2060 C   0  0  2  0  0  0  0  0  0  0  0  0
    9.4216    1.1022   12.2096 O   0  0  0  0  0  0  0  0  0  0  0  0
   13.2246   -2.7478   11.7030 C   0  0  2  0  0  0  0  0  0  0  0  0
   13.6856    1.1258    8.9194 C   0  0  2  0  0  0  0  0  0  0  0  0
   13.8289   -0.0796    9.6538 O   0  0  0  0  0  0  0  0  0  0  0  0
   10.0799   -1.2033    6.1884 C   0  0  2  0  0  0  0  0  0  0  0  0
    9.3255   -1.9747    7.1245 O   0  0  0  0  0  0  0  0  0  0  0  0
    6.3267   -4.5709    6.9737 C   0  0  2  0  0  0  0  0  0  0  0  0
    6.5182   -5.9146    6.5021 O   0  0  0  0  0  0  0  0  0  0  0  0
   10.0727   -0.8458   13.5522 C   0  0  2  0  0  0  0  0  0  0  0  0
   10.0238   -2.3001   13.4915 O   0  0  0  0  0  0  0  0  0  0  0  0
   14.4885   -1.8815   12.0080 C   0  0  2  0  0  0  0  0  0  0  0  0
   14.1318   -0.4716   11.9727 O   0  0  0  0  0  0  0  0  0  0  0  0
   15.0597    1.7655    8.7240 C   0  0  0  0  0  0  0  0  0  0  0  0
   15.6746    1.8723   10.0164 O   0  0  0  0  0  0  0  0  0  0  0  0
   11.4843   -1.1321    6.7565 C   0  0  1  0  0  0  0  0  0  0  0  0
   12.0152   -0.3084    7.8168 O   0  0  0  0  0  0  0  0  0  0  0  0
    6.3490   -3.5120    5.8770 C   0  0  2  0  0  0  0  0  0  0  0  0
    6.7377   -2.1579    6.1546 O   0  0  0  0  0  0  0  0  0  0  0  0
    9.2333   -0.4569   14.7212 C   0  0  0  0  0  0  0  0  0  0  0  0
    9.5877    0.8578   15.0763 O   0  0  0  0  0  0  0  0  0  0  0  0
   15.6562   -2.2343   11.0260 C   0  0  1  0  0  0  0  0  0  0  0  0
   16.8393   -1.5356   11.4967 O   0  0  0  0  0  0  0  0  0  0  0  0
   12.3415   -2.4310    6.6520 C   0  0  0  0  0  0  0  0  0  0  0  0
   11.6185   -3.5628    6.0348 N   0  0  0  0  0  0  0  0  0  0  0  0
    5.3762   -3.5111    4.7000 C   0  0  0  0  0  0  0  0  0  0  0  0
    4.3348   -2.5230    4.9185 O   0  0  0  0  0  0  0  0  0  0  0  0
  1  2  1  1  0  0  0
  1  8  1  0  0  0  0
  1 36  1  0  0  0  0
  3  4  1  6  0  0  0
  3 10  1  0  0  0  0
  3 47  1  0  0  0  0
  5 11  1  0  0  0  0
  5 30  1  0  0  0  0
  5 38  1  1  0  0  0
  6 21  1  1  0  0  0
  6 42  1  0  0  0  0
  7 15  1  0  0  0  0
  7 44  1  0  0  0  0
  7 32  1  6  0  0  0
  8  9  1  6  0  0  0
  8 17  1  0  0  0  0
 11 12  1  1  0  0  0
 11 20  1  0  0  0  0
 13  6  1  0  0  0  0
 13 14  1  1  0  0  0
 15 16  1  6  0  0  0
 15 24  1  0  0  0  0
 17 26  1  0  0  0  0
 18 10  1  0  0  0  0
 18 19  1  6  0  0  0
 20 21  1  6  0  0  0
 20 29  1  0  0  0  0
 22 13  1  0  0  0  0
 22 23  1  6  0  0  0
 24 25  1  1  0  0  0
 24 33  1  0  0  0  0
 26 27  1  1  0  0  0
 26 35  1  0  0  0  0
 28  2  1  1  0  0  0
 28 18  1  0  0  0  0
 29 30  1  0  0  0  0
 29 39  1  1  0  0  0
 31 22  1  0  0  0  0
 31 32  1  1  0  0  0
 31 41  1  0  0  0  0
 33 34  1  6  0  0  0
 33 43  1  0  0  0  0
 35 36  1  0  0  0  0
 35 45  1  1  0  0  0
 37 28  1  0  0  0  0
 37 38  1  6  0  0  0
 39 40  1  0  0  0  0
 41 42  1  0  0  0  0
 41 49  1  1  0  0  0
 43 44  1  0  0  0  0
 43 51  1  1  0  0  0
 45 46  1  0  0  0  0
 47 37  1  0  0  0  0
 47 48  1  1  0  0  0
 49 50  1  0  0  0  0
 51 52  1  0  0  0  0
M  END
>  <CHROM.1>
-44.51873078,174.47100404,-170.45660595,-177.26358998,-140.38011618,-74.65825400
62.21267214,46.48366761,-81.34797095,-40.85543868,-1.63035340,102.28787926
10.92866972,-1.49974972,9.55226529,0.52430756,0.37620486,1.73510272

>  <Name>
2esj_lig

>  <RI>
0

>  <Rbt.Current_Directory>
/home/itssahil/PROJECTS/Mol_Feturizer/New_Systems/rnas/2esj

>  <Rbt.Executable>
rbdock ($Id: //depot/dev/client3/rdock/2013.1/src/exe/rbdock.cxx#4 $)

>  <Rbt.Library>
libRbt.so (2013.1, Build901 2013/11/27)

>  <Rbt.Parameter_File>
/export/apps/rDock/src/rDock_2013.1_src/data/scripts/dock_solv.prm

>  <Rbt.Receptor>
prm/blind_docking_60.prm

>  <SCORE>
7.56172

>  <SCORE.INTER>
-15.0042

>  <SCORE.INTER.CONST>
1

>  <SCORE.INTER.POLAR>
-1.40552

>  <SCORE.INTER.ROT>
12

>  <SCORE.INTER.SOLV>
23.0599

>  <SCORE.INTER.VDW>
-24.6044

>  <SCORE.INTER.norm>
-0.288542

>  <SCORE.INTRA>
10.515

>  <SCORE.INTRA.DIHEDRAL>
-14.5882

>  <SCORE.INTRA.DIHEDRAL.0>
32.9766

>  <SCORE.INTRA.POLAR>
0

>  <SCORE.INTRA.POLAR.0>
0

>  <SCORE.INTRA.REPUL>
0

>  <SCORE.INTRA.REPUL.0>
0

>  <SCORE.INTRA.SOLV>
12.6482

>  <SCORE.INTRA.SOLV.lig_0>
-114.358

>  <SCORE.INTRA.VDW>
11.4851

>  <SCORE.INTRA.VDW.0>
-8.24257

>  <SCORE.INTRA.norm>
0.202212

>  <SCORE.RESTR>
12.0509

>  <SCORE.RESTR.CAVITY>
12.0509

>  <SCORE.RESTR.norm>
0.231747

>  <SCORE.SYSTEM>
0

>  <SCORE.SYSTEM.CONST>
0

>  <SCORE.SYSTEM.DIHEDRAL>
0

>  <SCORE.SYSTEM.SOLV>
0

>  <SCORE.SYSTEM.norm>
0

>  <SCORE.heavy>
52

>  <SCORE.norm>
0.145418

>  <RMSD>
15.216

$$$$
2esj_lig
 OpenBabel11021811423D
libRbt.so/2013.1/901 2013/11/27
 52 56  0  0  0  0  0  0  0  0999 V2000
   12.2430   -1.7912   13.1886 C   0  0  2  0  0  0  0  0  0  0  0  0
   12.1077   -2.1103   11.7905 O   0  0  0  0  0  0  0  0  0  0  0  0
   15.4937   -4.6734   11.2878 C   0  0  2  0  0  0  0  0  0  0  0  0
   16.5369   -5.5621   10.7498 N   0  0  0  0  0  0  0  0  0  0  0  0
   14.0223   -0.7770    9.3451 C   0  0  1  0  0  0  0  0  0  0  0  0
   12.0376    0.0170    7.6997 C   0  0  1  0  0  0  0  0  0  0  0  0
    8.3483   -3.2164    6.4033 C   0  0  1  0  0  0  0  0  0  0  0  0
   10.9910   -0.9632   13.6036 C   0  0  2  0  0  0  0  0  0  0  0  0
    9.7420   -1.6707   13.3235 N   0  0  0  0  0  0  0  0  0  0  0  0
   14.0596   -5.2655   10.9874 C   0  0  0  0  0  0  0  0  0  0  0  0
   14.3547    0.6204    8.8202 C   0  0  2  0  0  0  0  0  0  0  0  0
   13.3741    1.6043    9.2145 O   0  0  0  0  0  0  0  0  0  0  0  0
   11.7097   -1.5364    7.5568 C   0  0  2  0  0  0  0  0  0  0  0  0
   11.5814   -1.9264    6.1277 N   0  0  0  0  0  0  0  0  0  0  0  0
    7.6193   -2.8746    5.1090 C   0  0  1  0  0  0  0  0  0  0  0  0
    7.6141   -4.0314    4.2486 O   0  0  0  0  0  0  0  0  0  0  0  0
   10.9828    0.4281   12.8941 C   0  0  0  0  0  0  0  0  0  0  0  0
   12.9554   -4.3288   11.6237 C   0  0  2  0  0  0  0  0  0  0  0  0
   11.6125   -4.8494   11.3472 N   0  0  0  0  0  0  0  0  0  0  0  0
   14.4017    0.3543    7.3433 C   0  0  2  0  0  0  0  0  0  0  0  0
   13.1017    0.2409    6.8221 O   0  0  0  0  0  0  0  0  0  0  0  0
   10.4489   -1.8843    8.4649 C   0  0  1  0  0  0  0  0  0  0  0  0
   10.6848   -1.3975    9.7901 O   0  0  0  0  0  0  0  0  0  0  0  0
    6.1787   -2.4069    5.2772 C   0  0  1  0  0  0  0  0  0  0  0  0
    5.5923   -2.3639    3.9716 O   0  0  0  0  0  0  0  0  0  0  0  0
   12.3308    1.1507   13.1881 C   0  0  2  0  0  0  0  0  0  0  0  0
   12.3604    2.4549   12.6366 O   0  0  0  0  0  0  0  0  0  0  0  0
   13.0958   -2.8822   11.0827 C   0  0  2  0  0  0  0  0  0  0  0  0
   14.9912   -1.0627    7.1877 C   0  0  2  0  0  0  0  0  0  0  0  0
   14.5582   -1.6948    8.3819 O   0  0  0  0  0  0  0  0  0  0  0  0
    9.1468   -1.1391    7.9567 C   0  0  2  0  0  0  0  0  0  0  0  0
    8.9231   -1.6725    6.6506 O   0  0  0  0  0  0  0  0  0  0  0  0
    5.3384   -3.3111    6.1807 C   0  0  2  0  0  0  0  0  0  0  0  0
    4.1350   -2.5892    6.4897 O   0  0  0  0  0  0  0  0  0  0  0  0
   13.4840    0.2735   12.6405 C   0  0  2  0  0  0  0  0  0  0  0  0
   13.4396   -0.9948   13.3549 O   0  0  0  0  0  0  0  0  0  0  0  0
   14.5275   -2.2769   11.2397 C   0  0  2  0  0  0  0  0  0  0  0  0
   14.5654   -0.9545   10.6345 O   0  0  0  0  0  0  0  0  0  0  0  0
   16.5131   -1.1599    7.0872 C   0  0  0  0  0  0  0  0  0  0  0  0
   16.8423   -2.5318    6.8243 O   0  0  0  0  0  0  0  0  0  0  0  0
    9.5580    0.3049    7.7424 C   0  0  1  0  0  0  0  0  0  0  0  0
   10.8279    0.8566    7.3328 O   0  0  0  0  0  0  0  0  0  0  0  0
    6.1267   -3.7686    7.4029 C   0  0  2  0  0  0  0  0  0  0  0  0
    7.5464   -3.9745    7.3413 O   0  0  0  0  0  0  0  0  0  0  0  0
   14.8333    0.8474   12.9095 C   0  0  0  0  0  0  0  0  0  0  0  0
   15.7859   -0.0871   12.4628 O   0  0  0  0  0  0  0  0  0  0  0  0
   15.6090   -3.2431   10.6489 C   0  0  1  0  0  0  0  0  0  0  0  0
   16.9089   -2.7033   11.0068 O   0  0  0  0  0  0  0  0  0  0  0  0
    8.4246    1.2958    7.3347 C   0  0  0  0  0  0  0  0  0  0  0  0
    7.1068    0.9467    7.9059 N   0  0  0  0  0  0  0  0  0  0  0  0
    5.5442   -4.6885    8.4735 C   0  0  0  0  0  0  0  0  0  0  0  0
    5.6298   -4.0507    9.7752 O   0  0  0  0  0  0  0  0  0  0  0  0
  1  2  1  6  0  0  0
  1  8  1  0  0  0  0
  1 36  1  0  0  0  0
  3  4  1  6  0  0  0
  3 10  1  0  0  0  0
  3 47  1  0  0  0  0
  5 11  1  0  0  0  0
  5 30  1  0  0  0  0
  5 38  1  1  0  0  0
  6 21  1  6  0  0  0
  6 42  1  0  0  0  0
  7 15  1  0  0  0  0
  7 44  1  0  0  0  0
  7 32  1  1  0  0  0
  8  9  1  6  0  0  0
  8 17  1  0  0  0  0
 11 12  1  6  0  0  0
 11 20  1  0  0  0  0
 13  6  1  0  0  0  0
 13 14  1  6  0  0  0
 15 16  1  6  0  0  0
 15 24  1  0  0  0  0
 17 26  1  0  0  0  0
 18 10  1  0  0  0  0
 18 19  1  6  0  0  0
 20 21  1  1  0  0  0
 20 29  1  0  0  0  0
 22 13  1  0  0  0  0
 22 23  1  1  0  0  0
 24 25  1  6  0  0  0
 24 33  1  0  0  0  0
 26 27  1  6  0  0  0
 26 35  1  0  0  0  0
 28  2  1  1  0  0  0
 28 18  1  0  0  0  0
 29 30  1  0  0  0  0
 29 39  1  1  0  0  0
 31 22  1  0  0  0  0
 31 32  1  6  0  0  0
 31 41  1  0  0  0  0
 33 34  1  1  0  0  0
 33 43  1  0  0  0  0
 35 36  1  0  0  0  0
 35 45  1  1  0  0  0
 37 28  1  0  0  0  0
 37 38  1  6  0  0  0
 39 40  1  0  0  0  0
 41 42  1  0  0  0  0
 41 49  1  6  0  0  0
 43 44  1  0  0  0  0
 43 51  1  6  0  0  0
 45 46  1  0  0  0  0
 47 37  1  0  0  0  0
 47 48  1  1  0  0  0
 49 50  1  0  0  0  0
 51 52  1  0  0  0  0
M  END
>  <CHROM.1>
-179.57244032,-171.42539571,-102.14742701,149.22690626,-17.16954373,71.05585770
-174.71063833,73.18166401,175.35639823,-47.39862983,31.93228878,-123.17289477
11.45251698,-1.66109137,9.19121317,0.53103169,0.08809228,1.46646206

>  <Name>
2esj_lig

>  <RI>
0

>  <Rbt.Current_Directory>
/home/itssahil/PROJECTS/Mol_Feturizer/New_Systems/rnas/2esj

>  <Rbt.Executable>
rbdock ($Id: //depot/dev/client3/rdock/2013.1/src/exe/rbdock.cxx#4 $)

>  <Rbt.Library>
libRbt.so (2013.1, Build901 2013/11/27)

>  <Rbt.Parameter_File>
/export/apps/rDock/src/rDock_2013.1_src/data/scripts/dock_solv.prm

>  <Rbt.Receptor>
prm/blind_docking_60.prm

>  <SCORE>
34.8401

>  <SCORE.INTER>
15.548

>  <SCORE.INTER.CONST>
1

>  <SCORE.INTER.POLAR>
-0.39985

>  <SCORE.INTER.ROT>
12

>  <SCORE.INTER.SOLV>
27.1591

>  <SCORE.INTER.VDW>
-8.95486

>  <SCORE.INTER.norm>
0.299

>  <SCORE.INTRA>
8.92323

>  <SCORE.INTRA.DIHEDRAL>
-8.53473

>  <SCORE.INTRA.DIHEDRAL.0>
32.9766

>  <SCORE.INTRA.POLAR>
0

>  <SCORE.INTRA.POLAR.0>
0

>  <SCORE.INTRA.REPUL>
0.53916

>  <SCORE.INTRA.REPUL.0>
0

>  <SCORE.INTRA.SOLV>
2.0504

>  <SCORE.INTRA.SOLV.lig_0>
-114.358

>  <SCORE.INTRA.VDW>
9.46959

>  <SCORE.INTRA.VDW.0>
-8.24257

>  <SCORE.INTRA.norm>
0.171601

>  <SCORE.RESTR>
10.3688

>  <SCORE.RESTR.CAVITY>
10.3688

>  <SCORE.RESTR.norm>
0.199401

>  <SCORE.SYSTEM>
0

>  <SCORE.SYSTEM.CONST>
0

>  <SCORE.SYSTEM.DIHEDRAL>
0

>  <SCORE.SYSTEM.SOLV>
0

>  <SCORE.SYSTEM.norm>
0

>  <SCORE.heavy>
52

>  <SCORE.norm>
0.670002

>  <RMSD>
15.299

$$$$
2esj_lig
 OpenBabel11021811423D
libRbt.so/2013.1/901 2013/11/27
 52 56  0  0  0  0  0  0  0  0999 V2000
   12.5412   -1.5069   12.4300 C   0  0  2  0  0  0  0  0  0  0  0  0
   12.6853   -2.1350   11.1417 O   0  0  0  0  0  0  0  0  0  0  0  0
   16.1729   -4.4925   11.8948 C   0  0  2  0  0  0  0  0  0  0  0  0
   17.2650   -5.4775   11.8278 N   0  0  0  0  0  0  0  0  0  0  0  0
   14.7804   -1.9785    8.3625 C   0  0  1  0  0  0  0  0  0  0  0  0
   12.6495   -2.0579    4.8748 C   0  0  1  0  0  0  0  0  0  0  0  0
    7.8239   -4.2857    5.4989 C   0  0  1  0  0  0  0  0  0  0  0  0
   11.2892   -0.5832   12.3635 C   0  0  2  0  0  0  0  0  0  0  0  0
   10.0831   -1.3130   11.9740 N   0  0  0  0  0  0  0  0  0  0  0  0
   14.7719   -5.2231   11.8628 C   0  0  0  0  0  0  0  0  0  0  0  0
   14.1622   -0.8536    7.5313 C   0  0  2  0  0  0  0  0  0  0  0  0
   12.7377   -0.7359    7.7371 O   0  0  0  0  0  0  0  0  0  0  0  0
   11.4798   -1.5968    5.8548 C   0  0  2  0  0  0  0  0  0  0  0  0
   11.3089   -2.5608    6.9739 N   0  0  0  0  0  0  0  0  0  0  0  0
    6.9869   -3.0129    5.4460 C   0  0  1  0  0  0  0  0  0  0  0  0
    5.7330   -3.2974    4.7938 O   0  0  0  0  0  0  0  0  0  0  0  0
   11.5275    0.6087   11.3828 C   0  0  0  0  0  0  0  0  0  0  0  0
   13.6135   -4.1544   11.9953 C   0  0  2  0  0  0  0  0  0  0  0  0
   12.3003   -4.8063   11.9547 N   0  0  0  0  0  0  0  0  0  0  0  0
   14.5513   -1.2893    6.1482 C   0  0  2  0  0  0  0  0  0  0  0  0
   13.7292   -2.3432    5.7147 O   0  0  0  0  0  0  0  0  0  0  0  0
   10.1664   -1.3207    4.9982 C   0  0  1  0  0  0  0  0  0  0  0  0
   10.4924   -0.4314    3.9250 O   0  0  0  0  0  0  0  0  0  0  0  0
    6.6810   -2.3782    6.7972 C   0  0  1  0  0  0  0  0  0  0  0  0
    5.7066   -1.3533    6.5728 O   0  0  0  0  0  0  0  0  0  0  0  0
   12.8282    1.3546   11.8042 C   0  0  2  0  0  0  0  0  0  0  0  0
   13.0637    2.4973   11.0011 O   0  0  0  0  0  0  0  0  0  0  0  0
   13.7248   -3.0934   10.8698 C   0  0  2  0  0  0  0  0  0  0  0  0
   15.9454   -1.9353    6.2851 C   0  0  2  0  0  0  0  0  0  0  0  0
   15.9011   -2.4550    7.6046 O   0  0  0  0  0  0  0  0  0  0  0  0
    9.6330   -2.6459    4.3138 C   0  0  2  0  0  0  0  0  0  0  0  0
    9.2867   -3.4935    5.4102 O   0  0  0  0  0  0  0  0  0  0  0  0
    6.1473   -3.3663    7.8359 C   0  0  2  0  0  0  0  0  0  0  0  0
    6.2076   -2.7048    9.1100 O   0  0  0  0  0  0  0  0  0  0  0  0
   14.0087    0.3545   11.7335 C   0  0  2  0  0  0  0  0  0  0  0  0
   13.7266   -0.7156   12.6802 O   0  0  0  0  0  0  0  0  0  0  0  0
   15.1283   -2.4147   10.7674 C   0  0  2  0  0  0  0  0  0  0  0  0
   15.1440   -1.4981    9.6377 O   0  0  0  0  0  0  0  0  0  0  0  0
   17.1460   -0.9992    6.1502 C   0  0  0  0  0  0  0  0  0  0  0  0
   18.3136   -1.7338    6.5460 O   0  0  0  0  0  0  0  0  0  0  0  0
   10.8445   -3.2898    3.6674 C   0  0  1  0  0  0  0  0  0  0  0  0
   12.2296   -3.2774    4.0749 O   0  0  0  0  0  0  0  0  0  0  0  0
    6.8962   -4.6932    7.7820 C   0  0  2  0  0  0  0  0  0  0  0  0
    7.4269   -5.2013    6.5483 O   0  0  0  0  0  0  0  0  0  0  0  0
   15.3058    0.9499   12.1641 C   0  0  0  0  0  0  0  0  0  0  0  0
   15.8059    1.6988   11.0828 O   0  0  0  0  0  0  0  0  0  0  0  0
   16.2633   -3.4907   10.6883 C   0  0  1  0  0  0  0  0  0  0  0  0
   17.5299   -2.7876   10.7925 O   0  0  0  0  0  0  0  0  0  0  0  0
   10.5801   -4.5755    2.8249 C   0  0  0  0  0  0  0  0  0  0  0  0
   11.6664   -5.5732    2.9207 N   0  0  0  0  0  0  0  0  0  0  0  0
    6.5709   -5.8712    8.6975 C   0  0  0  0  0  0  0  0  0  0  0  0
    5.1518   -5.8826    9.0053 O   0  0  0  0  0  0  0  0  0  0  0  0
  1  2  1  6  0  0  0
  1  8  1  0  0  0  0
  1 36  1  0  0  0  0
  3  4  1  6  0  0  0
  3 10  1  0  0  0  0
  3 47  1  0  0  0  0
  5 11  1  0  0  0  0
  5 30  1  0  0  0  0
  5 38  1  1  0  0  0
  6 21  1  1  0  0  0
  6 42  1  0  0  0  0
  7 15  1  0  0  0  0
  7 44  1  0  0  0  0
  7 32  1  1  0  0  0
  8  9  1  6  0  0  0
  8 17  1  0  0  0  0
 11 12  1  6  0  0  0
 11 20  1  0  0  0  0
 13  6  1  0  0  0  0
 13 14  1  1  0  0  0
 15 16  1  1  0  0  0
 15 24  1  0  0  0  0
 17 26  1  0  0  0  0
 18 10  1  0  0  0  0
 18 19  1  6  0  0  0
 20 21  1  1  0  0  0
 20 29  1  0  0  0  0
 22 13  1  0  0  0  0
 22 23  1  6  0  0  0
 24 25  1  6  0  0  0
 24 33  1  0  0  0  0
 26 27  1  6  0  0  0
 26 35  1  0  0  0  0
 28  2  1  1  0  0  0
 28 18  1  0  0  0  0
 29 30  1  0  0  0  0
 29 39  1  1  0  0  0
 31 22  1  0  0  0  0
 31 32  1  1  0  0  0
 31 41  1  0  0  0  0
 33 34  1  1  0  0  0
 33 43  1  0  0  0  0
 35 36  1  0  0  0  0
 35 45  1  1  0  0  0
 37 28  1  0  0  0  0
 37 38  1  6  0  0  0
 39 40  1  0  0  0  0
 41 42  1  0  0  0  0
 41 49  1  1  0  0  0
 43 44  1  0  0  0  0
 43 51  1  6  0  0  0
 45 46  1  0  0  0  0
 47 37  1  0  0  0  0
 47 48  1  1  0  0  0
 49 50  1  0  0  0  0
 51 52  1  0  0  0  0
M  END
>  <CHROM.1>
-177.87214884,150.41478103,-83.09721069,-58.97960566,98.74035435,52.27801386
169.69711552,131.15434321,-79.81390372,-54.19483314,-144.53298251,32.15164569
11.98319149,-2.35752431,8.29377682,0.55923512,0.17200387,1.43258104

>  <Name>
2esj_lig

>  <RI>
0

>  <Rbt.Current_Directory>
/home/itssahil/PROJECTS/Mol_Feturizer/New_Systems/rnas/2esj

>  <Rbt.Executable>
rbdock ($Id: //depot/dev/client3/rdock/2013.1/src/exe/rbdock.cxx#4 $)

>  <Rbt.Library>
libRbt.so (2013.1, Build901 2013/11/27)

>  <Rbt.Parameter_File>
/export/apps/rDock/src/rDock_2013.1_src/data/scripts/dock_solv.prm

>  <Rbt.Receptor>
prm/blind_docking_60.prm

>  <SCORE>
12.4544

>  <SCORE.INTER>
-3.21939

>  <SCORE.INTER.CONST>
1

>  <SCORE.INTER.POLAR>
0

>  <SCORE.INTER.ROT>
12

>  <SCORE.INTER.SOLV>
24.1542

>  <SCORE.INTER.VDW>
-21.7976

>  <SCORE.INTER.norm>
-0.0619113

>  <SCORE.INTRA>
2.41413

>  <SCORE.INTRA.DIHEDRAL>
-8.1906

>  <SCORE.INTRA.DIHEDRAL.0>
32.9766

>  <SCORE.INTRA.POLAR>
0

>  <SCORE.INTRA.POLAR.0>
0

>  <SCORE.INTRA.REPUL>
0.0122841

>  <SCORE.INTRA.REPUL.0>
0

>  <SCORE.INTRA.SOLV>
-0.703194

>  <SCORE.INTRA.SOLV.lig_0>
-114.358

>  <SCORE.INTRA.VDW>
6.79961

>  <SCORE.INTRA.VDW.0>
-8.24257

>  <SCORE.INTRA.norm>
0.0464256

>  <SCORE.RESTR>
13.2597

>  <SCORE.RESTR.CAVITY>
13.2597

>  <SCORE.RESTR.norm>
0.254994

>  <SCORE.SYSTEM>
0

>  <SCORE.SYSTEM.CONST>
0

>  <SCORE.SYSTEM.DIHEDRAL>
0

>  <SCORE.SYSTEM.SOLV>
0

>  <SCORE.SYSTEM.norm>
0

>  <SCORE.heavy>
52

>  <SCORE.norm>
0.239509

>  <RMSD>
15.393

$$$$
2esj_lig
 OpenBabel11021811423D
libRbt.so/2013.1/901 2013/11/27
 52 56  0  0  0  0  0  0  0  0999 V2000
   12.1649   -2.8756   12.4081 C   0  0  2  0  0  0  0  0  0  0  0  0
   13.3258   -2.0645   12.6713 O   0  0  0  0  0  0  0  0  0  0  0  0
   17.3696   -1.8472   11.2970 C   0  0  2  0  0  0  0  0  0  0  0  0
   18.5927   -1.7997   10.4790 N   0  0  0  0  0  0  0  0  0  0  0  0
   13.4159    0.4579   10.5664 C   0  0  1  0  0  0  0  0  0  0  0  0
   11.2718    0.2285    7.2268 C   0  0  1  0  0  0  0  0  0  0  0  0
    7.6930   -2.9975    8.1212 C   0  0  1  0  0  0  0  0  0  0  0  0
   11.7213   -2.5970   10.9416 C   0  0  2  0  0  0  0  0  0  0  0  0
   12.7943   -2.8516    9.9810 N   0  0  0  0  0  0  0  0  0  0  0  0
   16.5398   -3.1515   10.9686 C   0  0  0  0  0  0  0  0  0  0  0  0
   13.4453    1.7671    9.7766 C   0  0  2  0  0  0  0  0  0  0  0  0
   12.5172    2.7441   10.2956 O   0  0  0  0  0  0  0  0  0  0  0  0
    9.7130    0.0373    7.5006 C   0  0  2  0  0  0  0  0  0  0  0  0
    9.4674   -0.4232    8.8929 N   0  0  0  0  0  0  0  0  0  0  0  0
    7.4443   -4.2445    7.2804 C   0  0  1  0  0  0  0  0  0  0  0  0
    6.4360   -5.0529    7.9191 O   0  0  0  0  0  0  0  0  0  0  0  0
   11.2058   -1.1311   10.7844 C   0  0  0  0  0  0  0  0  0  0  0  0
   15.2616   -3.2148   11.8980 C   0  0  2  0  0  0  0  0  0  0  0  0
   14.4657   -4.4109   11.6035 N   0  0  0  0  0  0  0  0  0  0  0  0
   13.1081    1.2656    8.4023 C   0  0  2  0  0  0  0  0  0  0  0  0
   11.7333    0.9935    8.3013 O   0  0  0  0  0  0  0  0  0  0  0  0
    9.0993   -0.8953    6.3655 C   0  0  1  0  0  0  0  0  0  0  0  0
    9.4662   -0.3692    5.0859 O   0  0  0  0  0  0  0  0  0  0  0  0
    7.0001   -3.9846    5.8460 C   0  0  1  0  0  0  0  0  0  0  0  0
    6.5912   -5.2414    5.2951 O   0  0  0  0  0  0  0  0  0  0  0  0
   10.0816   -0.8780   11.8322 C   0  0  2  0  0  0  0  0  0  0  0  0
    9.5138    0.4122   11.6941 O   0  0  0  0  0  0  0  0  0  0  0  0
   14.4011   -1.9366   11.7223 C   0  0  2  0  0  0  0  0  0  0  0  0
   13.7729   -0.1214    8.2836 C   0  0  2  0  0  0  0  0  0  0  0  0
   13.7547   -0.5730    9.6284 O   0  0  0  0  0  0  0  0  0  0  0  0
    9.7107   -2.3555    6.4232 C   0  0  2  0  0  0  0  0  0  0  0  0
    9.2974   -2.8600    7.6941 O   0  0  0  0  0  0  0  0  0  0  0  0
    5.8509   -2.9817    5.7286 C   0  0  2  0  0  0  0  0  0  0  0  0
    5.7616   -2.6106    4.3433 O   0  0  0  0  0  0  0  0  0  0  0  0
   10.6761   -1.0912   13.2465 C   0  0  2  0  0  0  0  0  0  0  0  0
   11.1193   -2.4762   13.3252 O   0  0  0  0  0  0  0  0  0  0  0  0
   15.1908   -0.6025   11.9156 C   0  0  2  0  0  0  0  0  0  0  0  0
   14.3103    0.5259   11.6549 O   0  0  0  0  0  0  0  0  0  0  0  0
   15.2090   -0.1457    7.7612 C   0  0  0  0  0  0  0  0  0  0  0  0
   15.1491   -0.0817    6.3287 O   0  0  0  0  0  0  0  0  0  0  0  0
   11.2120   -2.1676    6.5278 C   0  0  1  0  0  0  0  0  0  0  0  0
   11.9733   -1.1155    7.1589 O   0  0  0  0  0  0  0  0  0  0  0  0
    6.0347   -1.8064    6.6822 C   0  0  2  0  0  0  0  0  0  0  0  0
    6.6874   -1.9695    7.9508 O   0  0  0  0  0  0  0  0  0  0  0  0
    9.6715   -0.9208   14.3346 C   0  0  0  0  0  0  0  0  0  0  0  0
    8.9460   -2.1227   14.4309 O   0  0  0  0  0  0  0  0  0  0  0  0
   16.4783   -0.5828   11.0245 C   0  0  1  0  0  0  0  0  0  0  0  0
   17.2468    0.5892   11.4057 O   0  0  0  0  0  0  0  0  0  0  0  0
   12.0773   -3.4649    6.4968 C   0  0  0  0  0  0  0  0  0  0  0  0
   12.8849   -3.6019    5.2664 N   0  0  0  0  0  0  0  0  0  0  0  0
    5.0357   -0.6565    6.7894 C   0  0  0  0  0  0  0  0  0  0  0  0
    3.7419   -1.1617    7.2133 O   0  0  0  0  0  0  0  0  0  0  0  0
  1  2  1  1  0  0  0
  1  8  1  0  0  0  0
  1 36  1  0  0  0  0
  3  4  1  6  0  0  0
  3 10  1  0  0  0  0
  3 47  1  0  0  0  0
  5 11  1  0  0  0  0
  5 30  1  0  0  0  0
  5 38  1  1  0  0  0
  6 21  1  1  0  0  0
  6 42  1  0  0  0  0
  7 15  1  0  0  0  0
  7 44  1  0  0  0  0
  7 32  1  6  0  0  0
  8  9  1  6  0  0  0
  8 17  1  0  0  0  0
 11 12  1  1  0  0  0
 11 20  1  0  0  0  0
 13  6  1  0  0  0  0
 13 14  1  1  0  0  0
 15 16  1  1  0  0  0
 15 24  1  0  0  0  0
 17 26  1  0  0  0  0
 18 10  1  0  0  0  0
 18 19  1  6  0  0  0
 20 21  1  1  0  0  0
 20 29  1  0  0  0  0
 22 13  1  0  0  0  0
 22 23  1  6  0  0  0
 24 25  1  1  0  0  0
 24 33  1  0  0  0  0
 26 27  1  1  0  0  0
 26 35  1  0  0  0  0
 28  2  1  1  0  0  0
 28 18  1  0  0  0  0
 29 30  1  0  0  0  0
 29 39  1  1  0  0  0
 31 22  1  0  0  0  0
 31 32  1  1  0  0  0
 31 41  1  0  0  0  0
 33 34  1  6  0  0  0
 33 43  1  0  0  0  0
 35 36  1  0  0  0  0
 35 45  1  1  0  0  0
 37 28  1  0  0  0  0
 37 38  1  6  0  0  0
 39 40  1  0  0  0  0
 41 42  1  0  0  0  0
 41 49  1  1  0  0  0
 43 44  1  0  0  0  0
 43 51  1  1  0  0  0
 45 46  1  0  0  0  0
 47 37  1  0  0  0  0
 47 48  1  1  0  0  0
 49 50  1  0  0  0  0
 51 52  1  0  0  0  0
M  END
>  <CHROM.1>
-43.72770188,-134.71925678,175.84339332,76.30656549,-164.93467411,-80.28535943
-82.22395402,59.25534429,81.12467938,-41.31570056,111.06677019,61.22882117
11.25517958,-1.49702874,9.16146127,0.49317196,0.18894681,1.57590398

>  <Name>
2esj_lig

>  <RI>
0

>  <Rbt.Current_Directory>
/home/itssahil/PROJECTS/Mol_Feturizer/New_Systems/rnas/2esj

>  <Rbt.Executable>
rbdock ($Id: //depot/dev/client3/rdock/2013.1/src/exe/rbdock.cxx#4 $)

>  <Rbt.Library>
libRbt.so (2013.1, Build901 2013/11/27)

>  <Rbt.Parameter_File>
/export/apps/rDock/src/rDock_2013.1_src/data/scripts/dock_solv.prm

>  <Rbt.Receptor>
prm/blind_docking_60.prm

>  <SCORE>
26.109

>  <SCORE.INTER>
1.74641

>  <SCORE.INTER.CONST>
1

>  <SCORE.INTER.POLAR>
-0.349308

>  <SCORE.INTER.ROT>
12

>  <SCORE.INTER.SOLV>
18.4142

>  <SCORE.INTER.VDW>
-15.4094

>  <SCORE.INTER.norm>
0.0335848

>  <SCORE.INTRA>
12.8657

>  <SCORE.INTRA.DIHEDRAL>
-11.5915

>  <SCORE.INTRA.DIHEDRAL.0>
32.9766

>  <SCORE.INTRA.POLAR>
0

>  <SCORE.INTRA.POLAR.0>
0

>  <SCORE.INTRA.REPUL>
0

>  <SCORE.INTRA.REPUL.0>
0

>  <SCORE.INTRA.SOLV>
10.185

>  <SCORE.INTRA.SOLV.lig_0>
-114.358

>  <SCORE.INTRA.VDW>
13.5689

>  <SCORE.INTRA.VDW.0>
-8.24257

>  <SCORE.INTRA.norm>
0.247418

>  <SCORE.RESTR>
11.4969

>  <SCORE.RESTR.CAVITY>
11.4969

>  <SCORE.RESTR.norm>
0.221094

>  <SCORE.SYSTEM>
0

>  <SCORE.SYSTEM.CONST>
0

>  <SCORE.SYSTEM.DIHEDRAL>
0

>  <SCORE.SYSTEM.SOLV>
0

>  <SCORE.SYSTEM.norm>
0

>  <SCORE.heavy>
52

>  <SCORE.norm>
0.502097

>  <RMSD>
15.419

$$$$
2esj_lig
 OpenBabel11021811423D
libRbt.so/2013.1/901 2013/11/27
 52 56  0  0  0  0  0  0  0  0999 V2000
   12.2193   -1.8260   13.3381 C   0  0  2  0  0  0  0  0  0  0  0  0
   11.9589   -2.1584   11.9610 O   0  0  0  0  0  0  0  0  0  0  0  0
   15.3064   -4.6832   11.1199 C   0  0  2  0  0  0  0  0  0  0  0  0
   16.3195   -5.5324   10.4719 N   0  0  0  0  0  0  0  0  0  0  0  0
   13.6101   -0.6183    9.6267 C   0  0  1  0  0  0  0  0  0  0  0  0
   11.7035   -0.6177    7.2618 C   0  0  1  0  0  0  0  0  0  0  0  0
    6.5303   -1.6230    7.9033 C   0  0  1  0  0  0  0  0  0  0  0  0
   10.9745   -1.0628   13.8795 C   0  0  2  0  0  0  0  0  0  0  0  0
    9.7423   -1.8360   13.7281 N   0  0  0  0  0  0  0  0  0  0  0  0
   13.8572   -5.2506   10.8451 C   0  0  0  0  0  0  0  0  0  0  0  0
   13.8052    0.8494    9.2441 C   0  0  2  0  0  0  0  0  0  0  0  0
   12.8726    1.7226    9.9173 O   0  0  0  0  0  0  0  0  0  0  0  0
   10.3854   -0.3789    6.3976 C   0  0  2  0  0  0  0  0  0  0  0  0
    9.5525    0.7056    6.9816 N   0  0  0  0  0  0  0  0  0  0  0  0
    6.5616   -3.0519    8.4331 C   0  0  1  0  0  0  0  0  0  0  0  0
    5.3262   -3.3284    9.1229 O   0  0  0  0  0  0  0  0  0  0  0  0
   10.8207    0.3228   13.1754 C   0  0  0  0  0  0  0  0  0  0  0  0
   12.7879   -4.3604   11.5972 C   0  0  2  0  0  0  0  0  0  0  0  0
   11.4313   -4.8584   11.3471 N   0  0  0  0  0  0  0  0  0  0  0  0
   13.6143    0.7725    7.7569 C   0  0  2  0  0  0  0  0  0  0  0  0
   12.2501    0.6557    7.4412 O   0  0  0  0  0  0  0  0  0  0  0  0
    9.6369   -1.7703    6.2009 C   0  0  1  0  0  0  0  0  0  0  0  0
   10.5704   -2.7304    5.6955 O   0  0  0  0  0  0  0  0  0  0  0  0
    6.7637   -4.1331    7.3783 C   0  0  1  0  0  0  0  0  0  0  0  0
    6.5298   -5.3943    8.0145 O   0  0  0  0  0  0  0  0  0  0  0  0
   12.1518    1.1164   13.3304 C   0  0  2  0  0  0  0  0  0  0  0  0
   12.0563    2.4177   12.7796 O   0  0  0  0  0  0  0  0  0  0  0  0
   12.9096   -2.8790   11.1548 C   0  0  2  0  0  0  0  0  0  0  0  0
   14.2152   -0.5804    7.3231 C   0  0  2  0  0  0  0  0  0  0  0  0
   14.0076   -1.3788    8.4774 O   0  0  0  0  0  0  0  0  0  0  0  0
    9.1248   -2.3519    7.5825 C   0  0  2  0  0  0  0  0  0  0  0  0
    8.1740   -1.3887    8.0391 O   0  0  0  0  0  0  0  0  0  0  0  0
    5.8368   -3.9957    6.1691 C   0  0  2  0  0  0  0  0  0  0  0  0
    6.3493   -4.8691    5.1497 O   0  0  0  0  0  0  0  0  0  0  0  0
   13.2875    0.2982   12.6672 C   0  0  2  0  0  0  0  0  0  0  0  0
   13.3832   -0.9672   13.3816 O   0  0  0  0  0  0  0  0  0  0  0  0
   14.3498   -2.2882   11.2877 C   0  0  2  0  0  0  0  0  0  0  0  0
   14.3656   -0.9260   10.7772 O   0  0  0  0  0  0  0  0  0  0  0  0
   15.7015   -0.5826    6.9671 C   0  0  0  0  0  0  0  0  0  0  0  0
   16.4257   -0.9897    8.1373 O   0  0  0  0  0  0  0  0  0  0  0  0
   10.3016   -2.2459    8.5334 C   0  0  1  0  0  0  0  0  0  0  0  0
   11.3635   -1.2693    8.5896 O   0  0  0  0  0  0  0  0  0  0  0  0
    5.6951   -2.5409    5.7355 C   0  0  2  0  0  0  0  0  0  0  0  0
    5.7574   -1.4685    6.6884 O   0  0  0  0  0  0  0  0  0  0  0  0
   14.6252    0.9432   12.7972 C   0  0  0  0  0  0  0  0  0  0  0  0
   14.6472    2.0482   11.9261 O   0  0  0  0  0  0  0  0  0  0  0  0
   15.3984   -3.2110   10.5799 C   0  0  1  0  0  0  0  0  0  0  0  0
   16.7159   -2.6997   10.9145 O   0  0  0  0  0  0  0  0  0  0  0  0
   10.1003   -2.8518    9.9565 C   0  0  0  0  0  0  0  0  0  0  0  0
    9.1978   -4.0223    9.9732 N   0  0  0  0  0  0  0  0  0  0  0  0
    4.8230   -2.1028    4.5611 C   0  0  0  0  0  0  0  0  0  0  0  0
    3.4215   -2.1558    4.9375 O   0  0  0  0  0  0  0  0  0  0  0  0
  1  2  1  6  0  0  0
  1  8  1  0  0  0  0
  1 36  1  0  0  0  0
  3  4  1  6  0  0  0
  3 10  1  0  0  0  0
  3 47  1  0  0  0  0
  5 11  1  0  0  0  0
  5 30  1  0  0  0  0
  5 38  1  1  0  0  0
  6 21  1  1  0  0  0
  6 42  1  0  0  0  0
  7 15  1  0  0  0  0
  7 44  1  0  0  0  0
  7 32  1  6  0  0  0
  8  9  1  6  0  0  0
  8 17  1  0  0  0  0
 11 12  1  1  0  0  0
 11 20  1  0  0  0  0
 13  6  1  0  0  0  0
 13 14  1  1  0  0  0
 15 16  1  6  0  0  0
 15 24  1  0  0  0  0
 17 26  1  0  0  0  0
 18 10  1  0  0  0  0
 18 19  1  6  0  0  0
 20 21  1  1  0  0  0
 20 29  1  0  0  0  0
 22 13  1  0  0  0  0
 22 23  1  1  0  0  0
 24 25  1  1  0  0  0
 24 33  1  0  0  0  0
 26 27  1  6  0  0  0
 26 35  1  0  0  0  0
 28  2  1  1  0  0  0
 28 18  1  0  0  0  0
 29 30  1  0  0  0  0
 29 39  1  1  0  0  0
 31 22  1  0  0  0  0
 31 32  1  1  0  0  0
 31 41  1  0  0  0  0
 33 34  1  6  0  0  0
 33 43  1  0  0  0  0
 35 36  1  0  0  0  0
 35 45  1  1  0  0  0
 37 28  1  0  0  0  0
 37 38  1  6  0  0  0
 39 40  1  0  0  0  0
 41 42  1  0  0  0  0
 41 49  1  1  0  0  0
 43 44  1  0  0  0  0
 43 51  1  1  0  0  0
 45 46  1  0  0  0  0
 47 37  1  0  0  0  0
 47 48  1  1  0  0  0
 49 50  1  0  0  0  0
 51 52  1  0  0  0  0
M  END
>  <CHROM.1>
-179.67559008,-178.26300329,-158.70610452,46.48443834,-93.77174665,77.28244731
95.49469619,101.80945666,-73.05419990,-38.76796327,31.83432193,74.90995511
11.13160097,-1.73334816,9.35366526,0.44639296,0.34745035,1.82341203

>  <Name>
2esj_lig

>  <RI>
0

>  <Rbt.Current_Directory>
/home/itssahil/PROJECTS/Mol_Feturizer/New_Systems/rnas/2esj

>  <Rbt.Executable>
rbdock ($Id: //depot/dev/client3/rdock/2013.1/src/exe/rbdock.cxx#4 $)

>  <Rbt.Library>
libRbt.so (2013.1, Build901 2013/11/27)

>  <Rbt.Parameter_File>
/export/apps/rDock/src/rDock_2013.1_src/data/scripts/dock_solv.prm

>  <Rbt.Receptor>
prm/blind_docking_60.prm

>  <SCORE>
24.0206

>  <SCORE.INTER>
1.80508

>  <SCORE.INTER.CONST>
1

>  <SCORE.INTER.POLAR>
-0.375613

>  <SCORE.INTER.ROT>
12

>  <SCORE.INTER.SOLV>
32.3106

>  <SCORE.INTER.VDW>
-19.9148

>  <SCORE.INTER.norm>
0.0347131

>  <SCORE.INTRA>
14.33

>  <SCORE.INTRA.DIHEDRAL>
-7.86815

>  <SCORE.INTRA.DIHEDRAL.0>
32.9766

>  <SCORE.INTRA.POLAR>
0

>  <SCORE.INTRA.POLAR.0>
0

>  <SCORE.INTRA.REPUL>
0.232136

>  <SCORE.INTRA.REPUL.0>
0

>  <SCORE.INTRA.SOLV>
7.86098

>  <SCORE.INTRA.SOLV.lig_0>
-114.358

>  <SCORE.INTRA.VDW>
13.1729

>  <SCORE.INTRA.VDW.0>
-8.24257

>  <SCORE.INTRA.norm>
0.275577

>  <SCORE.RESTR>
7.88549

>  <SCORE.RESTR.CAVITY>
7.88549

>  <SCORE.RESTR.norm>
0.151644

>  <SCORE.SYSTEM>
0

>  <SCORE.SYSTEM.CONST>
0

>  <SCORE.SYSTEM.DIHEDRAL>
0

>  <SCORE.SYSTEM.SOLV>
0

>  <SCORE.SYSTEM.norm>
0

>  <SCORE.heavy>
52

>  <SCORE.norm>
0.461934

>  <RMSD>
15.424

$$$$
2esj_lig
 OpenBabel11021811423D
libRbt.so/2013.1/901 2013/11/27
 52 56  0  0  0  0  0  0  0  0999 V2000
   14.6563   -2.8324    4.1562 C   0  0  2  0  0  0  0  0  0  0  0  0
   14.8062   -1.5274    4.7474 O   0  0  0  0  0  0  0  0  0  0  0  0
   15.6557   -2.6757    8.7783 C   0  0  2  0  0  0  0  0  0  0  0  0
   16.0048   -2.6925   10.2084 N   0  0  0  0  0  0  0  0  0  0  0  0
   11.6585   -1.1606    7.7296 C   0  0  1  0  0  0  0  0  0  0  0  0
   10.3110   -1.4917   10.0678 C   0  0  1  0  0  0  0  0  0  0  0  0
   10.8890   -0.4161   14.2160 C   0  0  1  0  0  0  0  0  0  0  0  0
   14.3165   -2.6283    2.6503 C   0  0  2  0  0  0  0  0  0  0  0  0
   15.3268   -1.8284    1.9585 N   0  0  0  0  0  0  0  0  0  0  0  0
   16.8068   -1.9901    7.9402 C   0  0  0  0  0  0  0  0  0  0  0  0
   10.8305    0.1217    7.6362 C   0  0  2  0  0  0  0  0  0  0  0  0
   11.3674    1.1844    8.4533 O   0  0  0  0  0  0  0  0  0  0  0  0
    9.3714   -2.3227   11.0516 C   0  0  2  0  0  0  0  0  0  0  0  0
    8.5667   -1.4174   11.9140 N   0  0  0  0  0  0  0  0  0  0  0  0
    9.4742   -0.0899   14.6801 C   0  0  1  0  0  0  0  0  0  0  0  0
    9.5392    0.8391   15.7806 O   0  0  0  0  0  0  0  0  0  0  0  0
   12.9109   -1.9692    2.4805 C   0  0  0  0  0  0  0  0  0  0  0  0
   16.4413   -2.0345    6.4020 C   0  0  2  0  0  0  0  0  0  0  0  0
   17.4888   -1.3915    5.6019 N   0  0  0  0  0  0  0  0  0  0  0  0
    9.4902   -0.3843    8.0855 C   0  0  2  0  0  0  0  0  0  0  0  0
    9.4673   -0.5446    9.4813 O   0  0  0  0  0  0  0  0  0  0  0  0
   10.2577   -3.3874   11.8364 C   0  0  1  0  0  0  0  0  0  0  0  0
   11.0217   -4.1413   10.8894 O   0  0  0  0  0  0  0  0  0  0  0  0
    8.5607    0.5051   13.6153 C   0  0  1  0  0  0  0  0  0  0  0  0
    7.3765    0.9600   14.2794 O   0  0  0  0  0  0  0  0  0  0  0  0
   11.8580   -2.8257    3.2443 C   0  0  2  0  0  0  0  0  0  0  0  0
   10.5445   -2.3260    3.0680 O   0  0  0  0  0  0  0  0  0  0  0  0
   15.0728   -1.3493    6.1511 C   0  0  2  0  0  0  0  0  0  0  0  0
    9.3782   -1.8238    7.5424 C   0  0  2  0  0  0  0  0  0  0  0  0
   10.7348   -2.2389    7.5257 O   0  0  0  0  0  0  0  0  0  0  0  0
   11.3158   -2.6778   12.7776 C   0  0  2  0  0  0  0  0  0  0  0  0
   10.5207   -1.9654   13.7267 O   0  0  0  0  0  0  0  0  0  0  0  0
    9.1881    1.6681   12.8446 C   0  0  2  0  0  0  0  0  0  0  0  0
    8.3550    1.9059   11.6981 O   0  0  0  0  0  0  0  0  0  0  0  0
   12.2561   -2.8676    4.7406 C   0  0  2  0  0  0  0  0  0  0  0  0
   13.5627   -3.5057    4.8229 O   0  0  0  0  0  0  0  0  0  0  0  0
   13.9100   -1.8998    7.0376 C   0  0  2  0  0  0  0  0  0  0  0  0
   12.6975   -1.1396    6.7761 O   0  0  0  0  0  0  0  0  0  0  0  0
    8.7843   -1.9794    6.1429 C   0  0  0  0  0  0  0  0  0  0  0  0
    7.3620   -1.8254    6.2572 O   0  0  0  0  0  0  0  0  0  0  0  0
   11.9785   -1.6155   11.9217 C   0  0  1  0  0  0  0  0  0  0  0  0
   11.4405   -0.8305   10.8360 O   0  0  0  0  0  0  0  0  0  0  0  0
   10.6503    1.3940   12.5113 C   0  0  2  0  0  0  0  0  0  0  0  0
   11.4801    0.6099   13.3822 O   0  0  0  0  0  0  0  0  0  0  0  0
   11.3395   -3.7048    5.5661 C   0  0  0  0  0  0  0  0  0  0  0  0
   11.2935   -4.9834    4.9803 O   0  0  0  0  0  0  0  0  0  0  0  0
   14.3123   -1.8941    8.5510 C   0  0  1  0  0  0  0  0  0  0  0  0
   13.2665   -2.5938    9.2762 O   0  0  0  0  0  0  0  0  0  0  0  0
   13.1502   -0.8247   12.5811 C   0  0  0  0  0  0  0  0  0  0  0  0
   14.3189   -0.6579   11.6918 N   0  0  0  0  0  0  0  0  0  0  0  0
   11.5323    2.3851   11.7553 C   0  0  0  0  0  0  0  0  0  0  0  0
   12.4630    1.6689   10.9010 O   0  0  0  0  0  0  0  0  0  0  0  0
  1  2  1  1  0  0  0
  1  8  1  0  0  0  0
  1 36  1  0  0  0  0
  3  4  1  1  0  0  0
  3 10  1  0  0  0  0
  3 47  1  0  0  0  0
  5 11  1  0  0  0  0
  5 30  1  0  0  0  0
  5 38  1  6  0  0  0
  6 21  1  1  0  0  0
  6 42  1  0  0  0  0
  7 15  1  0  0  0  0
  7 44  1  0  0  0  0
  7 32  1  6  0  0  0
  8  9  1  1  0  0  0
  8 17  1  0  0  0  0
 11 12  1  1  0  0  0
 11 20  1  0  0  0  0
 13  6  1  0  0  0  0
 13 14  1  1  0  0  0
 15 16  1  1  0  0  0
 15 24  1  0  0  0  0
 17 26  1  0  0  0  0
 18 10  1  0  0  0  0
 18 19  1  6  0  0  0
 20 21  1  1  0  0  0
 20 29  1  0  0  0  0
 22 13  1  0  0  0  0
 22 23  1  6  0  0  0
 24 25  1  1  0  0  0
 24 33  1  0  0  0  0
 26 27  1  1  0  0  0
 26 35  1  0  0  0  0
 28  2  1  6  0  0  0
 28 18  1  0  0  0  0
 29 30  1  0  0  0  0
 29 39  1  6  0  0  0
 31 22  1  0  0  0  0
 31 32  1  1  0  0  0
 31 41  1  0  0  0  0
 33 34  1  6  0  0  0
 33 43  1  0  0  0  0
 35 36  1  0  0  0  0
 35 45  1  1  0  0  0
 37 28  1  0  0  0  0
 37 38  1  1  0  0  0
 39 40  1  0  0  0  0
 41 42  1  0  0  0  0
 41 49  1  1  0  0  0
 43 44  1  0  0  0  0
 43 51  1  1  0  0  0
 45 46  1  0  0  0  0
 47 37  1  0  0  0  0
 47 48  1  1  0  0  0
 49 50  1  0  0  0  0
 51 52  1  0  0  0  0
M  END
>  <CHROM.1>
177.50345646,153.25694921,-131.27794699,158.17783179,-64.35774980,61.97459792
-77.11177730,-137.86643642,54.99106030,-160.10088897,135.62407997,-145.04978084
11.79223181,-1.31883595,8.91589566,-1.16756668,-0.06284833,1.31528522

>  <Name>
2esj_lig

>  <RI>
0

>  <Rbt.Current_Directory>
/home/itssahil/PROJECTS/Mol_Feturizer/New_Systems/rnas/2esj

>  <Rbt.Executable>
rbdock ($Id: //depot/dev/client3/rdock/2013.1/src/exe/rbdock.cxx#4 $)

>  <Rbt.Library>
libRbt.so (2013.1, Build901 2013/11/27)

>  <Rbt.Parameter_File>
/export/apps/rDock/src/rDock_2013.1_src/data/scripts/dock_solv.prm

>  <Rbt.Receptor>
prm/blind_docking_20.prm

>  <SCORE>
52.4778

>  <SCORE.INTER>
5.99411

>  <SCORE.INTER.CONST>
1

>  <SCORE.INTER.POLAR>
-0.130704

>  <SCORE.INTER.ROT>
12

>  <SCORE.INTER.SOLV>
17.432

>  <SCORE.INTER.VDW>
-12.9789

>  <SCORE.INTER.norm>
0.115271

>  <SCORE.INTRA>
21.1178

>  <SCORE.INTRA.DIHEDRAL>
-6.60144

>  <SCORE.INTRA.DIHEDRAL.0>
32.9766

>  <SCORE.INTRA.POLAR>
0

>  <SCORE.INTRA.POLAR.0>
0

>  <SCORE.INTRA.REPUL>
0

>  <SCORE.INTRA.REPUL.0>
0

>  <SCORE.INTRA.SOLV>
11.1004

>  <SCORE.INTRA.SOLV.lig_0>
-114.358

>  <SCORE.INTRA.VDW>
18.8683

>  <SCORE.INTRA.VDW.0>
-8.24257

>  <SCORE.INTRA.norm>
0.406112

>  <SCORE.RESTR>
25.3659

>  <SCORE.RESTR.CAVITY>
25.3659

>  <SCORE.RESTR.norm>
0.487805

>  <SCORE.SYSTEM>
0

>  <SCORE.SYSTEM.CONST>
0

>  <SCORE.SYSTEM.DIHEDRAL>
0

>  <SCORE.SYSTEM.SOLV>
0

>  <SCORE.SYSTEM.norm>
0

>  <SCORE.heavy>
52

>  <SCORE.norm>
1.00919

>  <RMSD>
15.485

$$$$
2esj_lig
 OpenBabel11021811423D
libRbt.so/2013.1/901 2013/11/27
 52 56  0  0  0  0  0  0  0  0999 V2000
   11.2889   -1.5048   13.7407 C   0  0  2  0  0  0  0  0  0  0  0  0
   11.1661   -2.0853   12.4281 O   0  0  0  0  0  0  0  0  0  0  0  0
   14.6295   -4.5504   11.9628 C   0  0  2  0  0  0  0  0  0  0  0  0
   15.7705   -5.3134   11.4307 N   0  0  0  0  0  0  0  0  0  0  0  0
   12.9687   -0.1599   11.0807 C   0  0  1  0  0  0  0  0  0  0  0  0
   10.9368    1.2820    7.9875 C   0  0  1  0  0  0  0  0  0  0  0  0
    7.9885   -3.1474    7.6183 C   0  0  1  0  0  0  0  0  0  0  0  0
    9.8654   -1.4662   14.3710 C   0  0  2  0  0  0  0  0  0  0  0  0
    9.2436   -2.7893   14.4151 N   0  0  0  0  0  0  0  0  0  0  0  0
   13.2883   -5.0097   11.2644 C   0  0  0  0  0  0  0  0  0  0  0  0
   13.7572    0.9157   10.3325 C   0  0  2  0  0  0  0  0  0  0  0  0
   13.6773    2.2054   10.9772 O   0  0  0  0  0  0  0  0  0  0  0  0
    9.6080    0.7759    8.7082 C   0  0  2  0  0  0  0  0  0  0  0  0
    9.9057   -0.3161    9.6724 N   0  0  0  0  0  0  0  0  0  0  0  0
    8.1839   -3.4938    6.1468 C   0  0  1  0  0  0  0  0  0  0  0  0
    7.9727   -4.9078    5.9611 O   0  0  0  0  0  0  0  0  0  0  0  0
    8.9411   -0.4716   13.5993 C   0  0  0  0  0  0  0  0  0  0  0  0
   12.0679   -4.2220   11.8902 C   0  0  2  0  0  0  0  0  0  0  0  0
   10.8105   -4.6206   11.2490 N   0  0  0  0  0  0  0  0  0  0  0  0
   13.0929    0.8566    8.9874 C   0  0  2  0  0  0  0  0  0  0  0  0
   11.8458    1.5029    9.0256 O   0  0  0  0  0  0  0  0  0  0  0  0
    8.5231    0.4171    7.5994 C   0  0  1  0  0  0  0  0  0  0  0  0
    8.3864    1.5294    6.7090 O   0  0  0  0  0  0  0  0  0  0  0  0
    7.2735   -2.7507    5.1766 C   0  0  1  0  0  0  0  0  0  0  0  0
    7.4293   -3.3668    3.8935 O   0  0  0  0  0  0  0  0  0  0  0  0
    9.6349    0.9218   13.5460 C   0  0  2  0  0  0  0  0  0  0  0  0
    8.8146    1.8952   12.9249 O   0  0  0  0  0  0  0  0  0  0  0  0
   12.2833   -2.6924   11.7524 C   0  0  2  0  0  0  0  0  0  0  0  0
   12.7379   -0.6267    8.7562 C   0  0  2  0  0  0  0  0  0  0  0  0
   12.5289   -1.0897   10.0809 O   0  0  0  0  0  0  0  0  0  0  0  0
    8.9946   -0.7995    6.7012 C   0  0  2  0  0  0  0  0  0  0  0  0
    9.0871   -1.8951    7.6130 O   0  0  0  0  0  0  0  0  0  0  0  0
    5.7967   -2.7756    5.5749 C   0  0  2  0  0  0  0  0  0  0  0  0
    5.1297   -1.7951    4.7634 O   0  0  0  0  0  0  0  0  0  0  0  0
   10.9893    0.7645   12.8112 C   0  0  2  0  0  0  0  0  0  0  0  0
   11.8003   -0.1594   13.5920 O   0  0  0  0  0  0  0  0  0  0  0  0
   13.6490   -2.1855   12.3171 C   0  0  2  0  0  0  0  0  0  0  0  0
   13.7780   -0.7579   12.0689 O   0  0  0  0  0  0  0  0  0  0  0  0
   13.8075   -1.4859    8.0829 C   0  0  0  0  0  0  0  0  0  0  0  0
   13.2680   -2.8070    7.9305 O   0  0  0  0  0  0  0  0  0  0  0  0
   10.4219   -0.4827    6.2981 C   0  0  1  0  0  0  0  0  0  0  0  0
   11.4491    0.2381    7.0123 O   0  0  0  0  0  0  0  0  0  0  0  0
    5.6187   -2.5738    7.0755 C   0  0  2  0  0  0  0  0  0  0  0  0
    6.5991   -3.0441    8.0134 O   0  0  0  0  0  0  0  0  0  0  0  0
   11.7677    2.0340   12.7421 C   0  0  0  0  0  0  0  0  0  0  0  0
   11.1112    2.9762   13.5554 O   0  0  0  0  0  0  0  0  0  0  0  0
   14.8389   -3.0122   11.7231 C   0  0  1  0  0  0  0  0  0  0  0  0
   16.0384   -2.6134   12.4385 O   0  0  0  0  0  0  0  0  0  0  0  0
   11.1021   -1.4813    5.3117 C   0  0  0  0  0  0  0  0  0  0  0  0
   11.2734   -2.8370    5.8749 N   0  0  0  0  0  0  0  0  0  0  0  0
    4.2530   -2.5629    7.7584 C   0  0  0  0  0  0  0  0  0  0  0  0
    3.3176   -1.7672    6.9833 O   0  0  0  0  0  0  0  0  0  0  0  0
  1  2  1  6  0  0  0
  1  8  1  0  0  0  0
  1 36  1  0  0  0  0
  3  4  1  6  0  0  0
  3 10  1  0  0  0  0
  3 47  1  0  0  0  0
  5 11  1  0  0  0  0
  5 30  1  0  0  0  0
  5 38  1  1  0  0  0
  6 21  1  1  0  0  0
  6 42  1  0  0  0  0
  7 15  1  0  0  0  0
  7 44  1  0  0  0  0
  7 32  1  6  0  0  0
  8  9  1  6  0  0  0
  8 17  1  0  0  0  0
 11 12  1  1  0  0  0
 11 20  1  0  0  0  0
 13  6  1  0  0  0  0
 13 14  1  6  0  0  0
 15 16  1  1  0  0  0
 15 24  1  0  0  0  0
 17 26  1  0  0  0  0
 18 10  1  0  0  0  0
 18 19  1  6  0  0  0
 20 21  1  1  0  0  0
 20 29  1  0  0  0  0
 22 13  1  0  0  0  0
 22 23  1  6  0  0  0
 24 25  1  6  0  0  0
 24 33  1  0  0  0  0
 26 27  1  6  0  0  0
 26 35  1  0  0  0  0
 28  2  1  1  0  0  0
 28 18  1  0  0  0  0
 29 30  1  0  0  0  0
 29 39  1  1  0  0  0
 31 22  1  0  0  0  0
 31 32  1  1  0  0  0
 31 41  1  0  0  0  0
 33 34  1  6  0  0  0
 33 43  1  0  0  0  0
 35 36  1  0  0  0  0
 35 45  1  1  0  0  0
 37 28  1  0  0  0  0
 37 38  1  6  0  0  0
 39 40  1  0  0  0  0
 41 42  1  0  0  0  0
 41 49  1  1  0  0  0
 43 44  1  0  0  0  0
 43 51  1  1  0  0  0
 45 46  1  0  0  0  0
 47 37  1  0  0  0  0
 47 48  1  1  0  0  0
 49 50  1  0  0  0  0
 51 52  1  0  0  0  0
M  END
>  <CHROM.1>
-158.12918141,-142.60144240,124.73853385,55.36174764,-164.58815167,103.22005079
-178.47018469,107.58707055,8.62368663,-19.02861550,-64.01254990,-44.28803866
10.53132323,-1.34916448,9.58610428,0.69448136,-0.44088776,0.92703398

>  <Name>
2esj_lig

>  <RI>
0

>  <Rbt.Current_Directory>
/home/itssahil/PROJECTS/Mol_Feturizer/New_Systems/rnas/2esj

>  <Rbt.Executable>
rbdock ($Id: //depot/dev/client3/rdock/2013.1/src/exe/rbdock.cxx#4 $)

>  <Rbt.Library>
libRbt.so (2013.1, Build901 2013/11/27)

>  <Rbt.Parameter_File>
/export/apps/rDock/src/rDock_2013.1_src/data/scripts/dock_solv.prm

>  <Rbt.Receptor>
prm/blind_docking_20.prm

>  <SCORE>
46.2014

>  <SCORE.INTER>
0.332385

>  <SCORE.INTER.CONST>
1

>  <SCORE.INTER.POLAR>
-1.01937

>  <SCORE.INTER.ROT>
12

>  <SCORE.INTER.SOLV>
31.0696

>  <SCORE.INTER.VDW>
-18.337

>  <SCORE.INTER.norm>
0.00639201

>  <SCORE.INTRA>
32.311

>  <SCORE.INTRA.DIHEDRAL>
10.0464

>  <SCORE.INTRA.DIHEDRAL.0>
32.9766

>  <SCORE.INTRA.POLAR>
0

>  <SCORE.INTRA.POLAR.0>
0

>  <SCORE.INTRA.REPUL>
0.448836

>  <SCORE.INTRA.REPUL.0>
0

>  <SCORE.INTRA.SOLV>
8.75102

>  <SCORE.INTRA.SOLV.lig_0>
-114.358

>  <SCORE.INTRA.VDW>
20.6681

>  <SCORE.INTRA.VDW.0>
-8.24257

>  <SCORE.INTRA.norm>
0.621365

>  <SCORE.RESTR>
13.558

>  <SCORE.RESTR.CAVITY>
13.558

>  <SCORE.RESTR.norm>
0.26073

>  <SCORE.SYSTEM>
0

>  <SCORE.SYSTEM.CONST>
0

>  <SCORE.SYSTEM.DIHEDRAL>
0

>  <SCORE.SYSTEM.SOLV>
0

>  <SCORE.SYSTEM.norm>
0

>  <SCORE.heavy>
52

>  <SCORE.norm>
0.888488

>  <RMSD>
15.521

$$$$
2esj_lig
 OpenBabel11021811423D
libRbt.so/2013.1/901 2013/11/27
 52 56  0  0  0  0  0  0  0  0999 V2000
   12.6104   -0.8530   11.8693 C   0  0  2  0  0  0  0  0  0  0  0  0
   13.6402   -1.5305   11.1241 O   0  0  0  0  0  0  0  0  0  0  0  0
   17.0839   -0.0383   13.1741 C   0  0  2  0  0  0  0  0  0  0  0  0
   18.4501    0.2158   13.6602 N   0  0  0  0  0  0  0  0  0  0  0  0
   14.6891   -0.5092    8.8914 C   0  0  1  0  0  0  0  0  0  0  0  0
   12.4858   -1.9869    5.6399 C   0  0  1  0  0  0  0  0  0  0  0  0
    7.5894   -3.9964    5.8488 C   0  0  1  0  0  0  0  0  0  0  0  0
   11.2370   -1.3426   11.3224 C   0  0  2  0  0  0  0  0  0  0  0  0
   11.0981   -2.7966   11.3972 N   0  0  0  0  0  0  0  0  0  0  0  0
   16.7117   -1.5636   13.3546 C   0  0  0  0  0  0  0  0  0  0  0  0
   14.4970    0.0774    7.4923 C   0  0  2  0  0  0  0  0  0  0  0  0
   13.2788    0.8445    7.3793 O   0  0  0  0  0  0  0  0  0  0  0  0
   11.0504   -1.4633    6.0944 C   0  0  2  0  0  0  0  0  0  0  0  0
   10.6311   -2.0955    7.3733 N   0  0  0  0  0  0  0  0  0  0  0  0
    7.2395   -2.5284    6.0628 C   0  0  1  0  0  0  0  0  0  0  0  0
    5.9298   -2.2695    5.5187 O   0  0  0  0  0  0  0  0  0  0  0  0
   11.0204   -0.8643    9.8516 C   0  0  0  0  0  0  0  0  0  0  0  0
   15.2217   -1.8052   12.8824 C   0  0  2  0  0  0  0  0  0  0  0  0
   14.8551   -3.2179   13.0271 N   0  0  0  0  0  0  0  0  0  0  0  0
   14.5156   -1.1754    6.6651 C   0  0  2  0  0  0  0  0  0  0  0  0
   13.2910   -1.8557    6.7745 O   0  0  0  0  0  0  0  0  0  0  0  0
   10.0279   -1.6447    4.8874 C   0  0  1  0  0  0  0  0  0  0  0  0
   10.5871   -1.0463    3.7136 O   0  0  0  0  0  0  0  0  0  0  0  0
    7.2468   -2.0621    7.5136 C   0  0  1  0  0  0  0  0  0  0  0  0
    6.6733   -0.7504    7.5398 O   0  0  0  0  0  0  0  0  0  0  0  0
   11.1963    0.6822    9.7944 C   0  0  2  0  0  0  0  0  0  0  0  0
   10.9368    1.1942    8.4995 O   0  0  0  0  0  0  0  0  0  0  0  0
   15.0391   -1.3477   11.4119 C   0  0  2  0  0  0  0  0  0  0  0  0
   15.5284   -2.1177    7.3478 C   0  0  2  0  0  0  0  0  0  0  0  0
   15.4233   -1.7276    8.7079 O   0  0  0  0  0  0  0  0  0  0  0  0
    9.8164   -3.1741    4.5333 C   0  0  2  0  0  0  0  0  0  0  0  0
    9.2281   -3.7297    5.7104 O   0  0  0  0  0  0  0  0  0  0  0  0
    6.4651   -2.9761    8.4589 C   0  0  2  0  0  0  0  0  0  0  0  0
    6.8205   -2.5933    9.7975 O   0  0  0  0  0  0  0  0  0  0  0  0
   12.6300    1.0278   10.2676 C   0  0  2  0  0  0  0  0  0  0  0  0
   12.7536    0.5693   11.6443 O   0  0  0  0  0  0  0  0  0  0  0  0
   15.5021    0.1188   11.1363 C   0  0  2  0  0  0  0  0  0  0  0  0
   15.3580    0.4160    9.7195 O   0  0  0  0  0  0  0  0  0  0  0  0
   16.9836   -1.9948    6.8973 C   0  0  0  0  0  0  0  0  0  0  0  0
   17.5215   -0.8048    7.4924 O   0  0  0  0  0  0  0  0  0  0  0  0
   11.2077   -3.7723    4.4516 C   0  0  1  0  0  0  0  0  0  0  0  0
   12.4085   -3.4300    5.1766 O   0  0  0  0  0  0  0  0  0  0  0  0
    6.7078   -4.4476    8.1419 C   0  0  2  0  0  0  0  0  0  0  0  0
    6.9613   -4.8900    6.7996 O   0  0  0  0  0  0  0  0  0  0  0  0
   12.8974    2.4941   10.2995 C   0  0  0  0  0  0  0  0  0  0  0  0
   13.7443    2.7922    9.2159 O   0  0  0  0  0  0  0  0  0  0  0  0
   16.9607    0.3499   11.6570 C   0  0  1  0  0  0  0  0  0  0  0  0
   17.2382    1.7708   11.5412 O   0  0  0  0  0  0  0  0  0  0  0  0
   11.2959   -5.2655    4.0096 C   0  0  0  0  0  0  0  0  0  0  0  0
   12.6806   -5.7793    3.9522 N   0  0  0  0  0  0  0  0  0  0  0  0
    6.0491   -5.5863    8.9171 C   0  0  0  0  0  0  0  0  0  0  0  0
    6.5120   -6.8652    8.4082 O   0  0  0  0  0  0  0  0  0  0  0  0
  1  2  1  6  0  0  0
  1  8  1  0  0  0  0
  1 36  1  0  0  0  0
  3  4  1  6  0  0  0
  3 10  1  0  0  0  0
  3 47  1  0  0  0  0
  5 11  1  0  0  0  0
  5 30  1  0  0  0  0
  5 38  1  1  0  0  0
  6 21  1  1  0  0  0
  6 42  1  0  0  0  0
  7 15  1  0  0  0  0
  7 44  1  0  0  0  0
  7 32  1  1  0  0  0
  8  9  1  6  0  0  0
  8 17  1  0  0  0  0
 11 12  1  1  0  0  0
 11 20  1  0  0  0  0
 13  6  1  0  0  0  0
 13 14  1  1  0  0  0
 15 16  1  1  0  0  0
 15 24  1  0  0  0  0
 17 26  1  0  0  0  0
 18 10  1  0  0  0  0
 18 19  1  6  0  0  0
 20 21  1  1  0  0  0
 20 29  1  0  0  0  0
 22 13  1  0  0  0  0
 22 23  1  6  0  0  0
 24 25  1  6  0  0  0
 24 33  1  0  0  0  0
 26 27  1  6  0  0  0
 26 35  1  0  0  0  0
 28  2  1  1  0  0  0
 28 18  1  0  0  0  0
 29 30  1  0  0  0  0
 29 39  1  6  0  0  0
 31 22  1  0  0  0  0
 31 32  1  1  0  0  0
 31 41  1  0  0  0  0
 33 34  1  1  0  0  0
 33 43  1  0  0  0  0
 35 36  1  0  0  0  0
 35 45  1  1  0  0  0
 37 28  1  0  0  0  0
 37 38  1  6  0  0  0
 39 40  1  0  0  0  0
 41 42  1  0  0  0  0
 41 49  1  1  0  0  0
 43 44  1  0  0  0  0
 43 51  1  6  0  0  0
 45 46  1  0  0  0  0
 47 37  1  0  0  0  0
 47 48  1  1  0  0  0
 49 50  1  0  0  0  0
 51 52  1  0  0  0  0
M  END
>  <CHROM.1>
-177.47411095,172.85671927,-128.27255971,-75.61840521,115.19945784,59.91263788
75.68118634,99.52064579,-106.65518367,8.76600622,179.97665898,-178.11514298
12.04529711,-1.62986093,8.49764481,0.57856196,0.27061041,1.30914800

>  <Name>
2esj_lig

>  <RI>
0

>  <Rbt.Current_Directory>
/home/itssahil/PROJECTS/Mol_Feturizer/New_Systems/rnas/2esj

>  <Rbt.Executable>
rbdock ($Id: //depot/dev/client3/rdock/2013.1/src/exe/rbdock.cxx#4 $)

>  <Rbt.Library>
libRbt.so (2013.1, Build901 2013/11/27)

>  <Rbt.Parameter_File>
/export/apps/rDock/src/rDock_2013.1_src/data/scripts/dock_solv.prm

>  <Rbt.Receptor>
prm/blind_docking_60.prm

>  <SCORE>
13.819

>  <SCORE.INTER>
-4.15614

>  <SCORE.INTER.CONST>
1

>  <SCORE.INTER.POLAR>
-0.624894

>  <SCORE.INTER.ROT>
12

>  <SCORE.INTER.SOLV>
24.7662

>  <SCORE.INTER.VDW>
-20.5432

>  <SCORE.INTER.norm>
-0.0799257

>  <SCORE.INTRA>
7.3202

>  <SCORE.INTRA.DIHEDRAL>
4.31651

>  <SCORE.INTRA.DIHEDRAL.0>
32.9766

>  <SCORE.INTRA.POLAR>
0

>  <SCORE.INTRA.POLAR.0>
0

>  <SCORE.INTRA.REPUL>
0.0184874

>  <SCORE.INTRA.REPUL.0>
0

>  <SCORE.INTRA.SOLV>
2.89426

>  <SCORE.INTRA.SOLV.lig_0>
-114.358

>  <SCORE.INTRA.VDW>
3.62238

>  <SCORE.INTRA.VDW.0>
-8.24257

>  <SCORE.INTRA.norm>
0.140773

>  <SCORE.RESTR>
10.6549

>  <SCORE.RESTR.CAVITY>
10.6549

>  <SCORE.RESTR.norm>
0.204902

>  <SCORE.SYSTEM>
0

>  <SCORE.SYSTEM.CONST>
0

>  <SCORE.SYSTEM.DIHEDRAL>
0

>  <SCORE.SYSTEM.SOLV>
0

>  <SCORE.SYSTEM.norm>
0

>  <SCORE.heavy>
52

>  <SCORE.norm>
0.265749

>  <RMSD>
15.593

$$$$
2esj_lig
 OpenBabel11021811423D
libRbt.so/2013.1/901 2013/11/27
 52 56  0  0  0  0  0  0  0  0999 V2000
   14.4396    0.3226   10.5549 C   0  0  2  0  0  0  0  0  0  0  0  0
   13.9274   -0.7223   11.4039 O   0  0  0  0  0  0  0  0  0  0  0  0
   14.2978   -4.9825   11.4344 C   0  0  2  0  0  0  0  0  0  0  0  0
   14.1720   -6.4227   11.1561 N   0  0  0  0  0  0  0  0  0  0  0  0
   15.2066   -2.2891    8.0753 C   0  0  1  0  0  0  0  0  0  0  0  0
   12.8193   -2.0019    4.7181 C   0  0  1  0  0  0  0  0  0  0  0  0
    8.0371   -4.3232    5.3403 C   0  0  1  0  0  0  0  0  0  0  0  0
   14.7306    1.5585   11.4565 C   0  0  2  0  0  0  0  0  0  0  0  0
   15.6505    1.2424   12.5487 N   0  0  0  0  0  0  0  0  0  0  0  0
   12.8788   -4.3555   11.7355 C   0  0  0  0  0  0  0  0  0  0  0  0
   14.4429   -1.1017    7.4877 C   0  0  2  0  0  0  0  0  0  0  0  0
   13.0406   -1.1243    7.8318 O   0  0  0  0  0  0  0  0  0  0  0  0
   11.6756   -1.6227    5.7618 C   0  0  2  0  0  0  0  0  0  0  0  0
   11.5500   -2.6616    6.8181 N   0  0  0  0  0  0  0  0  0  0  0  0
    7.1843   -3.0672    5.2025 C   0  0  1  0  0  0  0  0  0  0  0  0
    5.9546   -3.4013    4.5283 O   0  0  0  0  0  0  0  0  0  0  0  0
   13.4061    2.1514   12.0338 C   0  0  0  0  0  0  0  0  0  0  0  0
   13.0408   -2.8226   12.0898 C   0  0  2  0  0  0  0  0  0  0  0  0
   11.7348   -2.2128   12.3608 N   0  0  0  0  0  0  0  0  0  0  0  0
   14.7218   -1.2933    6.0250 C   0  0  2  0  0  0  0  0  0  0  0  0
   13.9276   -2.3288    5.5040 O   0  0  0  0  0  0  0  0  0  0  0  0
   10.3333   -1.3069    4.9658 C   0  0  1  0  0  0  0  0  0  0  0  0
   10.6162   -0.3436    3.9457 O   0  0  0  0  0  0  0  0  0  0  0  0
    6.8294   -2.3744    6.5126 C   0  0  1  0  0  0  0  0  0  0  0  0
    5.8479   -1.3763    6.2114 O   0  0  0  0  0  0  0  0  0  0  0  0
   12.4358    2.4574   10.8546 C   0  0  2  0  0  0  0  0  0  0  0  0
   11.2403    3.0711   11.3019 O   0  0  0  0  0  0  0  0  0  0  0  0
   13.7579   -2.0736   10.9367 C   0  0  2  0  0  0  0  0  0  0  0  0
   16.1596   -1.8454    5.9377 C   0  0  2  0  0  0  0  0  0  0  0  0
   16.2755   -2.5599    7.1580 O   0  0  0  0  0  0  0  0  0  0  0  0
    9.7935   -2.5901    4.2101 C   0  0  2  0  0  0  0  0  0  0  0  0
    9.4907   -3.5136    5.2568 O   0  0  0  0  0  0  0  0  0  0  0  0
    6.2787   -3.3206    7.5810 C   0  0  2  0  0  0  0  0  0  0  0  0
    6.2916   -2.5990    8.8235 O   0  0  0  0  0  0  0  0  0  0  0  0
   12.1506    1.1342   10.1017 C   0  0  2  0  0  0  0  0  0  0  0  0
   13.4215    0.6505    9.5803 O   0  0  0  0  0  0  0  0  0  0  0  0
   15.1163   -2.7138   10.5056 C   0  0  2  0  0  0  0  0  0  0  0  0
   15.6621   -1.9804    9.3739 O   0  0  0  0  0  0  0  0  0  0  0  0
   17.2817   -0.8117    5.8483 C   0  0  0  0  0  0  0  0  0  0  0  0
   18.4983   -1.4584    6.2500 O   0  0  0  0  0  0  0  0  0  0  0  0
   10.9914   -3.1735    3.4856 C   0  0  1  0  0  0  0  0  0  0  0  0
   12.3882   -3.1704    3.8510 O   0  0  0  0  0  0  0  0  0  0  0  0
    7.0473   -4.6369    7.6121 C   0  0  2  0  0  0  0  0  0  0  0  0
    7.6216   -5.1943    6.4200 O   0  0  0  0  0  0  0  0  0  0  0  0
   11.2647    1.3154    8.9164 C   0  0  0  0  0  0  0  0  0  0  0  0
   10.0402    1.8311    9.3799 O   0  0  0  0  0  0  0  0  0  0  0  0
   14.9430   -4.2416   10.2087 C   0  0  1  0  0  0  0  0  0  0  0  0
   16.2713   -4.7938   10.0086 O   0  0  0  0  0  0  0  0  0  0  0  0
   10.7151   -4.4032    2.5667 C   0  0  0  0  0  0  0  0  0  0  0  0
   11.6176   -5.5444    2.8270 N   0  0  0  0  0  0  0  0  0  0  0  0
    6.7111   -5.7753    8.5727 C   0  0  0  0  0  0  0  0  0  0  0  0
    5.3309   -5.6637    9.0100 O   0  0  0  0  0  0  0  0  0  0  0  0
  1  2  1  1  0  0  0
  1  8  1  0  0  0  0
  1 36  1  0  0  0  0
  3  4  1  6  0  0  0
  3 10  1  0  0  0  0
  3 47  1  0  0  0  0
  5 11  1  0  0  0  0
  5 30  1  0  0  0  0
  5 38  1  1  0  0  0
  6 21  1  1  0  0  0
  6 42  1  0  0  0  0
  7 15  1  0  0  0  0
  7 44  1  0  0  0  0
  7 32  1  1  0  0  0
  8  9  1  1  0  0  0
  8 17  1  0  0  0  0
 11 12  1  6  0  0  0
 11 20  1  0  0  0  0
 13  6  1  0  0  0  0
 13 14  1  1  0  0  0
 15 16  1  1  0  0  0
 15 24  1  0  0  0  0
 17 26  1  0  0  0  0
 18 10  1  0  0  0  0
 18 19  1  6  0  0  0
 20 21  1  1  0  0  0
 20 29  1  0  0  0  0
 22 13  1  0  0  0  0
 22 23  1  6  0  0  0
 24 25  1  6  0  0  0
 24 33  1  0  0  0  0
 26 27  1  1  0  0  0
 26 35  1  0  0  0  0
 28  2  1  1  0  0  0
 28 18  1  0  0  0  0
 29 30  1  0  0  0  0
 29 39  1  1  0  0  0
 31 22  1  0  0  0  0
 31 32  1  1  0  0  0
 31 41  1  0  0  0  0
 33 34  1  1  0  0  0
 33 43  1  0  0  0  0
 35 36  1  0  0  0  0
 35 45  1  6  0  0  0
 37 28  1  0  0  0  0
 37 38  1  6  0  0  0
 39 40  1  0  0  0  0
 41 42  1  0  0  0  0
 41 49  1  1  0  0  0
 43 44  1  0  0  0  0
 43 51  1  6  0  0  0
 45 46  1  0  0  0  0
 47 37  1  0  0  0  0
 47 48  1  1  0  0  0
 49 50  1  0  0  0  0
 51 52  1  0  0  0  0
M  END
>  <CHROM.1>
-169.69690380,114.13824362,-80.68789357,-51.39831835,104.19848468,-173.61989716
159.83115939,130.83675332,-60.62453586,-83.10034840,-129.11599669,22.90492570
11.88266310,-2.08033499,7.91180660,0.59725250,0.11080502,1.15767969

>  <Name>
2esj_lig

>  <RI>
0

>  <Rbt.Current_Directory>
/home/itssahil/PROJECTS/Mol_Feturizer/New_Systems/rnas/2esj

>  <Rbt.Executable>
rbdock ($Id: //depot/dev/client3/rdock/2013.1/src/exe/rbdock.cxx#4 $)

>  <Rbt.Library>
libRbt.so (2013.1, Build901 2013/11/27)

>  <Rbt.Parameter_File>
/export/apps/rDock/src/rDock_2013.1_src/data/scripts/dock_solv.prm

>  <Rbt.Receptor>
prm/blind_docking_60.prm

>  <SCORE>
24.912

>  <SCORE.INTER>
9.21422

>  <SCORE.INTER.CONST>
1

>  <SCORE.INTER.POLAR>
0

>  <SCORE.INTER.ROT>
12

>  <SCORE.INTER.SOLV>
31.6909

>  <SCORE.INTER.VDW>
-16.0208

>  <SCORE.INTER.norm>
0.177197

>  <SCORE.INTRA>
5.57294

>  <SCORE.INTRA.DIHEDRAL>
-1.24962

>  <SCORE.INTRA.DIHEDRAL.0>
32.9766

>  <SCORE.INTRA.POLAR>
0

>  <SCORE.INTRA.POLAR.0>
0

>  <SCORE.INTRA.REPUL>
0

>  <SCORE.INTRA.REPUL.0>
0

>  <SCORE.INTRA.SOLV>
-0.488764

>  <SCORE.INTRA.SOLV.lig_0>
-114.358

>  <SCORE.INTRA.VDW>
6.44213

>  <SCORE.INTRA.VDW.0>
-8.24257

>  <SCORE.INTRA.norm>
0.107172

>  <SCORE.RESTR>
10.1248

>  <SCORE.RESTR.CAVITY>
10.1248

>  <SCORE.RESTR.norm>
0.194708

>  <SCORE.SYSTEM>
0

>  <SCORE.SYSTEM.CONST>
0

>  <SCORE.SYSTEM.DIHEDRAL>
0

>  <SCORE.SYSTEM.SOLV>
0

>  <SCORE.SYSTEM.norm>
0

>  <SCORE.heavy>
52

>  <SCORE.norm>
0.479076

>  <RMSD>
15.610

$$$$
2esj_lig
 OpenBabel11021811423D
libRbt.so/2013.1/901 2013/11/27
 52 56  0  0  0  0  0  0  0  0999 V2000
   13.4716    1.8480   10.4508 C   0  0  2  0  0  0  0  0  0  0  0  0
   12.8920    0.5891   10.0582 O   0  0  0  0  0  0  0  0  0  0  0  0
   10.5343   -0.2119   13.5349 C   0  0  2  0  0  0  0  0  0  0  0  0
    9.5658   -0.7539   14.5021 N   0  0  0  0  0  0  0  0  0  0  0  0
   13.4320   -2.4086   10.5213 C   0  0  1  0  0  0  0  0  0  0  0  0
   12.9320   -2.2053    7.2326 C   0  0  1  0  0  0  0  0  0  0  0  0
    8.0664   -1.8132    7.2628 C   0  0  1  0  0  0  0  0  0  0  0  0
   14.5032    2.2508    9.3560 C   0  0  2  0  0  0  0  0  0  0  0  0
   13.8998    2.3189    8.0254 N   0  0  0  0  0  0  0  0  0  0  0  0
    9.7919    0.2694   12.2255 C   0  0  0  0  0  0  0  0  0  0  0  0
   14.4685   -1.9662    9.4877 C   0  0  2  0  0  0  0  0  0  0  0  0
   14.0410   -0.8067    8.7407 O   0  0  0  0  0  0  0  0  0  0  0  0
   11.6404   -1.8876    8.1112 C   0  0  2  0  0  0  0  0  0  0  0  0
   10.8010   -3.1024    8.2864 N   0  0  0  0  0  0  0  0  0  0  0  0
    8.0058   -3.2841    7.6580 C   0  0  1  0  0  0  0  0  0  0  0  0
    7.5050   -3.3922    9.0056 O   0  0  0  0  0  0  0  0  0  0  0  0
   15.7127    1.2629    9.3397 C   0  0  0  0  0  0  0  0  0  0  0  0
   10.8399    0.9020   11.2239 C   0  0  2  0  0  0  0  0  0  0  0  0
   10.1774    1.3452    9.9928 N   0  0  0  0  0  0  0  0  0  0  0  0
   14.5889   -3.2180    8.6674 C   0  0  2  0  0  0  0  0  0  0  0  0
   13.4845   -3.3521    7.8091 O   0  0  0  0  0  0  0  0  0  0  0  0
   10.8856   -0.6329    7.4858 C   0  0  1  0  0  0  0  0  0  0  0  0
   11.8243    0.4342    7.3158 O   0  0  0  0  0  0  0  0  0  0  0  0
    7.1414   -4.1637    6.7628 C   0  0  1  0  0  0  0  0  0  0  0  0
    7.0140   -5.4333    7.4125 O   0  0  0  0  0  0  0  0  0  0  0  0
   16.3223    1.1903   10.7710 C   0  0  2  0  0  0  0  0  0  0  0  0
   17.4751    0.3683   10.8114 O   0  0  0  0  0  0  0  0  0  0  0  0
   11.9603   -0.1191   10.8969 C   0  0  2  0  0  0  0  0  0  0  0  0
   14.4355   -4.3895    9.6592 C   0  0  2  0  0  0  0  0  0  0  0  0
   13.5875   -3.8288   10.6488 O   0  0  0  0  0  0  0  0  0  0  0  0
   10.3307   -0.9545    6.0374 C   0  0  2  0  0  0  0  0  0  0  0  0
    9.3760   -1.9957    6.2495 O   0  0  0  0  0  0  0  0  0  0  0  0
    5.7491   -3.5899    6.4940 C   0  0  2  0  0  0  0  0  0  0  0  0
    5.1870   -4.3498    5.4117 O   0  0  0  0  0  0  0  0  0  0  0  0
   15.2271    0.6849   11.7426 C   0  0  2  0  0  0  0  0  0  0  0  0
   14.1442    1.6583   11.7179 O   0  0  0  0  0  0  0  0  0  0  0  0
   12.6581   -0.7276   12.1554 C   0  0  2  0  0  0  0  0  0  0  0  0
   13.6335   -1.7226   11.7371 O   0  0  0  0  0  0  0  0  0  0  0  0
   15.7178   -4.8952   10.3193 C   0  0  0  0  0  0  0  0  0  0  0  0
   15.6641   -4.5280   11.7057 O   0  0  0  0  0  0  0  0  0  0  0  0
   11.4817   -1.6024    5.2919 C   0  0  1  0  0  0  0  0  0  0  0  0
   12.5500   -2.4404    5.7828 O   0  0  0  0  0  0  0  0  0  0  0  0
    5.8024   -2.0869    6.2437 C   0  0  2  0  0  0  0  0  0  0  0  0
    6.7834   -1.2576    6.8854 O   0  0  0  0  0  0  0  0  0  0  0  0
   15.6869    0.6205   13.1593 C   0  0  0  0  0  0  0  0  0  0  0  0
   14.6606    0.0163   13.9089 O   0  0  0  0  0  0  0  0  0  0  0  0
   11.5998   -1.3023   13.1562 C   0  0  1  0  0  0  0  0  0  0  0  0
   12.3095   -1.6661   14.3700 O   0  0  0  0  0  0  0  0  0  0  0  0
   11.2361   -1.9310    3.7871 C   0  0  0  0  0  0  0  0  0  0  0  0
   10.6416   -3.2664    3.5679 N   0  0  0  0  0  0  0  0  0  0  0  0
    4.5606   -1.2454    5.9581 C   0  0  0  0  0  0  0  0  0  0  0  0
    3.6640   -1.2814    7.0998 O   0  0  0  0  0  0  0  0  0  0  0  0
  1  2  1  6  0  0  0
  1  8  1  0  0  0  0
  1 36  1  0  0  0  0
  3  4  1  1  0  0  0
  3 10  1  0  0  0  0
  3 47  1  0  0  0  0
  5 11  1  0  0  0  0
  5 30  1  0  0  0  0
  5 38  1  1  0  0  0
  6 21  1  1  0  0  0
  6 42  1  0  0  0  0
  7 15  1  0  0  0  0
  7 44  1  0  0  0  0
  7 32  1  6  0  0  0
  8  9  1  6  0  0  0
  8 17  1  0  0  0  0
 11 12  1  6  0  0  0
 11 20  1  0  0  0  0
 13  6  1  0  0  0  0
 13 14  1  6  0  0  0
 15 16  1  1  0  0  0
 15 24  1  0  0  0  0
 17 26  1  0  0  0  0
 18 10  1  0  0  0  0
 18 19  1  6  0  0  0
 20 21  1  6  0  0  0
 20 29  1  0  0  0  0
 22 13  1  0  0  0  0
 22 23  1  6  0  0  0
 24 25  1  1  0  0  0
 24 33  1  0  0  0  0
 26 27  1  6  0  0  0
 26 35  1  0  0  0  0
 28  2  1  6  0  0  0
 28 18  1  0  0  0  0
 29 30  1  0  0  0  0
 29 39  1  1  0  0  0
 31 22  1  0  0  0  0
 31 32  1  1  0  0  0
 31 41  1  0  0  0  0
 33 34  1  6  0  0  0
 33 43  1  0  0  0  0
 35 36  1  0  0  0  0
 35 45  1  1  0  0  0
 37 28  1  0  0  0  0
 37 38  1  6  0  0  0
 39 40  1  0  0  0  0
 41 42  1  0  0  0  0
 41 49  1  6  0  0  0
 43 44  1  0  0  0  0
 43 51  1  1  0  0  0
 45 46  1  0  0  0  0
 47 37  1  0  0  0  0
 47 48  1  1  0  0  0
 49 50  1  0  0  0  0
 51 52  1  0  0  0  0
M  END
>  <CHROM.1>
175.64103498,110.21646112,-100.69661911,-149.34711009,36.32645091,53.65691066
110.30425617,57.87827392,-173.76278176,-27.57744286,-88.40537274,62.69945299
11.52619655,-1.41010991,9.16011579,0.63484833,0.04537357,1.20081602

>  <Name>
2esj_lig

>  <RI>
0

>  <Rbt.Current_Directory>
/home/itssahil/PROJECTS/Mol_Feturizer/New_Systems/rnas/2esj

>  <Rbt.Executable>
rbdock ($Id: //depot/dev/client3/rdock/2013.1/src/exe/rbdock.cxx#4 $)

>  <Rbt.Library>
libRbt.so (2013.1, Build901 2013/11/27)

>  <Rbt.Parameter_File>
/export/apps/rDock/src/rDock_2013.1_src/data/scripts/dock_solv.prm

>  <Rbt.Receptor>
prm/blind_docking_60.prm

>  <SCORE>
29.57

>  <SCORE.INTER>
7.8043

>  <SCORE.INTER.CONST>
1

>  <SCORE.INTER.POLAR>
-0.624367

>  <SCORE.INTER.ROT>
12

>  <SCORE.INTER.SOLV>
26.0715

>  <SCORE.INTER.VDW>
-13.0064

>  <SCORE.INTER.norm>
0.150083

>  <SCORE.INTRA>
16.2658

>  <SCORE.INTRA.DIHEDRAL>
-0.157306

>  <SCORE.INTRA.DIHEDRAL.0>
32.9766

>  <SCORE.INTRA.POLAR>
0

>  <SCORE.INTRA.POLAR.0>
0

>  <SCORE.INTRA.REPUL>
0

>  <SCORE.INTRA.REPUL.0>
0

>  <SCORE.INTRA.SOLV>
8.1066

>  <SCORE.INTRA.SOLV.lig_0>
-114.358

>  <SCORE.INTRA.VDW>
12.2912

>  <SCORE.INTRA.VDW.0>
-8.24257

>  <SCORE.INTRA.norm>
0.312804

>  <SCORE.RESTR>
5.49986

>  <SCORE.RESTR.CAVITY>
5.49986

>  <SCORE.RESTR.norm>
0.105767

>  <SCORE.SYSTEM>
0

>  <SCORE.SYSTEM.CONST>
0

>  <SCORE.SYSTEM.DIHEDRAL>
0

>  <SCORE.SYSTEM.SOLV>
0

>  <SCORE.SYSTEM.norm>
0

>  <SCORE.heavy>
52

>  <SCORE.norm>
0.568654

>  <RMSD>
15.681

$$$$
2esj_lig
 OpenBabel11021811423D
libRbt.so/2013.1/901 2013/11/27
 52 56  0  0  0  0  0  0  0  0999 V2000
   11.5982   -0.0276   12.6215 C   0  0  2  0  0  0  0  0  0  0  0  0
   12.8663   -0.3988   13.1951 O   0  0  0  0  0  0  0  0  0  0  0  0
   17.0442    0.0757   12.4157 C   0  0  2  0  0  0  0  0  0  0  0  0
   18.3886    0.0674   11.8158 N   0  0  0  0  0  0  0  0  0  0  0  0
   12.9987    1.2196   10.4064 C   0  0  1  0  0  0  0  0  0  0  0  0
   11.0831   -0.1193    7.0332 C   0  0  1  0  0  0  0  0  0  0  0  0
    7.5922   -2.7166    7.2336 C   0  0  1  0  0  0  0  0  0  0  0  0
   10.4867   -0.4559   13.6245 C   0  0  2  0  0  0  0  0  0  0  0  0
   10.6799    0.1331   14.9492 N   0  0  0  0  0  0  0  0  0  0  0  0
   16.4579   -1.3908   12.4694 C   0  0  0  0  0  0  0  0  0  0  0  0
   12.1623    2.2586    9.6585 C   0  0  2  0  0  0  0  0  0  0  0  0
   10.8563    2.4412   10.2470 O   0  0  0  0  0  0  0  0  0  0  0  0
    9.5108   -0.3312    6.8779 C   0  0  2  0  0  0  0  0  0  0  0  0
    8.9184   -0.8736    8.1292 N   0  0  0  0  0  0  0  0  0  0  0  0
    7.4492   -3.7049    8.3853 C   0  0  1  0  0  0  0  0  0  0  0  0
    6.6331   -3.1149    9.4170 O   0  0  0  0  0  0  0  0  0  0  0  0
   10.4113   -2.0114   13.7418 C   0  0  0  0  0  0  0  0  0  0  0  0
   15.0400   -1.3697   13.1699 C   0  0  2  0  0  0  0  0  0  0  0  0
   14.4669   -2.7187   13.2204 N   0  0  0  0  0  0  0  0  0  0  0  0
   12.1402    1.6547    8.2841 C   0  0  2  0  0  0  0  0  0  0  0  0
   11.2336    0.5825    8.2322 O   0  0  0  0  0  0  0  0  0  0  0  0
    9.2324   -1.1972    5.5712 C   0  0  1  0  0  0  0  0  0  0  0  0
    9.9112   -0.5955    4.4641 O   0  0  0  0  0  0  0  0  0  0  0  0
    6.8395   -5.0517    8.0156 C   0  0  1  0  0  0  0  0  0  0  0  0
    6.5673   -5.7434    9.2394 O   0  0  0  0  0  0  0  0  0  0  0  0
   10.2290   -2.6150   12.3176 C   0  0  2  0  0  0  0  0  0  0  0  0
   10.0755   -4.0225   12.3579 O   0  0  0  0  0  0  0  0  0  0  0  0
   14.0826   -0.4037   12.4247 C   0  0  2  0  0  0  0  0  0  0  0  0
   13.5182    0.9882    8.0932 C   0  0  2  0  0  0  0  0  0  0  0  0
   13.8571    0.6260    9.4225 O   0  0  0  0  0  0  0  0  0  0  0  0
    9.8343   -2.6563    5.7053 C   0  0  2  0  0  0  0  0  0  0  0  0
    9.1126   -3.2361    6.7931 O   0  0  0  0  0  0  0  0  0  0  0  0
    5.5512   -4.9416    7.1981 C   0  0  2  0  0  0  0  0  0  0  0  0
    5.2795   -6.2502    6.6703 O   0  0  0  0  0  0  0  0  0  0  0  0
   11.4441   -2.1984   11.4521 C   0  0  2  0  0  0  0  0  0  0  0  0
   11.4413   -0.7441   11.3741 O   0  0  0  0  0  0  0  0  0  0  0  0
   14.6527    1.0379   12.2301 C   0  0  2  0  0  0  0  0  0  0  0  0
   13.7106    1.8333   11.4580 O   0  0  0  0  0  0  0  0  0  0  0  0
   14.6248    1.8666    7.5105 C   0  0  0  0  0  0  0  0  0  0  0  0
   14.9628    2.8494    8.5002 O   0  0  0  0  0  0  0  0  0  0  0  0
   11.2523   -2.4702    6.2099 C   0  0  1  0  0  0  0  0  0  0  0  0
   11.8026   -1.4548    7.0763 O   0  0  0  0  0  0  0  0  0  0  0  0
    5.6512   -3.8473    6.1413 C   0  0  2  0  0  0  0  0  0  0  0  0
    6.4367   -2.6658    6.3622 O   0  0  0  0  0  0  0  0  0  0  0  0
   11.3535   -2.6835   10.0454 C   0  0  0  0  0  0  0  0  0  0  0  0
   10.0233   -2.5052    9.6225 O   0  0  0  0  0  0  0  0  0  0  0  0
   16.0775    0.9910   11.5820 C   0  0  1  0  0  0  0  0  0  0  0  0
   16.6098    2.3418   11.6163 O   0  0  0  0  0  0  0  0  0  0  0  0
   12.1195   -3.7607    6.3340 C   0  0  0  0  0  0  0  0  0  0  0  0
   13.5292   -3.5604    5.9376 N   0  0  0  0  0  0  0  0  0  0  0  0
    4.5106   -3.5058    5.1852 C   0  0  0  0  0  0  0  0  0  0  0  0
    4.1514   -2.1055    5.3223 O   0  0  0  0  0  0  0  0  0  0  0  0
  1  2  1  1  0  0  0
  1  8  1  0  0  0  0
  1 36  1  0  0  0  0
  3  4  1  6  0  0  0
  3 10  1  0  0  0  0
  3 47  1  0  0  0  0
  5 11  1  0  0  0  0
  5 30  1  0  0  0  0
  5 38  1  1  0  0  0
  6 21  1  1  0  0  0
  6 42  1  0  0  0  0
  7 15  1  0  0  0  0
  7 44  1  0  0  0  0
  7 32  1  6  0  0  0
  8  9  1  1  0  0  0
  8 17  1  0  0  0  0
 11 12  1  1  0  0  0
 11 20  1  0  0  0  0
 13  6  1  0  0  0  0
 13 14  1  1  0  0  0
 15 16  1  1  0  0  0
 15 24  1  0  0  0  0
 17 26  1  0  0  0  0
 18 10  1  0  0  0  0
 18 19  1  6  0  0  0
 20 21  1  1  0  0  0
 20 29  1  0  0  0  0
 22 13  1  0  0  0  0
 22 23  1  6  0  0  0
 24 25  1  1  0  0  0
 24 33  1  0  0  0  0
 26 27  1  1  0  0  0
 26 35  1  0  0  0  0
 28  2  1  1  0  0  0
 28 18  1  0  0  0  0
 29 30  1  0  0  0  0
 29 39  1  1  0  0  0
 31 22  1  0  0  0  0
 31 32  1  1  0  0  0
 31 41  1  0  0  0  0
 33 34  1  6  0  0  0
 33 43  1  0  0  0  0
 35 36  1  0  0  0  0
 35 45  1  6  0  0  0
 37 28  1  0  0  0  0
 37 38  1  6  0  0  0
 39 40  1  0  0  0  0
 41 42  1  0  0  0  0
 41 49  1  1  0  0  0
 43 44  1  0  0  0  0
 43 51  1  1  0  0  0
 45 46  1  0  0  0  0
 47 37  1  0  0  0  0
 47 48  1  1  0  0  0
 49 50  1  0  0  0  0
 51 52  1  0  0  0  0
M  END
>  <CHROM.1>
166.89277024,-175.13947850,-136.87794478,-179.82352051,-179.32005918,-157.39536202
69.05685776,24.66037685,41.52127051,-37.41004668,141.42268085,122.58601488
11.04757303,-1.28100068,9.35114819,0.35912071,0.58477833,1.84807702

>  <Name>
2esj_lig

>  <RI>
0

>  <Rbt.Current_Directory>
/home/itssahil/PROJECTS/Mol_Feturizer/New_Systems/rnas/2esj

>  <Rbt.Executable>
rbdock ($Id: //depot/dev/client3/rdock/2013.1/src/exe/rbdock.cxx#4 $)

>  <Rbt.Library>
libRbt.so (2013.1, Build901 2013/11/27)

>  <Rbt.Parameter_File>
/export/apps/rDock/src/rDock_2013.1_src/data/scripts/dock_solv.prm

>  <Rbt.Receptor>
prm/blind_docking_60.prm

>  <SCORE>
15.7354

>  <SCORE.INTER>
0.350813

>  <SCORE.INTER.CONST>
1

>  <SCORE.INTER.POLAR>
-1.70939

>  <SCORE.INTER.ROT>
12

>  <SCORE.INTER.SOLV>
33.78

>  <SCORE.INTER.VDW>
-16.9281

>  <SCORE.INTER.norm>
0.00674641

>  <SCORE.INTRA>
7.63214

>  <SCORE.INTRA.DIHEDRAL>
-9.2593

>  <SCORE.INTRA.DIHEDRAL.0>
32.9766

>  <SCORE.INTRA.POLAR>
0

>  <SCORE.INTRA.POLAR.0>
0

>  <SCORE.INTRA.REPUL>
0.875155

>  <SCORE.INTRA.REPUL.0>
0

>  <SCORE.INTRA.SOLV>
3.50476

>  <SCORE.INTRA.SOLV.lig_0>
-114.358

>  <SCORE.INTRA.VDW>
6.13364

>  <SCORE.INTRA.VDW.0>
-8.24257

>  <SCORE.INTRA.norm>
0.146772

>  <SCORE.RESTR>
7.75244

>  <SCORE.RESTR.CAVITY>
7.75244

>  <SCORE.RESTR.norm>
0.149085

>  <SCORE.SYSTEM>
0

>  <SCORE.SYSTEM.CONST>
0

>  <SCORE.SYSTEM.DIHEDRAL>
0

>  <SCORE.SYSTEM.SOLV>
0

>  <SCORE.SYSTEM.norm>
0

>  <SCORE.heavy>
52

>  <SCORE.norm>
0.302604

>  <RMSD>
15.685

$$$$
2esj_lig
 OpenBabel11021811423D
libRbt.so/2013.1/901 2013/11/27
 52 56  0  0  0  0  0  0  0  0999 V2000
   11.9792    0.1933   11.7390 C   0  0  2  0  0  0  0  0  0  0  0  0
   13.0971    0.1200   12.6444 O   0  0  0  0  0  0  0  0  0  0  0  0
   17.3633    0.3599   12.4724 C   0  0  2  0  0  0  0  0  0  0  0  0
   18.7902    0.1299   12.1922 N   0  0  0  0  0  0  0  0  0  0  0  0
   13.7298    0.2314    9.5277 C   0  0  1  0  0  0  0  0  0  0  0  0
   11.5479   -1.0070    6.7541 C   0  0  1  0  0  0  0  0  0  0  0  0
    7.0372   -3.7109    5.7645 C   0  0  1  0  0  0  0  0  0  0  0  0
   10.7889    0.8310   12.5147 C   0  0  2  0  0  0  0  0  0  0  0  0
   11.1285    2.1408   13.0700 N   0  0  0  0  0  0  0  0  0  0  0  0
   16.7146   -0.9310   13.1128 C   0  0  0  0  0  0  0  0  0  0  0  0
   13.7810    0.4997    8.0231 C   0  0  2  0  0  0  0  0  0  0  0  0
   12.6419    1.2568    7.5598 O   0  0  0  0  0  0  0  0  0  0  0  0
   10.2195   -1.2261    7.6077 C   0  0  2  0  0  0  0  0  0  0  0  0
   10.1391   -2.6184    8.1235 N   0  0  0  0  0  0  0  0  0  0  0  0
    6.2254   -2.4227    5.8345 C   0  0  1  0  0  0  0  0  0  0  0  0
    5.0504   -2.5580    5.0102 O   0  0  0  0  0  0  0  0  0  0  0  0
   10.2951   -0.1160   13.6542 C   0  0  0  0  0  0  0  0  0  0  0  0
   15.1984   -0.6454   13.4610 C   0  0  2  0  0  0  0  0  0  0  0  0
   14.5683   -1.8340   14.0452 N   0  0  0  0  0  0  0  0  0  0  0  0
   13.8431   -0.9049    7.4964 C   0  0  2  0  0  0  0  0  0  0  0  0
   12.5761   -1.5095    7.5560 O   0  0  0  0  0  0  0  0  0  0  0  0
    8.9670   -0.7549    6.7449 C   0  0  1  0  0  0  0  0  0  0  0  0
    9.2092    0.5712    6.2637 O   0  0  0  0  0  0  0  0  0  0  0  0
    5.7755   -2.0117    7.2313 C   0  0  1  0  0  0  0  0  0  0  0  0
    4.8439   -0.9354    7.0765 O   0  0  0  0  0  0  0  0  0  0  0  0
    9.9625   -1.5089   13.0420 C   0  0  2  0  0  0  0  0  0  0  0  0
    9.4339   -2.3972   14.0103 O   0  0  0  0  0  0  0  0  0  0  0  0
   14.4279   -0.1937   12.1932 C   0  0  2  0  0  0  0  0  0  0  0  0
   14.6852   -1.7012    8.5144 C   0  0  2  0  0  0  0  0  0  0  0  0
   14.4065   -1.0176    9.7261 O   0  0  0  0  0  0  0  0  0  0  0  0
    8.7819   -1.6551    5.4547 C   0  0  2  0  0  0  0  0  0  0  0  0
    8.5092   -2.9587    5.9712 O   0  0  0  0  0  0  0  0  0  0  0  0
    5.1170   -3.1419    8.0243 C   0  0  2  0  0  0  0  0  0  0  0  0
    5.0399   -2.7026    9.3903 O   0  0  0  0  0  0  0  0  0  0  0  0
   11.2487   -2.0750   12.3906 C   0  0  2  0  0  0  0  0  0  0  0  0
   11.6397   -1.1534   11.3329 O   0  0  0  0  0  0  0  0  0  0  0  0
   15.0842    1.0077   11.4402 C   0  0  2  0  0  0  0  0  0  0  0  0
   14.3261    1.2974   10.2328 O   0  0  0  0  0  0  0  0  0  0  0  0
   16.1954   -1.7219    8.2811 C   0  0  0  0  0  0  0  0  0  0  0  0
   16.7117   -0.4428    8.6776 O   0  0  0  0  0  0  0  0  0  0  0  0
   10.1556   -1.7477    4.8187 C   0  0  1  0  0  0  0  0  0  0  0  0
   11.4631   -1.7453    5.4309 O   0  0  0  0  0  0  0  0  0  0  0  0
    5.8527   -4.4632    7.8310 C   0  0  2  0  0  0  0  0  0  0  0  0
    6.5140   -4.7755    6.5953 O   0  0  0  0  0  0  0  0  0  0  0  0
   11.0363   -3.3929   11.7268 C   0  0  0  0  0  0  0  0  0  0  0  0
   12.2903   -4.0243   11.6317 O   0  0  0  0  0  0  0  0  0  0  0  0
   16.5969    0.7246   11.1507 C   0  0  1  0  0  0  0  0  0  0  0  0
   17.1722    1.9530   10.6316 O   0  0  0  0  0  0  0  0  0  0  0  0
   10.2399   -2.5027    3.4564 C   0  0  0  0  0  0  0  0  0  0  0  0
   11.5984   -2.9914    3.1398 N   0  0  0  0  0  0  0  0  0  0  0  0
    5.4131   -5.7663    8.4945 C   0  0  0  0  0  0  0  0  0  0  0  0
    6.4905   -6.2942    9.3126 O   0  0  0  0  0  0  0  0  0  0  0  0
  1  2  1  1  0  0  0
  1  8  1  0  0  0  0
  1 36  1  0  0  0  0
  3  4  1  6  0  0  0
  3 10  1  0  0  0  0
  3 47  1  0  0  0  0
  5 11  1  0  0  0  0
  5 30  1  0  0  0  0
  5 38  1  1  0  0  0
  6 21  1  1  0  0  0
  6 42  1  0  0  0  0
  7 15  1  0  0  0  0
  7 44  1  0  0  0  0
  7 32  1  1  0  0  0
  8  9  1  1  0  0  0
  8 17  1  0  0  0  0
 11 12  1  6  0  0  0
 11 20  1  0  0  0  0
 13  6  1  0  0  0  0
 13 14  1  6  0  0  0
 15 16  1  6  0  0  0
 15 24  1  0  0  0  0
 17 26  1  0  0  0  0
 18 10  1  0  0  0  0
 18 19  1  6  0  0  0
 20 21  1  1  0  0  0
 20 29  1  0  0  0  0
 22 13  1  0  0  0  0
 22 23  1  6  0  0  0
 24 25  1  6  0  0  0
 24 33  1  0  0  0  0
 26 27  1  1  0  0  0
 26 35  1  0  0  0  0
 28  2  1  1  0  0  0
 28 18  1  0  0  0  0
 29 30  1  0  0  0  0
 29 39  1  6  0  0  0
 31 22  1  0  0  0  0
 31 32  1  1  0  0  0
 31 41  1  0  0  0  0
 33 34  1  1  0  0  0
 33 43  1  0  0  0  0
 35 36  1  0  0  0  0
 35 45  1  6  0  0  0
 37 28  1  0  0  0  0
 37 38  1  6  0  0  0
 39 40  1  0  0  0  0
 41 42  1  0  0  0  0
 41 49  1  1  0  0  0
 43 44  1  0  0  0  0
 43 51  1  6  0  0  0
 45 46  1  0  0  0  0
 47 37  1  0  0  0  0
 47 48  1  1  0  0  0
 49 50  1  0  0  0  0
 51 52  1  0  0  0  0
M  END
>  <CHROM.1>
-168.58620193,-144.31553583,-146.98480023,-33.99008326,65.85604397,-161.14324783
75.36989398,113.70183523,-158.19988038,-34.43845913,-158.71355840,-121.82268869
11.23785344,-1.40448221,9.18424213,0.49398369,0.34129649,1.56464453

>  <Name>
2esj_lig

>  <RI>
0

>  <Rbt.Current_Directory>
/home/itssahil/PROJECTS/Mol_Feturizer/New_Systems/rnas/2esj

>  <Rbt.Executable>
rbdock ($Id: //depot/dev/client3/rdock/2013.1/src/exe/rbdock.cxx#4 $)

>  <Rbt.Library>
libRbt.so (2013.1, Build901 2013/11/27)

>  <Rbt.Parameter_File>
/export/apps/rDock/src/rDock_2013.1_src/data/scripts/dock_solv.prm

>  <Rbt.Receptor>
prm/blind_docking_60.prm

>  <SCORE>
2.97012

>  <SCORE.INTER>
-9.63931

>  <SCORE.INTER.CONST>
1

>  <SCORE.INTER.POLAR>
-0.19832

>  <SCORE.INTER.ROT>
12

>  <SCORE.INTER.SOLV>
26.9651

>  <SCORE.INTER.VDW>
-26.3535

>  <SCORE.INTER.norm>
-0.185371

>  <SCORE.INTRA>
6.13815

>  <SCORE.INTRA.DIHEDRAL>
-0.914778

>  <SCORE.INTRA.DIHEDRAL.0>
32.9766

>  <SCORE.INTRA.POLAR>
0

>  <SCORE.INTRA.POLAR.0>
0

>  <SCORE.INTRA.REPUL>
0.0711226

>  <SCORE.INTRA.REPUL.0>
0

>  <SCORE.INTRA.SOLV>
-0.672728

>  <SCORE.INTRA.SOLV.lig_0>
-114.358

>  <SCORE.INTRA.VDW>
6.57629

>  <SCORE.INTRA.VDW.0>
-8.24257

>  <SCORE.INTRA.norm>
0.118041

>  <SCORE.RESTR>
6.47129

>  <SCORE.RESTR.CAVITY>
6.47129

>  <SCORE.RESTR.norm>
0.124448

>  <SCORE.SYSTEM>
0

>  <SCORE.SYSTEM.CONST>
0

>  <SCORE.SYSTEM.DIHEDRAL>
0

>  <SCORE.SYSTEM.SOLV>
0

>  <SCORE.SYSTEM.norm>
0

>  <SCORE.heavy>
52

>  <SCORE.norm>
0.0571178

>  <RMSD>
15.757

$$$$
2esj_lig
 OpenBabel11021811423D
libRbt.so/2013.1/901 2013/11/27
 52 56  0  0  0  0  0  0  0  0999 V2000
    6.9296    6.3170   17.1319 C   0  0  2  0  0  0  0  0  0  0  0  0
    7.4232    5.5744   16.0007 O   0  0  0  0  0  0  0  0  0  0  0  0
    7.5488    7.3818   12.1270 C   0  0  2  0  0  0  0  0  0  0  0  0
    7.9475    8.1006   10.9056 N   0  0  0  0  0  0  0  0  0  0  0  0
    8.8324    3.0921   12.8818 C   0  0  1  0  0  0  0  0  0  0  0  0
   10.3521    1.2760    9.7842 C   0  0  1  0  0  0  0  0  0  0  0  0
   14.4510   -1.5924    9.4809 C   0  0  1  0  0  0  0  0  0  0  0  0
    6.5290    5.2875   18.2296 C   0  0  2  0  0  0  0  0  0  0  0  0
    7.6394    4.4088   18.5957 N   0  0  0  0  0  0  0  0  0  0  0  0
    7.7090    8.3165   13.3912 C   0  0  0  0  0  0  0  0  0  0  0  0
   10.2730    2.7186   12.5301 C   0  0  2  0  0  0  0  0  0  0  0  0
   10.8042    3.5246   11.4560 O   0  0  0  0  0  0  0  0  0  0  0  0
   10.2270   -0.1074    9.0020 C   0  0  2  0  0  0  0  0  0  0  0  0
   10.4355   -1.2600    9.9179 N   0  0  0  0  0  0  0  0  0  0  0  0
   13.9530   -2.7945   10.2749 C   0  0  1  0  0  0  0  0  0  0  0  0
   14.9970   -3.7869   10.3364 O   0  0  0  0  0  0  0  0  0  0  0  0
    5.3050    4.4325   17.7715 C   0  0  0  0  0  0  0  0  0  0  0  0
    7.2206    7.5478   14.6843 C   0  0  2  0  0  0  0  0  0  0  0  0
    7.3718    8.3898   15.8755 N   0  0  0  0  0  0  0  0  0  0  0  0
   10.1034    1.2671   12.1858 C   0  0  2  0  0  0  0  0  0  0  0  0
    9.5353    1.1274   10.9082 O   0  0  0  0  0  0  0  0  0  0  0  0
   11.1891   -0.0731    7.7339 C   0  0  1  0  0  0  0  0  0  0  0  0
   10.9219    1.1154    6.9824 O   0  0  0  0  0  0  0  0  0  0  0  0
   13.5057   -2.4932   11.7002 C   0  0  1  0  0  0  0  0  0  0  0  0
   13.3033   -3.7503   12.3551 O   0  0  0  0  0  0  0  0  0  0  0  0
    4.1460    5.3903   17.3655 C   0  0  2  0  0  0  0  0  0  0  0  0
    2.9739    4.6782   17.0114 O   0  0  0  0  0  0  0  0  0  0  0  0
    8.0081    6.2228   14.8559 C   0  0  2  0  0  0  0  0  0  0  0  0
    9.0155    0.7310   13.1390 C   0  0  2  0  0  0  0  0  0  0  0  0
    8.2199    1.8853   13.3571 O   0  0  0  0  0  0  0  0  0  0  0  0
   12.7106    0.0214    8.1646 C   0  0  2  0  0  0  0  0  0  0  0  0
   12.9498   -1.1917    8.8799 O   0  0  0  0  0  0  0  0  0  0  0  0
   14.5108   -1.6615   12.4991 C   0  0  2  0  0  0  0  0  0  0  0  0
   13.8287   -1.2028   13.6777 O   0  0  0  0  0  0  0  0  0  0  0  0
    4.6399    6.2890   16.2047 C   0  0  2  0  0  0  0  0  0  0  0  0
    5.7657    7.0644   16.7068 O   0  0  0  0  0  0  0  0  0  0  0  0
    7.9912    5.3010   13.5946 C   0  0  2  0  0  0  0  0  0  0  0  0
    8.8180    4.1289   13.8378 O   0  0  0  0  0  0  0  0  0  0  0  0
    9.4962    0.1865   14.4836 C   0  0  0  0  0  0  0  0  0  0  0  0
   10.1480   -1.0675   14.2342 O   0  0  0  0  0  0  0  0  0  0  0  0
   12.7752    1.1259    9.2019 C   0  0  1  0  0  0  0  0  0  0  0  0
   11.7940    1.5423   10.1757 O   0  0  0  0  0  0  0  0  0  0  0  0
   15.1150   -0.5481   11.6507 C   0  0  2  0  0  0  0  0  0  0  0  0
   15.3152   -0.7110   10.2382 O   0  0  0  0  0  0  0  0  0  0  0  0
    3.6223    7.2848   15.7628 C   0  0  0  0  0  0  0  0  0  0  0  0
    3.3734    8.1441   16.8490 O   0  0  0  0  0  0  0  0  0  0  0  0
    8.4293    6.0951   12.3180 C   0  0  1  0  0  0  0  0  0  0  0  0
    8.2003    5.2299   11.1741 O   0  0  0  0  0  0  0  0  0  0  0  0
   14.1950    1.5029    9.7262 C   0  0  0  0  0  0  0  0  0  0  0  0
   14.9870    2.2918    8.7591 N   0  0  0  0  0  0  0  0  0  0  0  0
   16.1565    0.4333   12.1833 C   0  0  0  0  0  0  0  0  0  0  0  0
   15.4977    1.6021   12.7390 O   0  0  0  0  0  0  0  0  0  0  0  0
  1  2  1  6  0  0  0
  1  8  1  0  0  0  0
  1 36  1  0  0  0  0
  3  4  1  6  0  0  0
  3 10  1  0  0  0  0
  3 47  1  0  0  0  0
  5 11  1  0  0  0  0
  5 30  1  0  0  0  0
  5 38  1  1  0  0  0
  6 21  1  1  0  0  0
  6 42  1  0  0  0  0
  7 15  1  0  0  0  0
  7 44  1  0  0  0  0
  7 32  1  1  0  0  0
  8  9  1  6  0  0  0
  8 17  1  0  0  0  0
 11 12  1  6  0  0  0
 11 20  1  0  0  0  0
 13  6  1  0  0  0  0
 13 14  1  1  0  0  0
 15 16  1  1  0  0  0
 15 24  1  0  0  0  0
 17 26  1  0  0  0  0
 18 10  1  0  0  0  0
 18 19  1  1  0  0  0
 20 21  1  6  0  0  0
 20 29  1  0  0  0  0
 22 13  1  0  0  0  0
 22 23  1  6  0  0  0
 24 25  1  1  0  0  0
 24 33  1  0  0  0  0
 26 27  1  6  0  0  0
 26 35  1  0  0  0  0
 28  2  1  1  0  0  0
 28 18  1  0  0  0  0
 29 30  1  0  0  0  0
 29 39  1  1  0  0  0
 31 22  1  0  0  0  0
 31 32  1  1  0  0  0
 31 41  1  0  0  0  0
 33 34  1  1  0  0  0
 33 43  1  0  0  0  0
 35 36  1  0  0  0  0
 35 45  1  1  0  0  0
 37 28  1  0  0  0  0
 37 38  1  1  0  0  0
 39 40  1  0  0  0  0
 41 42  1  0  0  0  0
 41 49  1  1  0  0  0
 43 44  1  0  0  0  0
 43 51  1  1  0  0  0
 45 46  1  0  0  0  0
 47 37  1  0  0  0  0
 47 48  1  6  0  0  0
 49 50  1  0  0  0  0
 51 52  1  0  0  0  0
M  END
>  <CHROM.1>
-173.54897438,129.88137000,121.34730389,171.09894014,79.16294632,-34.95806306
-72.38996235,177.06915077,63.02736053,173.37575853,75.02933422,-90.64622544
9.95930504,2.56175876,12.71476502,-3.13814248,0.86971041,-0.92542585

>  <Name>
2esj_lig

>  <RI>
0

>  <Rbt.Current_Directory>
/home/itssahil/PROJECTS/Mol_Feturizer/New_Systems/rnas/2esj

>  <Rbt.Executable>
rbdock ($Id: //depot/dev/client3/rdock/2013.1/src/exe/rbdock.cxx#4 $)

>  <Rbt.Library>
libRbt.so (2013.1, Build901 2013/11/27)

>  <Rbt.Parameter_File>
/export/apps/rDock/src/rDock_2013.1_src/data/scripts/dock_solv.prm

>  <Rbt.Receptor>
prm/blind_docking_40.prm

>  <SCORE>
22.8839

>  <SCORE.INTER>
-6.98735

>  <SCORE.INTER.CONST>
1

>  <SCORE.INTER.POLAR>
-2.12068

>  <SCORE.INTER.ROT>
12

>  <SCORE.INTER.SOLV>
33.0444

>  <SCORE.INTER.VDW>
-20.2041

>  <SCORE.INTER.norm>
-0.134372

>  <SCORE.INTRA>
12.8932

>  <SCORE.INTRA.DIHEDRAL>
-7.75816

>  <SCORE.INTRA.DIHEDRAL.0>
32.9766

>  <SCORE.INTRA.POLAR>
0

>  <SCORE.INTRA.POLAR.0>
0

>  <SCORE.INTRA.REPUL>
0.00268956

>  <SCORE.INTRA.REPUL.0>
0

>  <SCORE.INTRA.SOLV>
3.38754

>  <SCORE.INTRA.SOLV.lig_0>
-114.358

>  <SCORE.INTRA.VDW>
15.0651

>  <SCORE.INTRA.VDW.0>
-8.24257

>  <SCORE.INTRA.norm>
0.247946

>  <SCORE.RESTR>
16.9781

>  <SCORE.RESTR.CAVITY>
16.9781

>  <SCORE.RESTR.norm>
0.326502

>  <SCORE.SYSTEM>
0

>  <SCORE.SYSTEM.CONST>
0

>  <SCORE.SYSTEM.DIHEDRAL>
0

>  <SCORE.SYSTEM.SOLV>
0

>  <SCORE.SYSTEM.norm>
0

>  <SCORE.heavy>
52

>  <SCORE.norm>
0.440076

>  <RMSD>
15.766

$$$$
2esj_lig
 OpenBabel11021811423D
libRbt.so/2013.1/901 2013/11/27
 52 56  0  0  0  0  0  0  0  0999 V2000
   11.2472   -0.2243   12.8043 C   0  0  2  0  0  0  0  0  0  0  0  0
   12.5085   -0.7262   13.2862 O   0  0  0  0  0  0  0  0  0  0  0  0
   16.6391    0.1294   12.5835 C   0  0  2  0  0  0  0  0  0  0  0  0
   17.9837    0.2652   11.9995 N   0  0  0  0  0  0  0  0  0  0  0  0
   12.5813    1.0870   10.5535 C   0  0  1  0  0  0  0  0  0  0  0  0
   11.0674   -0.1399    6.9083 C   0  0  1  0  0  0  0  0  0  0  0  0
    7.7336   -4.1637    6.2390 C   0  0  1  0  0  0  0  0  0  0  0  0
   10.2222   -0.3346   13.9714 C   0  0  2  0  0  0  0  0  0  0  0  0
   10.6699    0.3743   15.1699 N   0  0  0  0  0  0  0  0  0  0  0  0
   16.1736   -1.3803   12.5449 C   0  0  0  0  0  0  0  0  0  0  0  0
   12.0657    2.1793    9.6158 C   0  0  2  0  0  0  0  0  0  0  0  0
   10.7202    2.5923    9.9389 O   0  0  0  0  0  0  0  0  0  0  0  0
    9.5042   -0.3354    6.6643 C   0  0  2  0  0  0  0  0  0  0  0  0
    8.8372   -0.8756    7.8784 N   0  0  0  0  0  0  0  0  0  0  0  0
    7.0733   -3.1309    5.3330 C   0  0  1  0  0  0  0  0  0  0  0  0
    6.2845   -3.8109    4.3360 O   0  0  0  0  0  0  0  0  0  0  0  0
    9.9305   -1.8293   14.3175 C   0  0  0  0  0  0  0  0  0  0  0  0
   14.7540   -1.5151   13.2292 C   0  0  2  0  0  0  0  0  0  0  0  0
   14.2923   -2.9066   13.1944 N   0  0  0  0  0  0  0  0  0  0  0  0
   12.1963    1.4865    8.2902 C   0  0  2  0  0  0  0  0  0  0  0  0
   11.1573    0.5567    8.1163 O   0  0  0  0  0  0  0  0  0  0  0  0
    9.2910   -1.1946    5.3409 C   0  0  1  0  0  0  0  0  0  0  0  0
   10.0369   -0.5964    4.2757 O   0  0  0  0  0  0  0  0  0  0  0  0
    6.1727   -2.1254    6.0401 C   0  0  1  0  0  0  0  0  0  0  0  0
    5.4669   -1.4023    5.0256 O   0  0  0  0  0  0  0  0  0  0  0  0
    9.4787   -2.5667   13.0222 C   0  0  2  0  0  0  0  0  0  0  0  0
    9.1227   -3.9132   13.2797 O   0  0  0  0  0  0  0  0  0  0  0  0
   13.7263   -0.5873   12.5307 C   0  0  2  0  0  0  0  0  0  0  0  0
   13.4646    0.6145    8.3922 C   0  0  2  0  0  0  0  0  0  0  0  0
   13.4987    0.3047    9.7764 O   0  0  0  0  0  0  0  0  0  0  0  0
    9.8699   -2.6601    5.5032 C   0  0  2  0  0  0  0  0  0  0  0  0
    9.0826   -3.2359    6.5468 O   0  0  0  0  0  0  0  0  0  0  0  0
    5.1671   -2.7657    6.9987 C   0  0  2  0  0  0  0  0  0  0  0  0
    4.6248   -1.7057    7.8030 O   0  0  0  0  0  0  0  0  0  0  0  0
   10.6211   -2.4678   11.9810 C   0  0  2  0  0  0  0  0  0  0  0  0
   10.8260   -1.0543   11.6964 O   0  0  0  0  0  0  0  0  0  0  0  0
   14.1786    0.9046   12.4271 C   0  0  2  0  0  0  0  0  0  0  0  0
   13.1801    1.6655   11.6919 O   0  0  0  0  0  0  0  0  0  0  0  0
   14.7814    1.2778    7.9899 C   0  0  0  0  0  0  0  0  0  0  0  0
   14.4672    2.3542    7.0941 O   0  0  0  0  0  0  0  0  0  0  0  0
   11.2592   -2.4899    6.0872 C   0  0  1  0  0  0  0  0  0  0  0  0
   11.7701   -1.4827    6.9868 O   0  0  0  0  0  0  0  0  0  0  0  0
    5.8004   -3.8988    7.7985 C   0  0  2  0  0  0  0  0  0  0  0  0
    6.8447   -4.7122    7.2422 O   0  0  0  0  0  0  0  0  0  0  0  0
   10.2791   -3.1023   10.6760 C   0  0  0  0  0  0  0  0  0  0  0  0
   10.1381   -4.4839   10.9027 O   0  0  0  0  0  0  0  0  0  0  0  0
   15.6067    1.0113   11.7936 C   0  0  1  0  0  0  0  0  0  0  0  0
   16.0272    2.3963   11.9127 O   0  0  0  0  0  0  0  0  0  0  0  0
   12.1052   -3.7895    6.2552 C   0  0  0  0  0  0  0  0  0  0  0  0
   13.4604   -3.6862    5.6743 N   0  0  0  0  0  0  0  0  0  0  0  0
    5.0298   -4.7254    8.8254 C   0  0  0  0  0  0  0  0  0  0  0  0
    4.3038   -3.8467    9.7251 O   0  0  0  0  0  0  0  0  0  0  0  0
  1  2  1  1  0  0  0
  1  8  1  0  0  0  0
  1 36  1  0  0  0  0
  3  4  1  6  0  0  0
  3 10  1  0  0  0  0
  3 47  1  0  0  0  0
  5 11  1  0  0  0  0
  5 30  1  0  0  0  0
  5 38  1  1  0  0  0
  6 21  1  1  0  0  0
  6 42  1  0  0  0  0
  7 15  1  0  0  0  0
  7 44  1  0  0  0  0
  7 32  1  1  0  0  0
  8  9  1  1  0  0  0
  8 17  1  0  0  0  0
 11 12  1  1  0  0  0
 11 20  1  0  0  0  0
 13  6  1  0  0  0  0
 13 14  1  1  0  0  0
 15 16  1  6  0  0  0
 15 24  1  0  0  0  0
 17 26  1  0  0  0  0
 18 10  1  0  0  0  0
 18 19  1  6  0  0  0
 20 21  1  1  0  0  0
 20 29  1  0  0  0  0
 22 13  1  0  0  0  0
 22 23  1  6  0  0  0
 24 25  1  6  0  0  0
 24 33  1  0  0  0  0
 26 27  1  1  0  0  0
 26 35  1  0  0  0  0
 28  2  1  1  0  0  0
 28 18  1  0  0  0  0
 29 30  1  0  0  0  0
 29 39  1  1  0  0  0
 31 22  1  0  0  0  0
 31 32  1  1  0  0  0
 31 41  1  0  0  0  0
 33 34  1  1  0  0  0
 33 43  1  0  0  0  0
 35 36  1  0  0  0  0
 35 45  1  6  0  0  0
 37 28  1  0  0  0  0
 37 38  1  6  0  0  0
 39 40  1  0  0  0  0
 41 42  1  0  0  0  0
 41 49  1  1  0  0  0
 43 44  1  0  0  0  0
 43 51  1  6  0  0  0
 45 46  1  0  0  0  0
 47 37  1  0  0  0  0
 47 48  1  1  0  0  0
 49 50  1  0  0  0  0
 51 52  1  0  0  0  0
M  END
>  <CHROM.1>
-170.55976376,-155.60590816,-145.98788593,-52.41199683,176.65331357,-167.72517457
-24.05262516,94.79180801,-65.60983075,-40.90452310,129.23002067,-48.82500061
10.79236228,-1.24751420,9.36718824,0.52932073,0.48383792,1.69486316

>  <Name>
2esj_lig

>  <RI>
0

>  <Rbt.Current_Directory>
/home/itssahil/PROJECTS/Mol_Feturizer/New_Systems/rnas/2esj

>  <Rbt.Executable>
rbdock ($Id: //depot/dev/client3/rdock/2013.1/src/exe/rbdock.cxx#4 $)

>  <Rbt.Library>
libRbt.so (2013.1, Build901 2013/11/27)

>  <Rbt.Parameter_File>
/export/apps/rDock/src/rDock_2013.1_src/data/scripts/dock_solv.prm

>  <Rbt.Receptor>
prm/blind_docking_60.prm

>  <SCORE>
28.3314

>  <SCORE.INTER>
20.7707

>  <SCORE.INTER.CONST>
1

>  <SCORE.INTER.POLAR>
-1.74602

>  <SCORE.INTER.ROT>
12

>  <SCORE.INTER.SOLV>
37.695

>  <SCORE.INTER.VDW>
-4.4978

>  <SCORE.INTER.norm>
0.399436

>  <SCORE.INTRA>
0.171553

>  <SCORE.INTRA.DIHEDRAL>
-9.79765

>  <SCORE.INTRA.DIHEDRAL.0>
32.9766

>  <SCORE.INTRA.POLAR>
0

>  <SCORE.INTRA.POLAR.0>
0

>  <SCORE.INTRA.REPUL>
0.401255

>  <SCORE.INTRA.REPUL.0>
0

>  <SCORE.INTRA.SOLV>
-1.84909

>  <SCORE.INTRA.SOLV.lig_0>
-114.358

>  <SCORE.INTRA.VDW>
3.98865

>  <SCORE.INTRA.VDW.0>
-8.24257

>  <SCORE.INTRA.norm>
0.0032991

>  <SCORE.RESTR>
7.3892

>  <SCORE.RESTR.CAVITY>
7.3892

>  <SCORE.RESTR.norm>
0.1421

>  <SCORE.SYSTEM>
0

>  <SCORE.SYSTEM.CONST>
0

>  <SCORE.SYSTEM.DIHEDRAL>
0

>  <SCORE.SYSTEM.SOLV>
0

>  <SCORE.SYSTEM.norm>
0

>  <SCORE.heavy>
52

>  <SCORE.norm>
0.544835

>  <RMSD>
15.783

$$$$
2esj_lig
 OpenBabel11021811423D
libRbt.so/2013.1/901 2013/11/27
 52 56  0  0  0  0  0  0  0  0999 V2000
   16.0848   -0.5947   11.9833 C   0  0  2  0  0  0  0  0  0  0  0  0
   14.9178   -0.0159   12.5981 O   0  0  0  0  0  0  0  0  0  0  0  0
   10.8258   -1.1930   12.9953 C   0  0  2  0  0  0  0  0  0  0  0  0
    9.4048   -1.4979   12.7605 N   0  0  0  0  0  0  0  0  0  0  0  0
   13.7541   -2.9935   10.2772 C   0  0  1  0  0  0  0  0  0  0  0  0
   12.3200   -2.6955    6.2838 C   0  0  1  0  0  0  0  0  0  0  0  0
    7.4886   -2.3860    5.7387 C   0  0  1  0  0  0  0  0  0  0  0  0
   17.2825    0.3619   12.2581 C   0  0  2  0  0  0  0  0  0  0  0  0
   17.4811    0.6035   13.6869 N   0  0  0  0  0  0  0  0  0  0  0  0
   11.1356    0.3086   12.6127 C   0  0  0  0  0  0  0  0  0  0  0  0
   13.4225   -1.7148    9.5069 C   0  0  2  0  0  0  0  0  0  0  0  0
   12.0417   -1.3211    9.6619 O   0  0  0  0  0  0  0  0  0  0  0  0
   11.0200   -1.8014    6.5114 C   0  0  2  0  0  0  0  0  0  0  0  0
   10.1185   -2.4162    7.5215 N   0  0  0  0  0  0  0  0  0  0  0  0
    7.6801   -2.5809    7.2384 C   0  0  1  0  0  0  0  0  0  0  0  0
    7.2074   -1.4090    7.9325 O   0  0  0  0  0  0  0  0  0  0  0  0
   17.0929    1.7208   11.5121 C   0  0  0  0  0  0  0  0  0  0  0  0
   12.6512    0.6341   12.9270 C   0  0  2  0  0  0  0  0  0  0  0  0
   12.9687    2.0200   12.5677 N   0  0  0  0  0  0  0  0  0  0  0  0
   13.7919   -2.1313    8.1126 C   0  0  2  0  0  0  0  0  0  0  0  0
   12.7996   -2.9642    7.5685 O   0  0  0  0  0  0  0  0  0  0  0  0
   10.3449   -1.5020    5.1009 C   0  0  1  0  0  0  0  0  0  0  0  0
   11.3384   -0.9760    4.2148 O   0  0  0  0  0  0  0  0  0  0  0  0
    6.9764   -3.7953    7.8321 C   0  0  1  0  0  0  0  0  0  0  0  0
    7.0682   -3.6833    9.2566 O   0  0  0  0  0  0  0  0  0  0  0  0
   16.8603    1.4356    9.9987 C   0  0  2  0  0  0  0  0  0  0  0  0
   16.7569    2.6318    9.2472 O   0  0  0  0  0  0  0  0  0  0  0  0
   13.5835   -0.3473   12.1703 C   0  0  2  0  0  0  0  0  0  0  0  0
   15.0174   -3.0567    8.2586 C   0  0  2  0  0  0  0  0  0  0  0  0
   14.7960   -3.6399    9.5330 O   0  0  0  0  0  0  0  0  0  0  0  0
    9.8177   -2.8307    4.4183 C   0  0  2  0  0  0  0  0  0  0  0  0
    8.8083   -3.3076    5.3095 O   0  0  0  0  0  0  0  0  0  0  0  0
    5.5063   -3.9152    7.4268 C   0  0  2  0  0  0  0  0  0  0  0  0
    5.0798   -5.2379    7.7921 O   0  0  0  0  0  0  0  0  0  0  0  0
   15.5896    0.5613    9.8568 C   0  0  2  0  0  0  0  0  0  0  0  0
   15.8438   -0.6886   10.5595 O   0  0  0  0  0  0  0  0  0  0  0  0
   13.2544   -1.8556   12.4103 C   0  0  2  0  0  0  0  0  0  0  0  0
   14.1356   -2.6808   11.5985 O   0  0  0  0  0  0  0  0  0  0  0  0
   16.3876   -2.3799    8.2432 C   0  0  0  0  0  0  0  0  0  0  0  0
   16.5704   -1.8034    6.9417 O   0  0  0  0  0  0  0  0  0  0  0  0
   10.9575   -3.8257    4.5233 C   0  0  1  0  0  0  0  0  0  0  0  0
   11.9696   -3.9725    5.5425 O   0  0  0  0  0  0  0  0  0  0  0  0
    5.3024   -3.5747    5.9547 C   0  0  2  0  0  0  0  0  0  0  0  0
    6.1290   -2.6061    5.2912 O   0  0  0  0  0  0  0  0  0  0  0  0
   15.2944    0.1840    8.4451 C   0  0  0  0  0  0  0  0  0  0  0  0
   14.6717    1.2885    7.8347 O   0  0  0  0  0  0  0  0  0  0  0  0
   11.7389   -2.1449   12.1423 C   0  0  1  0  0  0  0  0  0  0  0  0
   11.4791   -3.5076   12.5722 O   0  0  0  0  0  0  0  0  0  0  0  0
   10.7404   -5.2051    3.8283 C   0  0  0  0  0  0  0  0  0  0  0  0
   11.9875   -5.9808    3.6621 N   0  0  0  0  0  0  0  0  0  0  0  0
    3.9350   -3.5994    5.2756 C   0  0  0  0  0  0  0  0  0  0  0  0
    3.4593   -2.2429    5.0695 O   0  0  0  0  0  0  0  0  0  0  0  0
  1  2  1  1  0  0  0
  1  8  1  0  0  0  0
  1 36  1  0  0  0  0
  3  4  1  6  0  0  0
  3 10  1  0  0  0  0
  3 47  1  0  0  0  0
  5 11  1  0  0  0  0
  5 30  1  0  0  0  0
  5 38  1  1  0  0  0
  6 21  1  1  0  0  0
  6 42  1  0  0  0  0
  7 15  1  0  0  0  0
  7 44  1  0  0  0  0
  7 32  1  6  0  0  0
  8  9  1  1  0  0  0
  8 17  1  0  0  0  0
 11 12  1  6  0  0  0
 11 20  1  0  0  0  0
 13  6  1  0  0  0  0
 13 14  1  1  0  0  0
 15 16  1  1  0  0  0
 15 24  1  0  0  0  0
 17 26  1  0  0  0  0
 18 10  1  0  0  0  0
 18 19  1  6  0  0  0
 20 21  1  1  0  0  0
 20 29  1  0  0  0  0
 22 13  1  0  0  0  0
 22 23  1  6  0  0  0
 24 25  1  1  0  0  0
 24 33  1  0  0  0  0
 26 27  1  6  0  0  0
 26 35  1  0  0  0  0
 28  2  1  1  0  0  0
 28 18  1  0  0  0  0
 29 30  1  0  0  0  0
 29 39  1  1  0  0  0
 31 22  1  0  0  0  0
 31 32  1  1  0  0  0
 31 41  1  0  0  0  0
 33 34  1  6  0  0  0
 33 43  1  0  0  0  0
 35 36  1  0  0  0  0
 35 45  1  6  0  0  0
 37 28  1  0  0  0  0
 37 38  1  6  0  0  0
 39 40  1  0  0  0  0
 41 42  1  0  0  0  0
 41 49  1  1  0  0  0
 43 44  1  0  0  0  0
 43 51  1  1  0  0  0
 45 46  1  0  0  0  0
 47 37  1  0  0  0  0
 47 48  1  1  0  0  0
 49 50  1  0  0  0  0
 51 52  1  0  0  0  0
M  END
>  <CHROM.1>
157.55312072,53.19298091,-94.33051672,-128.44154327,131.81356563,-171.74813579
-65.06613856,57.18625401,-79.64043714,-87.57537565,165.01402253,104.94885465
11.76717764,-1.82296068,8.67626834,0.60171082,0.19509975,1.27440077

>  <Name>
2esj_lig

>  <RI>
0

>  <Rbt.Current_Directory>
/home/itssahil/PROJECTS/Mol_Feturizer/New_Systems/rnas/2esj

>  <Rbt.Executable>
rbdock ($Id: //depot/dev/client3/rdock/2013.1/src/exe/rbdock.cxx#4 $)

>  <Rbt.Library>
libRbt.so (2013.1, Build901 2013/11/27)

>  <Rbt.Parameter_File>
/export/apps/rDock/src/rDock_2013.1_src/data/scripts/dock_solv.prm

>  <Rbt.Receptor>
prm/blind_docking_60.prm

>  <SCORE>
27.5699

>  <SCORE.INTER>
8.49809

>  <SCORE.INTER.CONST>
1

>  <SCORE.INTER.POLAR>
0

>  <SCORE.INTER.ROT>
12

>  <SCORE.INTER.SOLV>
25.8306

>  <SCORE.INTER.VDW>
-14.5448

>  <SCORE.INTER.norm>
0.163425

>  <SCORE.INTRA>
11.9685

>  <SCORE.INTRA.DIHEDRAL>
-1.7099

>  <SCORE.INTRA.DIHEDRAL.0>
32.9766

>  <SCORE.INTRA.POLAR>
0

>  <SCORE.INTRA.POLAR.0>
0

>  <SCORE.INTRA.REPUL>
0

>  <SCORE.INTRA.REPUL.0>
0

>  <SCORE.INTRA.SOLV>
2.51231

>  <SCORE.INTRA.SOLV.lig_0>
-114.358

>  <SCORE.INTRA.VDW>
11.5673

>  <SCORE.INTRA.VDW.0>
-8.24257

>  <SCORE.INTRA.norm>
0.230163

>  <SCORE.RESTR>
7.10336

>  <SCORE.RESTR.CAVITY>
7.10336

>  <SCORE.RESTR.norm>
0.136603

>  <SCORE.SYSTEM>
0

>  <SCORE.SYSTEM.CONST>
0

>  <SCORE.SYSTEM.DIHEDRAL>
0

>  <SCORE.SYSTEM.SOLV>
0

>  <SCORE.SYSTEM.norm>
0

>  <SCORE.heavy>
52

>  <SCORE.norm>
0.53019

>  <RMSD>
15.855

$$$$
2esj_lig
 OpenBabel11021811423D
libRbt.so/2013.1/901 2013/11/27
 52 56  0  0  0  0  0  0  0  0999 V2000
   16.4424    1.1729   10.3740 C   0  0  2  0  0  0  0  0  0  0  0  0
   16.6575   -0.2380   10.1791 O   0  0  0  0  0  0  0  0  0  0  0  0
   20.4515   -0.2344    8.2060 C   0  0  2  0  0  0  0  0  0  0  0  0
   21.7971   -0.5688    7.7111 N   0  0  0  0  0  0  0  0  0  0  0  0
   15.6135   -1.6842    8.1220 C   0  0  1  0  0  0  0  0  0  0  0  0
   11.9728   -1.1185    7.2275 C   0  0  1  0  0  0  0  0  0  0  0  0
    7.4983   -3.5363    5.5728 C   0  0  1  0  0  0  0  0  0  0  0  0
   15.5765    1.3422   11.6572 C   0  0  2  0  0  0  0  0  0  0  0  0
   16.1929    0.7172   12.8271 N   0  0  0  0  0  0  0  0  0  0  0  0
   20.4332   -0.2297    9.7862 C   0  0  0  0  0  0  0  0  0  0  0  0
   14.6835   -2.4394    7.1716 C   0  0  2  0  0  0  0  0  0  0  0  0
   14.3234   -1.6543    6.0143 O   0  0  0  0  0  0  0  0  0  0  0  0
   10.4778   -1.1184    7.7810 C   0  0  2  0  0  0  0  0  0  0  0  0
   10.1413   -2.4221    8.4119 N   0  0  0  0  0  0  0  0  0  0  0  0
    6.7324   -2.2394    5.8074 C   0  0  1  0  0  0  0  0  0  0  0  0
    5.6157   -2.1777    4.8977 O   0  0  0  0  0  0  0  0  0  0  0  0
   14.1418    0.7641   11.4415 C   0  0  0  0  0  0  0  0  0  0  0  0
   18.9966    0.1891   10.2985 C   0  0  2  0  0  0  0  0  0  0  0  0
   18.9488    0.1882   11.7643 N   0  0  0  0  0  0  0  0  0  0  0  0
   13.5370   -2.7415    8.0927 C   0  0  2  0  0  0  0  0  0  0  0  0
   12.7476   -1.5957    8.2881 O   0  0  0  0  0  0  0  0  0  0  0  0
    9.4948   -0.6618    6.6146 C   0  0  1  0  0  0  0  0  0  0  0  0
    9.9741    0.5678    6.0606 O   0  0  0  0  0  0  0  0  0  0  0  0
    6.1987   -2.0452    7.2215 C   0  0  1  0  0  0  0  0  0  0  0  0
    5.3217   -0.9137    7.1914 O   0  0  0  0  0  0  0  0  0  0  0  0
   13.5168    1.4273   10.1784 C   0  0  2  0  0  0  0  0  0  0  0  0
   12.1817    1.0043    9.9675 O   0  0  0  0  0  0  0  0  0  0  0  0
   17.9175   -0.7641    9.7223 C   0  0  2  0  0  0  0  0  0  0  0  0
   14.1648   -3.0030    9.4773 C   0  0  2  0  0  0  0  0  0  0  0  0
   15.3242   -2.1863    9.4341 O   0  0  0  0  0  0  0  0  0  0  0  0
    9.4926   -1.7018    5.4198 C   0  0  2  0  0  0  0  0  0  0  0  0
    8.9787   -2.9021    5.9990 O   0  0  0  0  0  0  0  0  0  0  0  0
    5.4427   -3.2580    7.7672 C   0  0  2  0  0  0  0  0  0  0  0  0
    5.2839   -3.0491    9.1799 O   0  0  0  0  0  0  0  0  0  0  0  0
   14.4172    1.1022    8.9608 C   0  0  2  0  0  0  0  0  0  0  0  0
   15.7269    1.6823    9.2240 O   0  0  0  0  0  0  0  0  0  0  0  0
   17.9569   -0.9090    8.1672 C   0  0  2  0  0  0  0  0  0  0  0  0
   16.9583   -1.8784    7.7437 O   0  0  0  0  0  0  0  0  0  0  0  0
   14.5726   -4.4447    9.7789 C   0  0  0  0  0  0  0  0  0  0  0  0
   13.7728   -4.8987   10.8806 O   0  0  0  0  0  0  0  0  0  0  0  0
   10.9520   -1.9858    5.1206 C   0  0  1  0  0  0  0  0  0  0  0  0
   12.0924   -2.0108    6.0058 O   0  0  0  0  0  0  0  0  0  0  0  0
    6.1405   -4.5631    7.4007 C   0  0  2  0  0  0  0  0  0  0  0  0
    6.8770   -4.6974    6.1755 O   0  0  0  0  0  0  0  0  0  0  0  0
   13.9388    1.7297    7.6960 C   0  0  0  0  0  0  0  0  0  0  0  0
   12.5507    1.5131    7.6163 O   0  0  0  0  0  0  0  0  0  0  0  0
   19.3990   -1.2740    7.6778 C   0  0  1  0  0  0  0  0  0  0  0  0
   19.3928   -1.1976    6.2275 O   0  0  0  0  0  0  0  0  0  0  0  0
   11.2424   -2.9133    3.9007 C   0  0  0  0  0  0  0  0  0  0  0  0
   11.1141   -4.3520    4.2141 N   0  0  0  0  0  0  0  0  0  0  0  0
    5.6056   -5.9354    7.8038 C   0  0  0  0  0  0  0  0  0  0  0  0
    5.2242   -5.9268    9.2050 O   0  0  0  0  0  0  0  0  0  0  0  0
  1  2  1  6  0  0  0
  1  8  1  0  0  0  0
  1 36  1  0  0  0  0
  3  4  1  1  0  0  0
  3 10  1  0  0  0  0
  3 47  1  0  0  0  0
  5 11  1  0  0  0  0
  5 30  1  0  0  0  0
  5 38  1  6  0  0  0
  6 21  1  1  0  0  0
  6 42  1  0  0  0  0
  7 15  1  0  0  0  0
  7 44  1  0  0  0  0
  7 32  1  1  0  0  0
  8  9  1  1  0  0  0
  8 17  1  0  0  0  0
 11 12  1  6  0  0  0
 11 20  1  0  0  0  0
 13  6  1  0  0  0  0
 13 14  1  6  0  0  0
 15 16  1  6  0  0  0
 15 24  1  0  0  0  0
 17 26  1  0  0  0  0
 18 10  1  0  0  0  0
 18 19  1  1  0  0  0
 20 21  1  1  0  0  0
 20 29  1  0  0  0  0
 22 13  1  0  0  0  0
 22 23  1  6  0  0  0
 24 25  1  6  0  0  0
 24 33  1  0  0  0  0
 26 27  1  6  0  0  0
 26 35  1  0  0  0  0
 28  2  1  6  0  0  0
 28 18  1  0  0  0  0
 29 30  1  0  0  0  0
 29 39  1  6  0  0  0
 31 22  1  0  0  0  0
 31 32  1  1  0  0  0
 31 41  1  0  0  0  0
 33 34  1  1  0  0  0
 33 43  1  0  0  0  0
 35 36  1  0  0  0  0
 35 45  1  6  0  0  0
 37 28  1  0  0  0  0
 37 38  1  1  0  0  0
 39 40  1  0  0  0  0
 41 42  1  0  0  0  0
 41 49  1  1  0  0  0
 43 44  1  0  0  0  0
 43 51  1  6  0  0  0
 45 46  1  0  0  0  0
 47 37  1  0  0  0  0
 47 48  1  6  0  0  0
 49 50  1  0  0  0  0
 51 52  1  0  0  0  0
M  END
>  <CHROM.1>
-141.00217382,157.82033994,122.23249102,-52.13815327,69.97448240,32.31126758
-116.55731271,112.42164015,-45.58683788,55.58852625,-81.63724676,-46.38796740
12.71273380,-1.51687472,8.05925383,0.31482272,0.10359880,1.01590139

>  <Name>
2esj_lig

>  <RI>
0

>  <Rbt.Current_Directory>
/home/itssahil/PROJECTS/Mol_Feturizer/New_Systems/rnas/2esj

>  <Rbt.Executable>
rbdock ($Id: //depot/dev/client3/rdock/2013.1/src/exe/rbdock.cxx#4 $)

>  <Rbt.Library>
libRbt.so (2013.1, Build901 2013/11/27)

>  <Rbt.Parameter_File>
/export/apps/rDock/src/rDock_2013.1_src/data/scripts/dock_solv.prm

>  <Rbt.Receptor>
prm/blind_docking_60.prm

>  <SCORE>
5.3809

>  <SCORE.INTER>
-16.3985

>  <SCORE.INTER.CONST>
1

>  <SCORE.INTER.POLAR>
0

>  <SCORE.INTER.ROT>
12

>  <SCORE.INTER.SOLV>
20.9356

>  <SCORE.INTER.VDW>
-29.5109

>  <SCORE.INTER.norm>
-0.315356

>  <SCORE.INTRA>
13.4291

>  <SCORE.INTRA.DIHEDRAL>
3.3065

>  <SCORE.INTRA.DIHEDRAL.0>
32.9766

>  <SCORE.INTRA.POLAR>
0

>  <SCORE.INTRA.POLAR.0>
0

>  <SCORE.INTRA.REPUL>
0.444465

>  <SCORE.INTRA.REPUL.0>
0

>  <SCORE.INTRA.SOLV>
3.85984

>  <SCORE.INTRA.SOLV.lig_0>
-114.358

>  <SCORE.INTRA.VDW>
7.62357

>  <SCORE.INTRA.VDW.0>
-8.24257

>  <SCORE.INTRA.norm>
0.258251

>  <SCORE.RESTR>
8.35034

>  <SCORE.RESTR.CAVITY>
8.35034

>  <SCORE.RESTR.norm>
0.160583

>  <SCORE.SYSTEM>
0

>  <SCORE.SYSTEM.CONST>
0

>  <SCORE.SYSTEM.DIHEDRAL>
0

>  <SCORE.SYSTEM.SOLV>
0

>  <SCORE.SYSTEM.norm>
0

>  <SCORE.heavy>
52

>  <SCORE.norm>
0.103479

>  <RMSD>
15.965

$$$$
2esj_lig
 OpenBabel11021811423D
libRbt.so/2013.1/901 2013/11/27
 52 56  0  0  0  0  0  0  0  0999 V2000
   15.3418   -3.3887    9.8412 C   0  0  2  0  0  0  0  0  0  0  0  0
   13.9960   -2.8760    9.8724 O   0  0  0  0  0  0  0  0  0  0  0  0
   14.6082    1.0926    8.4015 C   0  0  2  0  0  0  0  0  0  0  0  0
   14.4594    2.4119    7.7654 N   0  0  0  0  0  0  0  0  0  0  0  0
   11.6327   -1.3234   11.1455 C   0  0  1  0  0  0  0  0  0  0  0  0
    9.0782   -2.2631   10.0386 C   0  0  1  0  0  0  0  0  0  0  0  0
    7.4115   -3.8981    6.0205 C   0  0  1  0  0  0  0  0  0  0  0  0
   15.6371   -4.0150   11.2360 C   0  0  2  0  0  0  0  0  0  0  0  0
   14.6671   -5.0492   11.5948 N   0  0  0  0  0  0  0  0  0  0  0  0
   14.3326   -0.0569    7.3526 C   0  0  0  0  0  0  0  0  0  0  0  0
   11.6432   -2.6813   11.8489 C   0  0  2  0  0  0  0  0  0  0  0  0
   12.2433   -3.7158   11.0397 O   0  0  0  0  0  0  0  0  0  0  0  0
    7.8708   -2.9322    9.2412 C   0  0  2  0  0  0  0  0  0  0  0  0
    8.2528   -4.2700    8.7168 N   0  0  0  0  0  0  0  0  0  0  0  0
    6.6899   -2.8820    5.1428 C   0  0  1  0  0  0  0  0  0  0  0  0
    5.9940   -3.5765    4.0884 O   0  0  0  0  0  0  0  0  0  0  0  0
   15.6738   -2.9152   12.3442 C   0  0  0  0  0  0  0  0  0  0  0  0
   14.5548   -1.4648    8.0382 C   0  0  2  0  0  0  0  0  0  0  0  0
   14.2918   -2.5507    7.0883 N   0  0  0  0  0  0  0  0  0  0  0  0
   10.1754   -2.8701   12.1018 C   0  0  2  0  0  0  0  0  0  0  0  0
    9.5178   -3.2536   10.9208 O   0  0  0  0  0  0  0  0  0  0  0  0
    7.3432   -1.9053    8.1448 C   0  0  1  0  0  0  0  0  0  0  0  0
    7.0766   -0.6494    8.7775 O   0  0  0  0  0  0  0  0  0  0  0  0
    5.6836   -1.9952    5.8662 C   0  0  1  0  0  0  0  0  0  0  0  0
    4.9472   -1.2857    4.8639 O   0  0  0  0  0  0  0  0  0  0  0  0
   16.6954   -1.8156   11.9282 C   0  0  2  0  0  0  0  0  0  0  0  0
   16.8363   -0.8223   12.9279 O   0  0  0  0  0  0  0  0  0  0  0  0
   13.6465   -1.6078    9.2871 C   0  0  2  0  0  0  0  0  0  0  0  0
    9.6141   -1.4650   12.4024 C   0  0  2  0  0  0  0  0  0  0  0  0
   10.4769   -0.6342   11.6420 O   0  0  0  0  0  0  0  0  0  0  0  0
    8.4486   -1.6106    7.0490 C   0  0  2  0  0  0  0  0  0  0  0  0
    8.6638   -2.8737    6.4177 O   0  0  0  0  0  0  0  0  0  0  0  0
    4.7105   -2.7678    6.7584 C   0  0  2  0  0  0  0  0  0  0  0  0
    4.0532   -1.8007    7.5935 O   0  0  0  0  0  0  0  0  0  0  0  0
   16.2349   -1.2070   10.5803 C   0  0  2  0  0  0  0  0  0  0  0  0
   16.2400   -2.2808    9.5965 O   0  0  0  0  0  0  0  0  0  0  0  0
   13.7814   -0.4375   10.3133 C   0  0  2  0  0  0  0  0  0  0  0  0
   12.8359   -0.6334   11.4014 O   0  0  0  0  0  0  0  0  0  0  0  0
    9.6412   -1.0192   13.8640 C   0  0  0  0  0  0  0  0  0  0  0  0
    9.3188   -2.1617   14.6705 O   0  0  0  0  0  0  0  0  0  0  0  0
    9.7217   -1.3176    7.8193 C   0  0  1  0  0  0  0  0  0  0  0  0
   10.1802   -1.8381    9.0856 O   0  0  0  0  0  0  0  0  0  0  0  0
    5.4171   -3.8807    7.5243 C   0  0  2  0  0  0  0  0  0  0  0  0
    6.5452   -4.5715    6.9656 O   0  0  0  0  0  0  0  0  0  0  0  0
   17.1693   -0.1695   10.0580 C   0  0  0  0  0  0  0  0  0  0  0  0
   16.7339    1.0756   10.5484 O   0  0  0  0  0  0  0  0  0  0  0  0
   13.6084    0.9481    9.6044 C   0  0  1  0  0  0  0  0  0  0  0  0
   13.9389    1.9733   10.5785 O   0  0  0  0  0  0  0  0  0  0  0  0
   10.9604   -0.8881    6.9744 C   0  0  0  0  0  0  0  0  0  0  0  0
   11.4968    0.4367    7.3514 N   0  0  0  0  0  0  0  0  0  0  0  0
    4.6924   -4.8218    8.4839 C   0  0  0  0  0  0  0  0  0  0  0  0
    5.3893   -6.0940    8.5515 O   0  0  0  0  0  0  0  0  0  0  0  0
  1  2  1  1  0  0  0
  1  8  1  0  0  0  0
  1 36  1  0  0  0  0
  3  4  1  6  0  0  0
  3 10  1  0  0  0  0
  3 47  1  0  0  0  0
  5 11  1  0  0  0  0
  5 30  1  0  0  0  0
  5 38  1  1  0  0  0
  6 21  1  1  0  0  0
  6 42  1  0  0  0  0
  7 15  1  0  0  0  0
  7 44  1  0  0  0  0
  7 32  1  1  0  0  0
  8  9  1  1  0  0  0
  8 17  1  0  0  0  0
 11 12  1  6  0  0  0
 11 20  1  0  0  0  0
 13  6  1  0  0  0  0
 13 14  1  6  0  0  0
 15 16  1  6  0  0  0
 15 24  1  0  0  0  0
 17 26  1  0  0  0  0
 18 10  1  0  0  0  0
 18 19  1  6  0  0  0
 20 21  1  6  0  0  0
 20 29  1  0  0  0  0
 22 13  1  0  0  0  0
 22 23  1  1  0  0  0
 24 25  1  6  0  0  0
 24 33  1  0  0  0  0
 26 27  1  1  0  0  0
 26 35  1  0  0  0  0
 28  2  1  1  0  0  0
 28 18  1  0  0  0  0
 29 30  1  0  0  0  0
 29 39  1  1  0  0  0
 31 22  1  0  0  0  0
 31 32  1  6  0  0  0
 31 41  1  0  0  0  0
 33 34  1  1  0  0  0
 33 43  1  0  0  0  0
 35 36  1  0  0  0  0
 35 45  1  6  0  0  0
 37 28  1  0  0  0  0
 37 38  1  1  0  0  0
 39 40  1  0  0  0  0
 41 42  1  0  0  0  0
 41 49  1  6  0  0  0
 43 44  1  0  0  0  0
 43 51  1  6  0  0  0
 45 46  1  0  0  0  0
 47 37  1  0  0  0  0
 47 48  1  1  0  0  0
 49 50  1  0  0  0  0
 51 52  1  0  0  0  0
M  END
>  <CHROM.1>
138.44578373,110.82498942,-154.81399390,57.59176588,-85.96301074,34.43269640
-38.49448594,42.22041357,-91.22641561,-28.95835960,121.60602729,152.55713951
10.93531331,-1.93616792,9.27035570,0.26682439,0.33054340,1.93465750

>  <Name>
2esj_lig

>  <RI>
0

>  <Rbt.Current_Directory>
/home/itssahil/PROJECTS/Mol_Feturizer/New_Systems/rnas/2esj

>  <Rbt.Executable>
rbdock ($Id: //depot/dev/client3/rdock/2013.1/src/exe/rbdock.cxx#4 $)

>  <Rbt.Library>
libRbt.so (2013.1, Build901 2013/11/27)

>  <Rbt.Parameter_File>
/export/apps/rDock/src/rDock_2013.1_src/data/scripts/dock_solv.prm

>  <Rbt.Receptor>
prm/blind_docking_20.prm

>  <SCORE>
40.493

>  <SCORE.INTER>
-4.07241

>  <SCORE.INTER.CONST>
1

>  <SCORE.INTER.POLAR>
0

>  <SCORE.INTER.ROT>
12

>  <SCORE.INTER.SOLV>
26.4491

>  <SCORE.INTER.VDW>
-23.1313

>  <SCORE.INTER.norm>
-0.0783156

>  <SCORE.INTRA>
30.0111

>  <SCORE.INTRA.DIHEDRAL>
2.8014

>  <SCORE.INTRA.DIHEDRAL.0>
32.9766

>  <SCORE.INTRA.POLAR>
0

>  <SCORE.INTRA.POLAR.0>
0

>  <SCORE.INTRA.REPUL>
0

>  <SCORE.INTRA.REPUL.0>
0

>  <SCORE.INTRA.SOLV>
13.5591

>  <SCORE.INTRA.SOLV.lig_0>
-114.358

>  <SCORE.INTRA.VDW>
21.8308

>  <SCORE.INTRA.VDW.0>
-8.24257

>  <SCORE.INTRA.norm>
0.577136

>  <SCORE.RESTR>
14.5543

>  <SCORE.RESTR.CAVITY>
14.5543

>  <SCORE.RESTR.norm>
0.279891

>  <SCORE.SYSTEM>
0

>  <SCORE.SYSTEM.CONST>
0

>  <SCORE.SYSTEM.DIHEDRAL>
0

>  <SCORE.SYSTEM.SOLV>
0

>  <SCORE.SYSTEM.norm>
0

>  <SCORE.heavy>
52

>  <SCORE.norm>
0.778712

>  <RMSD>
16.194

$$$$
2esj_lig
 OpenBabel11021811423D
libRbt.so/2013.1/901 2013/11/27
 52 56  0  0  0  0  0  0  0  0999 V2000
   10.8292   -0.0758   10.7587 C   0  0  2  0  0  0  0  0  0  0  0  0
   11.9939    0.7307   10.4984 O   0  0  0  0  0  0  0  0  0  0  0  0
   16.0968    1.3756   11.5176 C   0  0  2  0  0  0  0  0  0  0  0  0
   17.4225    1.3586   12.1576 N   0  0  0  0  0  0  0  0  0  0  0  0
   13.0828   -1.4377    8.6520 C   0  0  1  0  0  0  0  0  0  0  0  0
   11.0032   -1.6579    5.2222 C   0  0  1  0  0  0  0  0  0  0  0  0
    7.0401   -4.8599    5.6652 C   0  0  1  0  0  0  0  0  0  0  0  0
   10.2045    0.4209   12.0959 C   0  0  2  0  0  0  0  0  0  0  0  0
    9.8840    1.8475   12.0606 N   0  0  0  0  0  0  0  0  0  0  0  0
   14.9918    1.8225   12.5553 C   0  0  0  0  0  0  0  0  0  0  0  0
   13.1459   -0.1511    7.8278 C   0  0  2  0  0  0  0  0  0  0  0  0
   12.2178    0.8502    8.2983 O   0  0  0  0  0  0  0  0  0  0  0  0
    9.4157   -1.6697    5.3665 C   0  0  2  0  0  0  0  0  0  0  0  0
    9.0062   -2.0933    6.7318 N   0  0  0  0  0  0  0  0  0  0  0  0
    6.5773   -3.4119    5.5530 C   0  0  1  0  0  0  0  0  0  0  0  0
    5.2746   -3.3776    4.9361 O   0  0  0  0  0  0  0  0  0  0  0  0
   11.1531    0.1203   13.2996 C   0  0  0  0  0  0  0  0  0  0  0  0
   13.5853    1.8920   11.8352 C   0  0  2  0  0  0  0  0  0  0  0  0
   12.5384    2.2920   12.7811 N   0  0  0  0  0  0  0  0  0  0  0  0
   12.8343   -0.6864    6.4601 C   0  0  2  0  0  0  0  0  0  0  0  0
   11.4590   -0.9456    6.3346 O   0  0  0  0  0  0  0  0  0  0  0  0
    8.7951   -2.5316    4.1803 C   0  0  1  0  0  0  0  0  0  0  0  0
    9.3229   -2.0561    2.9377 O   0  0  0  0  0  0  0  0  0  0  0  0
    6.4940   -2.6510    6.8707 C   0  0  1  0  0  0  0  0  0  0  0  0
    5.8269   -1.4127    6.6032 O   0  0  0  0  0  0  0  0  0  0  0  0
   11.4977   -1.3985   13.3014 C   0  0  2  0  0  0  0  0  0  0  0  0
   12.2956   -1.7562   14.4157 O   0  0  0  0  0  0  0  0  0  0  0  0
   13.2385    0.5240   11.1923 C   0  0  2  0  0  0  0  0  0  0  0  0
   13.4851   -2.0834    6.3947 C   0  0  2  0  0  0  0  0  0  0  0  0
   13.4307   -2.4977    7.7505 O   0  0  0  0  0  0  0  0  0  0  0  0
    9.2300   -4.0514    4.2807 C   0  0  2  0  0  0  0  0  0  0  0  0
    8.6594   -4.5002    5.5109 O   0  0  0  0  0  0  0  0  0  0  0  0
    5.7436   -3.4037    7.9709 C   0  0  2  0  0  0  0  0  0  0  0  0
    6.0178   -2.7204    9.2049 O   0  0  0  0  0  0  0  0  0  0  0  0
   12.1997   -1.7410   11.9638 C   0  0  2  0  0  0  0  0  0  0  0  0
   11.2555   -1.4520   10.8934 O   0  0  0  0  0  0  0  0  0  0  0  0
   14.3464   -0.0361   10.2437 C   0  0  2  0  0  0  0  0  0  0  0  0
   13.9526   -1.3499    9.7587 O   0  0  0  0  0  0  0  0  0  0  0  0
   14.9324   -2.1383    5.9067 C   0  0  0  0  0  0  0  0  0  0  0  0
   15.7552   -1.5542    6.9272 O   0  0  0  0  0  0  0  0  0  0  0  0
   10.7293   -4.0347    4.5087 C   0  0  1  0  0  0  0  0  0  0  0  0
   11.5508   -3.0732    5.2053 O   0  0  0  0  0  0  0  0  0  0  0  0
    6.1040   -4.8851    7.9809 C   0  0  2  0  0  0  0  0  0  0  0  0
    6.4411   -5.5794    6.7701 O   0  0  0  0  0  0  0  0  0  0  0  0
   12.5354   -3.1876   11.8335 C   0  0  0  0  0  0  0  0  0  0  0  0
   13.0023   -3.3959   10.5225 O   0  0  0  0  0  0  0  0  0  0  0  0
   15.7390   -0.0486   10.9597 C   0  0  1  0  0  0  0  0  0  0  0  0
   16.7335   -0.3931    9.9589 O   0  0  0  0  0  0  0  0  0  0  0  0
   11.4414   -5.4220    4.5422 C   0  0  0  0  0  0  0  0  0  0  0  0
   12.4812   -5.5727    3.5026 N   0  0  0  0  0  0  0  0  0  0  0  0
    5.4991   -5.8829    8.9658 C   0  0  0  0  0  0  0  0  0  0  0  0
    4.3733   -6.5648    8.3522 O   0  0  0  0  0  0  0  0  0  0  0  0
  1  2  1  1  0  0  0
  1  8  1  0  0  0  0
  1 36  1  0  0  0  0
  3  4  1  1  0  0  0
  3 10  1  0  0  0  0
  3 47  1  0  0  0  0
  5 11  1  0  0  0  0
  5 30  1  0  0  0  0
  5 38  1  1  0  0  0
  6 21  1  1  0  0  0
  6 42  1  0  0  0  0
  7 15  1  0  0  0  0
  7 44  1  0  0  0  0
  7 32  1  1  0  0  0
  8  9  1  6  0  0  0
  8 17  1  0  0  0  0
 11 12  1  1  0  0  0
 11 20  1  0  0  0  0
 13  6  1  0  0  0  0
 13 14  1  1  0  0  0
 15 16  1  1  0  0  0
 15 24  1  0  0  0  0
 17 26  1  0  0  0  0
 18 10  1  0  0  0  0
 18 19  1  1  0  0  0
 20 21  1  1  0  0  0
 20 29  1  0  0  0  0
 22 13  1  0  0  0  0
 22 23  1  6  0  0  0
 24 25  1  6  0  0  0
 24 33  1  0  0  0  0
 26 27  1  1  0  0  0
 26 35  1  0  0  0  0
 28  2  1  6  0  0  0
 28 18  1  0  0  0  0
 29 30  1  0  0  0  0
 29 39  1  1  0  0  0
 31 22  1  0  0  0  0
 31 32  1  1  0  0  0
 31 41  1  0  0  0  0
 33 34  1  1  0  0  0
 33 43  1  0  0  0  0
 35 36  1  0  0  0  0
 35 45  1  1  0  0  0
 37 28  1  0  0  0  0
 37 38  1  1  0  0  0
 39 40  1  0  0  0  0
 41 42  1  0  0  0  0
 41 49  1  1  0  0  0
 43 44  1  0  0  0  0
 43 51  1  6  0  0  0
 45 46  1  0  0  0  0
 47 37  1  0  0  0  0
 47 48  1  6  0  0  0
 49 50  1  0  0  0  0
 51 52  1  0  0  0  0
M  END
>  <CHROM.1>
77.03275433,22.47749427,-176.22615032,-70.18722778,-169.21755712,-124.14042364
70.06042991,76.87131459,172.49537598,82.98798506,120.08401639,96.12421746
10.99590813,-1.84686784,8.44715513,0.74561400,0.30263046,1.21098424

>  <Name>
2esj_lig

>  <RI>
0

>  <Rbt.Current_Directory>
/home/itssahil/PROJECTS/Mol_Feturizer/New_Systems/rnas/2esj

>  <Rbt.Executable>
rbdock ($Id: //depot/dev/client3/rdock/2013.1/src/exe/rbdock.cxx#4 $)

>  <Rbt.Library>
libRbt.so (2013.1, Build901 2013/11/27)

>  <Rbt.Parameter_File>
/export/apps/rDock/src/rDock_2013.1_src/data/scripts/dock_solv.prm

>  <Rbt.Receptor>
prm/blind_docking_60.prm

>  <SCORE>
53.2002

>  <SCORE.INTER>
24.2574

>  <SCORE.INTER.CONST>
1

>  <SCORE.INTER.POLAR>
-1.00032

>  <SCORE.INTER.ROT>
12

>  <SCORE.INTER.SOLV>
19.6633

>  <SCORE.INTER.VDW>
1.35158

>  <SCORE.INTER.norm>
0.466489

>  <SCORE.INTRA>
18.759

>  <SCORE.INTRA.DIHEDRAL>
-8.14869

>  <SCORE.INTRA.DIHEDRAL.0>
32.9766

>  <SCORE.INTRA.POLAR>
0

>  <SCORE.INTRA.POLAR.0>
0

>  <SCORE.INTRA.REPUL>
0.0701734

>  <SCORE.INTRA.REPUL.0>
0

>  <SCORE.INTRA.SOLV>
7.6359

>  <SCORE.INTRA.SOLV.lig_0>
-114.358

>  <SCORE.INTRA.VDW>
18.6645

>  <SCORE.INTRA.VDW.0>
-8.24257

>  <SCORE.INTRA.norm>
0.36075

>  <SCORE.RESTR>
10.1838

>  <SCORE.RESTR.CAVITY>
10.1838

>  <SCORE.RESTR.norm>
0.195843

>  <SCORE.SYSTEM>
0

>  <SCORE.SYSTEM.CONST>
0

>  <SCORE.SYSTEM.DIHEDRAL>
0

>  <SCORE.SYSTEM.SOLV>
0

>  <SCORE.SYSTEM.norm>
0

>  <SCORE.heavy>
52

>  <SCORE.norm>
1.02308

>  <RMSD>
16.201

$$$$
2esj_lig
 OpenBabel11021811423D
libRbt.so/2013.1/901 2013/11/27
 52 56  0  0  0  0  0  0  0  0999 V2000
   14.9940    0.6121    9.1610 C   0  0  2  0  0  0  0  0  0  0  0  0
   14.4909    0.2052   10.4480 O   0  0  0  0  0  0  0  0  0  0  0  0
   11.7850    2.3745   12.9501 C   0  0  2  0  0  0  0  0  0  0  0  0
   10.5955    2.9970   13.5540 N   0  0  0  0  0  0  0  0  0  0  0  0
   11.8969   -1.9345   11.5509 C   0  0  1  0  0  0  0  0  0  0  0  0
   10.6994   -2.6603    9.3235 C   0  0  1  0  0  0  0  0  0  0  0  0
    8.3212   -2.6964    6.2103 C   0  0  1  0  0  0  0  0  0  0  0  0
   15.3747   -0.6786    8.3774 C   0  0  2  0  0  0  0  0  0  0  0  0
   14.2490   -1.6045    8.2557 N   0  0  0  0  0  0  0  0  0  0  0  0
   11.9425    2.8355   11.4467 C   0  0  0  0  0  0  0  0  0  0  0  0
   11.9404   -3.4525   11.7304 C   0  0  2  0  0  0  0  0  0  0  0  0
   12.8952   -4.0839   10.8501 O   0  0  0  0  0  0  0  0  0  0  0  0
    9.5048   -1.6089    9.4178 C   0  0  2  0  0  0  0  0  0  0  0  0
    8.2034   -2.2474    9.0869 N   0  0  0  0  0  0  0  0  0  0  0  0
    7.1758   -2.3216    5.2769 C   0  0  1  0  0  0  0  0  0  0  0  0
    7.1074   -3.2804    4.2024 O   0  0  0  0  0  0  0  0  0  0  0  0
   16.5854   -1.4015    9.0487 C   0  0  0  0  0  0  0  0  0  0  0  0
   13.2567    2.2043   10.8335 C   0  0  2  0  0  0  0  0  0  0  0  0
   13.4194    2.6064    9.4325 N   0  0  0  0  0  0  0  0  0  0  0  0
   10.5095   -3.8037   11.4415 C   0  0  2  0  0  0  0  0  0  0  0  0
   10.2629   -3.7656   10.0587 O   0  0  0  0  0  0  0  0  0  0  0  0
    9.8699   -0.3315    8.5403 C   0  0  1  0  0  0  0  0  0  0  0  0
   11.1678    0.1361    8.9215 O   0  0  0  0  0  0  0  0  0  0  0  0
    5.8010   -2.2482    5.9302 C   0  0  1  0  0  0  0  0  0  0  0  0
    4.8382   -2.1230    4.8778 O   0  0  0  0  0  0  0  0  0  0  0  0
   17.7612   -0.3897    9.1879 C   0  0  2  0  0  0  0  0  0  0  0  0
   18.9222   -1.0015    9.7209 O   0  0  0  0  0  0  0  0  0  0  0  0
   13.2202    0.6584   10.9510 C   0  0  2  0  0  0  0  0  0  0  0  0
    9.6670   -2.6399   12.0033 C   0  0  2  0  0  0  0  0  0  0  0  0
   10.5541   -1.5411   11.8666 O   0  0  0  0  0  0  0  0  0  0  0  0
    9.9772   -0.6975    7.0028 C   0  0  2  0  0  0  0  0  0  0  0  0
    8.6610   -1.1259    6.6503 O   0  0  0  0  0  0  0  0  0  0  0  0
    5.4595   -3.4686    6.7870 C   0  0  2  0  0  0  0  0  0  0  0  0
    4.3050   -3.1197    7.5680 O   0  0  0  0  0  0  0  0  0  0  0  0
   17.2852    0.7934   10.0670 C   0  0  2  0  0  0  0  0  0  0  0  0
   16.1711    1.4261    9.3746 O   0  0  0  0  0  0  0  0  0  0  0  0
   12.9472    0.1333   12.3969 C   0  0  2  0  0  0  0  0  0  0  0  0
   12.8587   -1.3187   12.3783 O   0  0  0  0  0  0  0  0  0  0  0  0
    9.2296   -2.7584   13.4628 C   0  0  0  0  0  0  0  0  0  0  0  0
    8.6222   -1.5125   13.8346 O   0  0  0  0  0  0  0  0  0  0  0  0
   10.8423   -1.9415    6.9369 C   0  0  1  0  0  0  0  0  0  0  0  0
   10.9770   -3.0284    7.8777 O   0  0  0  0  0  0  0  0  0  0  0  0
    6.6583   -3.9273    7.6099 C   0  0  2  0  0  0  0  0  0  0  0  0
    8.0004   -3.7738    7.1233 O   0  0  0  0  0  0  0  0  0  0  0  0
   18.3203    1.8537   10.2304 C   0  0  0  0  0  0  0  0  0  0  0  0
   17.9469    2.6412   11.3352 O   0  0  0  0  0  0  0  0  0  0  0  0
   11.6712    0.8087   13.0035 C   0  0  1  0  0  0  0  0  0  0  0  0
   11.6016    0.4187   14.4008 O   0  0  0  0  0  0  0  0  0  0  0  0
   11.1985   -2.4639    5.5110 C   0  0  0  0  0  0  0  0  0  0  0  0
   11.2869   -3.9372    5.4313 N   0  0  0  0  0  0  0  0  0  0  0  0
    6.6124   -5.1297    8.5499 C   0  0  0  0  0  0  0  0  0  0  0  0
    5.4413   -5.0464    9.4046 O   0  0  0  0  0  0  0  0  0  0  0  0
  1  2  1  1  0  0  0
  1  8  1  0  0  0  0
  1 36  1  0  0  0  0
  3  4  1  6  0  0  0
  3 10  1  0  0  0  0
  3 47  1  0  0  0  0
  5 11  1  0  0  0  0
  5 30  1  0  0  0  0
  5 38  1  1  0  0  0
  6 21  1  1  0  0  0
  6 42  1  0  0  0  0
  7 15  1  0  0  0  0
  7 44  1  0  0  0  0
  7 32  1  1  0  0  0
  8  9  1  1  0  0  0
  8 17  1  0  0  0  0
 11 12  1  6  0  0  0
 11 20  1  0  0  0  0
 13  6  1  0  0  0  0
 13 14  1  6  0  0  0
 15 16  1  6  0  0  0
 15 24  1  0  0  0  0
 17 26  1  0  0  0  0
 18 10  1  0  0  0  0
 18 19  1  6  0  0  0
 20 21  1  6  0  0  0
 20 29  1  0  0  0  0
 22 13  1  0  0  0  0
 22 23  1  1  0  0  0
 24 25  1  6  0  0  0
 24 33  1  0  0  0  0
 26 27  1  1  0  0  0
 26 35  1  0  0  0  0
 28  2  1  1  0  0  0
 28 18  1  0  0  0  0
 29 30  1  0  0  0  0
 29 39  1  1  0  0  0
 31 22  1  0  0  0  0
 31 32  1  1  0  0  0
 31 41  1  0  0  0  0
 33 34  1  1  0  0  0
 33 43  1  0  0  0  0
 35 36  1  0  0  0  0
 35 45  1  6  0  0  0
 37 28  1  0  0  0  0
 37 38  1  6  0  0  0
 39 40  1  0  0  0  0
 41 42  1  0  0  0  0
 41 49  1  6  0  0  0
 43 44  1  0  0  0  0
 43 51  1  6  0  0  0
 45 46  1  0  0  0  0
 47 37  1  0  0  0  0
 47 48  1  1  0  0  0
 49 50  1  0  0  0  0
 51 52  1  0  0  0  0
M  END
>  <CHROM.1>
-127.56515285,-177.65559955,-87.75769517,-149.53203850,-47.73628757,-52.31701127
172.43738940,-113.65304365,-162.51312558,-57.81723929,-145.50120323,-48.70691179
11.19622386,-1.29757840,9.45670982,-0.46251134,-0.31954789,-1.83875616

>  <Name>
2esj_lig

>  <RI>
0

>  <Rbt.Current_Directory>
/home/itssahil/PROJECTS/Mol_Feturizer/New_Systems/rnas/2esj

>  <Rbt.Executable>
rbdock ($Id: //depot/dev/client3/rdock/2013.1/src/exe/rbdock.cxx#4 $)

>  <Rbt.Library>
libRbt.so (2013.1, Build901 2013/11/27)

>  <Rbt.Parameter_File>
/export/apps/rDock/src/rDock_2013.1_src/data/scripts/dock_solv.prm

>  <Rbt.Receptor>
prm/blind_docking_60.prm

>  <SCORE>
21.2028

>  <SCORE.INTER>
-0.307621

>  <SCORE.INTER.CONST>
1

>  <SCORE.INTER.POLAR>
-0.339442

>  <SCORE.INTER.ROT>
12

>  <SCORE.INTER.SOLV>
30.6095

>  <SCORE.INTER.VDW>
-20.8768

>  <SCORE.INTER.norm>
-0.0059158

>  <SCORE.INTRA>
14.256

>  <SCORE.INTRA.DIHEDRAL>
-5.1718

>  <SCORE.INTRA.DIHEDRAL.0>
32.9766

>  <SCORE.INTRA.POLAR>
0

>  <SCORE.INTRA.POLAR.0>
0

>  <SCORE.INTRA.REPUL>
0.116057

>  <SCORE.INTRA.REPUL.0>
0

>  <SCORE.INTRA.SOLV>
9.92268

>  <SCORE.INTRA.SOLV.lig_0>
-114.358

>  <SCORE.INTRA.VDW>
11.3002

>  <SCORE.INTRA.VDW.0>
-8.24257

>  <SCORE.INTRA.norm>
0.274153

>  <SCORE.RESTR>
7.2545

>  <SCORE.RESTR.CAVITY>
7.2545

>  <SCORE.RESTR.norm>
0.13951

>  <SCORE.SYSTEM>
0

>  <SCORE.SYSTEM.CONST>
0

>  <SCORE.SYSTEM.DIHEDRAL>
0

>  <SCORE.SYSTEM.SOLV>
0

>  <SCORE.SYSTEM.norm>
0

>  <SCORE.heavy>
52

>  <SCORE.norm>
0.407747

>  <RMSD>
16.230

$$$$
2esj_lig
 OpenBabel11021811423D
libRbt.so/2013.1/901 2013/11/27
 52 56  0  0  0  0  0  0  0  0999 V2000
   13.1572    1.4167   12.6879 C   0  0  2  0  0  0  0  0  0  0  0  0
   12.6281    0.0809   12.5849 O   0  0  0  0  0  0  0  0  0  0  0  0
    9.0783   -2.2438   13.1168 C   0  0  2  0  0  0  0  0  0  0  0  0
    7.6889   -2.6974   13.2927 N   0  0  0  0  0  0  0  0  0  0  0  0
   11.4421   -1.1956    9.1239 C   0  0  1  0  0  0  0  0  0  0  0  0
   11.6195   -1.4973    6.0920 C   0  0  1  0  0  0  0  0  0  0  0  0
    7.6064   -4.2175    5.4962 C   0  0  1  0  0  0  0  0  0  0  0  0
   12.4315    2.2916   11.6236 C   0  0  2  0  0  0  0  0  0  0  0  0
   10.9779    2.2663   11.7843 N   0  0  0  0  0  0  0  0  0  0  0  0
    9.4618   -1.2009   14.2407 C   0  0  0  0  0  0  0  0  0  0  0  0
   12.4456   -0.3605    8.3276 C   0  0  2  0  0  0  0  0  0  0  0  0
   11.8088    0.4440    7.3114 O   0  0  0  0  0  0  0  0  0  0  0  0
   10.3432   -2.1362    6.8021 C   0  0  2  0  0  0  0  0  0  0  0  0
   10.4420   -3.6192    6.8452 N   0  0  0  0  0  0  0  0  0  0  0  0
    6.4797   -3.4946    4.7671 C   0  0  1  0  0  0  0  0  0  0  0  0
    5.3325   -4.3640    4.6878 O   0  0  0  0  0  0  0  0  0  0  0  0
   12.8129    1.8410   10.1777 C   0  0  0  0  0  0  0  0  0  0  0  0
   10.9742   -0.7705   14.0708 C   0  0  2  0  0  0  0  0  0  0  0  0
   11.3522    0.2088   15.0950 N   0  0  0  0  0  0  0  0  0  0  0  0
   13.3361   -1.4425    7.7890 C   0  0  2  0  0  0  0  0  0  0  0  0
   12.7155   -2.1011    6.7140 O   0  0  0  0  0  0  0  0  0  0  0  0
    9.0274   -1.5695    6.1076 C   0  0  1  0  0  0  0  0  0  0  0  0
    9.0978   -0.1401    6.0798 O   0  0  0  0  0  0  0  0  0  0  0  0
    6.0325   -2.1818    5.3987 C   0  0  1  0  0  0  0  0  0  0  0  0
    4.8334   -1.7767    4.7291 O   0  0  0  0  0  0  0  0  0  0  0  0
   14.3641    1.8540   10.0395 C   0  0  2  0  0  0  0  0  0  0  0  0
   14.7785    1.5287    8.7247 O   0  0  0  0  0  0  0  0  0  0  0  0
   11.2156   -0.1900   12.6532 C   0  0  2  0  0  0  0  0  0  0  0  0
   13.4102   -2.5175    8.8929 C   0  0  2  0  0  0  0  0  0  0  0  0
   12.1478   -2.3781    9.5251 O   0  0  0  0  0  0  0  0  0  0  0  0
    8.9296   -2.0263    4.5940 C   0  0  2  0  0  0  0  0  0  0  0  0
    8.8268   -3.4494    4.6619 O   0  0  0  0  0  0  0  0  0  0  0  0
    5.7653   -2.2803    6.9017 C   0  0  2  0  0  0  0  0  0  0  0  0
    5.6658   -0.9349    7.3963 O   0  0  0  0  0  0  0  0  0  0  0  0
   14.9550    0.8735   11.0828 C   0  0  2  0  0  0  0  0  0  0  0  0
   14.5745    1.3630   12.4006 O   0  0  0  0  0  0  0  0  0  0  0  0
   10.7465   -1.1234   11.4915 C   0  0  2  0  0  0  0  0  0  0  0  0
   10.9491   -0.4526   10.2166 O   0  0  0  0  0  0  0  0  0  0  0  0
   14.5178   -2.3507    9.9326 C   0  0  0  0  0  0  0  0  0  0  0  0
   14.4851   -3.5027   10.7878 O   0  0  0  0  0  0  0  0  0  0  0  0
   10.2926   -1.7443    3.9917 C   0  0  1  0  0  0  0  0  0  0  0  0
   11.6011   -1.7793    4.6010 O   0  0  0  0  0  0  0  0  0  0  0  0
    6.8194   -3.1299    7.6026 C   0  0  2  0  0  0  0  0  0  0  0  0
    7.4536   -4.2324    6.9362 O   0  0  0  0  0  0  0  0  0  0  0  0
   16.4454    0.8392   11.0742 C   0  0  0  0  0  0  0  0  0  0  0  0
   16.8425    0.0356    9.9894 O   0  0  0  0  0  0  0  0  0  0  0  0
    9.2634   -1.5780   11.7062 C   0  0  1  0  0  0  0  0  0  0  0  0
    8.9730   -2.5855   10.7012 O   0  0  0  0  0  0  0  0  0  0  0  0
   10.4433   -2.0091    2.4620 C   0  0  0  0  0  0  0  0  0  0  0  0
   11.8485   -2.1566    2.0279 N   0  0  0  0  0  0  0  0  0  0  0  0
    6.8005   -3.4099    9.1036 C   0  0  0  0  0  0  0  0  0  0  0  0
    5.5998   -4.1469    9.4553 O   0  0  0  0  0  0  0  0  0  0  0  0
  1  2  1  6  0  0  0
  1  8  1  0  0  0  0
  1 36  1  0  0  0  0
  3  4  1  1  0  0  0
  3 10  1  0  0  0  0
  3 47  1  0  0  0  0
  5 11  1  0  0  0  0
  5 30  1  0  0  0  0
  5 38  1  1  0  0  0
  6 21  1  1  0  0  0
  6 42  1  0  0  0  0
  7 15  1  0  0  0  0
  7 44  1  0  0  0  0
  7 32  1  1  0  0  0
  8  9  1  6  0  0  0
  8 17  1  0  0  0  0
 11 12  1  6  0  0  0
 11 20  1  0  0  0  0
 13  6  1  0  0  0  0
 13 14  1  6  0  0  0
 15 16  1  1  0  0  0
 15 24  1  0  0  0  0
 17 26  1  0  0  0  0
 18 10  1  0  0  0  0
 18 19  1  1  0  0  0
 20 21  1  6  0  0  0
 20 29  1  0  0  0  0
 22 13  1  0  0  0  0
 22 23  1  6  0  0  0
 24 25  1  6  0  0  0
 24 33  1  0  0  0  0
 26 27  1  6  0  0  0
 26 35  1  0  0  0  0
 28  2  1  6  0  0  0
 28 18  1  0  0  0  0
 29 30  1  0  0  0  0
 29 39  1  1  0  0  0
 31 22  1  0  0  0  0
 31 32  1  1  0  0  0
 31 41  1  0  0  0  0
 33 34  1  1  0  0  0
 33 43  1  0  0  0  0
 35 36  1  0  0  0  0
 35 45  1  1  0  0  0
 37 28  1  0  0  0  0
 37 38  1  6  0  0  0
 39 40  1  0  0  0  0
 41 42  1  0  0  0  0
 41 49  1  6  0  0  0
 43 44  1  0  0  0  0
 43 51  1  1  0  0  0
 45 46  1  0  0  0  0
 47 37  1  0  0  0  0
 47 48  1  6  0  0  0
 49 50  1  0  0  0  0
 51 52  1  0  0  0  0
M  END
>  <CHROM.1>
-53.63234443,-140.36705275,-95.18743041,54.66336102,16.25821215,-103.98345277
-175.06608135,58.10627661,-78.98877082,139.17988937,-160.71021401,62.49837850
10.59211955,-1.35848254,8.70363720,0.81935658,0.34098650,1.41577670

>  <Name>
2esj_lig

>  <RI>
0

>  <Rbt.Current_Directory>
/home/itssahil/PROJECTS/Mol_Feturizer/New_Systems/rnas/2esj

>  <Rbt.Executable>
rbdock ($Id: //depot/dev/client3/rdock/2013.1/src/exe/rbdock.cxx#4 $)

>  <Rbt.Library>
libRbt.so (2013.1, Build901 2013/11/27)

>  <Rbt.Parameter_File>
/export/apps/rDock/src/rDock_2013.1_src/data/scripts/dock_solv.prm

>  <Rbt.Receptor>
prm/blind_docking_60.prm

>  <SCORE>
57.9845

>  <SCORE.INTER>
31.2006

>  <SCORE.INTER.CONST>
1

>  <SCORE.INTER.POLAR>
-0.123025

>  <SCORE.INTER.ROT>
12

>  <SCORE.INTER.SOLV>
30.1612

>  <SCORE.INTER.VDW>
-0.443241

>  <SCORE.INTER.norm>
0.600012

>  <SCORE.INTRA>
17.025

>  <SCORE.INTRA.DIHEDRAL>
0.700089

>  <SCORE.INTRA.DIHEDRAL.0>
32.9766

>  <SCORE.INTRA.POLAR>
0

>  <SCORE.INTRA.POLAR.0>
0

>  <SCORE.INTRA.REPUL>
0

>  <SCORE.INTRA.REPUL.0>
0

>  <SCORE.INTRA.SOLV>
7.15408

>  <SCORE.INTRA.SOLV.lig_0>
-114.358

>  <SCORE.INTRA.VDW>
13.0979

>  <SCORE.INTRA.VDW.0>
-8.24257

>  <SCORE.INTRA.norm>
0.327403

>  <SCORE.RESTR>
9.75897

>  <SCORE.RESTR.CAVITY>
9.75897

>  <SCORE.RESTR.norm>
0.187673

>  <SCORE.SYSTEM>
0

>  <SCORE.SYSTEM.CONST>
0

>  <SCORE.SYSTEM.DIHEDRAL>
0

>  <SCORE.SYSTEM.SOLV>
0

>  <SCORE.SYSTEM.norm>
0

>  <SCORE.heavy>
52

>  <SCORE.norm>
1.11509

>  <RMSD>
16.285

$$$$
2esj_lig
 OpenBabel11021811423D
libRbt.so/2013.1/901 2013/11/27
 52 56  0  0  0  0  0  0  0  0999 V2000
   17.7414   -2.4866    8.7027 C   0  0  2  0  0  0  0  0  0  0  0  0
   17.9114   -1.3099    9.5160 O   0  0  0  0  0  0  0  0  0  0  0  0
   15.7267   -0.6943   13.1403 C   0  0  2  0  0  0  0  0  0  0  0  0
   14.7859   -0.2262   14.1713 N   0  0  0  0  0  0  0  0  0  0  0  0
   14.1157   -1.9803    9.2409 C   0  0  1  0  0  0  0  0  0  0  0  0
   11.1059   -0.0168    7.1599 C   0  0  1  0  0  0  0  0  0  0  0  0
    7.2975   -3.7037    6.3999 C   0  0  1  0  0  0  0  0  0  0  0  0
   19.1307   -2.8409    8.0949 C   0  0  2  0  0  0  0  0  0  0  0  0
   20.1525   -3.0314    9.1239 N   0  0  0  0  0  0  0  0  0  0  0  0
   16.5361    0.5239   12.5418 C   0  0  0  0  0  0  0  0  0  0  0  0
   14.5081   -0.7562    8.4127 C   0  0  2  0  0  0  0  0  0  0  0  0
   14.6005    0.4428    9.2122 O   0  0  0  0  0  0  0  0  0  0  0  0
    9.8490   -0.3423    8.0850 C   0  0  2  0  0  0  0  0  0  0  0  0
   10.0157   -1.6501    8.7725 N   0  0  0  0  0  0  0  0  0  0  0  0
    6.1488   -2.7188    6.2158 C   0  0  1  0  0  0  0  0  0  0  0  0
    5.2233   -3.2469    5.2447 O   0  0  0  0  0  0  0  0  0  0  0  0
   19.5934   -1.7432    7.0850 C   0  0  0  0  0  0  0  0  0  0  0  0
   17.5821   -0.0049   11.4798 C   0  0  2  0  0  0  0  0  0  0  0  0
   18.3382    1.1091   10.8984 N   0  0  0  0  0  0  0  0  0  0  0  0
   13.3964   -0.7402    7.4038 C   0  0  2  0  0  0  0  0  0  0  0  0
   12.2183   -0.2331    7.9775 O   0  0  0  0  0  0  0  0  0  0  0  0
    8.5200   -0.2017    7.2196 C   0  0  1  0  0  0  0  0  0  0  0  0
    8.5245    1.0729    6.5684 O   0  0  0  0  0  0  0  0  0  0  0  0
    5.3658   -2.3879    7.4806 C   0  0  1  0  0  0  0  0  0  0  0  0
    4.2042   -1.6531    7.0795 O   0  0  0  0  0  0  0  0  0  0  0  0
   18.4799   -1.5428    6.0146 C   0  0  2  0  0  0  0  0  0  0  0  0
   18.8676   -0.6126    5.0193 O   0  0  0  0  0  0  0  0  0  0  0  0
   16.8626   -0.8091   10.3659 C   0  0  2  0  0  0  0  0  0  0  0  0
   13.0653   -2.2191    7.1162 C   0  0  2  0  0  0  0  0  0  0  0  0
   13.3895   -2.8390    8.3506 O   0  0  0  0  0  0  0  0  0  0  0  0
    8.4686   -1.2790    6.0594 C   0  0  2  0  0  0  0  0  0  0  0  0
    8.4308   -2.5321    6.7441 O   0  0  0  0  0  0  0  0  0  0  0  0
    4.9356   -3.6196    8.2793 C   0  0  2  0  0  0  0  0  0  0  0  0
    4.5008   -3.1509    9.5662 O   0  0  0  0  0  0  0  0  0  0  0  0
   17.1836   -1.0985    6.7366 C   0  0  2  0  0  0  0  0  0  0  0  0
   16.8050   -2.1717    7.6454 O   0  0  0  0  0  0  0  0  0  0  0  0
   15.9467   -1.9581   10.8967 C   0  0  2  0  0  0  0  0  0  0  0  0
   15.2664   -2.5934    9.7787 O   0  0  0  0  0  0  0  0  0  0  0  0
   13.8553   -2.8877    5.9917 C   0  0  0  0  0  0  0  0  0  0  0  0
   13.2055   -4.1303    5.6864 O   0  0  0  0  0  0  0  0  0  0  0  0
    9.8268   -1.2226    5.3870 C   0  0  1  0  0  0  0  0  0  0  0  0
   11.1252   -0.9234    5.9430 O   0  0  0  0  0  0  0  0  0  0  0  0
    6.0435   -4.6656    8.3342 C   0  0  2  0  0  0  0  0  0  0  0  0
    6.9693   -4.8300    7.2490 O   0  0  0  0  0  0  0  0  0  0  0  0
   16.0296   -0.9214    5.8096 C   0  0  0  0  0  0  0  0  0  0  0  0
   16.3492    0.1335    4.9348 O   0  0  0  0  0  0  0  0  0  0  0  0
   14.9539   -1.4227   11.9829 C   0  0  1  0  0  0  0  0  0  0  0  0
   14.2831   -2.5756   12.5575 O   0  0  0  0  0  0  0  0  0  0  0  0
   10.0150   -2.1224    4.1269 C   0  0  0  0  0  0  0  0  0  0  0  0
   11.4238   -2.2408    3.6958 N   0  0  0  0  0  0  0  0  0  0  0  0
    5.8917   -6.0028    9.0557 C   0  0  0  0  0  0  0  0  0  0  0  0
    4.8091   -6.7667    8.4612 O   0  0  0  0  0  0  0  0  0  0  0  0
  1  2  1  1  0  0  0
  1  8  1  0  0  0  0
  1 36  1  0  0  0  0
  3  4  1  1  0  0  0
  3 10  1  0  0  0  0
  3 47  1  0  0  0  0
  5 11  1  0  0  0  0
  5 30  1  0  0  0  0
  5 38  1  6  0  0  0
  6 21  1  1  0  0  0
  6 42  1  0  0  0  0
  7 15  1  0  0  0  0
  7 44  1  0  0  0  0
  7 32  1  1  0  0  0
  8  9  1  1  0  0  0
  8 17  1  0  0  0  0
 11 12  1  1  0  0  0
 11 20  1  0  0  0  0
 13  6  1  0  0  0  0
 13 14  1  6  0  0  0
 15 16  1  6  0  0  0
 15 24  1  0  0  0  0
 17 26  1  0  0  0  0
 18 10  1  0  0  0  0
 18 19  1  6  0  0  0
 20 21  1  1  0  0  0
 20 29  1  0  0  0  0
 22 13  1  0  0  0  0
 22 23  1  6  0  0  0
 24 25  1  6  0  0  0
 24 33  1  0  0  0  0
 26 27  1  6  0  0  0
 26 35  1  0  0  0  0
 28  2  1  6  0  0  0
 28 18  1  0  0  0  0
 29 30  1  0  0  0  0
 29 39  1  6  0  0  0
 31 22  1  0  0  0  0
 31 32  1  1  0  0  0
 31 41  1  0  0  0  0
 33 34  1  1  0  0  0
 33 43  1  0  0  0  0
 35 36  1  0  0  0  0
 35 45  1  6  0  0  0
 37 28  1  0  0  0  0
 37 38  1  6  0  0  0
 39 40  1  0  0  0  0
 41 42  1  0  0  0  0
 41 49  1  1  0  0  0
 43 44  1  0  0  0  0
 43 51  1  6  0  0  0
 45 46  1  0  0  0  0
 47 37  1  0  0  0  0
 47 48  1  1  0  0  0
 49 50  1  0  0  0  0
 51 52  1  0  0  0  0
M  END
>  <CHROM.1>
-171.73221829,74.40523149,145.89218004,-39.48512541,173.79147194,155.38334874
-167.30008405,129.42301981,-64.17332361,-80.71974276,-167.77254537,61.00645404
12.44459967,-1.86048411,8.03122911,-0.16248307,-0.17744342,-1.56759744

>  <Name>
2esj_lig

>  <RI>
0

>  <Rbt.Current_Directory>
/home/itssahil/PROJECTS/Mol_Feturizer/New_Systems/rnas/2esj

>  <Rbt.Executable>
rbdock ($Id: //depot/dev/client3/rdock/2013.1/src/exe/rbdock.cxx#4 $)

>  <Rbt.Library>
libRbt.so (2013.1, Build901 2013/11/27)

>  <Rbt.Parameter_File>
/export/apps/rDock/src/rDock_2013.1_src/data/scripts/dock_solv.prm

>  <Rbt.Receptor>
prm/blind_docking_60.prm

>  <SCORE>
17.3476

>  <SCORE.INTER>
0.0114446

>  <SCORE.INTER.CONST>
1

>  <SCORE.INTER.POLAR>
-1.00031

>  <SCORE.INTER.ROT>
12

>  <SCORE.INTER.SOLV>
26.4414

>  <SCORE.INTER.VDW>
-17.0718

>  <SCORE.INTER.norm>
0.000220088

>  <SCORE.INTRA>
3.10516

>  <SCORE.INTRA.DIHEDRAL>
-8.87172

>  <SCORE.INTRA.DIHEDRAL.0>
32.9766

>  <SCORE.INTRA.POLAR>
0

>  <SCORE.INTRA.POLAR.0>
0

>  <SCORE.INTRA.REPUL>
0

>  <SCORE.INTRA.REPUL.0>
0

>  <SCORE.INTRA.SOLV>
0.873585

>  <SCORE.INTRA.SOLV.lig_0>
-114.358

>  <SCORE.INTRA.VDW>
7.10423

>  <SCORE.INTRA.VDW.0>
-8.24257

>  <SCORE.INTRA.norm>
0.0597146

>  <SCORE.RESTR>
14.231

>  <SCORE.RESTR.CAVITY>
14.231

>  <SCORE.RESTR.norm>
0.273673

>  <SCORE.SYSTEM>
0

>  <SCORE.SYSTEM.CONST>
0

>  <SCORE.SYSTEM.DIHEDRAL>
0

>  <SCORE.SYSTEM.SOLV>
0

>  <SCORE.SYSTEM.norm>
0

>  <SCORE.heavy>
52

>  <SCORE.norm>
0.333607

>  <RMSD>
16.401

$$$$
2esj_lig
 OpenBabel11021811423D
libRbt.so/2013.1/901 2013/11/27
 52 56  0  0  0  0  0  0  0  0999 V2000
   14.2630   -2.5177    8.5178 C   0  0  2  0  0  0  0  0  0  0  0  0
   13.5615   -1.2883    8.7850 O   0  0  0  0  0  0  0  0  0  0  0  0
   15.5766    0.2851   12.2131 C   0  0  2  0  0  0  0  0  0  0  0  0
   15.9373    1.0142   13.4401 N   0  0  0  0  0  0  0  0  0  0  0  0
   11.6419   -2.0692   11.0118 C   0  0  1  0  0  0  0  0  0  0  0  0
    8.0459   -2.8953    9.8628 C   0  0  1  0  0  0  0  0  0  0  0  0
    6.4498   -1.8756    5.6026 C   0  0  1  0  0  0  0  0  0  0  0  0
   15.7781   -2.1770    8.4018 C   0  0  2  0  0  0  0  0  0  0  0  0
   16.2876   -1.5065    9.5977 N   0  0  0  0  0  0  0  0  0  0  0  0
   15.1194    1.2962   11.0879 C   0  0  0  0  0  0  0  0  0  0  0  0
   10.5990   -3.0393   11.5683 C   0  0  2  0  0  0  0  0  0  0  0  0
   10.3821   -4.1723   10.6997 O   0  0  0  0  0  0  0  0  0  0  0  0
    8.3299   -2.7898    8.2977 C   0  0  2  0  0  0  0  0  0  0  0  0
    8.2002   -1.3862    7.8244 N   0  0  0  0  0  0  0  0  0  0  0  0
    5.8372   -3.0610    4.8656 C   0  0  1  0  0  0  0  0  0  0  0  0
    5.6390   -2.7075    3.4821 O   0  0  0  0  0  0  0  0  0  0  0  0
   16.0566   -1.2975    7.1417 C   0  0  0  0  0  0  0  0  0  0  0  0
   14.7931    0.5004    9.7606 C   0  0  2  0  0  0  0  0  0  0  0  0
   14.3526    1.4158    8.7028 N   0  0  0  0  0  0  0  0  0  0  0  0
    9.4151   -2.1249   11.6962 C   0  0  2  0  0  0  0  0  0  0  0  0
    8.8331   -1.8944   10.4382 O   0  0  0  0  0  0  0  0  0  0  0  0
    7.4142   -3.8448    7.5339 C   0  0  1  0  0  0  0  0  0  0  0  0
    7.5931   -5.1322    8.1331 O   0  0  0  0  0  0  0  0  0  0  0  0
    6.6528   -4.3475    4.9103 C   0  0  1  0  0  0  0  0  0  0  0  0
    6.0538   -5.2610    3.9846 O   0  0  0  0  0  0  0  0  0  0  0  0
   15.4849   -2.0212    5.8867 C   0  0  2  0  0  0  0  0  0  0  0  0
   15.7715   -1.3129    4.6941 O   0  0  0  0  0  0  0  0  0  0  0  0
   13.7102   -0.5770   10.0280 C   0  0  2  0  0  0  0  0  0  0  0  0
    9.9848   -0.7500   12.1018 C   0  0  2  0  0  0  0  0  0  0  0  0
   11.2671   -0.7718   11.4950 O   0  0  0  0  0  0  0  0  0  0  0  0
    5.8764   -3.5020    7.6984 C   0  0  2  0  0  0  0  0  0  0  0  0
    5.7289   -2.2319    7.0616 O   0  0  0  0  0  0  0  0  0  0  0  0
    8.1272   -4.1555    4.5509 C   0  0  2  0  0  0  0  0  0  0  0  0
    8.8104   -5.3593    4.9368 O   0  0  0  0  0  0  0  0  0  0  0  0
   13.9605   -2.2106    6.0851 C   0  0  2  0  0  0  0  0  0  0  0  0
   13.7782   -3.0488    7.2620 O   0  0  0  0  0  0  0  0  0  0  0  0
   14.0450   -1.5401   11.2118 C   0  0  2  0  0  0  0  0  0  0  0  0
   12.9346   -2.4561   11.4224 O   0  0  0  0  0  0  0  0  0  0  0  0
   10.1386   -0.4916   13.6002 C   0  0  0  0  0  0  0  0  0  0  0  0
   11.4250   -0.9904   13.9952 O   0  0  0  0  0  0  0  0  0  0  0  0
    5.6702   -3.2425    9.1783 C   0  0  1  0  0  0  0  0  0  0  0  0
    6.5724   -2.6817   10.1562 O   0  0  0  0  0  0  0  0  0  0  0  0
    8.6941   -2.8852    5.1748 C   0  0  2  0  0  0  0  0  0  0  0  0
    7.8734   -1.7256    5.3835 O   0  0  0  0  0  0  0  0  0  0  0  0
   13.3106   -2.9400    4.9590 C   0  0  0  0  0  0  0  0  0  0  0  0
   13.6312   -2.2554    3.7721 O   0  0  0  0  0  0  0  0  0  0  0  0
   14.4140   -0.7313   12.5010 C   0  0  1  0  0  0  0  0  0  0  0  0
   14.8957   -1.6859   13.4839 O   0  0  0  0  0  0  0  0  0  0  0  0
    4.2034   -2.9793    9.6387 C   0  0  0  0  0  0  0  0  0  0  0  0
    3.6407   -4.0731   10.4584 N   0  0  0  0  0  0  0  0  0  0  0  0
   10.1394   -2.4335    4.9777 C   0  0  0  0  0  0  0  0  0  0  0  0
   10.6582   -2.9628    3.7289 O   0  0  0  0  0  0  0  0  0  0  0  0
  1  2  1  6  0  0  0
  1  8  1  0  0  0  0
  1 36  1  0  0  0  0
  3  4  1  1  0  0  0
  3 10  1  0  0  0  0
  3 47  1  0  0  0  0
  5 11  1  0  0  0  0
  5 30  1  0  0  0  0
  5 38  1  1  0  0  0
  6 21  1  1  0  0  0
  6 42  1  0  0  0  0
  7 15  1  0  0  0  0
  7 44  1  0  0  0  0
  7 32  1  1  0  0  0
  8  9  1  1  0  0  0
  8 17  1  0  0  0  0
 11 12  1  6  0  0  0
 11 20  1  0  0  0  0
 13  6  1  0  0  0  0
 13 14  1  6  0  0  0
 15 16  1  6  0  0  0
 15 24  1  0  0  0  0
 17 26  1  0  0  0  0
 18 10  1  0  0  0  0
 18 19  1  6  0  0  0
 20 21  1  6  0  0  0
 20 29  1  0  0  0  0
 22 13  1  0  0  0  0
 22 23  1  1  0  0  0
 24 25  1  6  0  0  0
 24 33  1  0  0  0  0
 26 27  1  6  0  0  0
 26 35  1  0  0  0  0
 28  2  1  6  0  0  0
 28 18  1  0  0  0  0
 29 30  1  0  0  0  0
 29 39  1  1  0  0  0
 31 22  1  0  0  0  0
 31 32  1  6  0  0  0
 31 41  1  0  0  0  0
 33 34  1  1  0  0  0
 33 43  1  0  0  0  0
 35 36  1  0  0  0  0
 35 45  1  6  0  0  0
 37 28  1  0  0  0  0
 37 38  1  1  0  0  0
 39 40  1  0  0  0  0
 41 42  1  0  0  0  0
 41 49  1  6  0  0  0
 43 44  1  0  0  0  0
 43 51  1  6  0  0  0
 45 46  1  0  0  0  0
 47 37  1  0  0  0  0
 47 48  1  1  0  0  0
 49 50  1  0  0  0  0
 51 52  1  0  0  0  0
M  END
>  <CHROM.1>
-67.87553098,-168.82963725,-144.89877429,55.29312253,76.10551370,95.57259493
87.27472796,43.17431558,-54.52599528,-24.84476229,110.64580340,25.83676417
10.70448606,-2.19250962,8.48763367,-0.51196981,-0.22422054,-1.76331726

>  <Name>
2esj_lig

>  <RI>
0

>  <Rbt.Current_Directory>
/home/itssahil/PROJECTS/Mol_Feturizer/New_Systems/rnas/2esj

>  <Rbt.Executable>
rbdock ($Id: //depot/dev/client3/rdock/2013.1/src/exe/rbdock.cxx#4 $)

>  <Rbt.Library>
libRbt.so (2013.1, Build901 2013/11/27)

>  <Rbt.Parameter_File>
/export/apps/rDock/src/rDock_2013.1_src/data/scripts/dock_solv.prm

>  <Rbt.Receptor>
prm/blind_docking_60.prm

>  <SCORE>
25.9222

>  <SCORE.INTER>
-2.86141

>  <SCORE.INTER.CONST>
1

>  <SCORE.INTER.POLAR>
-1.0198

>  <SCORE.INTER.ROT>
12

>  <SCORE.INTER.SOLV>
24.0438

>  <SCORE.INTER.VDW>
-18.1229

>  <SCORE.INTER.norm>
-0.0550272

>  <SCORE.INTRA>
11.5504

>  <SCORE.INTRA.DIHEDRAL>
-7.68562

>  <SCORE.INTRA.DIHEDRAL.0>
32.9766

>  <SCORE.INTRA.POLAR>
0

>  <SCORE.INTRA.POLAR.0>
0

>  <SCORE.INTRA.REPUL>
0

>  <SCORE.INTRA.REPUL.0>
0

>  <SCORE.INTRA.SOLV>
8.63415

>  <SCORE.INTRA.SOLV.lig_0>
-114.358

>  <SCORE.INTRA.VDW>
11.0762

>  <SCORE.INTRA.VDW.0>
-8.24257

>  <SCORE.INTRA.norm>
0.222124

>  <SCORE.RESTR>
17.2332

>  <SCORE.RESTR.CAVITY>
17.2332

>  <SCORE.RESTR.norm>
0.331408

>  <SCORE.SYSTEM>
0

>  <SCORE.SYSTEM.CONST>
0

>  <SCORE.SYSTEM.DIHEDRAL>
0

>  <SCORE.SYSTEM.SOLV>
0

>  <SCORE.SYSTEM.norm>
0

>  <SCORE.heavy>
52

>  <SCORE.norm>
0.498504

>  <RMSD>
16.669

$$$$
2esj_lig
 OpenBabel11021811423D
libRbt.so/2013.1/901 2013/11/27
 52 56  0  0  0  0  0  0  0  0999 V2000
    7.6862    5.6307   16.8669 C   0  0  2  0  0  0  0  0  0  0  0  0
    7.1530    5.4267   15.5444 O   0  0  0  0  0  0  0  0  0  0  0  0
    7.1983    6.9622   11.5534 C   0  0  2  0  0  0  0  0  0  0  0  0
    7.5248    7.6775   10.3088 N   0  0  0  0  0  0  0  0  0  0  0  0
    9.5599    3.3292   12.6624 C   0  0  1  0  0  0  0  0  0  0  0  0
   12.4818    1.2905   10.6293 C   0  0  1  0  0  0  0  0  0  0  0  0
   12.5339   -2.0720    7.4647 C   0  0  1  0  0  0  0  0  0  0  0  0
    7.1360    4.4914   17.7749 C   0  0  2  0  0  0  0  0  0  0  0  0
    7.4601    3.1636   17.2543 N   0  0  0  0  0  0  0  0  0  0  0  0
    7.0183    7.9859   12.7439 C   0  0  0  0  0  0  0  0  0  0  0  0
   10.9300    2.8189   13.1107 C   0  0  2  0  0  0  0  0  0  0  0  0
   12.0063    3.6793   12.6787 O   0  0  0  0  0  0  0  0  0  0  0  0
   12.4896    1.8270    9.1282 C   0  0  2  0  0  0  0  0  0  0  0  0
   11.3108    1.3236    8.3745 N   0  0  0  0  0  0  0  0  0  0  0  0
   12.0729   -2.0420    6.0121 C   0  0  1  0  0  0  0  0  0  0  0  0
   12.1894   -3.3648    5.4508 O   0  0  0  0  0  0  0  0  0  0  0  0
    5.5912    4.6248   17.9620 C   0  0  0  0  0  0  0  0  0  0  0  0
    6.6102    7.2051   14.0575 C   0  0  2  0  0  0  0  0  0  0  0  0
    6.4500    8.1322   15.1825 N   0  0  0  0  0  0  0  0  0  0  0  0
   10.9363    1.4580   12.4767 C   0  0  2  0  0  0  0  0  0  0  0  0
   11.1931    1.5581   11.0989 O   0  0  0  0  0  0  0  0  0  0  0  0
   13.9007    1.4972    8.4686 C   0  0  1  0  0  0  0  0  0  0  0  0
   14.9376    1.9811    9.3284 O   0  0  0  0  0  0  0  0  0  0  0  0
   10.6433   -1.5619    5.7925 C   0  0  1  0  0  0  0  0  0  0  0  0
   10.3142   -1.8240    4.4238 O   0  0  0  0  0  0  0  0  0  0  0  0
    5.2704    6.0530   18.4941 C   0  0  2  0  0  0  0  0  0  0  0  0
    3.8891    6.2179   18.7604 O   0  0  0  0  0  0  0  0  0  0  0  0
    7.6693    6.1238   14.3953 C   0  0  2  0  0  0  0  0  0  0  0  0
    9.4812    0.9511   12.5495 C   0  0  2  0  0  0  0  0  0  0  0  0
    8.7440    2.1619   12.4913 O   0  0  0  0  0  0  0  0  0  0  0  0
   14.1326   -0.0653    8.3498 C   0  0  2  0  0  0  0  0  0  0  0  0
   13.1050   -0.5071    7.4614 O   0  0  0  0  0  0  0  0  0  0  0  0
    9.6178   -2.2437    6.7000 C   0  0  2  0  0  0  0  0  0  0  0  0
    8.4035   -1.4817    6.6026 O   0  0  0  0  0  0  0  0  0  0  0  0
    5.7787    7.0854   17.4574 C   0  0  2  0  0  0  0  0  0  0  0  0
    7.2207    6.9139   17.3471 O   0  0  0  0  0  0  0  0  0  0  0  0
    7.9848    5.1475   13.2170 C   0  0  2  0  0  0  0  0  0  0  0  0
    9.0393    4.2283   13.6163 O   0  0  0  0  0  0  0  0  0  0  0  0
    9.0905    0.1812   13.8105 C   0  0  0  0  0  0  0  0  0  0  0  0
    9.7890    0.7761   14.9141 O   0  0  0  0  0  0  0  0  0  0  0  0
   13.7719   -0.6378    9.7071 C   0  0  1  0  0  0  0  0  0  0  0  0
   12.7913   -0.1946   10.6698 O   0  0  0  0  0  0  0  0  0  0  0  0
   10.1466   -2.4022    8.1211 C   0  0  2  0  0  0  0  0  0  0  0  0
   11.5447   -2.6032    8.3793 O   0  0  0  0  0  0  0  0  0  0  0  0
    5.5664    8.4973   17.8861 C   0  0  0  0  0  0  0  0  0  0  0  0
    4.1973    8.6498   18.1733 O   0  0  0  0  0  0  0  0  0  0  0  0
    8.3366    5.9417   11.9141 C   0  0  1  0  0  0  0  0  0  0  0  0
    8.4228    4.9763   10.8325 O   0  0  0  0  0  0  0  0  0  0  0  0
   14.0111   -2.1669    9.9009 C   0  0  0  0  0  0  0  0  0  0  0  0
   14.9270   -2.7490    8.8974 N   0  0  0  0  0  0  0  0  0  0  0  0
    9.3422   -3.0586    9.2409 C   0  0  0  0  0  0  0  0  0  0  0  0
   10.0338   -2.8984   10.5076 O   0  0  0  0  0  0  0  0  0  0  0  0
  1  2  1  6  0  0  0
  1  8  1  0  0  0  0
  1 36  1  0  0  0  0
  3  4  1  6  0  0  0
  3 10  1  0  0  0  0
  3 47  1  0  0  0  0
  5 11  1  0  0  0  0
  5 30  1  0  0  0  0
  5 38  1  1  0  0  0
  6 21  1  6  0  0  0
  6 42  1  0  0  0  0
  7 15  1  0  0  0  0
  7 44  1  0  0  0  0
  7 32  1  1  0  0  0
  8  9  1  6  0  0  0
  8 17  1  0  0  0  0
 11 12  1  6  0  0  0
 11 20  1  0  0  0  0
 13  6  1  0  0  0  0
 13 14  1  6  0  0  0
 15 16  1  1  0  0  0
 15 24  1  0  0  0  0
 17 26  1  0  0  0  0
 18 10  1  0  0  0  0
 18 19  1  1  0  0  0
 20 21  1  6  0  0  0
 20 29  1  0  0  0  0
 22 13  1  0  0  0  0
 22 23  1  1  0  0  0
 24 25  1  6  0  0  0
 24 33  1  0  0  0  0
 26 27  1  6  0  0  0
 26 35  1  0  0  0  0
 28  2  1  1  0  0  0
 28 18  1  0  0  0  0
 29 30  1  0  0  0  0
 29 39  1  1  0  0  0
 31 22  1  0  0  0  0
 31 32  1  6  0  0  0
 31 41  1  0  0  0  0
 33 34  1  1  0  0  0
 33 43  1  0  0  0  0
 35 36  1  0  0  0  0
 35 45  1  1  0  0  0
 37 28  1  0  0  0  0
 37 38  1  1  0  0  0
 39 40  1  0  0  0  0
 41 42  1  0  0  0  0
 41 49  1  6  0  0  0
 43 44  1  0  0  0  0
 43 51  1  6  0  0  0
 45 46  1  0  0  0  0
 47 37  1  0  0  0  0
 47 48  1  6  0  0  0
 49 50  1  0  0  0  0
 51 52  1  0  0  0  0
M  END
>  <CHROM.1>
-166.74763288,160.42011614,-167.02294022,-154.52638432,100.52521064,-105.08490234
35.69286892,-155.44052281,-55.17367533,-174.74844240,17.80291681,-172.29799652
9.60645901,2.35906785,11.85461908,-2.95841002,1.10862061,-0.95263853

>  <Name>
2esj_lig

>  <RI>
0

>  <Rbt.Current_Directory>
/home/itssahil/PROJECTS/Mol_Feturizer/New_Systems/rnas/2esj

>  <Rbt.Executable>
rbdock ($Id: //depot/dev/client3/rdock/2013.1/src/exe/rbdock.cxx#4 $)

>  <Rbt.Library>
libRbt.so (2013.1, Build901 2013/11/27)

>  <Rbt.Parameter_File>
/export/apps/rDock/src/rDock_2013.1_src/data/scripts/dock_solv.prm

>  <Rbt.Receptor>
prm/blind_docking_60.prm

>  <SCORE>
28.0138

>  <SCORE.INTER>
9.08549

>  <SCORE.INTER.CONST>
1

>  <SCORE.INTER.POLAR>
-2.27366

>  <SCORE.INTER.ROT>
12

>  <SCORE.INTER.SOLV>
31.2306

>  <SCORE.INTER.VDW>
-8.37433

>  <SCORE.INTER.norm>
0.174721

>  <SCORE.INTRA>
6.27946

>  <SCORE.INTRA.DIHEDRAL>
-5.66054

>  <SCORE.INTRA.DIHEDRAL.0>
32.9766

>  <SCORE.INTRA.POLAR>
0

>  <SCORE.INTRA.POLAR.0>
0

>  <SCORE.INTRA.REPUL>
0

>  <SCORE.INTRA.REPUL.0>
0

>  <SCORE.INTRA.SOLV>
4.68042

>  <SCORE.INTRA.SOLV.lig_0>
-114.358

>  <SCORE.INTRA.VDW>
6.76952

>  <SCORE.INTRA.VDW.0>
-8.24257

>  <SCORE.INTRA.norm>
0.120759

>  <SCORE.RESTR>
12.6489

>  <SCORE.RESTR.CAVITY>
12.6489

>  <SCORE.RESTR.norm>
0.243247

>  <SCORE.SYSTEM>
0

>  <SCORE.SYSTEM.CONST>
0

>  <SCORE.SYSTEM.DIHEDRAL>
0

>  <SCORE.SYSTEM.SOLV>
0

>  <SCORE.SYSTEM.norm>
0

>  <SCORE.heavy>
52

>  <SCORE.norm>
0.538727

>  <RMSD>
16.677

$$$$
2esj_lig
 OpenBabel11021811423D
libRbt.so/2013.1/901 2013/11/27
 52 56  0  0  0  0  0  0  0  0999 V2000
   12.8959    0.6097    7.7944 C   0  0  2  0  0  0  0  0  0  0  0  0
   13.1192    0.5732    9.2170 O   0  0  0  0  0  0  0  0  0  0  0  0
   16.6368   -0.1242   11.5468 C   0  0  2  0  0  0  0  0  0  0  0  0
   17.9674   -0.0441   12.1716 N   0  0  0  0  0  0  0  0  0  0  0  0
   12.1863    1.9312   12.1752 C   0  0  1  0  0  0  0  0  0  0  0  0
    8.8894    2.6601   11.9638 C   0  0  1  0  0  0  0  0  0  0  0  0
    8.2490    6.6649   14.9635 C   0  0  1  0  0  0  0  0  0  0  0  0
   11.3751    0.8541    7.5649 C   0  0  2  0  0  0  0  0  0  0  0  0
   10.9051    2.0730    8.2228 N   0  0  0  0  0  0  0  0  0  0  0  0
   16.7699   -0.1427    9.9722 C   0  0  0  0  0  0  0  0  0  0  0  0
   11.2447    1.5589   11.0292 C   0  0  2  0  0  0  0  0  0  0  0  0
   10.6559    2.7185   10.4015 O   0  0  0  0  0  0  0  0  0  0  0  0
    9.6743    3.8107   12.7392 C   0  0  2  0  0  0  0  0  0  0  0  0
    9.6204    3.5970   14.2097 N   0  0  0  0  0  0  0  0  0  0  0  0
    7.0398    6.7879   15.8834 C   0  0  1  0  0  0  0  0  0  0  0  0
    7.4781    7.2230   17.1861 O   0  0  0  0  0  0  0  0  0  0  0  0
   10.5345   -0.3688    8.0515 C   0  0  0  0  0  0  0  0  0  0  0  0
   15.3361   -0.2887    9.3206 C   0  0  2  0  0  0  0  0  0  0  0  0
   15.4305   -0.2948    7.8571 N   0  0  0  0  0  0  0  0  0  0  0  0
   10.2625    0.6852   11.7545 C   0  0  2  0  0  0  0  0  0  0  0  0
    9.3716    1.4672   12.5089 O   0  0  0  0  0  0  0  0  0  0  0  0
    9.1380    5.2260   12.2449 C   0  0  1  0  0  0  0  0  0  0  0  0
    9.1884    5.2661   10.8150 O   0  0  0  0  0  0  0  0  0  0  0  0
    5.9547    7.7463   15.4077 C   0  0  1  0  0  0  0  0  0  0  0  0
    5.0314    7.9113   16.4896 O   0  0  0  0  0  0  0  0  0  0  0  0
   11.0688   -1.6555    7.3555 C   0  0  2  0  0  0  0  0  0  0  0  0
   10.2992   -2.7955    7.6937 O   0  0  0  0  0  0  0  0  0  0  0  0
   14.4060    0.8572    9.7971 C   0  0  2  0  0  0  0  0  0  0  0  0
   11.0801   -0.0788   12.8163 C   0  0  2  0  0  0  0  0  0  0  0  0
   12.1201    0.8419   13.1060 O   0  0  0  0  0  0  0  0  0  0  0  0
    7.6153    5.4338   12.6291 C   0  0  2  0  0  0  0  0  0  0  0  0
    7.6081    5.4224   14.0575 O   0  0  0  0  0  0  0  0  0  0  0  0
    6.4856    9.1160   14.9811 C   0  0  2  0  0  0  0  0  0  0  0  0
    5.4197    9.7759   14.2789 O   0  0  0  0  0  0  0  0  0  0  0  0
   12.5575   -1.8370    7.7424 C   0  0  2  0  0  0  0  0  0  0  0  0
   13.2786   -0.6734    7.2456 O   0  0  0  0  0  0  0  0  0  0  0  0
   14.3225    1.0092   11.3498 C   0  0  2  0  0  0  0  0  0  0  0  0
   13.4887    2.1541   11.6821 O   0  0  0  0  0  0  0  0  0  0  0  0
   11.6903   -1.4097   12.3782 C   0  0  0  0  0  0  0  0  0  0  0  0
   10.6895   -2.1202   11.6345 O   0  0  0  0  0  0  0  0  0  0  0  0
    6.9085    4.1599   12.2076 C   0  0  1  0  0  0  0  0  0  0  0  0
    7.3923    2.8001   12.1688 O   0  0  0  0  0  0  0  0  0  0  0  0
    7.7790    8.9909   14.1836 C   0  0  2  0  0  0  0  0  0  0  0  0
    8.7147    7.9323   14.4402 O   0  0  0  0  0  0  0  0  0  0  0  0
   13.1907   -3.0192    7.0913 C   0  0  0  0  0  0  0  0  0  0  0  0
   13.0709   -2.8488    5.6996 O   0  0  0  0  0  0  0  0  0  0  0  0
   15.7537    1.1010   11.9786 C   0  0  1  0  0  0  0  0  0  0  0  0
   15.5938    1.0431   13.4210 O   0  0  0  0  0  0  0  0  0  0  0  0
    5.3584    4.1372   12.3798 C   0  0  0  0  0  0  0  0  0  0  0  0
    4.6660    5.1830   11.5979 N   0  0  0  0  0  0  0  0  0  0  0  0
    8.5405   10.1962   13.6369 C   0  0  0  0  0  0  0  0  0  0  0  0
    7.8468   10.7387   12.4822 O   0  0  0  0  0  0  0  0  0  0  0  0
  1  2  1  1  0  0  0
  1  8  1  0  0  0  0
  1 36  1  0  0  0  0
  3  4  1  1  0  0  0
  3 10  1  0  0  0  0
  3 47  1  0  0  0  0
  5 11  1  0  0  0  0
  5 30  1  0  0  0  0
  5 38  1  6  0  0  0
  6 21  1  1  0  0  0
  6 42  1  0  0  0  0
  7 15  1  0  0  0  0
  7 44  1  0  0  0  0
  7 32  1  6  0  0  0
  8  9  1  1  0  0  0
  8 17  1  0  0  0  0
 11 12  1  1  0  0  0
 11 20  1  0  0  0  0
 13  6  1  0  0  0  0
 13 14  1  1  0  0  0
 15 16  1  1  0  0  0
 15 24  1  0  0  0  0
 17 26  1  0  0  0  0
 18 10  1  0  0  0  0
 18 19  1  6  0  0  0
 20 21  1  1  0  0  0
 20 29  1  0  0  0  0
 22 13  1  0  0  0  0
 22 23  1  6  0  0  0
 24 25  1  1  0  0  0
 24 33  1  0  0  0  0
 26 27  1  1  0  0  0
 26 35  1  0  0  0  0
 28  2  1  1  0  0  0
 28 18  1  0  0  0  0
 29 30  1  0  0  0  0
 29 39  1  6  0  0  0
 31 22  1  0  0  0  0
 31 32  1  1  0  0  0
 31 41  1  0  0  0  0
 33 34  1  6  0  0  0
 33 43  1  0  0  0  0
 35 36  1  0  0  0  0
 35 45  1  6  0  0  0
 37 28  1  0  0  0  0
 37 38  1  6  0  0  0
 39 40  1  0  0  0  0
 41 42  1  0  0  0  0
 41 49  1  1  0  0  0
 43 44  1  0  0  0  0
 43 51  1  1  0  0  0
 45 46  1  0  0  0  0
 47 37  1  0  0  0  0
 47 48  1  1  0  0  0
 49 50  1  0  0  0  0
 51 52  1  0  0  0  0
M  END
>  <CHROM.1>
-156.57816531,-77.53497334,-105.53214408,131.93112247,39.84054732,-65.90122603
-43.86978814,70.58470594,58.33928072,105.43788975,60.45214589,-74.82079638
10.58118131,2.76009833,11.58011771,0.94457302,0.28112583,-2.38580873

>  <Name>
2esj_lig

>  <RI>
0

>  <Rbt.Current_Directory>
/home/itssahil/PROJECTS/Mol_Feturizer/New_Systems/rnas/2esj

>  <Rbt.Executable>
rbdock ($Id: //depot/dev/client3/rdock/2013.1/src/exe/rbdock.cxx#4 $)

>  <Rbt.Library>
libRbt.so (2013.1, Build901 2013/11/27)

>  <Rbt.Parameter_File>
/export/apps/rDock/src/rDock_2013.1_src/data/scripts/dock_solv.prm

>  <Rbt.Receptor>
prm/blind_docking_40.prm

>  <SCORE>
30.9807

>  <SCORE.INTER>
-6.18675

>  <SCORE.INTER.CONST>
1

>  <SCORE.INTER.POLAR>
-1.30626

>  <SCORE.INTER.ROT>
12

>  <SCORE.INTER.SOLV>
21.8037

>  <SCORE.INTER.VDW>
-18.6382

>  <SCORE.INTER.norm>
-0.118976

>  <SCORE.INTRA>
14.2333

>  <SCORE.INTRA.DIHEDRAL>
-1.92344

>  <SCORE.INTRA.DIHEDRAL.0>
32.9766

>  <SCORE.INTRA.POLAR>
0

>  <SCORE.INTRA.POLAR.0>
0

>  <SCORE.INTRA.REPUL>
0

>  <SCORE.INTRA.REPUL.0>
0

>  <SCORE.INTRA.SOLV>
5.68392

>  <SCORE.INTRA.SOLV.lig_0>
-114.358

>  <SCORE.INTRA.VDW>
12.3531

>  <SCORE.INTRA.VDW.0>
-8.24257

>  <SCORE.INTRA.norm>
0.273718

>  <SCORE.RESTR>
22.9341

>  <SCORE.RESTR.CAVITY>
22.9341

>  <SCORE.RESTR.norm>
0.441041

>  <SCORE.SYSTEM>
0

>  <SCORE.SYSTEM.CONST>
0

>  <SCORE.SYSTEM.DIHEDRAL>
0

>  <SCORE.SYSTEM.SOLV>
0

>  <SCORE.SYSTEM.norm>
0

>  <SCORE.heavy>
52

>  <SCORE.norm>
0.595783

>  <RMSD>
17.010

$$$$
2esj_lig
 OpenBabel11021811423D
libRbt.so/2013.1/901 2013/11/27
 52 56  0  0  0  0  0  0  0  0999 V2000
   11.3446   -2.2242   12.1024 C   0  0  2  0  0  0  0  0  0  0  0  0
   11.8156   -1.0047   11.4975 O   0  0  0  0  0  0  0  0  0  0  0  0
   14.5664   -0.3068    8.2985 C   0  0  2  0  0  0  0  0  0  0  0  0
   15.2445   -0.2514    6.9929 N   0  0  0  0  0  0  0  0  0  0  0  0
   10.9870    2.1390   10.6937 C   0  0  1  0  0  0  0  0  0  0  0  0
    8.6268    3.9317   13.4028 C   0  0  1  0  0  0  0  0  0  0  0  0
    7.9779    8.2296   16.2980 C   0  0  1  0  0  0  0  0  0  0  0  0
   10.2814   -2.8413   11.1465 C   0  0  2  0  0  0  0  0  0  0  0  0
   10.8111   -3.0679    9.8022 N   0  0  0  0  0  0  0  0  0  0  0  0
   14.2307   -1.8032    8.6797 C   0  0  0  0  0  0  0  0  0  0  0  0
    9.8730    1.5953   11.5891 C   0  0  2  0  0  0  0  0  0  0  0  0
    8.5585    1.9613   11.1162 O   0  0  0  0  0  0  0  0  0  0  0  0
    8.3278    5.3512   12.7418 C   0  0  2  0  0  0  0  0  0  0  0  0
    9.4748    6.2792   12.9267 N   0  0  0  0  0  0  0  0  0  0  0  0
    6.4670    8.2122   16.4988 C   0  0  1  0  0  0  0  0  0  0  0  0
    6.1735    8.3782   17.9005 O   0  0  0  0  0  0  0  0  0  0  0  0
    9.0097   -1.9379   11.0700 C   0  0  0  0  0  0  0  0  0  0  0  0
   13.5570   -1.8477   10.1100 C   0  0  2  0  0  0  0  0  0  0  0  0
   13.2226   -3.2262   10.4825 N   0  0  0  0  0  0  0  0  0  0  0  0
   10.2503    2.2158   12.9032 C   0  0  2  0  0  0  0  0  0  0  0  0
    9.8912    3.5741   12.9272 O   0  0  0  0  0  0  0  0  0  0  0  0
    6.9317    5.8906   13.2850 C   0  0  1  0  0  0  0  0  0  0  0  0
    5.9399    4.8751   13.1004 O   0  0  0  0  0  0  0  0  0  0  0  0
    5.6953    9.2760   15.7273 C   0  0  1  0  0  0  0  0  0  0  0  0
    4.3493    9.2602   16.2154 O   0  0  0  0  0  0  0  0  0  0  0  0
    8.4793   -1.6926   12.5136 C   0  0  2  0  0  0  0  0  0  0  0  0
    7.2784   -0.9415   12.5130 O   0  0  0  0  0  0  0  0  0  0  0  0
   12.2874   -0.9574   10.1380 C   0  0  2  0  0  0  0  0  0  0  0  0
   11.7924    2.2367   12.9334 C   0  0  2  0  0  0  0  0  0  0  0  0
   12.1126    2.3546   11.5563 O   0  0  0  0  0  0  0  0  0  0  0  0
    6.9844    6.1642   14.8443 C   0  0  2  0  0  0  0  0  0  0  0  0
    7.9554    7.2021   14.9869 O   0  0  0  0  0  0  0  0  0  0  0  0
    6.2719   10.6851   15.8758 C   0  0  2  0  0  0  0  0  0  0  0  0
    5.6494   11.4985   14.8681 O   0  0  0  0  0  0  0  0  0  0  0  0
    9.5920   -0.9884   13.3291 C   0  0  2  0  0  0  0  0  0  0  0  0
   10.7343   -1.8908   13.3714 O   0  0  0  0  0  0  0  0  0  0  0  0
   12.5244    0.5097    9.6561 C   0  0  2  0  0  0  0  0  0  0  0  0
   11.2604    1.2299    9.6506 O   0  0  0  0  0  0  0  0  0  0  0  0
   12.4791    0.9982   13.5082 C   0  0  0  0  0  0  0  0  0  0  0  0
   13.7786    0.9059   12.9063 O   0  0  0  0  0  0  0  0  0  0  0  0
    7.6156    4.9284   15.4564 C   0  0  1  0  0  0  0  0  0  0  0  0
    8.6096    4.0308   14.9170 O   0  0  0  0  0  0  0  0  0  0  0  0
    7.7955   10.6746   15.8205 C   0  0  2  0  0  0  0  0  0  0  0  0
    8.5527    9.5588   16.3137 O   0  0  0  0  0  0  0  0  0  0  0  0
    9.2106   -0.7448   14.7495 C   0  0  0  0  0  0  0  0  0  0  0  0
    9.8752    0.4219   15.1706 O   0  0  0  0  0  0  0  0  0  0  0  0
   13.2376    0.5301    8.2621 C   0  0  1  0  0  0  0  0  0  0  0  0
   13.5928    1.9101    7.9814 O   0  0  0  0  0  0  0  0  0  0  0  0
    7.6946    4.8887   17.0136 C   0  0  0  0  0  0  0  0  0  0  0  0
    6.4022    4.5752   17.6586 N   0  0  0  0  0  0  0  0  0  0  0  0
    8.6426   11.9383   15.9524 C   0  0  0  0  0  0  0  0  0  0  0  0
    8.0769   13.0012   15.1406 O   0  0  0  0  0  0  0  0  0  0  0  0
  1  2  1  6  0  0  0
  1  8  1  0  0  0  0
  1 36  1  0  0  0  0
  3  4  1  6  0  0  0
  3 10  1  0  0  0  0
  3 47  1  0  0  0  0
  5 11  1  0  0  0  0
  5 30  1  0  0  0  0
  5 38  1  6  0  0  0
  6 21  1  6  0  0  0
  6 42  1  0  0  0  0
  7 15  1  0  0  0  0
  7 44  1  0  0  0  0
  7 32  1  6  0  0  0
  8  9  1  6  0  0  0
  8 17  1  0  0  0  0
 11 12  1  6  0  0  0
 11 20  1  0  0  0  0
 13  6  1  0  0  0  0
 13 14  1  1  0  0  0
 15 16  1  1  0  0  0
 15 24  1  0  0  0  0
 17 26  1  0  0  0  0
 18 10  1  0  0  0  0
 18 19  1  6  0  0  0
 20 21  1  6  0  0  0
 20 29  1  0  0  0  0
 22 13  1  0  0  0  0
 22 23  1  1  0  0  0
 24 25  1  1  0  0  0
 24 33  1  0  0  0  0
 26 27  1  6  0  0  0
 26 35  1  0  0  0  0
 28  2  1  1  0  0  0
 28 18  1  0  0  0  0
 29 30  1  0  0  0  0
 29 39  1  6  0  0  0
 31 22  1  0  0  0  0
 31 32  1  6  0  0  0
 31 41  1  0  0  0  0
 33 34  1  6  0  0  0
 33 43  1  0  0  0  0
 35 36  1  0  0  0  0
 35 45  1  1  0  0  0
 37 28  1  0  0  0  0
 37 38  1  6  0  0  0
 39 40  1  0  0  0  0
 41 42  1  0  0  0  0
 41 49  1  1  0  0  0
 43 44  1  0  0  0  0
 43 51  1  1  0  0  0
 45 46  1  0  0  0  0
 47 37  1  0  0  0  0
 47 48  1  1  0  0  0
 49 50  1  0  0  0  0
 51 52  1  0  0  0  0
M  END
>  <CHROM.1>
-51.51114793,-110.50030879,-156.82565717,-31.98899557,90.45875421,-64.43107159
153.19550708,156.37401484,-149.51183382,103.02197403,76.53245790,-44.66562500
9.63076255,3.23919231,13.00257818,0.95308793,-0.77014836,-3.11258911

>  <Name>
2esj_lig

>  <RI>
0

>  <Rbt.Current_Directory>
/home/itssahil/PROJECTS/Mol_Feturizer/New_Systems/rnas/2esj

>  <Rbt.Executable>
rbdock ($Id: //depot/dev/client3/rdock/2013.1/src/exe/rbdock.cxx#4 $)

>  <Rbt.Library>
libRbt.so (2013.1, Build901 2013/11/27)

>  <Rbt.Parameter_File>
/export/apps/rDock/src/rDock_2013.1_src/data/scripts/dock_solv.prm

>  <Rbt.Receptor>
prm/blind_docking_40.prm

>  <SCORE>
21.7525

>  <SCORE.INTER>
-5.05501

>  <SCORE.INTER.CONST>
1

>  <SCORE.INTER.POLAR>
-1.27266

>  <SCORE.INTER.ROT>
12

>  <SCORE.INTER.SOLV>
26.4448

>  <SCORE.INTER.VDW>
-19.5427

>  <SCORE.INTER.norm>
-0.0972117

>  <SCORE.INTRA>
7.95942

>  <SCORE.INTRA.DIHEDRAL>
1.52025

>  <SCORE.INTRA.DIHEDRAL.0>
32.9766

>  <SCORE.INTRA.POLAR>
0

>  <SCORE.INTRA.POLAR.0>
0

>  <SCORE.INTRA.REPUL>
0.083455

>  <SCORE.INTRA.REPUL.0>
0

>  <SCORE.INTRA.SOLV>
5.37216

>  <SCORE.INTRA.SOLV.lig_0>
-114.358

>  <SCORE.INTRA.VDW>
4.09594

>  <SCORE.INTRA.VDW.0>
-8.24257

>  <SCORE.INTRA.norm>
0.153066

>  <SCORE.RESTR>
18.8481

>  <SCORE.RESTR.CAVITY>
18.8481

>  <SCORE.RESTR.norm>
0.362463

>  <SCORE.SYSTEM>
0

>  <SCORE.SYSTEM.CONST>
0

>  <SCORE.SYSTEM.DIHEDRAL>
0

>  <SCORE.SYSTEM.SOLV>
0

>  <SCORE.SYSTEM.norm>
0

>  <SCORE.heavy>
52

>  <SCORE.norm>
0.418317

>  <RMSD>
17.079

$$$$
2esj_lig
 OpenBabel11021811423D
libRbt.so/2013.1/901 2013/11/27
 52 56  0  0  0  0  0  0  0  0999 V2000
   13.8993    0.3420   10.9216 C   0  0  2  0  0  0  0  0  0  0  0  0
   13.0191   -0.6993   10.4569 O   0  0  0  0  0  0  0  0  0  0  0  0
   10.8798   -4.2196   11.6049 C   0  0  2  0  0  0  0  0  0  0  0  0
   10.4041   -5.4366   12.2833 N   0  0  0  0  0  0  0  0  0  0  0  0
   10.3289    0.6293   12.2019 C   0  0  1  0  0  0  0  0  0  0  0  0
    8.4677    4.3471   11.4685 C   0  0  1  0  0  0  0  0  0  0  0  0
    5.4349    7.6146   14.3944 C   0  0  1  0  0  0  0  0  0  0  0  0
   14.2271    1.2564    9.7044 C   0  0  2  0  0  0  0  0  0  0  0  0
   13.0213    1.7993    9.0796 N   0  0  0  0  0  0  0  0  0  0  0  0
   12.4049   -4.3672   11.2182 C   0  0  0  0  0  0  0  0  0  0  0  0
   10.2762    1.7099   13.2827 C   0  0  2  0  0  0  0  0  0  0  0  0
    9.1681    1.5271   14.1904 O   0  0  0  0  0  0  0  0  0  0  0  0
    8.9852    5.3743   12.5722 C   0  0  2  0  0  0  0  0  0  0  0  0
    8.6038    4.9281   13.9384 N   0  0  0  0  0  0  0  0  0  0  0  0
    6.2611    8.8955   14.4033 C   0  0  1  0  0  0  0  0  0  0  0  0
    5.3744   10.0313   14.3576 O   0  0  0  0  0  0  0  0  0  0  0  0
   15.0744    0.4871    8.6417 C   0  0  0  0  0  0  0  0  0  0  0  0
   12.8816   -3.0760   10.4389 C   0  0  2  0  0  0  0  0  0  0  0  0
   14.2996   -3.1818   10.0797 N   0  0  0  0  0  0  0  0  0  0  0  0
   10.1795    2.9434   12.4323 C   0  0  2  0  0  0  0  0  0  0  0  0
    8.8768    3.0920   11.9271 O   0  0  0  0  0  0  0  0  0  0  0  0
    8.4992    6.8397   12.1829 C   0  0  1  0  0  0  0  0  0  0  0  0
    8.8776    7.1081   10.8289 O   0  0  0  0  0  0  0  0  0  0  0  0
    7.1836    9.0668   15.6041 C   0  0  1  0  0  0  0  0  0  0  0  0
    7.6876   10.4064   15.5632 O   0  0  0  0  0  0  0  0  0  0  0  0
   16.3389   -0.1002    9.3357 C   0  0  2  0  0  0  0  0  0  0  0  0
   17.1944   -0.7477    8.4110 O   0  0  0  0  0  0  0  0  0  0  0  0
   12.6342   -1.8059   11.2937 C   0  0  2  0  0  0  0  0  0  0  0  0
   11.0357    2.6619   11.1804 C   0  0  2  0  0  0  0  0  0  0  0  0
   10.9157    1.2540   11.0518 O   0  0  0  0  0  0  0  0  0  0  0  0
    6.9197    6.9543   12.2206 C   0  0  2  0  0  0  0  0  0  0  0  0
    6.5820    6.7152   13.5877 O   0  0  0  0  0  0  0  0  0  0  0  0
    6.4963    8.8247   16.9491 C   0  0  2  0  0  0  0  0  0  0  0  0
    7.5362    8.7123   17.9343 O   0  0  0  0  0  0  0  0  0  0  0  0
   15.8767   -1.0641   10.4566 C   0  0  2  0  0  0  0  0  0  0  0  0
   15.1103   -0.2786   11.4139 O   0  0  0  0  0  0  0  0  0  0  0  0
   11.1676   -1.6596   11.8120 C   0  0  2  0  0  0  0  0  0  0  0  0
   11.0668   -0.4818   12.6600 O   0  0  0  0  0  0  0  0  0  0  0  0
   12.5145    3.0376   11.2681 C   0  0  0  0  0  0  0  0  0  0  0  0
   13.0709    2.3433   12.3942 O   0  0  0  0  0  0  0  0  0  0  0  0
    6.4029    5.7505   11.4564 C   0  0  1  0  0  0  0  0  0  0  0  0
    6.9584    4.4238   11.3300 O   0  0  0  0  0  0  0  0  0  0  0  0
    5.5568    7.6255   16.8892 C   0  0  2  0  0  0  0  0  0  0  0  0
    4.8599    7.2827   15.6814 O   0  0  0  0  0  0  0  0  0  0  0  0
   17.0103   -1.6530   11.2253 C   0  0  0  0  0  0  0  0  0  0  0  0
   17.8127   -2.3650   10.3147 O   0  0  0  0  0  0  0  0  0  0  0  0
   10.6991   -2.9671   12.5354 C   0  0  1  0  0  0  0  0  0  0  0  0
    9.2803   -2.8217   12.8093 O   0  0  0  0  0  0  0  0  0  0  0  0
    4.8590    5.6707   11.2494 C   0  0  0  0  0  0  0  0  0  0  0  0
    4.3210    6.7693   10.4198 N   0  0  0  0  0  0  0  0  0  0  0  0
    4.7286    7.1556   18.0830 C   0  0  0  0  0  0  0  0  0  0  0  0
    5.0803    5.7883   18.4229 O   0  0  0  0  0  0  0  0  0  0  0  0
  1  2  1  6  0  0  0
  1  8  1  0  0  0  0
  1 36  1  0  0  0  0
  3  4  1  1  0  0  0
  3 10  1  0  0  0  0
  3 47  1  0  0  0  0
  5 11  1  0  0  0  0
  5 30  1  0  0  0  0
  5 38  1  1  0  0  0
  6 21  1  1  0  0  0
  6 42  1  0  0  0  0
  7 15  1  0  0  0  0
  7 44  1  0  0  0  0
  7 32  1  1  0  0  0
  8  9  1  6  0  0  0
  8 17  1  0  0  0  0
 11 12  1  1  0  0  0
 11 20  1  0  0  0  0
 13  6  1  0  0  0  0
 13 14  1  1  0  0  0
 15 16  1  1  0  0  0
 15 24  1  0  0  0  0
 17 26  1  0  0  0  0
 18 10  1  0  0  0  0
 18 19  1  1  0  0  0
 20 21  1  6  0  0  0
 20 29  1  0  0  0  0
 22 13  1  0  0  0  0
 22 23  1  6  0  0  0
 24 25  1  1  0  0  0
 24 33  1  0  0  0  0
 26 27  1  6  0  0  0
 26 35  1  0  0  0  0
 28  2  1  6  0  0  0
 28 18  1  0  0  0  0
 29 30  1  0  0  0  0
 29 39  1  1  0  0  0
 31 22  1  0  0  0  0
 31 32  1  1  0  0  0
 31 41  1  0  0  0  0
 33 34  1  1  0  0  0
 33 43  1  0  0  0  0
 35 36  1  0  0  0  0
 35 45  1  1  0  0  0
 37 28  1  0  0  0  0
 37 38  1  1  0  0  0
 39 40  1  0  0  0  0
 41 42  1  0  0  0  0
 41 49  1  1  0  0  0
 43 44  1  0  0  0  0
 43 51  1  1  0  0  0
 45 46  1  0  0  0  0
 47 37  1  0  0  0  0
 47 48  1  6  0  0  0
 49 50  1  0  0  0  0
 51 52  1  0  0  0  0
M  END
>  <CHROM.1>
173.06889752,176.21130704,-44.22093424,-68.54273894,160.61204872,-130.54572646
56.78869960,137.69002749,-59.82628394,110.98211054,64.06462691,-120.17681869
10.11507244,2.76741016,12.45271665,-0.76629559,0.56652224,-0.08502976

>  <Name>
2esj_lig

>  <RI>
0

>  <Rbt.Current_Directory>
/home/itssahil/PROJECTS/Mol_Feturizer/New_Systems/rnas/2esj

>  <Rbt.Executable>
rbdock ($Id: //depot/dev/client3/rdock/2013.1/src/exe/rbdock.cxx#4 $)

>  <Rbt.Library>
libRbt.so (2013.1, Build901 2013/11/27)

>  <Rbt.Parameter_File>
/export/apps/rDock/src/rDock_2013.1_src/data/scripts/dock_solv.prm

>  <Rbt.Receptor>
prm/blind_docking_60.prm

>  <SCORE>
41.369

>  <SCORE.INTER>
17.1108

>  <SCORE.INTER.CONST>
1

>  <SCORE.INTER.POLAR>
-1.79191

>  <SCORE.INTER.ROT>
12

>  <SCORE.INTER.SOLV>
32.4126

>  <SCORE.INTER.VDW>
-5.02396

>  <SCORE.INTER.norm>
0.329054

>  <SCORE.INTRA>
8.75994

>  <SCORE.INTRA.DIHEDRAL>
-4.33564

>  <SCORE.INTRA.DIHEDRAL.0>
32.9766

>  <SCORE.INTRA.POLAR>
0

>  <SCORE.INTRA.POLAR.0>
0

>  <SCORE.INTRA.REPUL>
0

>  <SCORE.INTRA.REPUL.0>
0

>  <SCORE.INTRA.SOLV>
5.97176

>  <SCORE.INTRA.SOLV.lig_0>
-114.358

>  <SCORE.INTRA.VDW>
7.94188

>  <SCORE.INTRA.VDW.0>
-8.24257

>  <SCORE.INTRA.norm>
0.16846

>  <SCORE.RESTR>
15.4982

>  <SCORE.RESTR.CAVITY>
15.4982

>  <SCORE.RESTR.norm>
0.298043

>  <SCORE.SYSTEM>
0

>  <SCORE.SYSTEM.CONST>
0

>  <SCORE.SYSTEM.DIHEDRAL>
0

>  <SCORE.SYSTEM.SOLV>
0

>  <SCORE.SYSTEM.norm>
0

>  <SCORE.heavy>
52

>  <SCORE.norm>
0.795557

>  <RMSD>
17.196

$$$$
2esj_lig
 OpenBabel11021811423D
libRbt.so/2013.1/901 2013/11/27
 52 56  0  0  0  0  0  0  0  0999 V2000
   13.9288    0.1273   10.7588 C   0  0  2  0  0  0  0  0  0  0  0  0
   14.2168   -0.7892   11.8320 O   0  0  0  0  0  0  0  0  0  0  0  0
   11.1097   -3.7106   11.5163 C   0  0  2  0  0  0  0  0  0  0  0  0
   10.1258   -4.7737   11.7785 N   0  0  0  0  0  0  0  0  0  0  0  0
   10.6094    0.8643   12.4042 C   0  0  1  0  0  0  0  0  0  0  0  0
    8.6987    4.5386   11.4348 C   0  0  1  0  0  0  0  0  0  0  0  0
    6.3477    7.3983   15.1131 C   0  0  1  0  0  0  0  0  0  0  0  0
   13.7224   -0.7154    9.4656 C   0  0  2  0  0  0  0  0  0  0  0  0
   12.6715   -1.7206    9.6220 N   0  0  0  0  0  0  0  0  0  0  0  0
   12.5648   -4.2066   11.8827 C   0  0  0  0  0  0  0  0  0  0  0  0
   11.2220    2.2648   12.4469 C   0  0  2  0  0  0  0  0  0  0  0  0
   11.0357    2.9084   13.7261 O   0  0  0  0  0  0  0  0  0  0  0  0
    9.0881    5.3984   12.7195 C   0  0  2  0  0  0  0  0  0  0  0  0
    8.6792    4.7059   13.9702 N   0  0  0  0  0  0  0  0  0  0  0  0
    5.1478    8.1325   14.5259 C   0  0  1  0  0  0  0  0  0  0  0  0
    4.2788    8.5521   15.5969 O   0  0  0  0  0  0  0  0  0  0  0  0
   15.0548   -1.4045    9.0310 C   0  0  0  0  0  0  0  0  0  0  0  0
   13.6135   -3.0736   11.5390 C   0  0  2  0  0  0  0  0  0  0  0  0
   14.9726   -3.5042   11.8829 N   0  0  0  0  0  0  0  0  0  0  0  0
   10.4863    2.9202   11.3141 C   0  0  2  0  0  0  0  0  0  0  0  0
    9.1784    3.2541   11.7043 O   0  0  0  0  0  0  0  0  0  0  0  0
    8.5130    6.8732   12.5483 C   0  0  1  0  0  0  0  0  0  0  0  0
    8.9315    7.3886   11.2802 O   0  0  0  0  0  0  0  0  0  0  0  0
    5.4826    9.3578   13.6840 C   0  0  1  0  0  0  0  0  0  0  0  0
    4.2517   10.0411   13.4227 O   0  0  0  0  0  0  0  0  0  0  0  0
   16.1620   -0.3177    8.8942 C   0  0  2  0  0  0  0  0  0  0  0  0
   17.3819   -0.8647    8.4265 O   0  0  0  0  0  0  0  0  0  0  0  0
   13.2572   -1.7620   12.2859 C   0  0  2  0  0  0  0  0  0  0  0  0
   10.2892    1.8234   10.2474 C   0  0  2  0  0  0  0  0  0  0  0  0
   10.2172    0.6497   11.0413 O   0  0  0  0  0  0  0  0  0  0  0  0
    6.9293    6.8762   12.5141 C   0  0  2  0  0  0  0  0  0  0  0  0
    6.5486    6.3901   13.8022 O   0  0  0  0  0  0  0  0  0  0  0  0
    6.4631   10.3195   14.3577 C   0  0  2  0  0  0  0  0  0  0  0  0
    6.9144   11.2324   13.3439 O   0  0  0  0  0  0  0  0  0  0  0  0
   16.3373    0.3756   10.2681 C   0  0  2  0  0  0  0  0  0  0  0  0
   15.0672    1.0063   10.5996 O   0  0  0  0  0  0  0  0  0  0  0  0
   11.7888   -1.2774   12.0624 C   0  0  2  0  0  0  0  0  0  0  0  0
   11.5416   -0.0890   12.8642 O   0  0  0  0  0  0  0  0  0  0  0  0
   11.4059    1.6684    9.2155 C   0  0  0  0  0  0  0  0  0  0  0  0
   10.9403    0.7585    8.2081 O   0  0  0  0  0  0  0  0  0  0  0  0
    6.5383    5.7859   11.5350 C   0  0  1  0  0  0  0  0  0  0  0  0
    7.1957    4.5384   11.2249 O   0  0  0  0  0  0  0  0  0  0  0  0
    7.5831    9.5688   15.0692 C   0  0  2  0  0  0  0  0  0  0  0  0
    7.3599    8.2786   15.6586 O   0  0  0  0  0  0  0  0  0  0  0  0
   17.3452    1.4738   10.2442 C   0  0  0  0  0  0  0  0  0  0  0  0
   18.6035    0.8866   10.0156 O   0  0  0  0  0  0  0  0  0  0  0  0
   10.7705   -2.4294   12.3595 C   0  0  1  0  0  0  0  0  0  0  0  0
    9.4597   -1.9619   11.9439 O   0  0  0  0  0  0  0  0  0  0  0  0
    5.0155    5.6409   11.2301 C   0  0  0  0  0  0  0  0  0  0  0  0
    4.5512    6.5156   10.1328 N   0  0  0  0  0  0  0  0  0  0  0  0
    8.7005   10.2716   15.8368 C   0  0  0  0  0  0  0  0  0  0  0  0
    9.3394    9.3381   16.7475 O   0  0  0  0  0  0  0  0  0  0  0  0
  1  2  1  1  0  0  0
  1  8  1  0  0  0  0
  1 36  1  0  0  0  0
  3  4  1  1  0  0  0
  3 10  1  0  0  0  0
  3 47  1  0  0  0  0
  5 11  1  0  0  0  0
  5 30  1  0  0  0  0
  5 38  1  6  0  0  0
  6 21  1  1  0  0  0
  6 42  1  0  0  0  0
  7 15  1  0  0  0  0
  7 44  1  0  0  0  0
  7 32  1  6  0  0  0
  8  9  1  1  0  0  0
  8 17  1  0  0  0  0
 11 12  1  1  0  0  0
 11 20  1  0  0  0  0
 13  6  1  0  0  0  0
 13 14  1  1  0  0  0
 15 16  1  1  0  0  0
 15 24  1  0  0  0  0
 17 26  1  0  0  0  0
 18 10  1  0  0  0  0
 18 19  1  1  0  0  0
 20 21  1  1  0  0  0
 20 29  1  0  0  0  0
 22 13  1  0  0  0  0
 22 23  1  6  0  0  0
 24 25  1  1  0  0  0
 24 33  1  0  0  0  0
 26 27  1  1  0  0  0
 26 35  1  0  0  0  0
 28  2  1  6  0  0  0
 28 18  1  0  0  0  0
 29 30  1  0  0  0  0
 29 39  1  6  0  0  0
 31 22  1  0  0  0  0
 31 32  1  1  0  0  0
 31 41  1  0  0  0  0
 33 34  1  6  0  0  0
 33 43  1  0  0  0  0
 35 36  1  0  0  0  0
 35 45  1  6  0  0  0
 37 28  1  0  0  0  0
 37 38  1  1  0  0  0
 39 40  1  0  0  0  0
 41 42  1  0  0  0  0
 41 49  1  1  0  0  0
 43 44  1  0  0  0  0
 43 51  1  1  0  0  0
 45 46  1  0  0  0  0
 47 37  1  0  0  0  0
 47 48  1  6  0  0  0
 49 50  1  0  0  0  0
 51 52  1  0  0  0  0
M  END
>  <CHROM.1>
-64.16206955,-130.04683640,-90.02627274,65.71026426,131.72346695,95.87891689
-171.12240216,88.08739000,-66.69660744,150.21385158,87.09412431,161.30817871
10.33456199,3.03750352,12.03551846,-0.92642615,0.18654513,0.18484079

>  <Name>
2esj_lig

>  <RI>
0

>  <Rbt.Current_Directory>
/home/itssahil/PROJECTS/Mol_Feturizer/New_Systems/rnas/2esj

>  <Rbt.Executable>
rbdock ($Id: //depot/dev/client3/rdock/2013.1/src/exe/rbdock.cxx#4 $)

>  <Rbt.Library>
libRbt.so (2013.1, Build901 2013/11/27)

>  <Rbt.Parameter_File>
/export/apps/rDock/src/rDock_2013.1_src/data/scripts/dock_solv.prm

>  <Rbt.Receptor>
prm/blind_docking_60.prm

>  <SCORE>
18.2891

>  <SCORE.INTER>
-4.23205

>  <SCORE.INTER.CONST>
1

>  <SCORE.INTER.POLAR>
-1.38218

>  <SCORE.INTER.ROT>
12

>  <SCORE.INTER.SOLV>
30.1687

>  <SCORE.INTER.VDW>
-19.8703

>  <SCORE.INTER.norm>
-0.0813855

>  <SCORE.INTRA>
8.49587

>  <SCORE.INTRA.DIHEDRAL>
0.694272

>  <SCORE.INTRA.DIHEDRAL.0>
32.9766

>  <SCORE.INTRA.POLAR>
0

>  <SCORE.INTRA.POLAR.0>
0

>  <SCORE.INTRA.REPUL>
0

>  <SCORE.INTRA.REPUL.0>
0

>  <SCORE.INTRA.SOLV>
5.90728

>  <SCORE.INTRA.SOLV.lig_0>
-114.358

>  <SCORE.INTRA.VDW>
5.19509

>  <SCORE.INTRA.VDW.0>
-8.24257

>  <SCORE.INTRA.norm>
0.163382

>  <SCORE.RESTR>
14.0253

>  <SCORE.RESTR.CAVITY>
14.0253

>  <SCORE.RESTR.norm>
0.269718

>  <SCORE.SYSTEM>
0

>  <SCORE.SYSTEM.CONST>
0

>  <SCORE.SYSTEM.DIHEDRAL>
0

>  <SCORE.SYSTEM.SOLV>
0

>  <SCORE.SYSTEM.norm>
0

>  <SCORE.heavy>
52

>  <SCORE.norm>
0.351714

>  <RMSD>
17.215

$$$$
2esj_lig
 OpenBabel11021811423D
libRbt.so/2013.1/901 2013/11/27
 52 56  0  0  0  0  0  0  0  0999 V2000
    5.2428    7.6133   16.6739 C   0  0  2  0  0  0  0  0  0  0  0  0
    5.4011    7.3902   15.2596 O   0  0  0  0  0  0  0  0  0  0  0  0
    5.3253    9.5510   11.5700 C   0  0  2  0  0  0  0  0  0  0  0  0
    5.4534   10.5724   10.5176 N   0  0  0  0  0  0  0  0  0  0  0  0
    8.5726    6.4874   13.1773 C   0  0  1  0  0  0  0  0  0  0  0  0
    9.9447    2.8442   11.6851 C   0  0  1  0  0  0  0  0  0  0  0  0
   13.5440   -0.9279   12.9313 C   0  0  1  0  0  0  0  0  0  0  0  0
    6.6674    7.7117   17.2951 C   0  0  2  0  0  0  0  0  0  0  0  0
    7.4750    8.7556   16.6648 N   0  0  0  0  0  0  0  0  0  0  0  0
    4.4789   10.1130   12.7805 C   0  0  0  0  0  0  0  0  0  0  0  0
    8.0210    5.1989   13.7888 C   0  0  2  0  0  0  0  0  0  0  0  0
    8.7060    4.8296   15.0053 O   0  0  0  0  0  0  0  0  0  0  0  0
    9.7719    1.5033   12.5297 C   0  0  2  0  0  0  0  0  0  0  0  0
   10.4423    1.6145   13.8522 N   0  0  0  0  0  0  0  0  0  0  0  0
   14.7112   -0.2009   12.2735 C   0  0  1  0  0  0  0  0  0  0  0  0
   15.9293   -0.5347   12.9685 O   0  0  0  0  0  0  0  0  0  0  0  0
    7.4100    6.3407   17.2063 C   0  0  0  0  0  0  0  0  0  0  0  0
    4.3020    8.9835   13.8735 C   0  0  2  0  0  0  0  0  0  0  0  0
    3.5302    9.4842   15.0156 N   0  0  0  0  0  0  0  0  0  0  0  0
    8.2298    4.2437   12.6495 C   0  0  2  0  0  0  0  0  0  0  0  0
    9.5814    3.8696   12.5622 O   0  0  0  0  0  0  0  0  0  0  0  0
   10.2393    0.2682   11.6402 C   0  0  1  0  0  0  0  0  0  0  0  0
    9.5637    0.3240   10.3796 O   0  0  0  0  0  0  0  0  0  0  0  0
   14.9157   -0.5032   10.7939 C   0  0  1  0  0  0  0  0  0  0  0  0
   16.1725    0.0687   10.4147 O   0  0  0  0  0  0  0  0  0  0  0  0
    6.5207    5.2434   17.8624 C   0  0  2  0  0  0  0  0  0  0  0  0
    7.1690    3.9843   17.8855 O   0  0  0  0  0  0  0  0  0  0  0  0
    5.6855    8.4633   14.3428 C   0  0  2  0  0  0  0  0  0  0  0  0
    7.9844    5.0596   11.3635 C   0  0  2  0  0  0  0  0  0  0  0  0
    8.3797    6.3628   11.7614 O   0  0  0  0  0  0  0  0  0  0  0  0
   11.7854    0.3488   11.3054 C   0  0  2  0  0  0  0  0  0  0  0  0
   12.4265    0.2562   12.5785 O   0  0  0  0  0  0  0  0  0  0  0  0
   14.9185   -1.9970   10.4644 C   0  0  2  0  0  0  0  0  0  0  0  0
   14.8037   -2.1090    9.0364 O   0  0  0  0  0  0  0  0  0  0  0  0
    5.1779    5.1794   17.0932 C   0  0  2  0  0  0  0  0  0  0  0  0
    4.5373    6.4799   17.2322 O   0  0  0  0  0  0  0  0  0  0  0  0
    6.6229    8.0018   13.1812 C   0  0  2  0  0  0  0  0  0  0  0  0
    7.9132    7.6074   13.7251 O   0  0  0  0  0  0  0  0  0  0  0  0
    6.5462    5.1025   10.8483 C   0  0  0  0  0  0  0  0  0  0  0  0
    6.3761    6.3411   10.1436 O   0  0  0  0  0  0  0  0  0  0  0  0
   12.0283    1.7679   10.8288 C   0  0  1  0  0  0  0  0  0  0  0  0
   11.3782    2.9989   11.2116 O   0  0  0  0  0  0  0  0  0  0  0  0
   13.8390   -2.7429   11.2408 C   0  0  2  0  0  0  0  0  0  0  0  0
   13.4382   -2.3220   12.5538 O   0  0  0  0  0  0  0  0  0  0  0  0
    4.2222    4.1895   17.6669 C   0  0  0  0  0  0  0  0  0  0  0  0
    3.9156    4.6082   18.9749 O   0  0  0  0  0  0  0  0  0  0  0  0
    6.7433    9.1150   12.0864 C   0  0  1  0  0  0  0  0  0  0  0  0
    7.4634    8.5384   10.9647 O   0  0  0  0  0  0  0  0  0  0  0  0
   13.4693    2.0949   10.3292 C   0  0  0  0  0  0  0  0  0  0  0  0
   13.6249    1.9692    8.8648 N   0  0  0  0  0  0  0  0  0  0  0  0
   13.6156   -4.2486   11.1194 C   0  0  0  0  0  0  0  0  0  0  0  0
   13.0492   -4.7667   12.3521 O   0  0  0  0  0  0  0  0  0  0  0  0
  1  2  1  6  0  0  0
  1  8  1  0  0  0  0
  1 36  1  0  0  0  0
  3  4  1  6  0  0  0
  3 10  1  0  0  0  0
  3 47  1  0  0  0  0
  5 11  1  0  0  0  0
  5 30  1  0  0  0  0
  5 38  1  1  0  0  0
  6 21  1  1  0  0  0
  6 42  1  0  0  0  0
  7 15  1  0  0  0  0
  7 44  1  0  0  0  0
  7 32  1  6  0  0  0
  8  9  1  6  0  0  0
  8 17  1  0  0  0  0
 11 12  1  1  0  0  0
 11 20  1  0  0  0  0
 13  6  1  0  0  0  0
 13 14  1  1  0  0  0
 15 16  1  1  0  0  0
 15 24  1  0  0  0  0
 17 26  1  0  0  0  0
 18 10  1  0  0  0  0
 18 19  1  1  0  0  0
 20 21  1  6  0  0  0
 20 29  1  0  0  0  0
 22 13  1  0  0  0  0
 22 23  1  6  0  0  0
 24 25  1  1  0  0  0
 24 33  1  0  0  0  0
 26 27  1  6  0  0  0
 26 35  1  0  0  0  0
 28  2  1  1  0  0  0
 28 18  1  0  0  0  0
 29 30  1  0  0  0  0
 29 39  1  1  0  0  0
 31 22  1  0  0  0  0
 31 32  1  1  0  0  0
 31 41  1  0  0  0  0
 33 34  1  6  0  0  0
 33 43  1  0  0  0  0
 35 36  1  0  0  0  0
 35 45  1  1  0  0  0
 37 28  1  0  0  0  0
 37 38  1  1  0  0  0
 39 40  1  0  0  0  0
 41 42  1  0  0  0  0
 41 49  1  1  0  0  0
 43 44  1  0  0  0  0
 43 51  1  1  0  0  0
 45 46  1  0  0  0  0
 47 37  1  0  0  0  0
 47 48  1  6  0  0  0
 49 50  1  0  0  0  0
 51 52  1  0  0  0  0
M  END
>  <CHROM.1>
-80.47110221,-82.35170830,-87.45917149,82.03952364,171.14288140,-90.38649845
151.53183828,122.67645555,62.69695888,141.13274411,95.03597844,152.18734393
9.20800271,3.82266880,13.08604401,2.93398795,0.84413834,-0.91527393

>  <Name>
2esj_lig

>  <RI>
0

>  <Rbt.Current_Directory>
/home/itssahil/PROJECTS/Mol_Feturizer/New_Systems/rnas/2esj

>  <Rbt.Executable>
rbdock ($Id: //depot/dev/client3/rdock/2013.1/src/exe/rbdock.cxx#4 $)

>  <Rbt.Library>
libRbt.so (2013.1, Build901 2013/11/27)

>  <Rbt.Parameter_File>
/export/apps/rDock/src/rDock_2013.1_src/data/scripts/dock_solv.prm

>  <Rbt.Receptor>
prm/blind_docking_60.prm

>  <SCORE>
4.07389

>  <SCORE.INTER>
-13.6346

>  <SCORE.INTER.CONST>
1

>  <SCORE.INTER.POLAR>
-3.00111

>  <SCORE.INTER.ROT>
12

>  <SCORE.INTER.SOLV>
29.3049

>  <SCORE.INTER.VDW>
-20.4543

>  <SCORE.INTER.norm>
-0.262204

>  <SCORE.INTRA>
3.85525

>  <SCORE.INTRA.DIHEDRAL>
0.184435

>  <SCORE.INTRA.DIHEDRAL.0>
32.9766

>  <SCORE.INTRA.POLAR>
0

>  <SCORE.INTRA.POLAR.0>
0

>  <SCORE.INTRA.REPUL>
0

>  <SCORE.INTRA.REPUL.0>
0

>  <SCORE.INTRA.SOLV>
2.79955

>  <SCORE.INTRA.SOLV.lig_0>
-114.358

>  <SCORE.INTRA.VDW>
2.36326

>  <SCORE.INTRA.VDW.0>
-8.24257

>  <SCORE.INTRA.norm>
0.0741394

>  <SCORE.RESTR>
13.8532

>  <SCORE.RESTR.CAVITY>
13.8532

>  <SCORE.RESTR.norm>
0.266408

>  <SCORE.SYSTEM>
0

>  <SCORE.SYSTEM.CONST>
0

>  <SCORE.SYSTEM.DIHEDRAL>
0

>  <SCORE.SYSTEM.SOLV>
0

>  <SCORE.SYSTEM.norm>
0

>  <SCORE.heavy>
52

>  <SCORE.norm>
0.078344

>  <RMSD>
17.272

$$$$
2esj_lig
 OpenBabel11021811423D
libRbt.so/2013.1/901 2013/11/27
 52 56  0  0  0  0  0  0  0  0999 V2000
   15.3587    0.1134    8.8340 C   0  0  2  0  0  0  0  0  0  0  0  0
   14.3591    0.7685    9.6380 O   0  0  0  0  0  0  0  0  0  0  0  0
   14.7268   -1.3248   13.3488 C   0  0  2  0  0  0  0  0  0  0  0  0
   14.7653   -1.7001   14.7719 N   0  0  0  0  0  0  0  0  0  0  0  0
   11.3159    1.0286   11.6095 C   0  0  1  0  0  0  0  0  0  0  0  0
    9.0336    4.3630   11.7436 C   0  0  1  0  0  0  0  0  0  0  0  0
    6.2838    7.5630   14.6119 C   0  0  1  0  0  0  0  0  0  0  0  0
   14.8526    0.1183    7.3612 C   0  0  2  0  0  0  0  0  0  0  0  0
   14.5639    1.4688    6.8798 N   0  0  0  0  0  0  0  0  0  0  0  0
   15.7114   -0.1202   13.0719 C   0  0  0  0  0  0  0  0  0  0  0  0
    9.9747    1.3670   10.9574 C   0  0  2  0  0  0  0  0  0  0  0  0
   10.1221    2.2393    9.8159 O   0  0  0  0  0  0  0  0  0  0  0  0
    9.1847    5.5714   12.7723 C   0  0  2  0  0  0  0  0  0  0  0  0
    8.8262    5.1472   14.1515 N   0  0  0  0  0  0  0  0  0  0  0  0
    5.0229    8.1267   13.9670 C   0  0  1  0  0  0  0  0  0  0  0  0
    4.2021    8.7351   14.9841 O   0  0  0  0  0  0  0  0  0  0  0  0
   13.5865   -0.7825    7.2041 C   0  0  0  0  0  0  0  0  0  0  0  0
   15.7008    0.2295   11.5294 C   0  0  2  0  0  0  0  0  0  0  0  0
   16.5976    1.3550   11.2472 N   0  0  0  0  0  0  0  0  0  0  0  0
    9.2542    1.9882   12.1189 C   0  0  2  0  0  0  0  0  0  0  0  0
    9.7135    3.2977   12.3397 O   0  0  0  0  0  0  0  0  0  0  0  0
    8.3716    6.8244   12.2210 C   0  0  1  0  0  0  0  0  0  0  0  0
    8.7717    7.0777   10.8703 O   0  0  0  0  0  0  0  0  0  0  0  0
    5.2580    9.1599   12.8717 C   0  0  1  0  0  0  0  0  0  0  0  0
    3.9873    9.7404   12.5575 O   0  0  0  0  0  0  0  0  0  0  0  0
   13.9120   -2.2065    7.7443 C   0  0  2  0  0  0  0  0  0  0  0  0
   12.8282   -3.0998    7.5611 O   0  0  0  0  0  0  0  0  0  0  0  0
   14.2597    0.5559   11.0586 C   0  0  2  0  0  0  0  0  0  0  0  0
    9.7203    1.2133   13.3687 C   0  0  2  0  0  0  0  0  0  0  0  0
   11.0340    0.8237   13.0009 O   0  0  0  0  0  0  0  0  0  0  0  0
    6.8173    6.5246   12.1618 C   0  0  2  0  0  0  0  0  0  0  0  0
    6.4478    6.3112   13.5250 O   0  0  0  0  0  0  0  0  0  0  0  0
    6.2368   10.2667   13.2681 C   0  0  2  0  0  0  0  0  0  0  0  0
    6.5906   10.9619   12.0613 O   0  0  0  0  0  0  0  0  0  0  0  0
   14.3038   -2.0838    9.2378 C   0  0  2  0  0  0  0  0  0  0  0  0
   15.4945   -1.2479    9.3055 O   0  0  0  0  0  0  0  0  0  0  0  0
   13.2077   -0.5447   11.4089 C   0  0  2  0  0  0  0  0  0  0  0  0
   11.8855   -0.1040   10.9917 O   0  0  0  0  0  0  0  0  0  0  0  0
    8.9104   -0.0279   13.7417 C   0  0  0  0  0  0  0  0  0  0  0  0
    9.8064   -1.1488   13.7288 O   0  0  0  0  0  0  0  0  0  0  0  0
    6.6858    5.1726   11.4873 C   0  0  1  0  0  0  0  0  0  0  0  0
    7.5702    4.0317   11.5166 O   0  0  0  0  0  0  0  0  0  0  0  0
    7.4260    9.7104   14.0431 C   0  0  2  0  0  0  0  0  0  0  0  0
    7.2901    8.5646   14.8977 O   0  0  0  0  0  0  0  0  0  0  0  0
   14.6845   -3.3881    9.8513 C   0  0  0  0  0  0  0  0  0  0  0  0
   14.4434   -3.2902   11.2342 O   0  0  0  0  0  0  0  0  0  0  0  0
   13.2704   -0.9115   12.9301 C   0  0  1  0  0  0  0  0  0  0  0  0
   12.4098   -2.0642   13.1299 O   0  0  0  0  0  0  0  0  0  0  0  0
    5.2343    4.6763   11.2051 C   0  0  0  0  0  0  0  0  0  0  0  0
    5.1840    3.4396   10.3973 N   0  0  0  0  0  0  0  0  0  0  0  0
    8.5573   10.5871   14.5752 C   0  0  0  0  0  0  0  0  0  0  0  0
    8.9355   10.1533   15.9084 O   0  0  0  0  0  0  0  0  0  0  0  0
  1  2  1  1  0  0  0
  1  8  1  0  0  0  0
  1 36  1  0  0  0  0
  3  4  1  1  0  0  0
  3 10  1  0  0  0  0
  3 47  1  0  0  0  0
  5 11  1  0  0  0  0
  5 30  1  0  0  0  0
  5 38  1  6  0  0  0
  6 21  1  1  0  0  0
  6 42  1  0  0  0  0
  7 15  1  0  0  0  0
  7 44  1  0  0  0  0
  7 32  1  6  0  0  0
  8  9  1  1  0  0  0
  8 17  1  0  0  0  0
 11 12  1  6  0  0  0
 11 20  1  0  0  0  0
 13  6  1  0  0  0  0
 13 14  1  1  0  0  0
 15 16  1  1  0  0  0
 15 24  1  0  0  0  0
 17 26  1  0  0  0  0
 18 10  1  0  0  0  0
 18 19  1  1  0  0  0
 20 21  1  1  0  0  0
 20 29  1  0  0  0  0
 22 13  1  0  0  0  0
 22 23  1  6  0  0  0
 24 25  1  1  0  0  0
 24 33  1  0  0  0  0
 26 27  1  1  0  0  0
 26 35  1  0  0  0  0
 28  2  1  6  0  0  0
 28 18  1  0  0  0  0
 29 30  1  0  0  0  0
 29 39  1  6  0  0  0
 31 22  1  0  0  0  0
 31 32  1  1  0  0  0
 31 41  1  0  0  0  0
 33 34  1  6  0  0  0
 33 43  1  0  0  0  0
 35 36  1  0  0  0  0
 35 45  1  6  0  0  0
 37 28  1  0  0  0  0
 37 38  1  1  0  0  0
 39 40  1  0  0  0  0
 41 42  1  0  0  0  0
 41 49  1  1  0  0  0
 43 44  1  0  0  0  0
 43 51  1  1  0  0  0
 45 46  1  0  0  0  0
 47 37  1  0  0  0  0
 47 48  1  6  0  0  0
 49 50  1  0  0  0  0
 51 52  1  0  0  0  0
M  END
>  <CHROM.1>
158.41618179,176.19556248,147.67664510,69.85947486,93.44206130,29.18965234
120.98831216,75.70704046,-154.51817654,-64.29131885,172.69821055,138.79186511
10.40414574,3.00101527,11.83652283,0.26286904,0.88574947,-1.59614770

>  <Name>
2esj_lig

>  <RI>
0

>  <Rbt.Current_Directory>
/home/itssahil/PROJECTS/Mol_Feturizer/New_Systems/rnas/2esj

>  <Rbt.Executable>
rbdock ($Id: //depot/dev/client3/rdock/2013.1/src/exe/rbdock.cxx#4 $)

>  <Rbt.Library>
libRbt.so (2013.1, Build901 2013/11/27)

>  <Rbt.Parameter_File>
/export/apps/rDock/src/rDock_2013.1_src/data/scripts/dock_solv.prm

>  <Rbt.Receptor>
prm/blind_docking_60.prm

>  <SCORE>
25.9585

>  <SCORE.INTER>
2.98696

>  <SCORE.INTER.CONST>
1

>  <SCORE.INTER.POLAR>
-1.59027

>  <SCORE.INTER.ROT>
12

>  <SCORE.INTER.SOLV>
31.0899

>  <SCORE.INTER.VDW>
-14.6711

>  <SCORE.INTER.norm>
0.0574415

>  <SCORE.INTRA>
3.3516

>  <SCORE.INTRA.DIHEDRAL>
-4.10686

>  <SCORE.INTRA.DIHEDRAL.0>
32.9766

>  <SCORE.INTRA.POLAR>
0

>  <SCORE.INTRA.POLAR.0>
0

>  <SCORE.INTRA.REPUL>
0

>  <SCORE.INTRA.REPUL.0>
0

>  <SCORE.INTRA.SOLV>
0.122883

>  <SCORE.INTRA.SOLV.lig_0>
-114.358

>  <SCORE.INTRA.VDW>
5.34359

>  <SCORE.INTRA.VDW.0>
-8.24257

>  <SCORE.INTRA.norm>
0.0644539

>  <SCORE.RESTR>
19.6199

>  <SCORE.RESTR.CAVITY>
19.6199

>  <SCORE.RESTR.norm>
0.377306

>  <SCORE.SYSTEM>
0

>  <SCORE.SYSTEM.CONST>
0

>  <SCORE.SYSTEM.DIHEDRAL>
0

>  <SCORE.SYSTEM.SOLV>
0

>  <SCORE.SYSTEM.norm>
0

>  <SCORE.heavy>
52

>  <SCORE.norm>
0.499201

>  <RMSD>
17.284

$$$$
2esj_lig
 OpenBabel11021811423D
libRbt.so/2013.1/901 2013/11/27
 52 56  0  0  0  0  0  0  0  0999 V2000
   11.4927   -2.1819    9.7193 C   0  0  2  0  0  0  0  0  0  0  0  0
   11.3021   -0.9796   10.4893 O   0  0  0  0  0  0  0  0  0  0  0  0
   14.3585    1.5857    8.9513 C   0  0  2  0  0  0  0  0  0  0  0  0
   15.1384    2.7370    8.4682 N   0  0  0  0  0  0  0  0  0  0  0  0
   11.7809    1.5439   12.7390 C   0  0  1  0  0  0  0  0  0  0  0  0
    8.9320    4.3324   11.9777 C   0  0  1  0  0  0  0  0  0  0  0  0
    5.7682    8.0379   14.1048 C   0  0  1  0  0  0  0  0  0  0  0  0
   10.8707   -3.3592   10.5269 C   0  0  2  0  0  0  0  0  0  0  0  0
    9.4608   -3.1303   10.8417 N   0  0  0  0  0  0  0  0  0  0  0  0
   13.0179    1.4456    8.1262 C   0  0  0  0  0  0  0  0  0  0  0  0
   10.8662    1.7544   11.5317 C   0  0  2  0  0  0  0  0  0  0  0  0
   11.3135    2.8344   10.6838 O   0  0  0  0  0  0  0  0  0  0  0  0
    9.1665    5.6653   12.8200 C   0  0  2  0  0  0  0  0  0  0  0  0
    8.7650    5.4782   14.2394 N   0  0  0  0  0  0  0  0  0  0  0  0
    7.0227    8.9024   14.0569 C   0  0  1  0  0  0  0  0  0  0  0  0
    6.6403   10.2839   13.9033 O   0  0  0  0  0  0  0  0  0  0  0  0
   11.6723   -3.6177   11.8420 C   0  0  0  0  0  0  0  0  0  0  0  0
   12.2228    0.1702    8.6190 C   0  0  2  0  0  0  0  0  0  0  0  0
   10.9660    0.0248    7.8772 N   0  0  0  0  0  0  0  0  0  0  0  0
    9.5578    2.0132   12.2211 C   0  0  2  0  0  0  0  0  0  0  0  0
    9.5235    3.3196   12.7374 O   0  0  0  0  0  0  0  0  0  0  0  0
    8.4561    6.8797   12.0745 C   0  0  1  0  0  0  0  0  0  0  0  0
    8.8857    6.8994   10.7093 O   0  0  0  0  0  0  0  0  0  0  0  0
    7.9319    8.7986   15.2755 C   0  0  1  0  0  0  0  0  0  0  0  0
    8.9117    9.8366   15.1624 O   0  0  0  0  0  0  0  0  0  0  0  0
   13.1721   -3.8350   11.4825 C   0  0  2  0  0  0  0  0  0  0  0  0
   13.9469   -4.1520   12.6250 O   0  0  0  0  0  0  0  0  0  0  0  0
   11.9439    0.2615   10.1418 C   0  0  2  0  0  0  0  0  0  0  0  0
    9.5564    1.1157   13.4757 C   0  0  2  0  0  0  0  0  0  0  0  0
   10.9390    1.0391   13.7848 O   0  0  0  0  0  0  0  0  0  0  0  0
    6.8840    6.6909   12.0296 C   0  0  2  0  0  0  0  0  0  0  0  0
    6.4879    6.7101   13.4018 O   0  0  0  0  0  0  0  0  0  0  0  0
    7.1948    8.9404   16.6084 C   0  0  2  0  0  0  0  0  0  0  0  0
    8.1050    8.5140   17.6353 O   0  0  0  0  0  0  0  0  0  0  0  0
   13.6939   -2.5595   10.7755 C   0  0  2  0  0  0  0  0  0  0  0  0
   12.9152   -2.3914    9.5564 O   0  0  0  0  0  0  0  0  0  0  0  0
   13.2163    0.5207   11.0106 C   0  0  2  0  0  0  0  0  0  0  0  0
   12.8313    0.6635   12.4062 O   0  0  0  0  0  0  0  0  0  0  0  0
    8.9978   -0.2963   13.3023 C   0  0  0  0  0  0  0  0  0  0  0  0
    8.9506   -0.5727   11.8948 O   0  0  0  0  0  0  0  0  0  0  0  0
    6.6552    5.2673   11.5590 C   0  0  1  0  0  0  0  0  0  0  0  0
    7.4495    4.0808   11.7733 O   0  0  0  0  0  0  0  0  0  0  0  0
    5.8674    8.1905   16.5960 C   0  0  2  0  0  0  0  0  0  0  0  0
    5.1009    8.0496   15.3900 O   0  0  0  0  0  0  0  0  0  0  0  0
   15.1153   -2.6725   10.3404 C   0  0  0  0  0  0  0  0  0  0  0  0
   15.1889   -3.7241    9.4083 O   0  0  0  0  0  0  0  0  0  0  0  0
   14.0149    1.7564   10.4745 C   0  0  1  0  0  0  0  0  0  0  0  0
   15.2682    1.8084   11.2064 O   0  0  0  0  0  0  0  0  0  0  0  0
    5.1724    4.8440   11.3246 C   0  0  0  0  0  0  0  0  0  0  0  0
    4.2727    5.9849   11.0533 N   0  0  0  0  0  0  0  0  0  0  0  0
    4.9140    8.1648   17.7884 C   0  0  0  0  0  0  0  0  0  0  0  0
    4.7091    6.7967   18.2300 O   0  0  0  0  0  0  0  0  0  0  0  0
  1  2  1  1  0  0  0
  1  8  1  0  0  0  0
  1 36  1  0  0  0  0
  3  4  1  6  0  0  0
  3 10  1  0  0  0  0
  3 47  1  0  0  0  0
  5 11  1  0  0  0  0
  5 30  1  0  0  0  0
  5 38  1  6  0  0  0
  6 21  1  1  0  0  0
  6 42  1  0  0  0  0
  7 15  1  0  0  0  0
  7 44  1  0  0  0  0
  7 32  1  1  0  0  0
  8  9  1  1  0  0  0
  8 17  1  0  0  0  0
 11 12  1  1  0  0  0
 11 20  1  0  0  0  0
 13  6  1  0  0  0  0
 13 14  1  1  0  0  0
 15 16  1  1  0  0  0
 15 24  1  0  0  0  0
 17 26  1  0  0  0  0
 18 10  1  0  0  0  0
 18 19  1  6  0  0  0
 20 21  1  1  0  0  0
 20 29  1  0  0  0  0
 22 13  1  0  0  0  0
 22 23  1  6  0  0  0
 24 25  1  6  0  0  0
 24 33  1  0  0  0  0
 26 27  1  1  0  0  0
 26 35  1  0  0  0  0
 28  2  1  1  0  0  0
 28 18  1  0  0  0  0
 29 30  1  0  0  0  0
 29 39  1  6  0  0  0
 31 22  1  0  0  0  0
 31 32  1  1  0  0  0
 31 41  1  0  0  0  0
 33 34  1  1  0  0  0
 33 43  1  0  0  0  0
 35 36  1  0  0  0  0
 35 45  1  6  0  0  0
 37 28  1  0  0  0  0
 37 38  1  1  0  0  0
 39 40  1  0  0  0  0
 41 42  1  0  0  0  0
 41 49  1  1  0  0  0
 43 44  1  0  0  0  0
 43 51  1  1  0  0  0
 45 46  1  0  0  0  0
 47 37  1  0  0  0  0
 47 48  1  1  0  0  0
 49 50  1  0  0  0  0
 51 52  1  0  0  0  0
M  END
>  <CHROM.1>
169.76425795,23.49296776,-176.19756065,-69.44649104,95.21385751,25.07854385
16.19345970,103.41083456,61.93032554,-49.64419728,23.80348328,-120.30701108
9.93057999,2.86900289,12.24386674,0.82342582,-0.69520051,3.04408810

>  <Name>
2esj_lig

>  <RI>
0

>  <Rbt.Current_Directory>
/home/itssahil/PROJECTS/Mol_Feturizer/New_Systems/rnas/2esj

>  <Rbt.Executable>
rbdock ($Id: //depot/dev/client3/rdock/2013.1/src/exe/rbdock.cxx#4 $)

>  <Rbt.Library>
libRbt.so (2013.1, Build901 2013/11/27)

>  <Rbt.Parameter_File>
/export/apps/rDock/src/rDock_2013.1_src/data/scripts/dock_solv.prm

>  <Rbt.Receptor>
prm/blind_docking_60.prm

>  <SCORE>
28.329

>  <SCORE.INTER>
-6.46993

>  <SCORE.INTER.CONST>
1

>  <SCORE.INTER.POLAR>
-2.12438

>  <SCORE.INTER.ROT>
12

>  <SCORE.INTER.SOLV>
28.0892

>  <SCORE.INTER.VDW>
-18.1951

>  <SCORE.INTER.norm>
-0.124422

>  <SCORE.INTRA>
20.1781

>  <SCORE.INTRA.DIHEDRAL>
-1.21756

>  <SCORE.INTRA.DIHEDRAL.0>
32.9766

>  <SCORE.INTRA.POLAR>
0

>  <SCORE.INTRA.POLAR.0>
0

>  <SCORE.INTRA.REPUL>
0

>  <SCORE.INTRA.REPUL.0>
0

>  <SCORE.INTRA.SOLV>
2.97519

>  <SCORE.INTRA.SOLV.lig_0>
-114.358

>  <SCORE.INTRA.VDW>
19.2993

>  <SCORE.INTRA.VDW.0>
-8.24257

>  <SCORE.INTRA.norm>
0.38804

>  <SCORE.RESTR>
14.6209

>  <SCORE.RESTR.CAVITY>
14.6209

>  <SCORE.RESTR.norm>
0.28117

>  <SCORE.SYSTEM>
0

>  <SCORE.SYSTEM.CONST>
0

>  <SCORE.SYSTEM.DIHEDRAL>
0

>  <SCORE.SYSTEM.SOLV>
0

>  <SCORE.SYSTEM.norm>
0

>  <SCORE.heavy>
52

>  <SCORE.norm>
0.544789

>  <RMSD>
17.294

$$$$
2esj_lig
 OpenBabel11021811423D
libRbt.so/2013.1/901 2013/11/27
 52 56  0  0  0  0  0  0  0  0999 V2000
   12.7161   -1.1651    9.0158 C   0  0  2  0  0  0  0  0  0  0  0  0
   13.5120   -0.1715    8.3419 O   0  0  0  0  0  0  0  0  0  0  0  0
   16.5351    0.5202   11.2864 C   0  0  2  0  0  0  0  0  0  0  0  0
   17.6827    1.0333   12.0527 N   0  0  0  0  0  0  0  0  0  0  0  0
   12.3417    2.4372   11.3264 C   0  0  1  0  0  0  0  0  0  0  0  0
    8.8903    3.3415   13.4756 C   0  0  1  0  0  0  0  0  0  0  0  0
    7.7793    7.7629   16.1054 C   0  0  1  0  0  0  0  0  0  0  0  0
   13.1345   -2.5577    8.4585 C   0  0  2  0  0  0  0  0  0  0  0  0
   14.5671   -2.8083    8.6140 N   0  0  0  0  0  0  0  0  0  0  0  0
   16.9918    0.0890    9.8363 C   0  0  0  0  0  0  0  0  0  0  0  0
   10.8912    2.0101   11.0983 C   0  0  2  0  0  0  0  0  0  0  0  0
   10.1244    3.0156   10.4008 O   0  0  0  0  0  0  0  0  0  0  0  0
    8.6621    4.7455   12.7560 C   0  0  2  0  0  0  0  0  0  0  0  0
    9.7688    5.6898   13.0633 N   0  0  0  0  0  0  0  0  0  0  0  0
    6.2645    7.8255   15.9467 C   0  0  1  0  0  0  0  0  0  0  0  0
    5.6662    8.1199   17.2249 O   0  0  0  0  0  0  0  0  0  0  0  0
   12.7313   -2.7009    6.9565 C   0  0  0  0  0  0  0  0  0  0  0  0
   15.7593   -0.5139    9.0495 C   0  0  2  0  0  0  0  0  0  0  0  0
   16.1538   -0.9101    7.6937 N   0  0  0  0  0  0  0  0  0  0  0  0
   10.4505    1.7701   12.5133 C   0  0  2  0  0  0  0  0  0  0  0  0
   10.2070    2.9901   13.1666 O   0  0  0  0  0  0  0  0  0  0  0  0
    7.2046    5.2783   13.1124 C   0  0  1  0  0  0  0  0  0  0  0  0
    6.2527    4.2484   12.8263 O   0  0  0  0  0  0  0  0  0  0  0  0
    5.7571    8.8527   14.9419 C   0  0  1  0  0  0  0  0  0  0  0  0
    4.3363    8.9340   15.1003 O   0  0  0  0  0  0  0  0  0  0  0  0
   11.2085   -2.4068    6.8142 C   0  0  2  0  0  0  0  0  0  0  0  0
   10.7578   -2.5946    5.4846 O   0  0  0  0  0  0  0  0  0  0  0  0
   14.5975    0.5120    8.9959 C   0  0  2  0  0  0  0  0  0  0  0  0
   11.6788    1.1927   13.2463 C   0  0  2  0  0  0  0  0  0  0  0  0
   12.7527    1.7945   12.5411 O   0  0  0  0  0  0  0  0  0  0  0  0
    7.0618    5.5801   14.6609 C   0  0  2  0  0  0  0  0  0  0  0  0
    7.9981    6.6315   14.9023 O   0  0  0  0  0  0  0  0  0  0  0  0
    6.3675   10.2439   15.1207 C   0  0  2  0  0  0  0  0  0  0  0  0
    6.0442   10.9958   13.9396 O   0  0  0  0  0  0  0  0  0  0  0  0
   10.9422   -0.9632    7.3082 C   0  0  2  0  0  0  0  0  0  0  0  0
   11.3246   -0.9090    8.7124 O   0  0  0  0  0  0  0  0  0  0  0  0
   14.1742    1.0723   10.3916 C   0  0  2  0  0  0  0  0  0  0  0  0
   13.1355    2.0760   10.2179 O   0  0  0  0  0  0  0  0  0  0  0  0
   11.8399   -0.3267   13.2126 C   0  0  0  0  0  0  0  0  0  0  0  0
   10.6419   -0.9007   13.7558 O   0  0  0  0  0  0  0  0  0  0  0  0
    7.6239    4.3627   15.3695 C   0  0  1  0  0  0  0  0  0  0  0  0
    8.6852    3.4672   14.9740 O   0  0  0  0  0  0  0  0  0  0  0  0
    7.8593   10.1651   15.4253 C   0  0  2  0  0  0  0  0  0  0  0  0
    8.4138    9.0635   16.1607 O   0  0  0  0  0  0  0  0  0  0  0  0
    9.5006   -0.5862    7.2621 C   0  0  0  0  0  0  0  0  0  0  0  0
    9.1083   -0.5832    5.9107 O   0  0  0  0  0  0  0  0  0  0  0  0
   15.4166    1.6174   11.1735 C   0  0  1  0  0  0  0  0  0  0  0  0
   14.9721    1.9346   12.5192 O   0  0  0  0  0  0  0  0  0  0  0  0
    7.5104    4.3515   16.9250 C   0  0  0  0  0  0  0  0  0  0  0  0
    7.7596    5.6719   17.5408 N   0  0  0  0  0  0  0  0  0  0  0  0
    8.7275   11.3988   15.6618 C   0  0  0  0  0  0  0  0  0  0  0  0
    8.0968   12.2690   16.6383 O   0  0  0  0  0  0  0  0  0  0  0  0
  1  2  1  6  0  0  0
  1  8  1  0  0  0  0
  1 36  1  0  0  0  0
  3  4  1  1  0  0  0
  3 10  1  0  0  0  0
  3 47  1  0  0  0  0
  5 11  1  0  0  0  0
  5 30  1  0  0  0  0
  5 38  1  6  0  0  0
  6 21  1  1  0  0  0
  6 42  1  0  0  0  0
  7 15  1  0  0  0  0
  7 44  1  0  0  0  0
  7 32  1  6  0  0  0
  8  9  1  6  0  0  0
  8 17  1  0  0  0  0
 11 12  1  1  0  0  0
 11 20  1  0  0  0  0
 13  6  1  0  0  0  0
 13 14  1  1  0  0  0
 15 16  1  1  0  0  0
 15 24  1  0  0  0  0
 17 26  1  0  0  0  0
 18 10  1  0  0  0  0
 18 19  1  6  0  0  0
 20 21  1  1  0  0  0
 20 29  1  0  0  0  0
 22 13  1  0  0  0  0
 22 23  1  1  0  0  0
 24 25  1  1  0  0  0
 24 33  1  0  0  0  0
 26 27  1  6  0  0  0
 26 35  1  0  0  0  0
 28  2  1  1  0  0  0
 28 18  1  0  0  0  0
 29 30  1  0  0  0  0
 29 39  1  6  0  0  0
 31 22  1  0  0  0  0
 31 32  1  1  0  0  0
 31 41  1  0  0  0  0
 33 34  1  6  0  0  0
 33 43  1  0  0  0  0
 35 36  1  0  0  0  0
 35 45  1  1  0  0  0
 37 28  1  0  0  0  0
 37 38  1  6  0  0  0
 39 40  1  0  0  0  0
 41 42  1  0  0  0  0
 41 49  1  1  0  0  0
 43 44  1  0  0  0  0
 43 51  1  1  0  0  0
 45 46  1  0  0  0  0
 47 37  1  0  0  0  0
 47 48  1  1  0  0  0
 49 50  1  0  0  0  0
 51 52  1  0  0  0  0
M  END
>  <CHROM.1>
-106.14189901,-114.08851522,-122.58306589,-35.68744981,109.62225677,75.81150020
-56.64811817,150.92012146,-64.77979606,162.07725069,-39.28285206,49.85799161
10.50080853,3.17186051,12.11489076,1.04936680,0.20643982,-2.39404789

>  <Name>
2esj_lig

>  <RI>
0

>  <Rbt.Current_Directory>
/home/itssahil/PROJECTS/Mol_Feturizer/New_Systems/rnas/2esj

>  <Rbt.Executable>
rbdock ($Id: //depot/dev/client3/rdock/2013.1/src/exe/rbdock.cxx#4 $)

>  <Rbt.Library>
libRbt.so (2013.1, Build901 2013/11/27)

>  <Rbt.Parameter_File>
/export/apps/rDock/src/rDock_2013.1_src/data/scripts/dock_solv.prm

>  <Rbt.Receptor>
prm/blind_docking_40.prm

>  <SCORE>
20.4454

>  <SCORE.INTER>
-11.7466

>  <SCORE.INTER.CONST>
1

>  <SCORE.INTER.POLAR>
-0.736504

>  <SCORE.INTER.ROT>
12

>  <SCORE.INTER.SOLV>
25.6624

>  <SCORE.INTER.VDW>
-25.5302

>  <SCORE.INTER.norm>
-0.225896

>  <SCORE.INTRA>
17.1885

>  <SCORE.INTRA.DIHEDRAL>
7.39895

>  <SCORE.INTRA.DIHEDRAL.0>
32.9766

>  <SCORE.INTRA.POLAR>
0

>  <SCORE.INTRA.POLAR.0>
0

>  <SCORE.INTRA.REPUL>
0

>  <SCORE.INTRA.REPUL.0>
0

>  <SCORE.INTRA.SOLV>
6.15042

>  <SCORE.INTRA.SOLV.lig_0>
-114.358

>  <SCORE.INTRA.VDW>
10.4138

>  <SCORE.INTRA.VDW.0>
-8.24257

>  <SCORE.INTRA.norm>
0.330547

>  <SCORE.RESTR>
15.0035

>  <SCORE.RESTR.CAVITY>
15.0035

>  <SCORE.RESTR.norm>
0.288529

>  <SCORE.SYSTEM>
0

>  <SCORE.SYSTEM.CONST>
0

>  <SCORE.SYSTEM.DIHEDRAL>
0

>  <SCORE.SYSTEM.SOLV>
0

>  <SCORE.SYSTEM.norm>
0

>  <SCORE.heavy>
52

>  <SCORE.norm>
0.393181

>  <RMSD>
17.312

$$$$
2esj_lig
 OpenBabel11021811423D
libRbt.so/2013.1/901 2013/11/27
 52 56  0  0  0  0  0  0  0  0999 V2000
   13.7722   -1.9682   10.9738 C   0  0  2  0  0  0  0  0  0  0  0  0
   12.8706   -0.9227   11.3850 O   0  0  0  0  0  0  0  0  0  0  0  0
   10.4638   -0.5727    7.8675 C   0  0  2  0  0  0  0  0  0  0  0  0
    9.3787   -0.3122    6.9072 N   0  0  0  0  0  0  0  0  0  0  0  0
   11.8618    2.3223   11.1361 C   0  0  1  0  0  0  0  0  0  0  0  0
    8.5207    3.7418   13.3207 C   0  0  1  0  0  0  0  0  0  0  0  0
    7.4466    8.3937   12.7963 C   0  0  1  0  0  0  0  0  0  0  0  0
   14.9846   -1.9526   11.9510 C   0  0  2  0  0  0  0  0  0  0  0  0
   14.5728   -2.1043   13.3462 N   0  0  0  0  0  0  0  0  0  0  0  0
    9.9550   -1.5173    9.0278 C   0  0  0  0  0  0  0  0  0  0  0  0
   10.3816    2.0054   10.9189 C   0  0  2  0  0  0  0  0  0  0  0  0
    9.7325    2.9685   10.0608 O   0  0  0  0  0  0  0  0  0  0  0  0
    8.0283    4.8946   12.3359 C   0  0  2  0  0  0  0  0  0  0  0  0
    9.1027    5.8965   12.1061 N   0  0  0  0  0  0  0  0  0  0  0  0
    8.2614    9.5088   13.4413 C   0  0  1  0  0  0  0  0  0  0  0  0
    8.8285   10.3393   12.4083 O   0  0  0  0  0  0  0  0  0  0  0  0
   15.8183   -0.6427   11.7838 C   0  0  0  0  0  0  0  0  0  0  0  0
   11.1488   -1.8335   10.0160 C   0  0  2  0  0  0  0  0  0  0  0  0
   10.6992   -2.6989   11.1113 N   0  0  0  0  0  0  0  0  0  0  0  0
    9.8890    2.0127   12.3372 C   0  0  2  0  0  0  0  0  0  0  0  0
    9.7524    3.3309   12.8039 O   0  0  0  0  0  0  0  0  0  0  0  0
    6.6576    5.4918   12.8835 C   0  0  1  0  0  0  0  0  0  0  0  0
    5.7446    4.4147   13.1180 O   0  0  0  0  0  0  0  0  0  0  0  0
    7.4895   10.4093   14.3981 C   0  0  1  0  0  0  0  0  0  0  0  0
    8.3385   11.5183   14.7136 O   0  0  0  0  0  0  0  0  0  0  0  0
   16.2243   -0.4923   10.2877 C   0  0  2  0  0  0  0  0  0  0  0  0
   17.0507    0.6387   10.0774 O   0  0  0  0  0  0  0  0  0  0  0  0
   11.7487   -0.5185   10.5780 C   0  0  2  0  0  0  0  0  0  0  0  0
   11.0385    1.4329   13.1869 C   0  0  2  0  0  0  0  0  0  0  0  0
   12.1814    1.8241   12.4426 O   0  0  0  0  0  0  0  0  0  0  0  0
    6.8555    6.2028   14.2852 C   0  0  2  0  0  0  0  0  0  0  0  0
    7.7415    7.2882   14.0072 O   0  0  0  0  0  0  0  0  0  0  0  0
    6.1690   10.9284   13.8263 C   0  0  2  0  0  0  0  0  0  0  0  0
    5.4283   11.4832   14.9254 O   0  0  0  0  0  0  0  0  0  0  0  0
   14.9323   -0.4208    9.4365 C   0  0  2  0  0  0  0  0  0  0  0  0
   14.2177   -1.6752    9.6286 O   0  0  0  0  0  0  0  0  0  0  0  0
   12.1639    0.5147    9.4820 C   0  0  2  0  0  0  0  0  0  0  0  0
   12.6402    1.7333   10.1180 O   0  0  0  0  0  0  0  0  0  0  0  0
   11.0504   -0.0841   13.3722 C   0  0  0  0  0  0  0  0  0  0  0  0
    9.9075   -0.4314   14.1676 O   0  0  0  0  0  0  0  0  0  0  0  0
    7.6555    5.2294   15.1294 C   0  0  1  0  0  0  0  0  0  0  0  0
    8.6597    4.2692   14.7369 O   0  0  0  0  0  0  0  0  0  0  0  0
    5.4279    9.8417   13.0553 C   0  0  2  0  0  0  0  0  0  0  0  0
    6.1369    8.8152   12.3445 O   0  0  0  0  0  0  0  0  0  0  0  0
   15.2009   -0.3233    7.9733 C   0  0  0  0  0  0  0  0  0  0  0  0
   13.9584   -0.3516    7.3134 O   0  0  0  0  0  0  0  0  0  0  0  0
   10.9842    0.7744    8.4855 C   0  0  1  0  0  0  0  0  0  0  0  0
   11.5090    1.5842    7.4001 O   0  0  0  0  0  0  0  0  0  0  0  0
    7.9066    5.6414   16.6127 C   0  0  0  0  0  0  0  0  0  0  0  0
    7.1888    6.8711   17.0094 N   0  0  0  0  0  0  0  0  0  0  0  0
    4.0857   10.0772   12.3664 C   0  0  0  0  0  0  0  0  0  0  0  0
    4.0924    9.4703   11.0472 O   0  0  0  0  0  0  0  0  0  0  0  0
  1  2  1  1  0  0  0
  1  8  1  0  0  0  0
  1 36  1  0  0  0  0
  3  4  1  6  0  0  0
  3 10  1  0  0  0  0
  3 47  1  0  0  0  0
  5 11  1  0  0  0  0
  5 30  1  0  0  0  0
  5 38  1  6  0  0  0
  6 21  1  6  0  0  0
  6 42  1  0  0  0  0
  7 15  1  0  0  0  0
  7 44  1  0  0  0  0
  7 32  1  1  0  0  0
  8  9  1  1  0  0  0
  8 17  1  0  0  0  0
 11 12  1  6  0  0  0
 11 20  1  0  0  0  0
 13  6  1  0  0  0  0
 13 14  1  1  0  0  0
 15 16  1  6  0  0  0
 15 24  1  0  0  0  0
 17 26  1  0  0  0  0
 18 10  1  0  0  0  0
 18 19  1  1  0  0  0
 20 21  1  1  0  0  0
 20 29  1  0  0  0  0
 22 13  1  0  0  0  0
 22 23  1  1  0  0  0
 24 25  1  6  0  0  0
 24 33  1  0  0  0  0
 26 27  1  1  0  0  0
 26 35  1  0  0  0  0
 28  2  1  6  0  0  0
 28 18  1  0  0  0  0
 29 30  1  0  0  0  0
 29 39  1  6  0  0  0
 31 22  1  0  0  0  0
 31 32  1  6  0  0  0
 31 41  1  0  0  0  0
 33 34  1  1  0  0  0
 33 43  1  0  0  0  0
 35 36  1  0  0  0  0
 35 45  1  6  0  0  0
 37 28  1  0  0  0  0
 37 38  1  1  0  0  0
 39 40  1  0  0  0  0
 41 42  1  0  0  0  0
 41 49  1  1  0  0  0
 43 44  1  0  0  0  0
 43 51  1  6  0  0  0
 45 46  1  0  0  0  0
 47 37  1  0  0  0  0
 47 48  1  6  0  0  0
 49 50  1  0  0  0  0
 51 52  1  0  0  0  0
M  END
>  <CHROM.1>
170.00484208,-28.73361694,-116.63198702,154.67701042,125.02301258,40.76709722
-67.15661913,52.38151671,176.33028278,-49.17992185,6.30258375,136.22369223
10.10464258,3.37248734,11.85355388,-0.44857764,-0.91916254,1.38340154

>  <Name>
2esj_lig

>  <RI>
0

>  <Rbt.Current_Directory>
/home/itssahil/PROJECTS/Mol_Feturizer/New_Systems/rnas/2esj

>  <Rbt.Executable>
rbdock ($Id: //depot/dev/client3/rdock/2013.1/src/exe/rbdock.cxx#4 $)

>  <Rbt.Library>
libRbt.so (2013.1, Build901 2013/11/27)

>  <Rbt.Parameter_File>
/export/apps/rDock/src/rDock_2013.1_src/data/scripts/dock_solv.prm

>  <Rbt.Receptor>
prm/blind_docking_40.prm

>  <SCORE>
9.83172

>  <SCORE.INTER>
-12.8258

>  <SCORE.INTER.CONST>
1

>  <SCORE.INTER.POLAR>
-2.89412

>  <SCORE.INTER.ROT>
12

>  <SCORE.INTER.SOLV>
22.5685

>  <SCORE.INTER.VDW>
-18.0263

>  <SCORE.INTER.norm>
-0.246651

>  <SCORE.INTRA>
6.23678

>  <SCORE.INTRA.DIHEDRAL>
-2.85555

>  <SCORE.INTRA.DIHEDRAL.0>
32.9766

>  <SCORE.INTRA.POLAR>
0

>  <SCORE.INTRA.POLAR.0>
0

>  <SCORE.INTRA.REPUL>
0

>  <SCORE.INTRA.REPUL.0>
0

>  <SCORE.INTRA.SOLV>
2.07382

>  <SCORE.INTRA.SOLV.lig_0>
-114.358

>  <SCORE.INTRA.VDW>
6.62765

>  <SCORE.INTRA.VDW.0>
-8.24257

>  <SCORE.INTRA.norm>
0.119938

>  <SCORE.RESTR>
16.4208

>  <SCORE.RESTR.CAVITY>
16.4208

>  <SCORE.RESTR.norm>
0.315784

>  <SCORE.SYSTEM>
0

>  <SCORE.SYSTEM.CONST>
0

>  <SCORE.SYSTEM.DIHEDRAL>
0

>  <SCORE.SYSTEM.SOLV>
0

>  <SCORE.SYSTEM.norm>
0

>  <SCORE.heavy>
52

>  <SCORE.norm>
0.189072

>  <RMSD>
17.473

$$$$
2esj_lig
 OpenBabel11021811423D
libRbt.so/2013.1/901 2013/11/27
 52 56  0  0  0  0  0  0  0  0999 V2000
   11.1176   -0.9933    7.4494 C   0  0  2  0  0  0  0  0  0  0  0  0
   11.2093   -0.7542    8.8669 O   0  0  0  0  0  0  0  0  0  0  0  0
   13.8323   -2.4420   11.7924 C   0  0  2  0  0  0  0  0  0  0  0  0
   15.0006   -2.8263   12.6017 N   0  0  0  0  0  0  0  0  0  0  0  0
   11.3203    1.4872   12.2011 C   0  0  1  0  0  0  0  0  0  0  0  0
    8.2395    3.4571   14.2745 C   0  0  1  0  0  0  0  0  0  0  0  0
    8.5195    8.7150   15.2809 C   0  0  1  0  0  0  0  0  0  0  0  0
   10.5201    0.2876    6.7957 C   0  0  2  0  0  0  0  0  0  0  0  0
   11.3079    1.4821    7.0980 N   0  0  0  0  0  0  0  0  0  0  0  0
   14.0683   -2.8164   10.2753 C   0  0  0  0  0  0  0  0  0  0  0  0
    9.8793    1.7652   11.7713 C   0  0  2  0  0  0  0  0  0  0  0  0
    9.7208    3.0794   11.1939 O   0  0  0  0  0  0  0  0  0  0  0  0
    8.2420    4.6904   13.2645 C   0  0  2  0  0  0  0  0  0  0  0  0
    9.5853    5.3246   13.1985 N   0  0  0  0  0  0  0  0  0  0  0  0
    7.8605    8.5854   16.6493 C   0  0  1  0  0  0  0  0  0  0  0  0
    8.3686    9.6167   17.5192 O   0  0  0  0  0  0  0  0  0  0  0  0
    9.0391    0.5022    7.2426 C   0  0  0  0  0  0  0  0  0  0  0  0
   12.7808   -2.4508    9.4325 C   0  0  2  0  0  0  0  0  0  0  0  0
   12.9791   -2.7764    8.0163 N   0  0  0  0  0  0  0  0  0  0  0  0
    9.1625    1.5749   13.0767 C   0  0  2  0  0  0  0  0  0  0  0  0
    9.3499    2.6918   13.9085 O   0  0  0  0  0  0  0  0  0  0  0  0
    7.0512    5.6753   13.6481 C   0  0  1  0  0  0  0  0  0  0  0  0
    5.8378    4.9214   13.7373 O   0  0  0  0  0  0  0  0  0  0  0  0
    6.3393    8.6762   16.6504 C   0  0  1  0  0  0  0  0  0  0  0  0
    5.9219    8.7733   18.0167 O   0  0  0  0  0  0  0  0  0  0  0  0
    8.2275   -0.7903    6.9319 C   0  0  2  0  0  0  0  0  0  0  0  0
    6.8540   -0.6371    7.2424 O   0  0  0  0  0  0  0  0  0  0  0  0
   12.4344   -0.9483    9.5980 C   0  0  2  0  0  0  0  0  0  0  0  0
    9.9070    0.4374   13.8057 C   0  0  2  0  0  0  0  0  0  0  0  0
   11.2301    0.5903   13.3168 O   0  0  0  0  0  0  0  0  0  0  0  0
    7.2684    6.3148   15.0810 C   0  0  2  0  0  0  0  0  0  0  0  0
    8.4643    7.0841   14.9454 O   0  0  0  0  0  0  0  0  0  0  0  0
    5.7923    9.8710   15.8673 C   0  0  2  0  0  0  0  0  0  0  0  0
    4.3832    9.6477   15.6966 O   0  0  0  0  0  0  0  0  0  0  0  0
    8.8621   -1.9652    7.7166 C   0  0  2  0  0  0  0  0  0  0  0  0
   10.2295   -2.1162    7.2388 O   0  0  0  0  0  0  0  0  0  0  0  0
   12.3045   -0.4818   11.0834 C   0  0  2  0  0  0  0  0  0  0  0  0
   12.0548    0.9509   11.1231 O   0  0  0  0  0  0  0  0  0  0  0  0
    9.4239   -0.9844   13.5215 C   0  0  0  0  0  0  0  0  0  0  0  0
    8.3312   -1.2558   14.4115 O   0  0  0  0  0  0  0  0  0  0  0  0
    7.6282    5.1595   15.9954 C   0  0  1  0  0  0  0  0  0  0  0  0
    8.3446    3.9390   15.7097 O   0  0  0  0  0  0  0  0  0  0  0  0
    6.5560   10.0829   14.5648 C   0  0  2  0  0  0  0  0  0  0  0  0
    7.9514    9.7617   14.4570 O   0  0  0  0  0  0  0  0  0  0  0  0
    8.1917   -3.2712    7.4570 C   0  0  0  0  0  0  0  0  0  0  0  0
    8.2088   -3.4851    6.0663 O   0  0  0  0  0  0  0  0  0  0  0  0
   13.5671   -0.8983   11.9108 C   0  0  1  0  0  0  0  0  0  0  0  0
   13.2833   -0.6050   13.3046 O   0  0  0  0  0  0  0  0  0  0  0  0
    7.7967    5.4989   17.5084 C   0  0  0  0  0  0  0  0  0  0  0  0
    7.1760    4.5017   18.4057 N   0  0  0  0  0  0  0  0  0  0  0  0
    6.2353   11.2092   13.5849 C   0  0  0  0  0  0  0  0  0  0  0  0
    7.4453   11.6316   12.9020 O   0  0  0  0  0  0  0  0  0  0  0  0
  1  2  1  1  0  0  0
  1  8  1  0  0  0  0
  1 36  1  0  0  0  0
  3  4  1  1  0  0  0
  3 10  1  0  0  0  0
  3 47  1  0  0  0  0
  5 11  1  0  0  0  0
  5 30  1  0  0  0  0
  5 38  1  6  0  0  0
  6 21  1  6  0  0  0
  6 42  1  0  0  0  0
  7 15  1  0  0  0  0
  7 44  1  0  0  0  0
  7 32  1  6  0  0  0
  8  9  1  1  0  0  0
  8 17  1  0  0  0  0
 11 12  1  1  0  0  0
 11 20  1  0  0  0  0
 13  6  1  0  0  0  0
 13 14  1  1  0  0  0
 15 16  1  1  0  0  0
 15 24  1  0  0  0  0
 17 26  1  0  0  0  0
 18 10  1  0  0  0  0
 18 19  1  6  0  0  0
 20 21  1  1  0  0  0
 20 29  1  0  0  0  0
 22 13  1  0  0  0  0
 22 23  1  1  0  0  0
 24 25  1  1  0  0  0
 24 33  1  0  0  0  0
 26 27  1  1  0  0  0
 26 35  1  0  0  0  0
 28  2  1  6  0  0  0
 28 18  1  0  0  0  0
 29 30  1  0  0  0  0
 29 39  1  6  0  0  0
 31 22  1  0  0  0  0
 31 32  1  6  0  0  0
 31 41  1  0  0  0  0
 33 34  1  6  0  0  0
 33 43  1  0  0  0  0
 35 36  1  0  0  0  0
 35 45  1  6  0  0  0
 37 28  1  0  0  0  0
 37 38  1  6  0  0  0
 39 40  1  0  0  0  0
 41 42  1  0  0  0  0
 41 49  1  1  0  0  0
 43 44  1  0  0  0  0
 43 51  1  1  0  0  0
 45 46  1  0  0  0  0
 47 37  1  0  0  0  0
 47 48  1  1  0  0  0
 49 50  1  0  0  0  0
 51 52  1  0  0  0  0
M  END
>  <CHROM.1>
-127.39635452,-101.65525028,-97.87419069,50.29207550,116.68639071,-61.20464736
-85.35289439,123.35259493,55.43011767,151.07087510,137.26219007,148.73134731
9.30194330,2.83194248,12.39141238,1.02203349,0.89923882,-2.11654608

>  <Name>
2esj_lig

>  <RI>
0

>  <Rbt.Current_Directory>
/home/itssahil/PROJECTS/Mol_Feturizer/New_Systems/rnas/2esj

>  <Rbt.Executable>
rbdock ($Id: //depot/dev/client3/rdock/2013.1/src/exe/rbdock.cxx#4 $)

>  <Rbt.Library>
libRbt.so (2013.1, Build901 2013/11/27)

>  <Rbt.Parameter_File>
/export/apps/rDock/src/rDock_2013.1_src/data/scripts/dock_solv.prm

>  <Rbt.Receptor>
prm/blind_docking_60.prm

>  <SCORE>
20.7396

>  <SCORE.INTER>
-7.6253

>  <SCORE.INTER.CONST>
1

>  <SCORE.INTER.POLAR>
-1.75308

>  <SCORE.INTER.ROT>
12

>  <SCORE.INTER.SOLV>
30.2158

>  <SCORE.INTER.VDW>
-20.9119

>  <SCORE.INTER.norm>
-0.14664

>  <SCORE.INTRA>
10.748

>  <SCORE.INTRA.DIHEDRAL>
10.0336

>  <SCORE.INTRA.DIHEDRAL.0>
32.9766

>  <SCORE.INTRA.POLAR>
0

>  <SCORE.INTRA.POLAR.0>
0

>  <SCORE.INTRA.REPUL>
0

>  <SCORE.INTRA.REPUL.0>
0

>  <SCORE.INTRA.SOLV>
-0.568949

>  <SCORE.INTRA.SOLV.lig_0>
-114.358

>  <SCORE.INTRA.VDW>
6.01563

>  <SCORE.INTRA.VDW.0>
-8.24257

>  <SCORE.INTRA.norm>
0.206691

>  <SCORE.RESTR>
17.6169

>  <SCORE.RESTR.CAVITY>
17.6169

>  <SCORE.RESTR.norm>
0.338787

>  <SCORE.SYSTEM>
0

>  <SCORE.SYSTEM.CONST>
0

>  <SCORE.SYSTEM.DIHEDRAL>
0

>  <SCORE.SYSTEM.SOLV>
0

>  <SCORE.SYSTEM.norm>
0

>  <SCORE.heavy>
52

>  <SCORE.norm>
0.398838

>  <RMSD>
17.486

$$$$
2esj_lig
 OpenBabel11021811423D
libRbt.so/2013.1/901 2013/11/27
 52 56  0  0  0  0  0  0  0  0999 V2000
    7.0308    8.2861   14.1087 C   0  0  2  0  0  0  0  0  0  0  0  0
    6.5962    8.4610   15.4707 O   0  0  0  0  0  0  0  0  0  0  0  0
    5.6787    5.6140   18.5270 C   0  0  2  0  0  0  0  0  0  0  0  0
    5.0192    4.6340   19.4056 N   0  0  0  0  0  0  0  0  0  0  0  0
    7.8548    5.0890   14.2849 C   0  0  1  0  0  0  0  0  0  0  0  0
   11.0043    3.0969   12.2474 C   0  0  1  0  0  0  0  0  0  0  0  0
   11.2139   -1.9198   10.5535 C   0  0  1  0  0  0  0  0  0  0  0  0
    7.2798    9.7022   13.5106 C   0  0  2  0  0  0  0  0  0  0  0  0
    8.2430   10.4731   14.2963 N   0  0  0  0  0  0  0  0  0  0  0  0
    4.8551    6.9623   18.4928 C   0  0  0  0  0  0  0  0  0  0  0  0
    7.6094    4.0015   13.2383 C   0  0  2  0  0  0  0  0  0  0  0  0
    7.4565    2.6929   13.8295 O   0  0  0  0  0  0  0  0  0  0  0  0
   10.3019    2.2478   11.0954 C   0  0  2  0  0  0  0  0  0  0  0  0
    9.3067    1.2993   11.6616 N   0  0  0  0  0  0  0  0  0  0  0  0
   12.5766   -2.4434   10.9923 C   0  0  1  0  0  0  0  0  0  0  0  0
   12.5236   -3.8811   11.0864 O   0  0  0  0  0  0  0  0  0  0  0  0
    5.9414   10.4971   13.3845 C   0  0  0  0  0  0  0  0  0  0  0  0
    5.6092    8.0216   17.5923 C   0  0  2  0  0  0  0  0  0  0  0  0
    4.8576    9.2795   17.5329 N   0  0  0  0  0  0  0  0  0  0  0  0
    8.8388    4.1550   12.3903 C   0  0  2  0  0  0  0  0  0  0  0  0
    9.9516    3.5812   13.0283 O   0  0  0  0  0  0  0  0  0  0  0  0
   11.4260    1.5804   10.1865 C   0  0  1  0  0  0  0  0  0  0  0  0
   12.3443    2.5950    9.7668 O   0  0  0  0  0  0  0  0  0  0  0  0
   13.7404   -2.0742   10.0804 C   0  0  1  0  0  0  0  0  0  0  0  0
   14.8736   -2.8367   10.5103 O   0  0  0  0  0  0  0  0  0  0  0  0
    4.9264    9.6463   12.5650 C   0  0  2  0  0  0  0  0  0  0  0  0
    3.7122   10.3420   12.3457 O   0  0  0  0  0  0  0  0  0  0  0  0
    5.8319    7.4575   16.1650 C   0  0  2  0  0  0  0  0  0  0  0  0
    9.1551    5.6647   12.3739 C   0  0  2  0  0  0  0  0  0  0  0  0
    8.6587    6.0835   13.6353 O   0  0  0  0  0  0  0  0  0  0  0  0
   12.2857    0.5323   11.0060 C   0  0  2  0  0  0  0  0  0  0  0  0
   11.3473   -0.4783   11.3780 O   0  0  0  0  0  0  0  0  0  0  0  0
   13.4753   -2.3512    8.5996 C   0  0  2  0  0  0  0  0  0  0  0  0
   14.5048   -1.6761    7.8585 O   0  0  0  0  0  0  0  0  0  0  0  0
    4.6915    8.3114   13.3146 C   0  0  2  0  0  0  0  0  0  0  0  0
    5.9721    7.6210   13.3801 O   0  0  0  0  0  0  0  0  0  0  0  0
    6.5370    6.0637   16.1311 C   0  0  2  0  0  0  0  0  0  0  0  0
    6.6264    5.5973   14.7560 O   0  0  0  0  0  0  0  0  0  0  0  0
    8.4912    6.4876   11.2704 C   0  0  0  0  0  0  0  0  0  0  0  0
    7.0711    6.3408   11.4165 O   0  0  0  0  0  0  0  0  0  0  0  0
   12.6640    1.2325   12.2971 C   0  0  1  0  0  0  0  0  0  0  0  0
   11.9439    2.2247   13.0596 O   0  0  0  0  0  0  0  0  0  0  0  0
   12.0566   -1.9587    8.2024 C   0  0  2  0  0  0  0  0  0  0  0  0
   10.9673   -2.0551    9.1329 O   0  0  0  0  0  0  0  0  0  0  0  0
    3.7671    7.3908   12.5932 C   0  0  0  0  0  0  0  0  0  0  0  0
    4.3550    7.0911   11.3504 O   0  0  0  0  0  0  0  0  0  0  0  0
    5.8041    5.0454   17.0681 C   0  0  1  0  0  0  0  0  0  0  0  0
    6.6262    3.8497   17.1297 O   0  0  0  0  0  0  0  0  0  0  0  0
   13.6122    0.4510   13.2579 C   0  0  0  0  0  0  0  0  0  0  0  0
   15.0379    0.5447   12.8794 N   0  0  0  0  0  0  0  0  0  0  0  0
   11.5094   -2.1327    6.7875 C   0  0  0  0  0  0  0  0  0  0  0  0
   11.8063   -3.4687    6.3019 O   0  0  0  0  0  0  0  0  0  0  0  0
  1  2  1  1  0  0  0
  1  8  1  0  0  0  0
  1 36  1  0  0  0  0
  3  4  1  1  0  0  0
  3 10  1  0  0  0  0
  3 47  1  0  0  0  0
  5 11  1  0  0  0  0
  5 30  1  0  0  0  0
  5 38  1  6  0  0  0
  6 21  1  1  0  0  0
  6 42  1  0  0  0  0
  7 15  1  0  0  0  0
  7 44  1  0  0  0  0
  7 32  1  6  0  0  0
  8  9  1  1  0  0  0
  8 17  1  0  0  0  0
 11 12  1  1  0  0  0
 11 20  1  0  0  0  0
 13  6  1  0  0  0  0
 13 14  1  1  0  0  0
 15 16  1  6  0  0  0
 15 24  1  0  0  0  0
 17 26  1  0  0  0  0
 18 10  1  0  0  0  0
 18 19  1  6  0  0  0
 20 21  1  1  0  0  0
 20 29  1  0  0  0  0
 22 13  1  0  0  0  0
 22 23  1  1  0  0  0
 24 25  1  1  0  0  0
 24 33  1  0  0  0  0
 26 27  1  1  0  0  0
 26 35  1  0  0  0  0
 28  2  1  6  0  0  0
 28 18  1  0  0  0  0
 29 30  1  0  0  0  0
 29 39  1  6  0  0  0
 31 22  1  0  0  0  0
 31 32  1  1  0  0  0
 31 41  1  0  0  0  0
 33 34  1  6  0  0  0
 33 43  1  0  0  0  0
 35 36  1  0  0  0  0
 35 45  1  6  0  0  0
 37 28  1  0  0  0  0
 37 38  1  6  0  0  0
 39 40  1  0  0  0  0
 41 42  1  0  0  0  0
 41 49  1  1  0  0  0
 43 44  1  0  0  0  0
 43 51  1  6  0  0  0
 45 46  1  0  0  0  0
 47 37  1  0  0  0  0
 47 48  1  1  0  0  0
 49 50  1  0  0  0  0
 51 52  1  0  0  0  0
M  END
>  <CHROM.1>
157.05932860,148.21338201,-46.33464507,68.09947567,152.58894125,178.58197614
59.10179783,99.92112223,61.05295181,132.77347535,81.28481269,48.08428021
8.96750926,3.67212862,12.71781113,2.93214473,-0.97841122,1.83232685

>  <Name>
2esj_lig

>  <RI>
0

>  <Rbt.Current_Directory>
/home/itssahil/PROJECTS/Mol_Feturizer/New_Systems/rnas/2esj

>  <Rbt.Executable>
rbdock ($Id: //depot/dev/client3/rdock/2013.1/src/exe/rbdock.cxx#4 $)

>  <Rbt.Library>
libRbt.so (2013.1, Build901 2013/11/27)

>  <Rbt.Parameter_File>
/export/apps/rDock/src/rDock_2013.1_src/data/scripts/dock_solv.prm

>  <Rbt.Receptor>
prm/blind_docking_40.prm

>  <SCORE>
20.262

>  <SCORE.INTER>
5.93908

>  <SCORE.INTER.CONST>
1

>  <SCORE.INTER.POLAR>
-0.119622

>  <SCORE.INTER.ROT>
12

>  <SCORE.INTER.SOLV>
24.3618

>  <SCORE.INTER.VDW>
-15.3625

>  <SCORE.INTER.norm>
0.114213

>  <SCORE.INTRA>
-0.252456

>  <SCORE.INTRA.DIHEDRAL>
-6.08252

>  <SCORE.INTRA.DIHEDRAL.0>
32.9766

>  <SCORE.INTRA.POLAR>
0

>  <SCORE.INTRA.POLAR.0>
0

>  <SCORE.INTRA.REPUL>
0.00361637

>  <SCORE.INTRA.REPUL.0>
0

>  <SCORE.INTRA.SOLV>
0.0264987

>  <SCORE.INTRA.SOLV.lig_0>
-114.358

>  <SCORE.INTRA.VDW>
2.75747

>  <SCORE.INTRA.VDW.0>
-8.24257

>  <SCORE.INTRA.norm>
-0.00485493

>  <SCORE.RESTR>
14.5754

>  <SCORE.RESTR.CAVITY>
14.5754

>  <SCORE.RESTR.norm>
0.280296

>  <SCORE.SYSTEM>
0

>  <SCORE.SYSTEM.CONST>
0

>  <SCORE.SYSTEM.DIHEDRAL>
0

>  <SCORE.SYSTEM.SOLV>
0

>  <SCORE.SYSTEM.norm>
0

>  <SCORE.heavy>
52

>  <SCORE.norm>
0.389654

>  <RMSD>
17.532

$$$$
2esj_lig
 OpenBabel11021811423D
libRbt.so/2013.1/901 2013/11/27
 52 56  0  0  0  0  0  0  0  0999 V2000
    6.2290    9.9140   13.4913 C   0  0  2  0  0  0  0  0  0  0  0  0
    6.6629    8.6258   13.0148 O   0  0  0  0  0  0  0  0  0  0  0  0
    5.5297    6.2170   16.3617 C   0  0  2  0  0  0  0  0  0  0  0  0
    5.1926    5.1018   17.2617 N   0  0  0  0  0  0  0  0  0  0  0  0
    9.1287    6.3896   13.4980 C   0  0  1  0  0  0  0  0  0  0  0  0
    9.4162    2.7732   11.4685 C   0  0  1  0  0  0  0  0  0  0  0  0
   13.7714    0.1830    9.7213 C   0  0  1  0  0  0  0  0  0  0  0  0
    6.5896   10.9635   12.3989 C   0  0  2  0  0  0  0  0  0  0  0  0
    6.0016   10.6353   11.1006 N   0  0  0  0  0  0  0  0  0  0  0  0
    4.6187    6.1756   15.0711 C   0  0  0  0  0  0  0  0  0  0  0  0
    8.2657    5.1300   13.5835 C   0  0  2  0  0  0  0  0  0  0  0  0
    8.8484    4.1202   14.4357 O   0  0  0  0  0  0  0  0  0  0  0  0
   10.6863    2.2268   12.2619 C   0  0  2  0  0  0  0  0  0  0  0  0
   11.8919    3.0470   11.9708 N   0  0  0  0  0  0  0  0  0  0  0  0
   13.5337   -1.0043   10.6473 C   0  0  1  0  0  0  0  0  0  0  0  0
   14.0349   -2.2018   10.0202 O   0  0  0  0  0  0  0  0  0  0  0  0
    8.1379   11.1112   12.2576 C   0  0  0  0  0  0  0  0  0  0  0  0
    4.9540    7.4135   14.1454 C   0  0  2  0  0  0  0  0  0  0  0  0
    4.1304    7.3912   12.9322 N   0  0  0  0  0  0  0  0  0  0  0  0
    8.1952    4.7472   12.1335 C   0  0  2  0  0  0  0  0  0  0  0  0
    9.3979    4.1470   11.7239 O   0  0  0  0  0  0  0  0  0  0  0  0
   10.8462    0.6694   11.9720 C   0  0  1  0  0  0  0  0  0  0  0  0
    9.5979    0.0196   12.2334 O   0  0  0  0  0  0  0  0  0  0  0  0
   14.1727   -0.8925   12.0263 C   0  0  1  0  0  0  0  0  0  0  0  0
   14.0488   -2.1728   12.6554 O   0  0  0  0  0  0  0  0  0  0  0  0
    8.7420   11.4371   13.6556 C   0  0  2  0  0  0  0  0  0  0  0  0
   10.1389   11.6608   13.5867 O   0  0  0  0  0  0  0  0  0  0  0  0
    6.4601    7.4203   13.7758 C   0  0  2  0  0  0  0  0  0  0  0  0
    8.1535    6.0740   11.3476 C   0  0  2  0  0  0  0  0  0  0  0  0
    8.8863    6.9427   12.1969 O   0  0  0  0  0  0  0  0  0  0  0  0
   11.1641    0.3950   10.4446 C   0  0  2  0  0  0  0  0  0  0  0  0
   12.4273    1.0261   10.2291 O   0  0  0  0  0  0  0  0  0  0  0  0
   15.6468   -0.4853   11.9916 C   0  0  2  0  0  0  0  0  0  0  0  0
   16.0104   -0.1215   13.3333 O   0  0  0  0  0  0  0  0  0  0  0  0
    8.3974   10.2742   14.6190 C   0  0  2  0  0  0  0  0  0  0  0  0
    6.9458   10.2066   14.7138 O   0  0  0  0  0  0  0  0  0  0  0  0
    7.4208    7.3411   15.0054 C   0  0  2  0  0  0  0  0  0  0  0  0
    8.7986    7.2776   14.5427 O   0  0  0  0  0  0  0  0  0  0  0  0
    6.7697    6.6687   11.0884 C   0  0  0  0  0  0  0  0  0  0  0  0
    6.9572    8.0133   10.6231 O   0  0  0  0  0  0  0  0  0  0  0  0
   10.1585    1.2178    9.6622 C   0  0  1  0  0  0  0  0  0  0  0  0
    9.5460    2.4850    9.9842 O   0  0  0  0  0  0  0  0  0  0  0  0
   15.9019    0.6036   10.9555 C   0  0  2  0  0  0  0  0  0  0  0  0
   15.1321    0.6780    9.7457 O   0  0  0  0  0  0  0  0  0  0  0  0
    8.8879   10.5013   16.0083 C   0  0  0  0  0  0  0  0  0  0  0  0
    8.2515   11.6575   16.4966 O   0  0  0  0  0  0  0  0  0  0  0  0
    7.0392    6.1395   15.9342 C   0  0  1  0  0  0  0  0  0  0  0  0
    7.8450    6.2535   17.1371 O   0  0  0  0  0  0  0  0  0  0  0  0
   10.1816    1.0503    8.1117 C   0  0  0  0  0  0  0  0  0  0  0  0
    9.1044    0.1770    7.6000 N   0  0  0  0  0  0  0  0  0  0  0  0
   17.2843    1.1972   10.6939 C   0  0  0  0  0  0  0  0  0  0  0  0
   17.3863    2.5072   11.3122 O   0  0  0  0  0  0  0  0  0  0  0  0
  1  2  1  6  0  0  0
  1  8  1  0  0  0  0
  1 36  1  0  0  0  0
  3  4  1  1  0  0  0
  3 10  1  0  0  0  0
  3 47  1  0  0  0  0
  5 11  1  0  0  0  0
  5 30  1  0  0  0  0
  5 38  1  1  0  0  0
  6 21  1  6  0  0  0
  6 42  1  0  0  0  0
  7 15  1  0  0  0  0
  7 44  1  0  0  0  0
  7 32  1  1  0  0  0
  8  9  1  6  0  0  0
  8 17  1  0  0  0  0
 11 12  1  1  0  0  0
 11 20  1  0  0  0  0
 13  6  1  0  0  0  0
 13 14  1  6  0  0  0
 15 16  1  6  0  0  0
 15 24  1  0  0  0  0
 17 26  1  0  0  0  0
 18 10  1  0  0  0  0
 18 19  1  6  0  0  0
 20 21  1  6  0  0  0
 20 29  1  0  0  0  0
 22 13  1  0  0  0  0
 22 23  1  6  0  0  0
 24 25  1  6  0  0  0
 24 33  1  0  0  0  0
 26 27  1  6  0  0  0
 26 35  1  0  0  0  0
 28  2  1  1  0  0  0
 28 18  1  0  0  0  0
 29 30  1  0  0  0  0
 29 39  1  1  0  0  0
 31 22  1  0  0  0  0
 31 32  1  6  0  0  0
 31 41  1  0  0  0  0
 33 34  1  1  0  0  0
 33 43  1  0  0  0  0
 35 36  1  0  0  0  0
 35 45  1  1  0  0  0
 37 28  1  0  0  0  0
 37 38  1  6  0  0  0
 39 40  1  0  0  0  0
 41 42  1  0  0  0  0
 41 49  1  6  0  0  0
 43 44  1  0  0  0  0
 43 51  1  6  0  0  0
 45 46  1  0  0  0  0
 47 37  1  0  0  0  0
 47 48  1  1  0  0  0
 49 50  1  0  0  0  0
 51 52  1  0  0  0  0
M  END
>  <CHROM.1>
-178.87881241,-33.62098354,-131.38726961,-42.71108487,108.26579279,51.42551486
167.44011809,120.18728028,61.55862636,-46.33721091,101.55663501,-103.24858386
9.73075297,4.78792239,12.56327542,-2.18729206,0.02589057,-2.77650143

>  <Name>
2esj_lig

>  <RI>
0

>  <Rbt.Current_Directory>
/home/itssahil/PROJECTS/Mol_Feturizer/New_Systems/rnas/2esj

>  <Rbt.Executable>
rbdock ($Id: //depot/dev/client3/rdock/2013.1/src/exe/rbdock.cxx#4 $)

>  <Rbt.Library>
libRbt.so (2013.1, Build901 2013/11/27)

>  <Rbt.Parameter_File>
/export/apps/rDock/src/rDock_2013.1_src/data/scripts/dock_solv.prm

>  <Rbt.Receptor>
prm/blind_docking_60.prm

>  <SCORE>
12.6221

>  <SCORE.INTER>
-9.05258

>  <SCORE.INTER.CONST>
1

>  <SCORE.INTER.POLAR>
-1.46548

>  <SCORE.INTER.ROT>
12

>  <SCORE.INTER.SOLV>
22.9142

>  <SCORE.INTER.VDW>
-20.3882

>  <SCORE.INTER.norm>
-0.174088

>  <SCORE.INTRA>
7.3542

>  <SCORE.INTRA.DIHEDRAL>
-1.06935

>  <SCORE.INTRA.DIHEDRAL.0>
32.9766

>  <SCORE.INTRA.POLAR>
0

>  <SCORE.INTRA.POLAR.0>
0

>  <SCORE.INTRA.REPUL>
0

>  <SCORE.INTRA.REPUL.0>
0

>  <SCORE.INTRA.SOLV>
0.754362

>  <SCORE.INTRA.SOLV.lig_0>
-114.358

>  <SCORE.INTRA.VDW>
7.51169

>  <SCORE.INTRA.VDW.0>
-8.24257

>  <SCORE.INTRA.norm>
0.141427

>  <SCORE.RESTR>
14.3205

>  <SCORE.RESTR.CAVITY>
14.3205

>  <SCORE.RESTR.norm>
0.275395

>  <SCORE.SYSTEM>
0

>  <SCORE.SYSTEM.CONST>
0

>  <SCORE.SYSTEM.DIHEDRAL>
0

>  <SCORE.SYSTEM.SOLV>
0

>  <SCORE.SYSTEM.norm>
0

>  <SCORE.heavy>
52

>  <SCORE.norm>
0.242734

>  <RMSD>
17.540

$$$$
2esj_lig
 OpenBabel11021811423D
libRbt.so/2013.1/901 2013/11/27
 52 56  0  0  0  0  0  0  0  0999 V2000
   13.5689   -2.2675   10.1895 C   0  0  2  0  0  0  0  0  0  0  0  0
   12.6904   -1.2577   10.7220 O   0  0  0  0  0  0  0  0  0  0  0  0
    9.9245   -0.9369    7.4764 C   0  0  2  0  0  0  0  0  0  0  0  0
    8.7559   -0.6540    6.6268 N   0  0  0  0  0  0  0  0  0  0  0  0
   11.7477    2.1870   10.1565 C   0  0  1  0  0  0  0  0  0  0  0  0
    8.4221    3.7527   12.1330 C   0  0  1  0  0  0  0  0  0  0  0  0
    6.8794    8.6212   12.6256 C   0  0  1  0  0  0  0  0  0  0  0  0
   14.7973   -2.3692   11.1412 C   0  0  2  0  0  0  0  0  0  0  0  0
   14.4061   -2.6583   12.5206 N   0  0  0  0  0  0  0  0  0  0  0  0
    9.4912   -1.7739    8.7449 C   0  0  0  0  0  0  0  0  0  0  0  0
   10.4330    1.5188   10.5610 C   0  0  2  0  0  0  0  0  0  0  0  0
    9.3749    1.7648    9.6095 O   0  0  0  0  0  0  0  0  0  0  0  0
    8.0250    5.0256   11.2595 C   0  0  2  0  0  0  0  0  0  0  0  0
    9.0669    6.0825   11.3504 N   0  0  0  0  0  0  0  0  0  0  0  0
    7.8616    9.4060   13.4875 C   0  0  1  0  0  0  0  0  0  0  0  0
    8.2475   10.6078   12.7909 O   0  0  0  0  0  0  0  0  0  0  0  0
   15.6482   -1.0605   11.0946 C   0  0  0  0  0  0  0  0  0  0  0  0
   10.7671   -2.1185    9.6138 C   0  0  2  0  0  0  0  0  0  0  0  0
   10.3902   -2.8846   10.8062 N   0  0  0  0  0  0  0  0  0  0  0  0
   10.2099    2.1457   11.9069 C   0  0  2  0  0  0  0  0  0  0  0  0
    9.7383    3.4617   11.7647 O   0  0  0  0  0  0  0  0  0  0  0  0
    6.5569    5.4918   11.6627 C   0  0  1  0  0  0  0  0  0  0  0  0
    5.6776    4.3647   11.5910 O   0  0  0  0  0  0  0  0  0  0  0  0
    7.3446    9.8056   14.8642 C   0  0  1  0  0  0  0  0  0  0  0  0
    8.2931   10.7209   15.4234 O   0  0  0  0  0  0  0  0  0  0  0  0
   16.0319   -0.7623    9.6149 C   0  0  2  0  0  0  0  0  0  0  0  0
   16.8720    0.3729    9.5072 O   0  0  0  0  0  0  0  0  0  0  0  0
   11.5124   -0.8203   10.0192 C   0  0  2  0  0  0  0  0  0  0  0  0
   11.6102    2.3162   12.5311 C   0  0  2  0  0  0  0  0  0  0  0  0
   12.4250    2.4933   11.3832 O   0  0  0  0  0  0  0  0  0  0  0  0
    6.5002    5.9886   13.1658 C   0  0  2  0  0  0  0  0  0  0  0  0
    7.3590    7.1297   13.1919 O   0  0  0  0  0  0  0  0  0  0  0  0
    5.9627   10.4611   14.8375 C   0  0  2  0  0  0  0  0  0  0  0  0
    5.4881   10.4885   16.1935 O   0  0  0  0  0  0  0  0  0  0  0  0
   14.7273   -0.5859    8.7988 C   0  0  2  0  0  0  0  0  0  0  0  0
   13.9968   -1.8435    8.8738 O   0  0  0  0  0  0  0  0  0  0  0  0
   11.8660    0.1154    8.8190 C   0  0  2  0  0  0  0  0  0  0  0  0
   12.4909    1.3308    9.3176 O   0  0  0  0  0  0  0  0  0  0  0  0
   12.1387    1.1389   13.3498 C   0  0  0  0  0  0  0  0  0  0  0  0
   11.0059    0.4582   13.9093 O   0  0  0  0  0  0  0  0  0  0  0  0
    7.2127    4.9234   13.9769 C   0  0  1  0  0  0  0  0  0  0  0  0
    8.3149    4.0641   13.6144 O   0  0  0  0  0  0  0  0  0  0  0  0
    5.0284    9.7566   13.8601 C   0  0  2  0  0  0  0  0  0  0  0  0
    5.5275    9.1390   12.6638 O   0  0  0  0  0  0  0  0  0  0  0  0
   14.9734   -0.3417    7.3489 C   0  0  0  0  0  0  0  0  0  0  0  0
   15.6769   -1.4525    6.8475 O   0  0  0  0  0  0  0  0  0  0  0  0
   10.5995    0.4022    7.9439 C   0  0  1  0  0  0  0  0  0  0  0  0
   11.0484    1.1081    6.7567 O   0  0  0  0  0  0  0  0  0  0  0  0
    7.2121    5.1141   15.5249 C   0  0  0  0  0  0  0  0  0  0  0  0
    8.5396    4.9088   16.1416 N   0  0  0  0  0  0  0  0  0  0  0  0
    3.5875   10.2005   13.6180 C   0  0  0  0  0  0  0  0  0  0  0  0
    3.5710   11.5127   12.9961 O   0  0  0  0  0  0  0  0  0  0  0  0
  1  2  1  1  0  0  0
  1  8  1  0  0  0  0
  1 36  1  0  0  0  0
  3  4  1  6  0  0  0
  3 10  1  0  0  0  0
  3 47  1  0  0  0  0
  5 11  1  0  0  0  0
  5 30  1  0  0  0  0
  5 38  1  6  0  0  0
  6 21  1  1  0  0  0
  6 42  1  0  0  0  0
  7 15  1  0  0  0  0
  7 44  1  0  0  0  0
  7 32  1  1  0  0  0
  8  9  1  1  0  0  0
  8 17  1  0  0  0  0
 11 12  1  6  0  0  0
 11 20  1  0  0  0  0
 13  6  1  0  0  0  0
 13 14  1  1  0  0  0
 15 16  1  6  0  0  0
 15 24  1  0  0  0  0
 17 26  1  0  0  0  0
 18 10  1  0  0  0  0
 18 19  1  1  0  0  0
 20 21  1  6  0  0  0
 20 29  1  0  0  0  0
 22 13  1  0  0  0  0
 22 23  1  1  0  0  0
 24 25  1  6  0  0  0
 24 33  1  0  0  0  0
 26 27  1  1  0  0  0
 26 35  1  0  0  0  0
 28  2  1  6  0  0  0
 28 18  1  0  0  0  0
 29 30  1  0  0  0  0
 29 39  1  6  0  0  0
 31 22  1  0  0  0  0
 31 32  1  6  0  0  0
 31 41  1  0  0  0  0
 33 34  1  1  0  0  0
 33 43  1  0  0  0  0
 35 36  1  0  0  0  0
 35 45  1  6  0  0  0
 37 28  1  0  0  0  0
 37 38  1  1  0  0  0
 39 40  1  0  0  0  0
 41 42  1  0  0  0  0
 41 49  1  1  0  0  0
 43 44  1  0  0  0  0
 43 51  1  6  0  0  0
 45 46  1  0  0  0  0
 47 37  1  0  0  0  0
 47 48  1  6  0  0  0
 49 50  1  0  0  0  0
 51 52  1  0  0  0  0
M  END
>  <CHROM.1>
174.17179568,8.94716773,-154.41429051,155.31141243,110.98942919,49.34392690
-29.16864282,78.47897009,59.85363924,-62.97018953,-133.51895566,65.85791801
9.98976693,3.21307618,11.44756538,-0.89611379,-0.51656662,0.79757790

>  <Name>
2esj_lig

>  <RI>
0

>  <Rbt.Current_Directory>
/home/itssahil/PROJECTS/Mol_Feturizer/New_Systems/rnas/2esj

>  <Rbt.Executable>
rbdock ($Id: //depot/dev/client3/rdock/2013.1/src/exe/rbdock.cxx#4 $)

>  <Rbt.Library>
libRbt.so (2013.1, Build901 2013/11/27)

>  <Rbt.Parameter_File>
/export/apps/rDock/src/rDock_2013.1_src/data/scripts/dock_solv.prm

>  <Rbt.Receptor>
prm/blind_docking_60.prm

>  <SCORE>
24.3086

>  <SCORE.INTER>
-1.31073

>  <SCORE.INTER.CONST>
1

>  <SCORE.INTER.POLAR>
-1.5791

>  <SCORE.INTER.ROT>
12

>  <SCORE.INTER.SOLV>
27.053

>  <SCORE.INTER.VDW>
-16.2278

>  <SCORE.INTER.norm>
-0.0252063

>  <SCORE.INTRA>
8.27819

>  <SCORE.INTRA.DIHEDRAL>
-4.1593

>  <SCORE.INTRA.DIHEDRAL.0>
32.9766

>  <SCORE.INTRA.POLAR>
0

>  <SCORE.INTRA.POLAR.0>
0

>  <SCORE.INTRA.REPUL>
0

>  <SCORE.INTRA.REPUL.0>
0

>  <SCORE.INTRA.SOLV>
-1.20194

>  <SCORE.INTRA.SOLV.lig_0>
-114.358

>  <SCORE.INTRA.VDW>
10.9588

>  <SCORE.INTRA.VDW.0>
-8.24257

>  <SCORE.INTRA.norm>
0.159196

>  <SCORE.RESTR>
17.3411

>  <SCORE.RESTR.CAVITY>
17.3411

>  <SCORE.RESTR.norm>
0.333482

>  <SCORE.SYSTEM>
0

>  <SCORE.SYSTEM.CONST>
0

>  <SCORE.SYSTEM.DIHEDRAL>
0

>  <SCORE.SYSTEM.SOLV>
0

>  <SCORE.SYSTEM.norm>
0

>  <SCORE.heavy>
52

>  <SCORE.norm>
0.467472

>  <RMSD>
17.639

$$$$
2esj_lig
 OpenBabel11021811423D
libRbt.so/2013.1/901 2013/11/27
 52 56  0  0  0  0  0  0  0  0999 V2000
   12.0808   -0.6552    7.9185 C   0  0  2  0  0  0  0  0  0  0  0  0
   11.8882   -0.8850    9.3274 O   0  0  0  0  0  0  0  0  0  0  0  0
   14.0770   -1.3569   12.9708 C   0  0  2  0  0  0  0  0  0  0  0  0
   15.0869   -1.2992   14.0405 N   0  0  0  0  0  0  0  0  0  0  0  0
   11.0714    2.0067   12.2531 C   0  0  1  0  0  0  0  0  0  0  0  0
    8.0555    4.3425   14.1181 C   0  0  1  0  0  0  0  0  0  0  0  0
    8.5113    9.4704   14.3198 C   0  0  1  0  0  0  0  0  0  0  0  0
   12.1194    0.8856    7.6960 C   0  0  2  0  0  0  0  0  0  0  0  0
   13.1530    1.5353    8.5014 N   0  0  0  0  0  0  0  0  0  0  0  0
   14.7204   -1.9104   11.6377 C   0  0  0  0  0  0  0  0  0  0  0  0
    9.7447    2.4758   11.6546 C   0  0  2  0  0  0  0  0  0  0  0  0
    9.8488    3.7768   11.0366 O   0  0  0  0  0  0  0  0  0  0  0  0
    8.0921    5.6170   13.1613 C   0  0  2  0  0  0  0  0  0  0  0  0
    9.4598    6.1965   13.0950 N   0  0  0  0  0  0  0  0  0  0  0  0
    7.7351   10.0990   15.4712 C   0  0  1  0  0  0  0  0  0  0  0  0
    8.1907   11.4529   15.6661 O   0  0  0  0  0  0  0  0  0  0  0  0
   10.7286    1.5276    8.0003 C   0  0  0  0  0  0  0  0  0  0  0  0
   13.6084   -2.0210   10.5184 C   0  0  2  0  0  0  0  0  0  0  0  0
   14.1830   -2.5204    9.2649 N   0  0  0  0  0  0  0  0  0  0  0  0
    8.8671    2.4402   12.8722 C   0  0  2  0  0  0  0  0  0  0  0  0
    9.1252    3.5478   13.6975 O   0  0  0  0  0  0  0  0  0  0  0  0
    6.9518    6.6335   13.6103 C   0  0  1  0  0  0  0  0  0  0  0  0
    5.7091    5.9280   13.6921 O   0  0  0  0  0  0  0  0  0  0  0  0
    6.2218   10.1326   15.2947 C   0  0  1  0  0  0  0  0  0  0  0  0
    5.6918   10.9557   16.3395 O   0  0  0  0  0  0  0  0  0  0  0  0
    9.6434    0.8040    7.1491 C   0  0  2  0  0  0  0  0  0  0  0  0
    8.3645    1.3888    7.3187 O   0  0  0  0  0  0  0  0  0  0  0  0
   12.9304   -0.6449   10.2914 C   0  0  2  0  0  0  0  0  0  0  0  0
    9.3481    1.2340   13.7048 C   0  0  2  0  0  0  0  0  0  0  0  0
   10.7252    1.1743   13.3688 O   0  0  0  0  0  0  0  0  0  0  0  0
    7.2226    7.2009   15.0643 C   0  0  2  0  0  0  0  0  0  0  0  0
    8.4476    7.9245   14.9372 O   0  0  0  0  0  0  0  0  0  0  0  0
    5.7712   10.6809   13.9395 C   0  0  2  0  0  0  0  0  0  0  0  0
    4.3770   10.3609   13.8032 O   0  0  0  0  0  0  0  0  0  0  0  0
    9.6405   -0.6959    7.5355 C   0  0  2  0  0  0  0  0  0  0  0  0
   10.9564   -1.2288    7.2110 O   0  0  0  0  0  0  0  0  0  0  0  0
   12.3761    0.0175   11.5933 C   0  0  2  0  0  0  0  0  0  0  0  0
   11.8330    1.3297   11.2780 O   0  0  0  0  0  0  0  0  0  0  0  0
    8.6932   -0.1118   13.3953 C   0  0  0  0  0  0  0  0  0  0  0  0
    9.4061   -1.1184   14.1289 O   0  0  0  0  0  0  0  0  0  0  0  0
    7.5494    5.9932   15.9215 C   0  0  1  0  0  0  0  0  0  0  0  0
    8.2076    4.7571   15.5699 O   0  0  0  0  0  0  0  0  0  0  0  0
    6.6479   10.1602   12.8060 C   0  0  2  0  0  0  0  0  0  0  0  0
    8.0397    9.8722   13.0108 O   0  0  0  0  0  0  0  0  0  0  0  0
    8.6667   -1.5013    6.7445 C   0  0  0  0  0  0  0  0  0  0  0  0
    8.5109   -2.7370    7.3995 O   0  0  0  0  0  0  0  0  0  0  0  0
   13.4784    0.0707   12.7043 C   0  0  1  0  0  0  0  0  0  0  0  0
   12.8340    0.5144   13.9279 O   0  0  0  0  0  0  0  0  0  0  0  0
    7.7602    6.2595   17.4438 C   0  0  0  0  0  0  0  0  0  0  0  0
    8.2785    7.6125   17.7362 N   0  0  0  0  0  0  0  0  0  0  0  0
    6.4379   10.5492   11.3444 C   0  0  0  0  0  0  0  0  0  0  0  0
    6.9310    9.4955   10.4753 O   0  0  0  0  0  0  0  0  0  0  0  0
  1  2  1  1  0  0  0
  1  8  1  0  0  0  0
  1 36  1  0  0  0  0
  3  4  1  1  0  0  0
  3 10  1  0  0  0  0
  3 47  1  0  0  0  0
  5 11  1  0  0  0  0
  5 30  1  0  0  0  0
  5 38  1  6  0  0  0
  6 21  1  6  0  0  0
  6 42  1  0  0  0  0
  7 15  1  0  0  0  0
  7 44  1  0  0  0  0
  7 32  1  6  0  0  0
  8  9  1  1  0  0  0
  8 17  1  0  0  0  0
 11 12  1  1  0  0  0
 11 20  1  0  0  0  0
 13  6  1  0  0  0  0
 13 14  1  1  0  0  0
 15 16  1  6  0  0  0
 15 24  1  0  0  0  0
 17 26  1  0  0  0  0
 18 10  1  0  0  0  0
 18 19  1  6  0  0  0
 20 21  1  1  0  0  0
 20 29  1  0  0  0  0
 22 13  1  0  0  0  0
 22 23  1  1  0  0  0
 24 25  1  1  0  0  0
 24 33  1  0  0  0  0
 26 27  1  1  0  0  0
 26 35  1  0  0  0  0
 28  2  1  6  0  0  0
 28 18  1  0  0  0  0
 29 30  1  0  0  0  0
 29 39  1  6  0  0  0
 31 22  1  0  0  0  0
 31 32  1  6  0  0  0
 31 41  1  0  0  0  0
 33 34  1  6  0  0  0
 33 43  1  0  0  0  0
 35 36  1  0  0  0  0
 35 45  1  6  0  0  0
 37 28  1  0  0  0  0
 37 38  1  6  0  0  0
 39 40  1  0  0  0  0
 41 42  1  0  0  0  0
 41 49  1  1  0  0  0
 43 44  1  0  0  0  0
 43 51  1  6  0  0  0
 45 46  1  0  0  0  0
 47 37  1  0  0  0  0
 47 48  1  1  0  0  0
 49 50  1  0  0  0  0
 51 52  1  0  0  0  0
M  END
>  <CHROM.1>
-72.18300407,-129.13449449,-100.74607738,66.19479703,128.34731949,-95.95323873
171.84939798,80.62520425,-165.36100752,168.99233566,-29.14721711,-152.98392024
9.53919547,3.63865330,12.23369494,0.79237891,0.95341985,-2.02182953

>  <Name>
2esj_lig

>  <RI>
0

>  <Rbt.Current_Directory>
/home/itssahil/PROJECTS/Mol_Feturizer/New_Systems/rnas/2esj

>  <Rbt.Executable>
rbdock ($Id: //depot/dev/client3/rdock/2013.1/src/exe/rbdock.cxx#4 $)

>  <Rbt.Library>
libRbt.so (2013.1, Build901 2013/11/27)

>  <Rbt.Parameter_File>
/export/apps/rDock/src/rDock_2013.1_src/data/scripts/dock_solv.prm

>  <Rbt.Receptor>
prm/blind_docking_40.prm

>  <SCORE>
14.2398

>  <SCORE.INTER>
-6.29012

>  <SCORE.INTER.CONST>
1

>  <SCORE.INTER.POLAR>
-2.24423

>  <SCORE.INTER.ROT>
12

>  <SCORE.INTER.SOLV>
29.1994

>  <SCORE.INTER.VDW>
-18.0458

>  <SCORE.INTER.norm>
-0.120964

>  <SCORE.INTRA>
5.78599

>  <SCORE.INTRA.DIHEDRAL>
0.556805

>  <SCORE.INTRA.DIHEDRAL.0>
32.9766

>  <SCORE.INTRA.POLAR>
0

>  <SCORE.INTRA.POLAR.0>
0

>  <SCORE.INTRA.REPUL>
0

>  <SCORE.INTRA.REPUL.0>
0

>  <SCORE.INTRA.SOLV>
3.26482

>  <SCORE.INTRA.SOLV.lig_0>
-114.358

>  <SCORE.INTRA.VDW>
3.87518

>  <SCORE.INTRA.VDW.0>
-8.24257

>  <SCORE.INTRA.norm>
0.111269

>  <SCORE.RESTR>
14.7439

>  <SCORE.RESTR.CAVITY>
14.7439

>  <SCORE.RESTR.norm>
0.283537

>  <SCORE.SYSTEM>
0

>  <SCORE.SYSTEM.CONST>
0

>  <SCORE.SYSTEM.DIHEDRAL>
0

>  <SCORE.SYSTEM.SOLV>
0

>  <SCORE.SYSTEM.norm>
0

>  <SCORE.heavy>
52

>  <SCORE.norm>
0.273842

>  <RMSD>
17.726

$$$$
2esj_lig
 OpenBabel11021811423D
libRbt.so/2013.1/901 2013/11/27
 52 56  0  0  0  0  0  0  0  0999 V2000
    5.4782    9.9820   16.1216 C   0  0  2  0  0  0  0  0  0  0  0  0
    6.5566    9.3122   15.4408 O   0  0  0  0  0  0  0  0  0  0  0  0
    4.5494    8.1239   11.8566 C   0  0  2  0  0  0  0  0  0  0  0  0
    4.2176    7.7061   10.4844 N   0  0  0  0  0  0  0  0  0  0  0  0
    7.5973    5.8284   14.0498 C   0  0  1  0  0  0  0  0  0  0  0  0
    9.3769    2.8777   11.9013 C   0  0  1  0  0  0  0  0  0  0  0  0
   13.7963    0.2287   12.4975 C   0  0  1  0  0  0  0  0  0  0  0  0
    5.9105   10.1782   17.6048 C   0  0  2  0  0  0  0  0  0  0  0  0
    7.1698   10.9128   17.7216 N   0  0  0  0  0  0  0  0  0  0  0  0
    5.3783    9.4692   11.8356 C   0  0  0  0  0  0  0  0  0  0  0  0
    7.0492    4.8821   12.9810 C   0  0  2  0  0  0  0  0  0  0  0  0
    6.8039    3.5548   13.4942 O   0  0  0  0  0  0  0  0  0  0  0  0
   10.1955    2.1136   13.0359 C   0  0  2  0  0  0  0  0  0  0  0  0
   11.4110    2.8771   13.4240 N   0  0  0  0  0  0  0  0  0  0  0  0
   14.9692    0.9158   11.8078 C   0  0  1  0  0  0  0  0  0  0  0  0
   16.1037    0.9228   12.6973 O   0  0  0  0  0  0  0  0  0  0  0  0
    6.0285    8.8039   18.3372 C   0  0  0  0  0  0  0  0  0  0  0  0
    5.6740    9.9329   13.3186 C   0  0  2  0  0  0  0  0  0  0  0  0
    6.4551   11.1741   13.3271 N   0  0  0  0  0  0  0  0  0  0  0  0
    8.1482    4.9552   11.9607 C   0  0  2  0  0  0  0  0  0  0  0  0
    9.2518    4.1881   12.3703 O   0  0  0  0  0  0  0  0  0  0  0  0
   10.4636    0.6176   12.5614 C   0  0  1  0  0  0  0  0  0  0  0  0
    9.2217    0.0299   12.1601 O   0  0  0  0  0  0  0  0  0  0  0  0
   15.4082    0.2882   10.4903 C   0  0  1  0  0  0  0  0  0  0  0  0
   16.6451    0.9063   10.1183 O   0  0  0  0  0  0  0  0  0  0  0  0
    4.6850    8.0323   18.1786 C   0  0  2  0  0  0  0  0  0  0  0  0
    4.6954    6.8056   18.8867 O   0  0  0  0  0  0  0  0  0  0  0  0
    6.4223    8.8184   14.0950 C   0  0  2  0  0  0  0  0  0  0  0  0
    8.6670    6.4074   12.0016 C   0  0  2  0  0  0  0  0  0  0  0  0
    8.4271    6.7680   13.3527 O   0  0  0  0  0  0  0  0  0  0  0  0
   11.3950    0.5751   11.2809 C   0  0  2  0  0  0  0  0  0  0  0  0
   12.6311    1.1357   11.7260 O   0  0  0  0  0  0  0  0  0  0  0  0
   15.6008   -1.2275   10.5633 C   0  0  2  0  0  0  0  0  0  0  0  0
   15.6998   -1.7008    9.2102 O   0  0  0  0  0  0  0  0  0  0  0  0
    4.4219    7.8164   16.6676 C   0  0  2  0  0  0  0  0  0  0  0  0
    4.3081    9.1332   16.0559 O   0  0  0  0  0  0  0  0  0  0  0  0
    5.7151    7.4259   14.0551 C   0  0  2  0  0  0  0  0  0  0  0  0
    6.5361    6.4435   14.7460 O   0  0  0  0  0  0  0  0  0  0  0  0
    7.9684    7.4064   11.0798 C   0  0  0  0  0  0  0  0  0  0  0  0
    8.3737    8.7229   11.4826 O   0  0  0  0  0  0  0  0  0  0  0  0
   10.8116    1.5891   10.3157 C   0  0  1  0  0  0  0  0  0  0  0  0
   10.1196    2.8287   10.5788 O   0  0  0  0  0  0  0  0  0  0  0  0
   14.4995   -1.8925   11.3814 C   0  0  2  0  0  0  0  0  0  0  0  0
   13.8791   -1.2171   12.4863 O   0  0  0  0  0  0  0  0  0  0  0  0
    3.1304    7.1246   16.3921 C   0  0  0  0  0  0  0  0  0  0  0  0
    2.1032    7.9150   16.9402 O   0  0  0  0  0  0  0  0  0  0  0  0
    5.3864    7.0098   12.5816 C   0  0  1  0  0  0  0  0  0  0  0  0
    4.5659    5.8131   12.6459 O   0  0  0  0  0  0  0  0  0  0  0  0
   11.4853    1.6779    8.9117 C   0  0  0  0  0  0  0  0  0  0  0  0
   10.9190    0.7306    7.9285 N   0  0  0  0  0  0  0  0  0  0  0  0
   14.4410   -3.3976   11.6319 C   0  0  0  0  0  0  0  0  0  0  0  0
   14.3844   -4.1088   10.3671 O   0  0  0  0  0  0  0  0  0  0  0  0
  1  2  1  6  0  0  0
  1  8  1  0  0  0  0
  1 36  1  0  0  0  0
  3  4  1  6  0  0  0
  3 10  1  0  0  0  0
  3 47  1  0  0  0  0
  5 11  1  0  0  0  0
  5 30  1  0  0  0  0
  5 38  1  6  0  0  0
  6 21  1  1  0  0  0
  6 42  1  0  0  0  0
  7 15  1  0  0  0  0
  7 44  1  0  0  0  0
  7 32  1  6  0  0  0
  8  9  1  6  0  0  0
  8 17  1  0  0  0  0
 11 12  1  1  0  0  0
 11 20  1  0  0  0  0
 13  6  1  0  0  0  0
 13 14  1  6  0  0  0
 15 16  1  1  0  0  0
 15 24  1  0  0  0  0
 17 26  1  0  0  0  0
 18 10  1  0  0  0  0
 18 19  1  6  0  0  0
 20 21  1  1  0  0  0
 20 29  1  0  0  0  0
 22 13  1  0  0  0  0
 22 23  1  6  0  0  0
 24 25  1  1  0  0  0
 24 33  1  0  0  0  0
 26 27  1  1  0  0  0
 26 35  1  0  0  0  0
 28  2  1  1  0  0  0
 28 18  1  0  0  0  0
 29 30  1  0  0  0  0
 29 39  1  6  0  0  0
 31 22  1  0  0  0  0
 31 32  1  1  0  0  0
 31 41  1  0  0  0  0
 33 34  1  6  0  0  0
 33 43  1  0  0  0  0
 35 36  1  0  0  0  0
 35 45  1  1  0  0  0
 37 28  1  0  0  0  0
 37 38  1  6  0  0  0
 39 40  1  0  0  0  0
 41 42  1  0  0  0  0
 41 49  1  6  0  0  0
 43 44  1  0  0  0  0
 43 51  1  1  0  0  0
 45 46  1  0  0  0  0
 47 37  1  0  0  0  0
 47 48  1  1  0  0  0
 49 50  1  0  0  0  0
 51 52  1  0  0  0  0
M  END
>  <CHROM.1>
171.71203796,-69.78280382,-152.23862481,141.35792897,95.47959595,42.65942612
166.98820031,84.35406790,59.01941516,-82.93908513,87.61168408,-58.47893835
8.96904304,4.52560626,13.02052942,-2.88263387,0.82901395,-1.47017284

>  <Name>
2esj_lig

>  <RI>
0

>  <Rbt.Current_Directory>
/home/itssahil/PROJECTS/Mol_Feturizer/New_Systems/rnas/2esj

>  <Rbt.Executable>
rbdock ($Id: //depot/dev/client3/rdock/2013.1/src/exe/rbdock.cxx#4 $)

>  <Rbt.Library>
libRbt.so (2013.1, Build901 2013/11/27)

>  <Rbt.Parameter_File>
/export/apps/rDock/src/rDock_2013.1_src/data/scripts/dock_solv.prm

>  <Rbt.Receptor>
prm/blind_docking_40.prm

>  <SCORE>
11.5099

>  <SCORE.INTER>
-5.21613

>  <SCORE.INTER.CONST>
1

>  <SCORE.INTER.POLAR>
-1.97949

>  <SCORE.INTER.ROT>
12

>  <SCORE.INTER.SOLV>
24.0423

>  <SCORE.INTER.VDW>
-16.4932

>  <SCORE.INTER.norm>
-0.10031

>  <SCORE.INTRA>
0.38175

>  <SCORE.INTRA.DIHEDRAL>
-7.77039

>  <SCORE.INTRA.DIHEDRAL.0>
32.9766

>  <SCORE.INTRA.POLAR>
0

>  <SCORE.INTRA.POLAR.0>
0

>  <SCORE.INTRA.REPUL>
0

>  <SCORE.INTRA.REPUL.0>
0

>  <SCORE.INTRA.SOLV>
-0.801832

>  <SCORE.INTRA.SOLV.lig_0>
-114.358

>  <SCORE.INTRA.VDW>
4.66786

>  <SCORE.INTRA.VDW.0>
-8.24257

>  <SCORE.INTRA.norm>
0.00734135

>  <SCORE.RESTR>
16.3443

>  <SCORE.RESTR.CAVITY>
16.3443

>  <SCORE.RESTR.norm>
0.314314

>  <SCORE.SYSTEM>
0

>  <SCORE.SYSTEM.CONST>
0

>  <SCORE.SYSTEM.DIHEDRAL>
0

>  <SCORE.SYSTEM.SOLV>
0

>  <SCORE.SYSTEM.norm>
0

>  <SCORE.heavy>
52

>  <SCORE.norm>
0.221345

>  <RMSD>
17.777

$$$$
2esj_lig
 OpenBabel11021811423D
libRbt.so/2013.1/901 2013/11/27
 52 56  0  0  0  0  0  0  0  0999 V2000
    7.2866    8.3887   14.4602 C   0  0  2  0  0  0  0  0  0  0  0  0
    6.5713    8.6452   15.6839 O   0  0  0  0  0  0  0  0  0  0  0  0
    5.5550    5.6910   18.6042 C   0  0  2  0  0  0  0  0  0  0  0  0
    4.8621    4.6930   19.4356 N   0  0  0  0  0  0  0  0  0  0  0  0
    7.7168    5.2651   14.3535 C   0  0  1  0  0  0  0  0  0  0  0  0
   10.7606    3.1796   12.2434 C   0  0  1  0  0  0  0  0  0  0  0  0
   10.8043   -1.8696   10.7200 C   0  0  1  0  0  0  0  0  0  0  0  0
    7.9577    9.7236   14.0211 C   0  0  2  0  0  0  0  0  0  0  0  0
    8.8303   10.2718   15.0589 N   0  0  0  0  0  0  0  0  0  0  0  0
    4.7746    7.0650   18.6309 C   0  0  0  0  0  0  0  0  0  0  0  0
    7.4242    4.2505   13.2473 C   0  0  2  0  0  0  0  0  0  0  0  0
    7.1886    2.9235   13.7658 O   0  0  0  0  0  0  0  0  0  0  0  0
   10.0100    2.2831   11.1598 C   0  0  2  0  0  0  0  0  0  0  0  0
    9.0319    1.3692   11.8070 N   0  0  0  0  0  0  0  0  0  0  0  0
   12.1815   -2.4364   11.0450 C   0  0  1  0  0  0  0  0  0  0  0  0
   12.0915   -3.8718   11.1442 O   0  0  0  0  0  0  0  0  0  0  0  0
    6.8821   10.7822   13.6192 C   0  0  0  0  0  0  0  0  0  0  0  0
    5.5645    8.1401   17.7814 C   0  0  2  0  0  0  0  0  0  0  0  0
    4.8533    9.4226   17.7788 N   0  0  0  0  0  0  0  0  0  0  0  0
    8.6719    4.3774   12.4220 C   0  0  2  0  0  0  0  0  0  0  0  0
    9.7412    3.7074   13.0402 O   0  0  0  0  0  0  0  0  0  0  0  0
   11.0948    1.5661   10.2411 C   0  0  1  0  0  0  0  0  0  0  0  0
   12.0020    2.5533    9.7400 O   0  0  0  0  0  0  0  0  0  0  0  0
   13.2769   -2.1020   10.0397 C   0  0  1  0  0  0  0  0  0  0  0  0
   14.4173   -2.9003   10.3750 O   0  0  0  0  0  0  0  0  0  0  0  0
    5.9525   10.1670   12.5315 C   0  0  2  0  0  0  0  0  0  0  0  0
    4.9977   11.1030   12.0640 O   0  0  0  0  0  0  0  0  0  0  0  0
    5.7736    7.6355   16.3299 C   0  0  2  0  0  0  0  0  0  0  0  0
    9.0742    5.8651   12.4901 C   0  0  2  0  0  0  0  0  0  0  0  0
    8.5851    6.2445   13.7668 O   0  0  0  0  0  0  0  0  0  0  0  0
   11.9794    0.5509   11.0755 C   0  0  2  0  0  0  0  0  0  0  0  0
   11.0503   -0.4345   11.5295 O   0  0  0  0  0  0  0  0  0  0  0  0
   12.8817   -2.3679    8.5860 C   0  0  2  0  0  0  0  0  0  0  0  0
   13.8669   -1.7240    7.7618 O   0  0  0  0  0  0  0  0  0  0  0  0
    5.2736    8.9079   13.1254 C   0  0  2  0  0  0  0  0  0  0  0  0
    6.3305    7.9638   13.4605 O   0  0  0  0  0  0  0  0  0  0  0  0
    6.4344    6.2230   16.2329 C   0  0  2  0  0  0  0  0  0  0  0  0
    6.5131    5.8179   14.8379 O   0  0  0  0  0  0  0  0  0  0  0  0
    8.4736    6.7823   11.4253 C   0  0  0  0  0  0  0  0  0  0  0  0
    7.0801    6.4587   11.3120 O   0  0  0  0  0  0  0  0  0  0  0  0
   12.4107    1.3074   12.3171 C   0  0  1  0  0  0  0  0  0  0  0  0
   11.7257    2.3392   13.0592 O   0  0  0  0  0  0  0  0  0  0  0  0
   11.4480   -1.9306    8.3073 C   0  0  2  0  0  0  0  0  0  0  0  0
   10.4369   -1.9946    9.3248 O   0  0  0  0  0  0  0  0  0  0  0  0
    4.3912    8.2050   12.1508 C   0  0  0  0  0  0  0  0  0  0  0  0
    3.9438    9.1615   11.2207 O   0  0  0  0  0  0  0  0  0  0  0  0
    5.6668    5.1865   17.1209 C   0  0  1  0  0  0  0  0  0  0  0  0
    6.4504    3.9637   17.1285 O   0  0  0  0  0  0  0  0  0  0  0  0
   13.3905    0.5645   13.2767 C   0  0  0  0  0  0  0  0  0  0  0  0
   12.9272   -0.7865   13.6571 N   0  0  0  0  0  0  0  0  0  0  0  0
   10.7804   -2.0849    6.9426 C   0  0  0  0  0  0  0  0  0  0  0  0
   10.1700   -0.8288    6.5446 O   0  0  0  0  0  0  0  0  0  0  0  0
  1  2  1  1  0  0  0
  1  8  1  0  0  0  0
  1 36  1  0  0  0  0
  3  4  1  1  0  0  0
  3 10  1  0  0  0  0
  3 47  1  0  0  0  0
  5 11  1  0  0  0  0
  5 30  1  0  0  0  0
  5 38  1  6  0  0  0
  6 21  1  1  0  0  0
  6 42  1  0  0  0  0
  7 15  1  0  0  0  0
  7 44  1  0  0  0  0
  7 32  1  6  0  0  0
  8  9  1  1  0  0  0
  8 17  1  0  0  0  0
 11 12  1  1  0  0  0
 11 20  1  0  0  0  0
 13  6  1  0  0  0  0
 13 14  1  1  0  0  0
 15 16  1  6  0  0  0
 15 24  1  0  0  0  0
 17 26  1  0  0  0  0
 18 10  1  0  0  0  0
 18 19  1  6  0  0  0
 20 21  1  1  0  0  0
 20 29  1  0  0  0  0
 22 13  1  0  0  0  0
 22 23  1  1  0  0  0
 24 25  1  1  0  0  0
 24 33  1  0  0  0  0
 26 27  1  1  0  0  0
 26 35  1  0  0  0  0
 28  2  1  6  0  0  0
 28 18  1  0  0  0  0
 29 30  1  0  0  0  0
 29 39  1  6  0  0  0
 31 22  1  0  0  0  0
 31 32  1  1  0  0  0
 31 41  1  0  0  0  0
 33 34  1  6  0  0  0
 33 43  1  0  0  0  0
 35 36  1  0  0  0  0
 35 45  1  6  0  0  0
 37 28  1  0  0  0  0
 37 38  1  6  0  0  0
 39 40  1  0  0  0  0
 41 42  1  0  0  0  0
 41 49  1  1  0  0  0
 43 44  1  0  0  0  0
 43 51  1  6  0  0  0
 45 46  1  0  0  0  0
 47 37  1  0  0  0  0
 47 48  1  1  0  0  0
 49 50  1  0  0  0  0
 51 52  1  0  0  0  0
M  END
>  <CHROM.1>
176.64276389,148.60366528,-52.61365588,68.52907818,151.21113088,162.42911747
44.54374510,95.72284408,-26.68121733,134.18778102,-51.58093379,-130.08549003
8.80818695,3.88431636,12.80051912,3.08717166,-1.05264012,2.00519261

>  <Name>
2esj_lig

>  <RI>
224

>  <Rbt.Current_Directory>
/home/itssahil/PROJECTS/Mol_Feturizer/New_Systems/rnas/2esj

>  <Rbt.Executable>
rbdock ($Id: //depot/dev/client3/rdock/2013.1/src/exe/rbdock.cxx#4 $)

>  <Rbt.Library>
libRbt.so (2013.1, Build901 2013/11/27)

>  <Rbt.Parameter_File>
/export/apps/rDock/src/rDock_2013.1_src/data/scripts/dock_solv.prm

>  <Rbt.Receptor>
prm/blind_docking_100.prm

>  <SCORE>
18.4991

>  <SCORE.INTER>
-0.341

>  <SCORE.INTER.CONST>
1

>  <SCORE.INTER.POLAR>
-1.47145

>  <SCORE.INTER.ROT>
12

>  <SCORE.INTER.SOLV>
25.0756

>  <SCORE.INTER.VDW>
-15.281

>  <SCORE.INTER.norm>
-0.0065577

>  <SCORE.INTRA>
5.01017

>  <SCORE.INTRA.DIHEDRAL>
-2.9609

>  <SCORE.INTRA.DIHEDRAL.0>
32.9766

>  <SCORE.INTRA.POLAR>
0

>  <SCORE.INTRA.POLAR.0>
0

>  <SCORE.INTRA.REPUL>
0

>  <SCORE.INTRA.REPUL.0>
0

>  <SCORE.INTRA.SOLV>
2.08774

>  <SCORE.INTRA.SOLV.lig_0>
-114.358

>  <SCORE.INTRA.VDW>
5.44675

>  <SCORE.INTRA.VDW.0>
-8.24257

>  <SCORE.INTRA.norm>
0.0963493

>  <SCORE.RESTR>
13.83

>  <SCORE.RESTR.CAVITY>
13.83

>  <SCORE.RESTR.norm>
0.265961

>  <SCORE.SYSTEM>
0

>  <SCORE.SYSTEM.CONST>
0

>  <SCORE.SYSTEM.DIHEDRAL>
0

>  <SCORE.SYSTEM.SOLV>
0

>  <SCORE.SYSTEM.norm>
0

>  <SCORE.heavy>
52

>  <SCORE.norm>
0.355753

>  <RMSD>
17.795

$$$$
2esj_lig
 OpenBabel11021811423D
libRbt.so/2013.1/901 2013/11/27
 52 56  0  0  0  0  0  0  0  0999 V2000
    6.2058    6.9869   16.5872 C   0  0  2  0  0  0  0  0  0  0  0  0
    5.8133    7.7137   15.4071 O   0  0  0  0  0  0  0  0  0  0  0  0
    7.1374   10.5702   12.5132 C   0  0  2  0  0  0  0  0  0  0  0  0
    7.7995   11.6841   11.8146 N   0  0  0  0  0  0  0  0  0  0  0  0
    8.9288    6.3206   13.2454 C   0  0  1  0  0  0  0  0  0  0  0  0
   10.2319    2.8644   12.5618 C   0  0  1  0  0  0  0  0  0  0  0  0
   11.2269   -1.9218   10.3880 C   0  0  1  0  0  0  0  0  0  0  0  0
    4.9054    6.5792   17.3407 C   0  0  2  0  0  0  0  0  0  0  0  0
    3.9978    5.8018   16.4974 N   0  0  0  0  0  0  0  0  0  0  0  0
    6.3657   11.1014   13.7859 C   0  0  0  0  0  0  0  0  0  0  0  0
    8.3535    4.9479   13.5961 C   0  0  2  0  0  0  0  0  0  0  0  0
    9.1600    4.2442   14.5656 O   0  0  0  0  0  0  0  0  0  0  0  0
   11.4783    2.4445   11.6610 C   0  0  2  0  0  0  0  0  0  0  0  0
   11.0692    2.2342   10.2470 N   0  0  0  0  0  0  0  0  0  0  0  0
   12.0775   -2.4231   11.5493 C   0  0  1  0  0  0  0  0  0  0  0  0
   11.8272   -3.8290   11.7475 O   0  0  0  0  0  0  0  0  0  0  0  0
    4.1656    7.8374   17.8963 C   0  0  0  0  0  0  0  0  0  0  0  0
    5.6129    9.9011   14.4888 C   0  0  2  0  0  0  0  0  0  0  0  0
    4.8986   10.3656   15.6825 N   0  0  0  0  0  0  0  0  0  0  0  0
    8.3239    4.3082   12.2381 C   0  0  2  0  0  0  0  0  0  0  0  0
    9.6139    3.9012   11.8576 O   0  0  0  0  0  0  0  0  0  0  0  0
   12.2129    1.2059   12.3401 C   0  0  1  0  0  0  0  0  0  0  0  0
   12.4882    1.5244   13.7081 O   0  0  0  0  0  0  0  0  0  0  0  0
   13.5804   -2.2312   11.3858 C   0  0  1  0  0  0  0  0  0  0  0  0
   14.2177   -2.9619   12.4395 O   0  0  0  0  0  0  0  0  0  0  0  0
    5.1583    8.6595   18.7706 C   0  0  2  0  0  0  0  0  0  0  0  0
    4.5297    9.7777   19.3711 O   0  0  0  0  0  0  0  0  0  0  0  0
    6.6152    8.7780   14.8619 C   0  0  2  0  0  0  0  0  0  0  0  0
    7.9811    5.4385   11.2459 C   0  0  2  0  0  0  0  0  0  0  0  0
    8.5383    6.5740   11.8887 O   0  0  0  0  0  0  0  0  0  0  0  0
   11.2788   -0.0730   12.3743 C   0  0  2  0  0  0  0  0  0  0  0  0
   11.0537   -0.3812   10.9978 O   0  0  0  0  0  0  0  0  0  0  0  0
   14.1202   -2.7115   10.0375 C   0  0  2  0  0  0  0  0  0  0  0  0
   15.4523   -2.1878    9.9113 O   0  0  0  0  0  0  0  0  0  0  0  0
    6.3531    9.0858   17.8820 C   0  0  2  0  0  0  0  0  0  0  0  0
    7.0011    7.8681   17.4149 O   0  0  0  0  0  0  0  0  0  0  0  0
    7.4987    8.2876   13.6703 C   0  0  2  0  0  0  0  0  0  0  0  0
    8.4489    7.2941   14.1461 O   0  0  0  0  0  0  0  0  0  0  0  0
    6.4962    5.6850   10.9811 C   0  0  0  0  0  0  0  0  0  0  0  0
    6.3485    7.0589   10.5934 O   0  0  0  0  0  0  0  0  0  0  0  0
    9.9434    0.4088   12.9079 C   0  0  1  0  0  0  0  0  0  0  0  0
    9.2925    1.6889   12.7592 O   0  0  0  0  0  0  0  0  0  0  0  0
   13.1861   -2.3320    8.8938 C   0  0  2  0  0  0  0  0  0  0  0  0
   11.7651   -2.2539    9.0852 O   0  0  0  0  0  0  0  0  0  0  0  0
    7.3968    9.8433   18.6299 C   0  0  0  0  0  0  0  0  0  0  0  0
    7.0140    9.8642   19.9838 O   0  0  0  0  0  0  0  0  0  0  0  0
    8.1941    9.4963   12.9577 C   0  0  1  0  0  0  0  0  0  0  0  0
    8.8300    8.9801   11.7584 O   0  0  0  0  0  0  0  0  0  0  0  0
    8.8555   -0.6839   13.1434 C   0  0  0  0  0  0  0  0  0  0  0  0
    9.3307   -1.8173   13.9645 N   0  0  0  0  0  0  0  0  0  0  0  0
   13.4652   -2.6911    7.4361 C   0  0  0  0  0  0  0  0  0  0  0  0
   14.8545   -2.4160    7.1151 O   0  0  0  0  0  0  0  0  0  0  0  0
  1  2  1  6  0  0  0
  1  8  1  0  0  0  0
  1 36  1  0  0  0  0
  3  4  1  1  0  0  0
  3 10  1  0  0  0  0
  3 47  1  0  0  0  0
  5 11  1  0  0  0  0
  5 30  1  0  0  0  0
  5 38  1  1  0  0  0
  6 21  1  6  0  0  0
  6 42  1  0  0  0  0
  7 15  1  0  0  0  0
  7 44  1  0  0  0  0
  7 32  1  6  0  0  0
  8  9  1  6  0  0  0
  8 17  1  0  0  0  0
 11 12  1  1  0  0  0
 11 20  1  0  0  0  0
 13  6  1  0  0  0  0
 13 14  1  6  0  0  0
 15 16  1  6  0  0  0
 15 24  1  0  0  0  0
 17 26  1  0  0  0  0
 18 10  1  0  0  0  0
 18 19  1  1  0  0  0
 20 21  1  6  0  0  0
 20 29  1  0  0  0  0
 22 13  1  0  0  0  0
 22 23  1  1  0  0  0
 24 25  1  1  0  0  0
 24 33  1  0  0  0  0
 26 27  1  6  0  0  0
 26 35  1  0  0  0  0
 28  2  1  6  0  0  0
 28 18  1  0  0  0  0
 29 30  1  0  0  0  0
 29 39  1  1  0  0  0
 31 22  1  0  0  0  0
 31 32  1  6  0  0  0
 31 41  1  0  0  0  0
 33 34  1  6  0  0  0
 33 43  1  0  0  0  0
 35 36  1  0  0  0  0
 35 45  1  1  0  0  0
 37 28  1  0  0  0  0
 37 38  1  1  0  0  0
 39 40  1  0  0  0  0
 41 42  1  0  0  0  0
 41 49  1  6  0  0  0
 43 44  1  0  0  0  0
 43 51  1  6  0  0  0
 45 46  1  0  0  0  0
 47 37  1  0  0  0  0
 47 48  1  6  0  0  0
 49 50  1  0  0  0  0
 51 52  1  0  0  0  0
M  END
>  <CHROM.1>
147.57926028,-109.57734959,166.68913782,-18.94805157,67.16259119,-136.98391902
153.47875732,131.79912025,4.12599668,152.94046963,51.86450129,-44.75508571
9.08417432,4.12995284,13.22893990,2.86479681,1.05647301,-0.78295729

>  <Name>
2esj_lig

>  <RI>
0

>  <Rbt.Current_Directory>
/home/itssahil/PROJECTS/Mol_Feturizer/New_Systems/rnas/2esj

>  <Rbt.Executable>
rbdock ($Id: //depot/dev/client3/rdock/2013.1/src/exe/rbdock.cxx#4 $)

>  <Rbt.Library>
libRbt.so (2013.1, Build901 2013/11/27)

>  <Rbt.Parameter_File>
/export/apps/rDock/src/rDock_2013.1_src/data/scripts/dock_solv.prm

>  <Rbt.Receptor>
prm/blind_docking_60.prm

>  <SCORE>
17.599

>  <SCORE.INTER>
-11.8864

>  <SCORE.INTER.CONST>
1

>  <SCORE.INTER.POLAR>
-1.57067

>  <SCORE.INTER.ROT>
12

>  <SCORE.INTER.SOLV>
25.0492

>  <SCORE.INTER.VDW>
-22.6385

>  <SCORE.INTER.norm>
-0.228585

>  <SCORE.INTRA>
16.1742

>  <SCORE.INTRA.DIHEDRAL>
11.9245

>  <SCORE.INTRA.DIHEDRAL.0>
32.9766

>  <SCORE.INTRA.POLAR>
0

>  <SCORE.INTRA.POLAR.0>
0

>  <SCORE.INTRA.REPUL>
0

>  <SCORE.INTRA.REPUL.0>
0

>  <SCORE.INTRA.SOLV>
2.08058

>  <SCORE.INTRA.SOLV.lig_0>
-114.358

>  <SCORE.INTRA.VDW>
9.1716

>  <SCORE.INTRA.VDW.0>
-8.24257

>  <SCORE.INTRA.norm>
0.311041

>  <SCORE.RESTR>
13.3112

>  <SCORE.RESTR.CAVITY>
13.3112

>  <SCORE.RESTR.norm>
0.255985

>  <SCORE.SYSTEM>
0

>  <SCORE.SYSTEM.CONST>
0

>  <SCORE.SYSTEM.DIHEDRAL>
0

>  <SCORE.SYSTEM.SOLV>
0

>  <SCORE.SYSTEM.norm>
0

>  <SCORE.heavy>
52

>  <SCORE.norm>
0.338441

>  <RMSD>
17.825

$$$$
2esj_lig
 OpenBabel11021811423D
libRbt.so/2013.1/901 2013/11/27
 52 56  0  0  0  0  0  0  0  0999 V2000
   12.3471   -2.7474   10.1167 C   0  0  2  0  0  0  0  0  0  0  0  0
   12.3428   -1.4752   10.7921 O   0  0  0  0  0  0  0  0  0  0  0  0
    9.6420   -2.2654   14.0122 C   0  0  2  0  0  0  0  0  0  0  0  0
    8.7351   -2.1559   15.1667 N   0  0  0  0  0  0  0  0  0  0  0  0
    8.9268    0.3365   10.5282 C   0  0  1  0  0  0  0  0  0  0  0  0
    8.1357    4.4411   11.2206 C   0  0  1  0  0  0  0  0  0  0  0  0
    5.7609    6.9696   15.2580 C   0  0  1  0  0  0  0  0  0  0  0  0
   13.8295   -3.1058    9.8018 C   0  0  2  0  0  0  0  0  0  0  0  0
   14.6620   -3.1232   11.0042 N   0  0  0  0  0  0  0  0  0  0  0  0
   11.0489   -1.6336   14.3573 C   0  0  0  0  0  0  0  0  0  0  0  0
    9.9659    1.2681   11.1534 C   0  0  2  0  0  0  0  0  0  0  0  0
    9.9488    1.2224   12.5966 O   0  0  0  0  0  0  0  0  0  0  0  0
    8.6136    4.9678   12.6473 C   0  0  2  0  0  0  0  0  0  0  0  0
    8.0605    4.1255   13.7407 N   0  0  0  0  0  0  0  0  0  0  0  0
    4.5297    7.5905   14.6085 C   0  0  1  0  0  0  0  0  0  0  0  0
    3.5116    7.7830   15.6110 O   0  0  0  0  0  0  0  0  0  0  0  0
   14.4316   -2.1162    8.7543 C   0  0  0  0  0  0  0  0  0  0  0  0
   12.0270   -1.8135   13.1275 C   0  0  2  0  0  0  0  0  0  0  0  0
   13.3376   -1.2226   13.4172 N   0  0  0  0  0  0  0  0  0  0  0  0
    9.5375    2.5850   10.5733 C   0  0  2  0  0  0  0  0  0  0  0  0
    8.3985    3.0688   11.2387 O   0  0  0  0  0  0  0  0  0  0  0  0
    8.2835    6.5212   12.7621 C   0  0  1  0  0  0  0  0  0  0  0  0
    8.8187    7.1937   11.6175 O   0  0  0  0  0  0  0  0  0  0  0  0
    4.7640    8.9263   13.9134 C   0  0  1  0  0  0  0  0  0  0  0  0
    3.4785    9.4609   13.5791 O   0  0  0  0  0  0  0  0  0  0  0  0
   13.5158   -2.0982    7.4947 C   0  0  2  0  0  0  0  0  0  0  0  0
   14.0458   -1.2766    6.4699 O   0  0  0  0  0  0  0  0  0  0  0  0
   11.4165   -1.1750   11.8528 C   0  0  2  0  0  0  0  0  0  0  0  0
    9.0342    2.2754    9.1483 C   0  0  2  0  0  0  0  0  0  0  0  0
    8.5441    0.9515    9.2901 O   0  0  0  0  0  0  0  0  0  0  0  0
    6.7219    6.7848   12.7265 C   0  0  2  0  0  0  0  0  0  0  0  0
    6.2279    6.1309   13.8965 O   0  0  0  0  0  0  0  0  0  0  0  0
    5.5281    9.9399   14.7671 C   0  0  2  0  0  0  0  0  0  0  0  0
    5.9384   10.9999   13.8881 O   0  0  0  0  0  0  0  0  0  0  0  0
   12.1028   -1.6325    7.9256 C   0  0  2  0  0  0  0  0  0  0  0  0
   11.6004   -2.6059    8.8853 O   0  0  0  0  0  0  0  0  0  0  0  0
    9.9721   -1.6683   11.5194 C   0  0  2  0  0  0  0  0  0  0  0  0
    9.4705   -0.9534   10.3560 O   0  0  0  0  0  0  0  0  0  0  0  0
   10.0796    2.3112    8.0340 C   0  0  0  0  0  0  0  0  0  0  0  0
    9.5442    1.5885    6.9156 O   0  0  0  0  0  0  0  0  0  0  0  0
    6.1963    5.9772   11.5554 C   0  0  1  0  0  0  0  0  0  0  0  0
    6.6590    4.7221   11.0122 O   0  0  0  0  0  0  0  0  0  0  0  0
    6.6714    9.2797   15.5298 C   0  0  2  0  0  0  0  0  0  0  0  0
    6.5802    7.9197   15.9814 O   0  0  0  0  0  0  0  0  0  0  0  0
   11.1228   -1.6225    6.8022 C   0  0  0  0  0  0  0  0  0  0  0  0
    9.9668   -0.9613    7.2567 O   0  0  0  0  0  0  0  0  0  0  0  0
    9.0339   -1.5284   12.7655 C   0  0  1  0  0  0  0  0  0  0  0  0
    7.7799   -2.1821   12.4347 O   0  0  0  0  0  0  0  0  0  0  0  0
    4.6803    6.1391   11.2258 C   0  0  0  0  0  0  0  0  0  0  0  0
    4.4016    7.2297   10.2679 N   0  0  0  0  0  0  0  0  0  0  0  0
    7.5984   10.0471   16.4696 C   0  0  0  0  0  0  0  0  0  0  0  0
    8.9793    9.8728   16.0552 O   0  0  0  0  0  0  0  0  0  0  0  0
  1  2  1  6  0  0  0
  1  8  1  0  0  0  0
  1 36  1  0  0  0  0
  3  4  1  1  0  0  0
  3 10  1  0  0  0  0
  3 47  1  0  0  0  0
  5 11  1  0  0  0  0
  5 30  1  0  0  0  0
  5 38  1  6  0  0  0
  6 21  1  1  0  0  0
  6 42  1  0  0  0  0
  7 15  1  0  0  0  0
  7 44  1  0  0  0  0
  7 32  1  6  0  0  0
  8  9  1  1  0  0  0
  8 17  1  0  0  0  0
 11 12  1  1  0  0  0
 11 20  1  0  0  0  0
 13  6  1  0  0  0  0
 13 14  1  1  0  0  0
 15 16  1  1  0  0  0
 15 24  1  0  0  0  0
 17 26  1  0  0  0  0
 18 10  1  0  0  0  0
 18 19  1  1  0  0  0
 20 21  1  1  0  0  0
 20 29  1  0  0  0  0
 22 13  1  0  0  0  0
 22 23  1  6  0  0  0
 24 25  1  1  0  0  0
 24 33  1  0  0  0  0
 26 27  1  6  0  0  0
 26 35  1  0  0  0  0
 28  2  1  6  0  0  0
 28 18  1  0  0  0  0
 29 30  1  0  0  0  0
 29 39  1  6  0  0  0
 31 22  1  0  0  0  0
 31 32  1  1  0  0  0
 31 41  1  0  0  0  0
 33 34  1  6  0  0  0
 33 43  1  0  0  0  0
 35 36  1  0  0  0  0
 35 45  1  6  0  0  0
 37 28  1  0  0  0  0
 37 38  1  6  0  0  0
 39 40  1  0  0  0  0
 41 42  1  0  0  0  0
 41 49  1  1  0  0  0
 43 44  1  0  0  0  0
 43 51  1  1  0  0  0
 45 46  1  0  0  0  0
 47 37  1  0  0  0  0
 47 48  1  6  0  0  0
 49 50  1  0  0  0  0
 51 52  1  0  0  0  0
M  END
>  <CHROM.1>
-143.50221101,58.48117876,-101.62296873,69.05704490,156.30830445,81.47491228
161.25918560,104.85286585,-169.53210554,-81.60106319,89.75176849,-123.60381393
8.94601924,2.71609664,11.75504110,-0.25825624,-1.05417671,1.67885325

>  <Name>
2esj_lig

>  <RI>
0

>  <Rbt.Current_Directory>
/home/itssahil/PROJECTS/Mol_Feturizer/New_Systems/rnas/2esj

>  <Rbt.Executable>
rbdock ($Id: //depot/dev/client3/rdock/2013.1/src/exe/rbdock.cxx#4 $)

>  <Rbt.Library>
libRbt.so (2013.1, Build901 2013/11/27)

>  <Rbt.Parameter_File>
/export/apps/rDock/src/rDock_2013.1_src/data/scripts/dock_solv.prm

>  <Rbt.Receptor>
prm/blind_docking_40.prm

>  <SCORE>
32.6303

>  <SCORE.INTER>
5.80941

>  <SCORE.INTER.CONST>
1

>  <SCORE.INTER.POLAR>
-1.55327

>  <SCORE.INTER.ROT>
12

>  <SCORE.INTER.SOLV>
28.2892

>  <SCORE.INTER.VDW>
-11.9792

>  <SCORE.INTER.norm>
0.11172

>  <SCORE.INTRA>
1.14302

>  <SCORE.INTRA.DIHEDRAL>
-1.92253

>  <SCORE.INTRA.DIHEDRAL.0>
32.9766

>  <SCORE.INTRA.POLAR>
0

>  <SCORE.INTRA.POLAR.0>
0

>  <SCORE.INTRA.REPUL>
0

>  <SCORE.INTRA.REPUL.0>
0

>  <SCORE.INTRA.SOLV>
0.543921

>  <SCORE.INTRA.SOLV.lig_0>
-114.358

>  <SCORE.INTRA.VDW>
1.83232

>  <SCORE.INTRA.VDW.0>
-8.24257

>  <SCORE.INTRA.norm>
0.0219811

>  <SCORE.RESTR>
25.6778

>  <SCORE.RESTR.CAVITY>
25.6778

>  <SCORE.RESTR.norm>
0.493804

>  <SCORE.SYSTEM>
0

>  <SCORE.SYSTEM.CONST>
0

>  <SCORE.SYSTEM.DIHEDRAL>
0

>  <SCORE.SYSTEM.SOLV>
0

>  <SCORE.SYSTEM.norm>
0

>  <SCORE.heavy>
52

>  <SCORE.norm>
0.627505

>  <RMSD>
17.840

$$$$
2esj_lig
 OpenBabel11021811423D
libRbt.so/2013.1/901 2013/11/27
 52 56  0  0  0  0  0  0  0  0999 V2000
   13.4237    0.7512   10.7887 C   0  0  2  0  0  0  0  0  0  0  0  0
   12.7727   -0.5218   10.6133 O   0  0  0  0  0  0  0  0  0  0  0  0
    9.6945   -2.4932   12.8327 C   0  0  2  0  0  0  0  0  0  0  0  0
    8.9313   -3.2741   13.8201 N   0  0  0  0  0  0  0  0  0  0  0  0
   11.1296    2.0461   12.9846 C   0  0  1  0  0  0  0  0  0  0  0  0
    9.1710    5.6394   11.8719 C   0  0  1  0  0  0  0  0  0  0  0  0
    6.1489    7.3931   15.4501 C   0  0  1  0  0  0  0  0  0  0  0  0
   13.8432    1.2612    9.3784 C   0  0  2  0  0  0  0  0  0  0  0  0
   12.7070    1.3508    8.4618 N   0  0  0  0  0  0  0  0  0  0  0  0
   10.8407   -3.3783   12.2000 C   0  0  0  0  0  0  0  0  0  0  0  0
   10.9663    2.4699   11.5244 C   0  0  2  0  0  0  0  0  0  0  0  0
   12.1190    3.1827   11.0258 O   0  0  0  0  0  0  0  0  0  0  0  0
    9.1260    6.5035   13.2107 C   0  0  2  0  0  0  0  0  0  0  0  0
    8.8360    5.6463   14.3906 N   0  0  0  0  0  0  0  0  0  0  0  0
    4.7997    6.7779   15.8032 C   0  0  1  0  0  0  0  0  0  0  0  0
    4.6843    6.6806   17.2370 O   0  0  0  0  0  0  0  0  0  0  0  0
   14.9506    0.3484    8.7624 C   0  0  0  0  0  0  0  0  0  0  0  0
   11.6107   -2.5418   11.1005 C   0  0  2  0  0  0  0  0  0  0  0  0
   12.6902   -3.3372   10.5064 N   0  0  0  0  0  0  0  0  0  0  0  0
    9.7201    3.3020   11.6184 C   0  0  2  0  0  0  0  0  0  0  0  0
   10.0099    4.5620   12.1687 O   0  0  0  0  0  0  0  0  0  0  0  0
    8.1257    7.7249   13.0044 C   0  0  1  0  0  0  0  0  0  0  0  0
    8.4839    8.4186   11.8047 O   0  0  0  0  0  0  0  0  0  0  0  0
    3.5832    7.5343   15.2835 C   0  0  1  0  0  0  0  0  0  0  0  0
    2.4287    6.9557   15.9022 O   0  0  0  0  0  0  0  0  0  0  0  0
   16.1376    0.2505    9.7659 C   0  0  2  0  0  0  0  0  0  0  0  0
   17.2140   -0.5027    9.2366 O   0  0  0  0  0  0  0  0  0  0  0  0
   12.1773   -1.2347   11.7134 C   0  0  2  0  0  0  0  0  0  0  0  0
    8.8377    2.6224   12.6857 C   0  0  2  0  0  0  0  0  0  0  0  0
    9.8070    2.0360   13.5397 O   0  0  0  0  0  0  0  0  0  0  0  0
    6.6388    7.2242   12.7860 C   0  0  2  0  0  0  0  0  0  0  0  0
    6.3045    6.5692   14.0106 O   0  0  0  0  0  0  0  0  0  0  0  0
    3.6179    9.0349   15.5785 C   0  0  2  0  0  0  0  0  0  0  0  0
    2.5938    9.6417   14.7736 O   0  0  0  0  0  0  0  0  0  0  0  0
   15.6096   -0.3605   11.0877 C   0  0  2  0  0  0  0  0  0  0  0  0
   14.5975    0.5472   11.6099 O   0  0  0  0  0  0  0  0  0  0  0  0
   11.1155   -0.3666   12.4616 C   0  0  2  0  0  0  0  0  0  0  0  0
   11.7660    0.7897   13.0586 O   0  0  0  0  0  0  0  0  0  0  0  0
    7.8801    1.5398   12.1889 C   0  0  0  0  0  0  0  0  0  0  0  0
    7.1723    1.0321   13.3295 O   0  0  0  0  0  0  0  0  0  0  0  0
    6.7252    6.1241   11.7455 C   0  0  1  0  0  0  0  0  0  0  0  0
    7.7792    5.1716   11.4883 O   0  0  0  0  0  0  0  0  0  0  0  0
    5.0112    9.6152   15.3629 C   0  0  2  0  0  0  0  0  0  0  0  0
    6.1910    8.8326   15.6028 O   0  0  0  0  0  0  0  0  0  0  0  0
   16.6558   -0.4584   12.1452 C   0  0  0  0  0  0  0  0  0  0  0  0
   17.0400    0.8529   12.4813 O   0  0  0  0  0  0  0  0  0  0  0  0
   10.3307   -1.2262   13.5091 C   0  0  1  0  0  0  0  0  0  0  0  0
    9.2454   -0.4034   14.0135 O   0  0  0  0  0  0  0  0  0  0  0  0
    5.3715    5.5184   11.2623 C   0  0  0  0  0  0  0  0  0  0  0  0
    4.6637    6.3706   10.2838 N   0  0  0  0  0  0  0  0  0  0  0  0
    5.3449   11.0876   15.5916 C   0  0  0  0  0  0  0  0  0  0  0  0
    5.5009   11.3457   17.0121 O   0  0  0  0  0  0  0  0  0  0  0  0
  1  2  1  6  0  0  0
  1  8  1  0  0  0  0
  1 36  1  0  0  0  0
  3  4  1  1  0  0  0
  3 10  1  0  0  0  0
  3 47  1  0  0  0  0
  5 11  1  0  0  0  0
  5 30  1  0  0  0  0
  5 38  1  6  0  0  0
  6 21  1  1  0  0  0
  6 42  1  0  0  0  0
  7 15  1  0  0  0  0
  7 44  1  0  0  0  0
  7 32  1  6  0  0  0
  8  9  1  6  0  0  0
  8 17  1  0  0  0  0
 11 12  1  1  0  0  0
 11 20  1  0  0  0  0
 13  6  1  0  0  0  0
 13 14  1  1  0  0  0
 15 16  1  1  0  0  0
 15 24  1  0  0  0  0
 17 26  1  0  0  0  0
 18 10  1  0  0  0  0
 18 19  1  1  0  0  0
 20 21  1  1  0  0  0
 20 29  1  0  0  0  0
 22 13  1  0  0  0  0
 22 23  1  6  0  0  0
 24 25  1  1  0  0  0
 24 33  1  0  0  0  0
 26 27  1  6  0  0  0
 26 35  1  0  0  0  0
 28  2  1  6  0  0  0
 28 18  1  0  0  0  0
 29 30  1  0  0  0  0
 29 39  1  6  0  0  0
 31 22  1  0  0  0  0
 31 32  1  1  0  0  0
 31 41  1  0  0  0  0
 33 34  1  6  0  0  0
 33 43  1  0  0  0  0
 35 36  1  0  0  0  0
 35 45  1  1  0  0  0
 37 28  1  0  0  0  0
 37 38  1  1  0  0  0
 39 40  1  0  0  0  0
 41 42  1  0  0  0  0
 41 49  1  1  0  0  0
 43 44  1  0  0  0  0
 43 51  1  1  0  0  0
 45 46  1  0  0  0  0
 47 37  1  0  0  0  0
 47 48  1  6  0  0  0
 49 50  1  0  0  0  0
 51 52  1  0  0  0  0
M  END
>  <CHROM.1>
-175.75911836,-61.90343217,144.09266200,130.48021733,154.99654617,-179.38463450
179.36313781,66.99568646,64.74936345,138.20652173,78.22423429,78.37435251
9.45177616,3.39714775,12.72207775,-0.74512632,0.43606529,-0.03248801

>  <Name>
2esj_lig

>  <RI>
0

>  <Rbt.Current_Directory>
/home/itssahil/PROJECTS/Mol_Feturizer/New_Systems/rnas/2esj

>  <Rbt.Executable>
rbdock ($Id: //depot/dev/client3/rdock/2013.1/src/exe/rbdock.cxx#4 $)

>  <Rbt.Library>
libRbt.so (2013.1, Build901 2013/11/27)

>  <Rbt.Parameter_File>
/export/apps/rDock/src/rDock_2013.1_src/data/scripts/dock_solv.prm

>  <Rbt.Receptor>
prm/blind_docking_40.prm

>  <SCORE>
16.4412

>  <SCORE.INTER>
-0.439078

>  <SCORE.INTER.CONST>
1

>  <SCORE.INTER.POLAR>
-2.25855

>  <SCORE.INTER.ROT>
12

>  <SCORE.INTER.SOLV>
33.8888

>  <SCORE.INTER.VDW>
-15.6605

>  <SCORE.INTER.norm>
-0.0084438

>  <SCORE.INTRA>
-1.97969

>  <SCORE.INTRA.DIHEDRAL>
-7.65096

>  <SCORE.INTRA.DIHEDRAL.0>
32.9766

>  <SCORE.INTRA.POLAR>
0

>  <SCORE.INTRA.POLAR.0>
0

>  <SCORE.INTRA.REPUL>
0

>  <SCORE.INTRA.REPUL.0>
0

>  <SCORE.INTRA.SOLV>
-0.413928

>  <SCORE.INTRA.SOLV.lig_0>
-114.358

>  <SCORE.INTRA.VDW>
2.05275

>  <SCORE.INTRA.VDW.0>
-8.24257

>  <SCORE.INTRA.norm>
-0.038071

>  <SCORE.RESTR>
18.86

>  <SCORE.RESTR.CAVITY>
18.86

>  <SCORE.RESTR.norm>
0.362691

>  <SCORE.SYSTEM>
0

>  <SCORE.SYSTEM.CONST>
0

>  <SCORE.SYSTEM.DIHEDRAL>
0

>  <SCORE.SYSTEM.SOLV>
0

>  <SCORE.SYSTEM.norm>
0

>  <SCORE.heavy>
52

>  <SCORE.norm>
0.316177

>  <RMSD>
17.864

$$$$
2esj_lig
 OpenBabel11021811423D
libRbt.so/2013.1/901 2013/11/27
 52 56  0  0  0  0  0  0  0  0999 V2000
   14.4459   -0.0067   10.3154 C   0  0  2  0  0  0  0  0  0  0  0  0
   13.0829   -0.4722   10.2968 O   0  0  0  0  0  0  0  0  0  0  0  0
   10.5849   -3.6490   11.6953 C   0  0  2  0  0  0  0  0  0  0  0  0
    9.9993   -4.7724   12.4452 N   0  0  0  0  0  0  0  0  0  0  0  0
   10.2885    1.0347   12.5013 C   0  0  1  0  0  0  0  0  0  0  0  0
    7.7810    4.3495   11.8927 C   0  0  1  0  0  0  0  0  0  0  0  0
    7.1506    9.1931   13.9605 C   0  0  1  0  0  0  0  0  0  0  0  0
   14.4957    1.3298    9.5177 C   0  0  2  0  0  0  0  0  0  0  0  0
   13.5705    2.3283   10.0527 N   0  0  0  0  0  0  0  0  0  0  0  0
   12.0533   -4.0044   11.2317 C   0  0  0  0  0  0  0  0  0  0  0  0
   10.8981    2.4251   12.3176 C   0  0  2  0  0  0  0  0  0  0  0  0
   11.1986    3.0652   13.5767 O   0  0  0  0  0  0  0  0  0  0  0  0
    8.5457    5.7438   11.7824 C   0  0  2  0  0  0  0  0  0  0  0  0
    9.2875    6.0473   13.0348 N   0  0  0  0  0  0  0  0  0  0  0  0
    5.7148    9.2427   14.4697 C   0  0  1  0  0  0  0  0  0  0  0  0
    5.6197   10.2213   15.5240 O   0  0  0  0  0  0  0  0  0  0  0  0
   14.1964    1.0869    8.0042 C   0  0  0  0  0  0  0  0  0  0  0  0
   12.6434   -2.8106   10.3782 C   0  0  2  0  0  0  0  0  0  0  0  0
   14.0126   -3.1099    9.9463 N   0  0  0  0  0  0  0  0  0  0  0  0
    9.8131    3.0978   11.5275 C   0  0  2  0  0  0  0  0  0  0  0  0
    8.7411    3.4505   12.3647 O   0  0  0  0  0  0  0  0  0  0  0  0
    7.5126    6.8652   11.3238 C   0  0  1  0  0  0  0  0  0  0  0  0
    6.8300    6.4130   10.1498 O   0  0  0  0  0  0  0  0  0  0  0  0
    4.6628    9.5788   13.4195 C   0  0  1  0  0  0  0  0  0  0  0  0
    3.4320    9.8124   14.1128 O   0  0  0  0  0  0  0  0  0  0  0  0
   15.1779    0.0045    7.4647 C   0  0  2  0  0  0  0  0  0  0  0  0
   15.0127   -0.2101    6.0745 O   0  0  0  0  0  0  0  0  0  0  0  0
   12.6106   -1.4931   11.1955 C   0  0  2  0  0  0  0  0  0  0  0  0
    9.2248    2.0096   10.6059 C   0  0  2  0  0  0  0  0  0  0  0  0
    9.4257    0.8333   11.3733 O   0  0  0  0  0  0  0  0  0  0  0  0
    6.3879    7.0965   12.4150 C   0  0  2  0  0  0  0  0  0  0  0  0
    7.0989    7.5777   13.5567 O   0  0  0  0  0  0  0  0  0  0  0  0
    5.0076   10.8046   12.5718 C   0  0  2  0  0  0  0  0  0  0  0  0
    4.1065   10.8041   11.4525 O   0  0  0  0  0  0  0  0  0  0  0  0
   14.9592   -1.2985    8.2730 C   0  0  2  0  0  0  0  0  0  0  0  0
   15.2704   -1.0019    9.6644 O   0  0  0  0  0  0  0  0  0  0  0  0
   11.2078   -1.1424   11.7872 C   0  0  2  0  0  0  0  0  0  0  0  0
   11.3080    0.0645   12.5934 O   0  0  0  0  0  0  0  0  0  0  0  0
    9.8891    1.8421    9.2398 C   0  0  0  0  0  0  0  0  0  0  0  0
    9.2123    0.7761    8.5577 O   0  0  0  0  0  0  0  0  0  0  0  0
    5.8946    5.7135   12.7950 C   0  0  1  0  0  0  0  0  0  0  0  0
    6.6041    4.4571   12.8448 O   0  0  0  0  0  0  0  0  0  0  0  0
    6.4833   10.8226   12.1888 C   0  0  2  0  0  0  0  0  0  0  0  0
    7.4866   10.2743   13.0574 O   0  0  0  0  0  0  0  0  0  0  0  0
   15.8840   -2.3970    7.8723 C   0  0  0  0  0  0  0  0  0  0  0  0
   17.1520   -1.8248    7.6606 O   0  0  0  0  0  0  0  0  0  0  0  0
   10.6205   -2.3551   12.5852 C   0  0  1  0  0  0  0  0  0  0  0  0
    9.2503   -2.0191   12.9305 O   0  0  0  0  0  0  0  0  0  0  0  0
    4.6965    5.6540   13.7918 C   0  0  0  0  0  0  0  0  0  0  0  0
    4.7548    6.6928   14.8417 N   0  0  0  0  0  0  0  0  0  0  0  0
    7.1134   11.9340   11.3526 C   0  0  0  0  0  0  0  0  0  0  0  0
    8.5364   12.0170   11.6298 O   0  0  0  0  0  0  0  0  0  0  0  0
  1  2  1  6  0  0  0
  1  8  1  0  0  0  0
  1 36  1  0  0  0  0
  3  4  1  1  0  0  0
  3 10  1  0  0  0  0
  3 47  1  0  0  0  0
  5 11  1  0  0  0  0
  5 30  1  0  0  0  0
  5 38  1  6  0  0  0
  6 21  1  1  0  0  0
  6 42  1  0  0  0  0
  7 15  1  0  0  0  0
  7 44  1  0  0  0  0
  7 32  1  6  0  0  0
  8  9  1  1  0  0  0
  8 17  1  0  0  0  0
 11 12  1  1  0  0  0
 11 20  1  0  0  0  0
 13  6  1  0  0  0  0
 13 14  1  1  0  0  0
 15 16  1  1  0  0  0
 15 24  1  0  0  0  0
 17 26  1  0  0  0  0
 18 10  1  0  0  0  0
 18 19  1  1  0  0  0
 20 21  1  1  0  0  0
 20 29  1  0  0  0  0
 22 13  1  0  0  0  0
 22 23  1  6  0  0  0
 24 25  1  1  0  0  0
 24 33  1  0  0  0  0
 26 27  1  6  0  0  0
 26 35  1  0  0  0  0
 28  2  1  6  0  0  0
 28 18  1  0  0  0  0
 29 30  1  0  0  0  0
 29 39  1  6  0  0  0
 31 22  1  0  0  0  0
 31 32  1  1  0  0  0
 31 41  1  0  0  0  0
 33 34  1  6  0  0  0
 33 43  1  0  0  0  0
 35 36  1  0  0  0  0
 35 45  1  6  0  0  0
 37 28  1  0  0  0  0
 37 38  1  1  0  0  0
 39 40  1  0  0  0  0
 41 42  1  0  0  0  0
 41 49  1  1  0  0  0
 43 44  1  0  0  0  0
 43 51  1  1  0  0  0
 45 46  1  0  0  0  0
 47 37  1  0  0  0  0
 47 48  1  6  0  0  0
 49 50  1  0  0  0  0
 51 52  1  0  0  0  0
M  END
>  <CHROM.1>
-164.60655731,-131.86657947,-68.35312132,73.74417842,165.37318565,-98.43053488
179.05886354,100.88161843,40.70007615,138.42611143,-37.50537802,155.17403387
9.73531831,3.34821366,11.46394226,-0.81585203,0.62549891,-0.20791671

>  <Name>
2esj_lig

>  <RI>
0

>  <Rbt.Current_Directory>
/home/itssahil/PROJECTS/Mol_Feturizer/New_Systems/rnas/2esj

>  <Rbt.Executable>
rbdock ($Id: //depot/dev/client3/rdock/2013.1/src/exe/rbdock.cxx#4 $)

>  <Rbt.Library>
libRbt.so (2013.1, Build901 2013/11/27)

>  <Rbt.Parameter_File>
/export/apps/rDock/src/rDock_2013.1_src/data/scripts/dock_solv.prm

>  <Rbt.Receptor>
prm/blind_docking_20.prm

>  <SCORE>
37.1089

>  <SCORE.INTER>
9.80825

>  <SCORE.INTER.CONST>
1

>  <SCORE.INTER.POLAR>
-0.291198

>  <SCORE.INTER.ROT>
12

>  <SCORE.INTER.SOLV>
30.8477

>  <SCORE.INTER.VDW>
-14.3731

>  <SCORE.INTER.norm>
0.18862

>  <SCORE.INTRA>
7.9337

>  <SCORE.INTRA.DIHEDRAL>
-0.681

>  <SCORE.INTRA.DIHEDRAL.0>
32.9766

>  <SCORE.INTRA.POLAR>
0

>  <SCORE.INTRA.POLAR.0>
0

>  <SCORE.INTRA.REPUL>
0

>  <SCORE.INTRA.REPUL.0>
0

>  <SCORE.INTRA.SOLV>
7.19732

>  <SCORE.INTRA.SOLV.lig_0>
-114.358

>  <SCORE.INTRA.VDW>
4.67554

>  <SCORE.INTRA.VDW.0>
-8.24257

>  <SCORE.INTRA.norm>
0.152571

>  <SCORE.RESTR>
19.367

>  <SCORE.RESTR.CAVITY>
19.367

>  <SCORE.RESTR.norm>
0.372442

>  <SCORE.SYSTEM>
0

>  <SCORE.SYSTEM.CONST>
0

>  <SCORE.SYSTEM.DIHEDRAL>
0

>  <SCORE.SYSTEM.SOLV>
0

>  <SCORE.SYSTEM.norm>
0

>  <SCORE.heavy>
52

>  <SCORE.norm>
0.713633

>  <RMSD>
17.937

$$$$
2esj_lig
 OpenBabel11021811423D
libRbt.so/2013.1/901 2013/11/27
 52 56  0  0  0  0  0  0  0  0999 V2000
    5.1160    8.4418   13.7576 C   0  0  2  0  0  0  0  0  0  0  0  0
    4.2812    8.1894   14.9040 O   0  0  0  0  0  0  0  0  0  0  0  0
    5.9200    5.8350   18.0755 C   0  0  2  0  0  0  0  0  0  0  0  0
    6.1963    4.7872   19.0721 N   0  0  0  0  0  0  0  0  0  0  0  0
    7.2550    5.4069   13.7588 C   0  0  1  0  0  0  0  0  0  0  0  0
    9.4793    2.8143   11.8655 C   0  0  1  0  0  0  0  0  0  0  0  0
   14.0592    0.0745   11.3979 C   0  0  1  0  0  0  0  0  0  0  0  0
    5.0078    9.9590   13.4240 C   0  0  2  0  0  0  0  0  0  0  0  0
    5.3727   10.8031   14.5614 N   0  0  0  0  0  0  0  0  0  0  0  0
    4.4359    6.3572   18.2250 C   0  0  0  0  0  0  0  0  0  0  0  0
    7.1223    4.7765   12.3719 C   0  0  2  0  0  0  0  0  0  0  0  0
    6.7477    3.3833   12.4340 O   0  0  0  0  0  0  0  0  0  0  0  0
   10.3276    1.9900   12.9341 C   0  0  2  0  0  0  0  0  0  0  0  0
   11.5829    2.7048   13.2864 N   0  0  0  0  0  0  0  0  0  0  0  0
   14.4475    0.5561   10.0048 C   0  0  1  0  0  0  0  0  0  0  0  0
   15.8846    0.5648    9.8902 O   0  0  0  0  0  0  0  0  0  0  0  0
    3.5694   10.3209   12.9351 C   0  0  0  0  0  0  0  0  0  0  0  0
    4.1766    7.5220   17.1869 C   0  0  2  0  0  0  0  0  0  0  0  0
    2.8000    8.0159   17.2958 N   0  0  0  0  0  0  0  0  0  0  0  0
    8.4999    5.0208   11.8271 C   0  0  2  0  0  0  0  0  0  0  0  0
    9.4167    4.1116   12.3812 O   0  0  0  0  0  0  0  0  0  0  0  0
   10.5271    0.5033   12.4001 C   0  0  1  0  0  0  0  0  0  0  0  0
    9.2502   -0.0347   12.0415 O   0  0  0  0  0  0  0  0  0  0  0  0
   13.8885   -0.2686    8.8516 C   0  0  1  0  0  0  0  0  0  0  0  0
   14.5396    0.1781    7.6571 O   0  0  0  0  0  0  0  0  0  0  0  0
    3.1960    9.3941   11.7405 C   0  0  2  0  0  0  0  0  0  0  0  0
    1.9297    9.7206   11.1963 O   0  0  0  0  0  0  0  0  0  0  0  0
    4.4626    7.0335   15.7431 C   0  0  2  0  0  0  0  0  0  0  0  0
    8.9414    6.3870   12.3914 C   0  0  2  0  0  0  0  0  0  0  0  0
    8.2504    6.4315   13.6297 O   0  0  0  0  0  0  0  0  0  0  0  0
   11.3946    0.4763   11.0749 C   0  0  2  0  0  0  0  0  0  0  0  0
   12.6670    0.9860   11.4767 O   0  0  0  0  0  0  0  0  0  0  0  0
   14.1004   -1.7751    9.0114 C   0  0  2  0  0  0  0  0  0  0  0  0
   13.2647   -2.4193    8.0360 O   0  0  0  0  0  0  0  0  0  0  0  0
    3.2452    7.9251   12.2289 C   0  0  2  0  0  0  0  0  0  0  0  0
    4.6124    7.6555   12.6521 O   0  0  0  0  0  0  0  0  0  0  0  0
    5.8750    6.3933   15.5525 C   0  0  2  0  0  0  0  0  0  0  0  0
    6.0072    5.9042   14.1888 O   0  0  0  0  0  0  0  0  0  0  0  0
    8.5738    7.6172   11.5624 C   0  0  0  0  0  0  0  0  0  0  0  0
    7.3442    8.1399   12.0864 O   0  0  0  0  0  0  0  0  0  0  0  0
   10.7967    1.5380   10.1718 C   0  0  1  0  0  0  0  0  0  0  0  0
   10.1561    2.7876   10.5074 O   0  0  0  0  0  0  0  0  0  0  0  0
   13.8513   -2.2257   10.4464 C   0  0  2  0  0  0  0  0  0  0  0  0
   14.1323   -1.3629   11.5592 O   0  0  0  0  0  0  0  0  0  0  0  0
    2.9495    6.9400   11.1497 C   0  0  0  0  0  0  0  0  0  0  0  0
    1.5782    7.0411   10.8505 O   0  0  0  0  0  0  0  0  0  0  0  0
    6.1303    5.2782   16.6219 C   0  0  1  0  0  0  0  0  0  0  0  0
    7.5206    4.8764   16.5001 O   0  0  0  0  0  0  0  0  0  0  0  0
   11.4049    1.6536    8.7402 C   0  0  0  0  0  0  0  0  0  0  0  0
   10.8534    0.6674    7.7873 N   0  0  0  0  0  0  0  0  0  0  0  0
   13.9981   -3.6759   10.9015 C   0  0  0  0  0  0  0  0  0  0  0  0
   13.8179   -3.7648   12.3397 O   0  0  0  0  0  0  0  0  0  0  0  0
  1  2  1  1  0  0  0
  1  8  1  0  0  0  0
  1 36  1  0  0  0  0
  3  4  1  1  0  0  0
  3 10  1  0  0  0  0
  3 47  1  0  0  0  0
  5 11  1  0  0  0  0
  5 30  1  0  0  0  0
  5 38  1  6  0  0  0
  6 21  1  1  0  0  0
  6 42  1  0  0  0  0
  7 15  1  0  0  0  0
  7 44  1  0  0  0  0
  7 32  1  6  0  0  0
  8  9  1  1  0  0  0
  8 17  1  0  0  0  0
 11 12  1  1  0  0  0
 11 20  1  0  0  0  0
 13  6  1  0  0  0  0
 13 14  1  6  0  0  0
 15 16  1  1  0  0  0
 15 24  1  0  0  0  0
 17 26  1  0  0  0  0
 18 10  1  0  0  0  0
 18 19  1  6  0  0  0
 20 21  1  1  0  0  0
 20 29  1  0  0  0  0
 22 13  1  0  0  0  0
 22 23  1  6  0  0  0
 24 25  1  6  0  0  0
 24 33  1  0  0  0  0
 26 27  1  1  0  0  0
 26 35  1  0  0  0  0
 28  2  1  6  0  0  0
 28 18  1  0  0  0  0
 29 30  1  0  0  0  0
 29 39  1  6  0  0  0
 31 22  1  0  0  0  0
 31 32  1  1  0  0  0
 31 41  1  0  0  0  0
 33 34  1  6  0  0  0
 33 43  1  0  0  0  0
 35 36  1  0  0  0  0
 35 45  1  6  0  0  0
 37 28  1  0  0  0  0
 37 38  1  6  0  0  0
 39 40  1  0  0  0  0
 41 42  1  0  0  0  0
 41 49  1  6  0  0  0
 43 44  1  0  0  0  0
 43 51  1  1  0  0  0
 45 46  1  0  0  0  0
 47 37  1  0  0  0  0
 47 48  1  1  0  0  0
 49 50  1  0  0  0  0
 51 52  1  0  0  0  0
M  END
>  <CHROM.1>
-159.33615637,172.33205860,-166.42868298,92.58531950,79.75467470,142.88276895
95.15410470,117.23707061,-71.13944175,173.73609431,82.12806913,174.65862641
8.49964091,4.04157690,12.51490894,2.96755282,-0.80421502,1.77287248

>  <Name>
2esj_lig

>  <RI>
0

>  <Rbt.Current_Directory>
/home/itssahil/PROJECTS/Mol_Feturizer/New_Systems/rnas/2esj

>  <Rbt.Executable>
rbdock ($Id: //depot/dev/client3/rdock/2013.1/src/exe/rbdock.cxx#4 $)

>  <Rbt.Library>
libRbt.so (2013.1, Build901 2013/11/27)

>  <Rbt.Parameter_File>
/export/apps/rDock/src/rDock_2013.1_src/data/scripts/dock_solv.prm

>  <Rbt.Receptor>
prm/blind_docking_60.prm

>  <SCORE>
15.8934

>  <SCORE.INTER>
-0.180854

>  <SCORE.INTER.CONST>
1

>  <SCORE.INTER.POLAR>
-1.48835

>  <SCORE.INTER.ROT>
12

>  <SCORE.INTER.SOLV>
27.7155

>  <SCORE.INTER.VDW>
-15.9979

>  <SCORE.INTER.norm>
-0.00347797

>  <SCORE.INTRA>
0.913237

>  <SCORE.INTRA.DIHEDRAL>
-3.795

>  <SCORE.INTRA.DIHEDRAL.0>
32.9766

>  <SCORE.INTRA.POLAR>
0

>  <SCORE.INTRA.POLAR.0>
0

>  <SCORE.INTRA.REPUL>
0.0341087

>  <SCORE.INTRA.REPUL.0>
0

>  <SCORE.INTRA.SOLV>
-1.29447

>  <SCORE.INTRA.SOLV.lig_0>
-114.358

>  <SCORE.INTRA.VDW>
3.28743

>  <SCORE.INTRA.VDW.0>
-8.24257

>  <SCORE.INTRA.norm>
0.0175622

>  <SCORE.RESTR>
15.161

>  <SCORE.RESTR.CAVITY>
15.161

>  <SCORE.RESTR.norm>
0.291558

>  <SCORE.SYSTEM>
0

>  <SCORE.SYSTEM.CONST>
0

>  <SCORE.SYSTEM.DIHEDRAL>
0

>  <SCORE.SYSTEM.SOLV>
0

>  <SCORE.SYSTEM.norm>
0

>  <SCORE.heavy>
52

>  <SCORE.norm>
0.305642

>  <RMSD>
17.949

$$$$
2esj_lig
 OpenBabel11021811423D
libRbt.so/2013.1/901 2013/11/27
 52 56  0  0  0  0  0  0  0  0999 V2000
   12.3004   -1.4071    8.4433 C   0  0  2  0  0  0  0  0  0  0  0  0
   11.9230   -0.0171    8.4525 O   0  0  0  0  0  0  0  0  0  0  0  0
   14.4623    1.4161   11.5808 C   0  0  2  0  0  0  0  0  0  0  0  0
   15.2762    2.2472   12.4831 N   0  0  0  0  0  0  0  0  0  0  0  0
   10.2988    2.5567   11.2910 C   0  0  1  0  0  0  0  0  0  0  0  0
    8.1288    6.0419   11.5609 C   0  0  1  0  0  0  0  0  0  0  0  0
    6.1794    9.6258   14.9278 C   0  0  1  0  0  0  0  0  0  0  0  0
   11.4009   -2.1300    7.3977 C   0  0  2  0  0  0  0  0  0  0  0  0
   11.5035   -1.5277    6.0689 N   0  0  0  0  0  0  0  0  0  0  0  0
   14.9503    1.5869   10.0875 C   0  0  0  0  0  0  0  0  0  0  0  0
    8.8316    2.8538   10.9788 C   0  0  2  0  0  0  0  0  0  0  0  0
    8.6597    3.4870    9.6924 O   0  0  0  0  0  0  0  0  0  0  0  0
    8.6701    7.3515   12.2912 C   0  0  2  0  0  0  0  0  0  0  0  0
    8.8825    7.1053   13.7421 N   0  0  0  0  0  0  0  0  0  0  0  0
    7.3032   10.4587   14.3221 C   0  0  1  0  0  0  0  0  0  0  0  0
    6.9439   11.8536   14.3817 O   0  0  0  0  0  0  0  0  0  0  0  0
    9.9092   -2.1431    7.8601 C   0  0  0  0  0  0  0  0  0  0  0  0
   14.1042    0.6427    9.1418 C   0  0  2  0  0  0  0  0  0  0  0  0
   14.5288    0.7925    7.7461 N   0  0  0  0  0  0  0  0  0  0  0  0
    8.4739    3.7255   12.1477 C   0  0  2  0  0  0  0  0  0  0  0  0
    8.9896    5.0207   11.9718 O   0  0  0  0  0  0  0  0  0  0  0  0
    7.7042    8.5703   11.9499 C   0  0  1  0  0  0  0  0  0  0  0  0
    7.5416    8.6483   10.5300 O   0  0  0  0  0  0  0  0  0  0  0  0
    8.6653   10.2949   14.9856 C   0  0  1  0  0  0  0  0  0  0  0  0
    9.5217   11.3101   14.4507 O   0  0  0  0  0  0  0  0  0  0  0  0
    9.8296   -2.7669    9.2850 C   0  0  2  0  0  0  0  0  0  0  0  0
    8.4918   -2.8807    9.7361 O   0  0  0  0  0  0  0  0  0  0  0  0
   12.5910    0.9517    9.2822 C   0  0  2  0  0  0  0  0  0  0  0  0
    9.2658    3.1681   13.3485 C   0  0  2  0  0  0  0  0  0  0  0  0
   10.4187    2.6328   12.7183 O   0  0  0  0  0  0  0  0  0  0  0  0
    6.2519    8.3398   12.5388 C   0  0  2  0  0  0  0  0  0  0  0  0
    6.4476    8.3015   13.9532 O   0  0  0  0  0  0  0  0  0  0  0  0
    8.6270   10.4155   16.5100 C   0  0  2  0  0  0  0  0  0  0  0  0
    9.8903    9.9351   16.9980 O   0  0  0  0  0  0  0  0  0  0  0  0
   10.6835   -1.9015   10.2447 C   0  0  2  0  0  0  0  0  0  0  0  0
   12.0571   -1.9484    9.7631 O   0  0  0  0  0  0  0  0  0  0  0  0
   12.0652    0.9180   10.7530 C   0  0  2  0  0  0  0  0  0  0  0  0
   10.6601    1.2944   10.7759 O   0  0  0  0  0  0  0  0  0  0  0  0
    8.5818    2.0730   14.1661 C   0  0  0  0  0  0  0  0  0  0  0  0
    8.3218    0.9724   13.2826 O   0  0  0  0  0  0  0  0  0  0  0  0
    5.8679    6.9273   12.1419 C   0  0  1  0  0  0  0  0  0  0  0  0
    6.6942    5.7566   11.9652 O   0  0  0  0  0  0  0  0  0  0  0  0
    7.4151    9.7008   17.0973 C   0  0  2  0  0  0  0  0  0  0  0  0
    6.1764    9.6161   16.3759 O   0  0  0  0  0  0  0  0  0  0  0  0
   10.7197   -2.4345   11.6364 C   0  0  0  0  0  0  0  0  0  0  0  0
   11.4666   -1.5310   12.4149 O   0  0  0  0  0  0  0  0  0  0  0  0
   12.9475    1.8193   11.6811 C   0  0  1  0  0  0  0  0  0  0  0  0
   12.5168    1.5805   13.0474 O   0  0  0  0  0  0  0  0  0  0  0  0
    4.4228    6.4714   12.5115 C   0  0  0  0  0  0  0  0  0  0  0  0
    3.5620    7.5763   12.9835 N   0  0  0  0  0  0  0  0  0  0  0  0
    7.1140    9.6639   18.5939 C   0  0  0  0  0  0  0  0  0  0  0  0
    5.8640    8.9640   18.8310 O   0  0  0  0  0  0  0  0  0  0  0  0
  1  2  1  1  0  0  0
  1  8  1  0  0  0  0
  1 36  1  0  0  0  0
  3  4  1  1  0  0  0
  3 10  1  0  0  0  0
  3 47  1  0  0  0  0
  5 11  1  0  0  0  0
  5 30  1  0  0  0  0
  5 38  1  1  0  0  0
  6 21  1  1  0  0  0
  6 42  1  0  0  0  0
  7 15  1  0  0  0  0
  7 44  1  0  0  0  0
  7 32  1  6  0  0  0
  8  9  1  6  0  0  0
  8 17  1  0  0  0  0
 11 12  1  6  0  0  0
 11 20  1  0  0  0  0
 13  6  1  0  0  0  0
 13 14  1  1  0  0  0
 15 16  1  1  0  0  0
 15 24  1  0  0  0  0
 17 26  1  0  0  0  0
 18 10  1  0  0  0  0
 18 19  1  6  0  0  0
 20 21  1  6  0  0  0
 20 29  1  0  0  0  0
 22 13  1  0  0  0  0
 22 23  1  6  0  0  0
 24 25  1  6  0  0  0
 24 33  1  0  0  0  0
 26 27  1  1  0  0  0
 26 35  1  0  0  0  0
 28  2  1  6  0  0  0
 28 18  1  0  0  0  0
 29 30  1  0  0  0  0
 29 39  1  6  0  0  0
 31 22  1  0  0  0  0
 31 32  1  1  0  0  0
 31 41  1  0  0  0  0
 33 34  1  1  0  0  0
 33 43  1  0  0  0  0
 35 36  1  0  0  0  0
 35 45  1  1  0  0  0
 37 28  1  0  0  0  0
 37 38  1  6  0  0  0
 39 40  1  0  0  0  0
 41 42  1  0  0  0  0
 41 49  1  1  0  0  0
 43 44  1  0  0  0  0
 43 51  1  1  0  0  0
 45 46  1  0  0  0  0
 47 37  1  0  0  0  0
 47 48  1  1  0  0  0
 49 50  1  0  0  0  0
 51 52  1  0  0  0  0
M  END
>  <CHROM.1>
-177.95528751,169.22435062,145.90707434,-65.29048664,102.14880749,43.71252121
59.80051992,98.24474066,-177.20014444,-107.55638009,10.32089691,177.33647552
9.47455686,4.09705082,12.17321477,-1.17888453,-0.17200957,0.56452754

>  <Name>
2esj_lig

>  <RI>
0

>  <Rbt.Current_Directory>
/home/itssahil/PROJECTS/Mol_Feturizer/New_Systems/rnas/2esj

>  <Rbt.Executable>
rbdock ($Id: //depot/dev/client3/rdock/2013.1/src/exe/rbdock.cxx#4 $)

>  <Rbt.Library>
libRbt.so (2013.1, Build901 2013/11/27)

>  <Rbt.Parameter_File>
/export/apps/rDock/src/rDock_2013.1_src/data/scripts/dock_solv.prm

>  <Rbt.Receptor>
prm/blind_docking_40.prm

>  <SCORE>
18.8285

>  <SCORE.INTER>
-4.49981

>  <SCORE.INTER.CONST>
1

>  <SCORE.INTER.POLAR>
-0.587794

>  <SCORE.INTER.ROT>
12

>  <SCORE.INTER.SOLV>
31.6818

>  <SCORE.INTER.VDW>
-23.2012

>  <SCORE.INTER.norm>
-0.0865348

>  <SCORE.INTRA>
3.50009

>  <SCORE.INTRA.DIHEDRAL>
-4.68503

>  <SCORE.INTRA.DIHEDRAL.0>
32.9766

>  <SCORE.INTRA.POLAR>
0

>  <SCORE.INTRA.POLAR.0>
0

>  <SCORE.INTRA.REPUL>
0

>  <SCORE.INTRA.REPUL.0>
0

>  <SCORE.INTRA.SOLV>
0.855178

>  <SCORE.INTRA.SOLV.lig_0>
-114.358

>  <SCORE.INTRA.VDW>
5.41502

>  <SCORE.INTRA.VDW.0>
-8.24257

>  <SCORE.INTRA.norm>
0.0673095

>  <SCORE.RESTR>
19.8283

>  <SCORE.RESTR.CAVITY>
19.8283

>  <SCORE.RESTR.norm>
0.381313

>  <SCORE.SYSTEM>
0

>  <SCORE.SYSTEM.CONST>
0

>  <SCORE.SYSTEM.DIHEDRAL>
0

>  <SCORE.SYSTEM.SOLV>
0

>  <SCORE.SYSTEM.norm>
0

>  <SCORE.heavy>
52

>  <SCORE.norm>
0.362087

>  <RMSD>
18.042

$$$$
2esj_lig
 OpenBabel11021811423D
libRbt.so/2013.1/901 2013/11/27
 52 56  0  0  0  0  0  0  0  0999 V2000
   11.6913   -1.2165    8.3339 C   0  0  2  0  0  0  0  0  0  0  0  0
   12.8071   -0.3773    7.9795 O   0  0  0  0  0  0  0  0  0  0  0  0
   15.5146    1.1571   10.9125 C   0  0  2  0  0  0  0  0  0  0  0  0
   16.2639    2.0153   11.8449 N   0  0  0  0  0  0  0  0  0  0  0  0
   11.2056    1.1051   11.4421 C   0  0  1  0  0  0  0  0  0  0  0  0
    9.0118    4.3975   11.7590 C   0  0  1  0  0  0  0  0  0  0  0  0
    6.6776    7.5994   14.6223 C   0  0  1  0  0  0  0  0  0  0  0  0
   11.7325   -2.4672    7.4070 C   0  0  2  0  0  0  0  0  0  0  0  0
   13.0048   -3.1828    7.4995 N   0  0  0  0  0  0  0  0  0  0  0  0
   15.5991    1.7364    9.4446 C   0  0  0  0  0  0  0  0  0  0  0  0
    9.8761    1.5069   10.8023 C   0  0  2  0  0  0  0  0  0  0  0  0
   10.0418    2.4961    9.7633 O   0  0  0  0  0  0  0  0  0  0  0  0
    9.1724    5.5755   12.8210 C   0  0  2  0  0  0  0  0  0  0  0  0
    8.6936    5.1535   14.1639 N   0  0  0  0  0  0  0  0  0  0  0  0
    5.6967    6.9406   15.5853 C   0  0  1  0  0  0  0  0  0  0  0  0
    6.1382    7.1665   16.9390 O   0  0  0  0  0  0  0  0  0  0  0  0
   11.4544   -2.0701    5.9225 C   0  0  0  0  0  0  0  0  0  0  0  0
   14.8393    0.7707    8.4488 C   0  0  2  0  0  0  0  0  0  0  0  0
   14.8912    1.2933    7.0795 N   0  0  0  0  0  0  0  0  0  0  0  0
    9.1293    1.9989   12.0083 C   0  0  2  0  0  0  0  0  0  0  0  0
    9.5774    3.2787   12.3764 O   0  0  0  0  0  0  0  0  0  0  0  0
    8.4835    6.8896   12.2435 C   0  0  1  0  0  0  0  0  0  0  0  0
    8.9905    7.1379   10.9281 O   0  0  0  0  0  0  0  0  0  0  0  0
    4.2544    7.4200   15.4746 C   0  0  1  0  0  0  0  0  0  0  0  0
    3.5415    6.8793   16.5925 O   0  0  0  0  0  0  0  0  0  0  0  0
   10.1078   -1.2904    5.8541 C   0  0  2  0  0  0  0  0  0  0  0  0
    9.7545   -0.9653    4.5216 O   0  0  0  0  0  0  0  0  0  0  0  0
   13.3675    0.5790    8.8984 C   0  0  2  0  0  0  0  0  0  0  0  0
    9.5742    1.0968   13.1778 C   0  0  2  0  0  0  0  0  0  0  0  0
   10.8971    0.7524   12.7977 O   0  0  0  0  0  0  0  0  0  0  0  0
    6.9204    6.6967   12.0743 C   0  0  2  0  0  0  0  0  0  0  0  0
    6.4457    6.4860   13.4050 O   0  0  0  0  0  0  0  0  0  0  0  0
    4.1095    8.9428   15.4694 C   0  0  2  0  0  0  0  0  0  0  0  0
    2.7658    9.2321   15.0505 O   0  0  0  0  0  0  0  0  0  0  0  0
   10.2324   -0.0235    6.7364 C   0  0  2  0  0  0  0  0  0  0  0  0
   10.4742   -0.4691    8.1017 O   0  0  0  0  0  0  0  0  0  0  0  0
   13.2069    0.1208   10.3834 C   0  0  2  0  0  0  0  0  0  0  0  0
   11.7934    0.0462   10.7191 O   0  0  0  0  0  0  0  0  0  0  0  0
    8.7634   -0.1795   13.4001 C   0  0  0  0  0  0  0  0  0  0  0  0
    9.4299   -0.9438   14.4156 O   0  0  0  0  0  0  0  0  0  0  0  0
    6.7457    5.3681   11.3639 C   0  0  1  0  0  0  0  0  0  0  0  0
    7.5484    4.1697   11.4279 O   0  0  0  0  0  0  0  0  0  0  0  0
    5.1879    9.6043   14.6186 C   0  0  2  0  0  0  0  0  0  0  0  0
    6.4986    9.0309   14.4965 O   0  0  0  0  0  0  0  0  0  0  0  0
    8.9781    0.7808    6.7848 C   0  0  0  0  0  0  0  0  0  0  0  0
    8.0382    0.0515    7.5364 O   0  0  0  0  0  0  0  0  0  0  0  0
   14.0080    1.0605   11.3464 C   0  0  1  0  0  0  0  0  0  0  0  0
   13.9669    0.4580   12.6672 O   0  0  0  0  0  0  0  0  0  0  0  0
    5.2871    4.9759   10.9750 C   0  0  0  0  0  0  0  0  0  0  0  0
    4.6440    5.9423   10.0600 N   0  0  0  0  0  0  0  0  0  0  0  0
    5.2960   11.1169   14.4389 C   0  0  0  0  0  0  0  0  0  0  0  0
    6.6629   11.5474   14.6728 O   0  0  0  0  0  0  0  0  0  0  0  0
  1  2  1  6  0  0  0
  1  8  1  0  0  0  0
  1 36  1  0  0  0  0
  3  4  1  1  0  0  0
  3 10  1  0  0  0  0
  3 47  1  0  0  0  0
  5 11  1  0  0  0  0
  5 30  1  0  0  0  0
  5 38  1  6  0  0  0
  6 21  1  1  0  0  0
  6 42  1  0  0  0  0
  7 15  1  0  0  0  0
  7 44  1  0  0  0  0
  7 32  1  6  0  0  0
  8  9  1  6  0  0  0
  8 17  1  0  0  0  0
 11 12  1  6  0  0  0
 11 20  1  0  0  0  0
 13  6  1  0  0  0  0
 13 14  1  1  0  0  0
 15 16  1  1  0  0  0
 15 24  1  0  0  0  0
 17 26  1  0  0  0  0
 18 10  1  0  0  0  0
 18 19  1  6  0  0  0
 20 21  1  1  0  0  0
 20 29  1  0  0  0  0
 22 13  1  0  0  0  0
 22 23  1  6  0  0  0
 24 25  1  1  0  0  0
 24 33  1  0  0  0  0
 26 27  1  6  0  0  0
 26 35  1  0  0  0  0
 28  2  1  6  0  0  0
 28 18  1  0  0  0  0
 29 30  1  0  0  0  0
 29 39  1  6  0  0  0
 31 22  1  0  0  0  0
 31 32  1  1  0  0  0
 31 41  1  0  0  0  0
 33 34  1  6  0  0  0
 33 43  1  0  0  0  0
 35 36  1  0  0  0  0
 35 45  1  1  0  0  0
 37 28  1  0  0  0  0
 37 38  1  1  0  0  0
 39 40  1  0  0  0  0
 41 42  1  0  0  0  0
 41 49  1  1  0  0  0
 43 44  1  0  0  0  0
 43 51  1  1  0  0  0
 45 46  1  0  0  0  0
 47 37  1  0  0  0  0
 47 48  1  1  0  0  0
 49 50  1  0  0  0  0
 51 52  1  0  0  0  0
M  END
>  <CHROM.1>
-156.90462503,133.72987835,153.31480769,167.52675746,85.73455841,154.48818943
173.19114297,58.39433100,70.64073939,-100.32951345,60.15305841,131.14799581
9.36041119,3.24085973,11.33037948,0.93009242,0.40867409,-2.23753808

>  <Name>
2esj_lig

>  <RI>
0

>  <Rbt.Current_Directory>
/home/itssahil/PROJECTS/Mol_Feturizer/New_Systems/rnas/2esj

>  <Rbt.Executable>
rbdock ($Id: //depot/dev/client3/rdock/2013.1/src/exe/rbdock.cxx#4 $)

>  <Rbt.Library>
libRbt.so (2013.1, Build901 2013/11/27)

>  <Rbt.Parameter_File>
/export/apps/rDock/src/rDock_2013.1_src/data/scripts/dock_solv.prm

>  <Rbt.Receptor>
prm/blind_docking_40.prm

>  <SCORE>
19.6668

>  <SCORE.INTER>
-0.616861

>  <SCORE.INTER.CONST>
1

>  <SCORE.INTER.POLAR>
-2.02364

>  <SCORE.INTER.ROT>
12

>  <SCORE.INTER.SOLV>
36.987

>  <SCORE.INTER.VDW>
-17.5948

>  <SCORE.INTER.norm>
-0.0118627

>  <SCORE.INTRA>
1.73258

>  <SCORE.INTRA.DIHEDRAL>
-2.92893

>  <SCORE.INTRA.DIHEDRAL.0>
32.9766

>  <SCORE.INTRA.POLAR>
0

>  <SCORE.INTRA.POLAR.0>
0

>  <SCORE.INTRA.REPUL>
0

>  <SCORE.INTRA.REPUL.0>
0

>  <SCORE.INTRA.SOLV>
-2.93106

>  <SCORE.INTRA.SOLV.lig_0>
-114.358

>  <SCORE.INTRA.VDW>
4.66258

>  <SCORE.INTRA.VDW.0>
-8.24257

>  <SCORE.INTRA.norm>
0.0333189

>  <SCORE.RESTR>
18.5511

>  <SCORE.RESTR.CAVITY>
18.5511

>  <SCORE.RESTR.norm>
0.356752

>  <SCORE.SYSTEM>
0

>  <SCORE.SYSTEM.CONST>
0

>  <SCORE.SYSTEM.DIHEDRAL>
0

>  <SCORE.SYSTEM.SOLV>
0

>  <SCORE.SYSTEM.norm>
0

>  <SCORE.heavy>
52

>  <SCORE.norm>
0.378208

>  <RMSD>
18.217

$$$$
2esj_lig
 OpenBabel11021811423D
libRbt.so/2013.1/901 2013/11/27
 52 56  0  0  0  0  0  0  0  0999 V2000
    6.6086    9.6454   17.8209 C   0  0  2  0  0  0  0  0  0  0  0  0
    5.5292    8.9408   17.1781 O   0  0  0  0  0  0  0  0  0  0  0  0
    6.9479    4.9151   17.4406 C   0  0  2  0  0  0  0  0  0  0  0  0
    7.1316    3.4606   17.3059 N   0  0  0  0  0  0  0  0  0  0  0  0
    7.8565    7.2868   13.8830 C   0  0  1  0  0  0  0  0  0  0  0  0
    8.7283    4.3607   11.6734 C   0  0  1  0  0  0  0  0  0  0  0  0
   12.6853    1.0309   10.3107 C   0  0  1  0  0  0  0  0  0  0  0  0
    6.0308   10.9795   18.3789 C   0  0  2  0  0  0  0  0  0  0  0  0
    4.9058   10.7583   19.2870 N   0  0  0  0  0  0  0  0  0  0  0  0
    5.5084    5.2365   18.0078 C   0  0  0  0  0  0  0  0  0  0  0  0
    6.9812    6.4211   12.9759 C   0  0  2  0  0  0  0  0  0  0  0  0
    6.8646    5.0639   13.4553 O   0  0  0  0  0  0  0  0  0  0  0  0
   10.0008    3.8151   12.4635 C   0  0  2  0  0  0  0  0  0  0  0  0
   11.2534    4.4290   11.9486 N   0  0  0  0  0  0  0  0  0  0  0  0
   11.8802    0.0902    9.4216 C   0  0  1  0  0  0  0  0  0  0  0  0
   12.7612   -0.5197    8.4571 O   0  0  0  0  0  0  0  0  0  0  0  0
    5.5954   11.9275   17.2167 C   0  0  0  0  0  0  0  0  0  0  0  0
    5.3513    6.7984   18.2012 C   0  0  2  0  0  0  0  0  0  0  0  0
    4.0170    7.1251   18.7148 N   0  0  0  0  0  0  0  0  0  0  0  0
    7.7191    6.5541   11.6751 C   0  0  2  0  0  0  0  0  0  0  0  0
    8.8719    5.7507   11.6789 O   0  0  0  0  0  0  0  0  0  0  0  0
    9.9759    2.2231   12.4474 C   0  0  1  0  0  0  0  0  0  0  0  0
    8.6957    1.7759   12.9056 O   0  0  0  0  0  0  0  0  0  0  0  0
   11.1404   -1.0232   10.1532 C   0  0  1  0  0  0  0  0  0  0  0  0
   10.6475   -1.9284    9.1593 O   0  0  0  0  0  0  0  0  0  0  0  0
    6.8019   12.1282   16.2524 C   0  0  2  0  0  0  0  0  0  0  0  0
    6.4993   13.0419   15.2133 O   0  0  0  0  0  0  0  0  0  0  0  0
    5.6111    7.5382   16.8632 C   0  0  2  0  0  0  0  0  0  0  0  0
    8.2685    7.9953   11.6464 C   0  0  2  0  0  0  0  0  0  0  0  0
    8.4621    8.2645   13.0259 O   0  0  0  0  0  0  0  0  0  0  0  0
   10.1296    1.6571   10.9759 C   0  0  2  0  0  0  0  0  0  0  0  0
   11.4267    2.0922   10.5653 O   0  0  0  0  0  0  0  0  0  0  0  0
   12.0108   -1.7901   11.1504 C   0  0  2  0  0  0  0  0  0  0  0  0
   11.1214   -2.5699   11.9663 O   0  0  0  0  0  0  0  0  0  0  0  0
    7.2146   10.7442   15.6928 C   0  0  2  0  0  0  0  0  0  0  0  0
    7.6210    9.9234   16.8250 O   0  0  0  0  0  0  0  0  0  0  0  0
    6.9703    7.1737   16.1845 C   0  0  2  0  0  0  0  0  0  0  0  0
    7.0761    7.8622   14.9073 O   0  0  0  0  0  0  0  0  0  0  0  0
    7.3524    9.0615   11.0466 C   0  0  0  0  0  0  0  0  0  0  0  0
    6.1565    9.0994   11.8392 O   0  0  0  0  0  0  0  0  0  0  0  0
    9.1484    2.4446   10.1291 C   0  0  1  0  0  0  0  0  0  0  0  0
    8.6982    3.8102   10.2596 O   0  0  0  0  0  0  0  0  0  0  0  0
   12.9214   -0.8522   11.9348 C   0  0  2  0  0  0  0  0  0  0  0  0
   13.4354    0.3532   11.3477 O   0  0  0  0  0  0  0  0  0  0  0  0
    8.3982   10.8086   14.7887 C   0  0  0  0  0  0  0  0  0  0  0  0
    9.4781   11.3048   15.5421 O   0  0  0  0  0  0  0  0  0  0  0  0
    7.1271    5.6215   16.0491 C   0  0  1  0  0  0  0  0  0  0  0  0
    8.4824    5.3645   15.5949 O   0  0  0  0  0  0  0  0  0  0  0  0
    9.0188    2.0132    8.6358 C   0  0  0  0  0  0  0  0  0  0  0  0
    8.1578    0.8278    8.4403 N   0  0  0  0  0  0  0  0  0  0  0  0
   13.9076   -1.3408   12.9933 C   0  0  0  0  0  0  0  0  0  0  0  0
   14.6345   -0.2143   13.5512 O   0  0  0  0  0  0  0  0  0  0  0  0
  1  2  1  6  0  0  0
  1  8  1  0  0  0  0
  1 36  1  0  0  0  0
  3  4  1  6  0  0  0
  3 10  1  0  0  0  0
  3 47  1  0  0  0  0
  5 11  1  0  0  0  0
  5 30  1  0  0  0  0
  5 38  1  1  0  0  0
  6 21  1  6  0  0  0
  6 42  1  0  0  0  0
  7 15  1  0  0  0  0
  7 44  1  0  0  0  0
  7 32  1  1  0  0  0
  8  9  1  1  0  0  0
  8 17  1  0  0  0  0
 11 12  1  1  0  0  0
 11 20  1  0  0  0  0
 13  6  1  0  0  0  0
 13 14  1  6  0  0  0
 15 16  1  6  0  0  0
 15 24  1  0  0  0  0
 17 26  1  0  0  0  0
 18 10  1  0  0  0  0
 18 19  1  6  0  0  0
 20 21  1  1  0  0  0
 20 29  1  0  0  0  0
 22 13  1  0  0  0  0
 22 23  1  6  0  0  0
 24 25  1  6  0  0  0
 24 33  1  0  0  0  0
 26 27  1  6  0  0  0
 26 35  1  0  0  0  0
 28  2  1  1  0  0  0
 28 18  1  0  0  0  0
 29 30  1  0  0  0  0
 29 39  1  1  0  0  0
 31 22  1  0  0  0  0
 31 32  1  6  0  0  0
 31 41  1  0  0  0  0
 33 34  1  1  0  0  0
 33 43  1  0  0  0  0
 35 36  1  0  0  0  0
 35 45  1  6  0  0  0
 37 28  1  0  0  0  0
 37 38  1  6  0  0  0
 39 40  1  0  0  0  0
 41 42  1  0  0  0  0
 41 49  1  6  0  0  0
 43 44  1  0  0  0  0
 43 51  1  6  0  0  0
 45 46  1  0  0  0  0
 47 37  1  0  0  0  0
 47 48  1  1  0  0  0
 49 50  1  0  0  0  0
 51 52  1  0  0  0  0
M  END
>  <CHROM.1>
-163.38211007,93.06998921,-149.38066889,49.67151981,68.15320374,78.14313186
60.79143647,112.33213112,61.28436469,-152.31735720,80.04530157,179.53478543
8.68032134,5.13352519,13.53779012,2.96232428,1.13610035,-0.83549549

>  <Name>
2esj_lig

>  <RI>
0

>  <Rbt.Current_Directory>
/home/itssahil/PROJECTS/Mol_Feturizer/New_Systems/rnas/2esj

>  <Rbt.Executable>
rbdock ($Id: //depot/dev/client3/rdock/2013.1/src/exe/rbdock.cxx#4 $)

>  <Rbt.Library>
libRbt.so (2013.1, Build901 2013/11/27)

>  <Rbt.Parameter_File>
/export/apps/rDock/src/rDock_2013.1_src/data/scripts/dock_solv.prm

>  <Rbt.Receptor>
prm/blind_docking_60.prm

>  <SCORE>
13.183

>  <SCORE.INTER>
-7.62858

>  <SCORE.INTER.CONST>
1

>  <SCORE.INTER.POLAR>
-1.75148

>  <SCORE.INTER.ROT>
12

>  <SCORE.INTER.SOLV>
25.1699

>  <SCORE.INTER.VDW>
-19.2374

>  <SCORE.INTER.norm>
-0.146703

>  <SCORE.INTRA>
2.07002

>  <SCORE.INTRA.DIHEDRAL>
-6.91734

>  <SCORE.INTRA.DIHEDRAL.0>
32.9766

>  <SCORE.INTRA.POLAR>
0

>  <SCORE.INTRA.POLAR.0>
0

>  <SCORE.INTRA.REPUL>
0

>  <SCORE.INTRA.REPUL.0>
0

>  <SCORE.INTRA.SOLV>
0.22628

>  <SCORE.INTRA.SOLV.lig_0>
-114.358

>  <SCORE.INTRA.VDW>
5.41556

>  <SCORE.INTRA.VDW.0>
-8.24257

>  <SCORE.INTRA.norm>
0.0398082

>  <SCORE.RESTR>
18.7415

>  <SCORE.RESTR.CAVITY>
18.7415

>  <SCORE.RESTR.norm>
0.360414

>  <SCORE.SYSTEM>
0

>  <SCORE.SYSTEM.CONST>
0

>  <SCORE.SYSTEM.DIHEDRAL>
0

>  <SCORE.SYSTEM.SOLV>
0

>  <SCORE.SYSTEM.norm>
0

>  <SCORE.heavy>
52

>  <SCORE.norm>
0.253519

>  <RMSD>
18.275

$$$$
2esj_lig
 OpenBabel11021811423D
libRbt.so/2013.1/901 2013/11/27
 52 56  0  0  0  0  0  0  0  0999 V2000
    7.5879   10.3534   16.2473 C   0  0  2  0  0  0  0  0  0  0  0  0
    6.5355    9.5823   15.6367 O   0  0  0  0  0  0  0  0  0  0  0  0
    5.1265    9.6781   11.6002 C   0  0  2  0  0  0  0  0  0  0  0  0
    4.9814    9.5443   10.1413 N   0  0  0  0  0  0  0  0  0  0  0  0
    6.1982    6.0891   13.8955 C   0  0  1  0  0  0  0  0  0  0  0  0
    8.7728    3.2420   12.5653 C   0  0  1  0  0  0  0  0  0  0  0  0
   13.3501    2.1588   10.1814 C   0  0  1  0  0  0  0  0  0  0  0  0
    8.0229    9.6084   17.5438 C   0  0  2  0  0  0  0  0  0  0  0  0
    8.4388    8.2317   17.2777 N   0  0  0  0  0  0  0  0  0  0  0  0
    6.4419   10.4812   11.9498 C   0  0  0  0  0  0  0  0  0  0  0  0
    7.6369    6.5728   13.7098 C   0  0  2  0  0  0  0  0  0  0  0  0
    7.8272    7.2668   12.4577 O   0  0  0  0  0  0  0  0  0  0  0  0
   10.3244    3.4112   12.8892 C   0  0  2  0  0  0  0  0  0  0  0  0
   10.9297    4.4860   12.0588 N   0  0  0  0  0  0  0  0  0  0  0  0
   13.0990    1.1334    9.0818 C   0  0  1  0  0  0  0  0  0  0  0  0
   14.1382    1.2406    8.0882 O   0  0  0  0  0  0  0  0  0  0  0  0
    6.8769    9.6204   18.6046 C   0  0  0  0  0  0  0  0  0  0  0  0
    6.5497   10.6660   13.5169 C   0  0  2  0  0  0  0  0  0  0  0  0
    7.7708   11.3977   13.8694 N   0  0  0  0  0  0  0  0  0  0  0  0
    8.3788    5.2716   13.8123 C   0  0  2  0  0  0  0  0  0  0  0  0
    8.2516    4.5373   12.6210 O   0  0  0  0  0  0  0  0  0  0  0  0
   11.0347    1.9910   12.7734 C   0  0  1  0  0  0  0  0  0  0  0  0
   10.3123    1.0461   13.5698 O   0  0  0  0  0  0  0  0  0  0  0  0
   13.0391   -0.3170    9.5454 C   0  0  1  0  0  0  0  0  0  0  0  0
   13.0373   -1.1370    8.3716 O   0  0  0  0  0  0  0  0  0  0  0  0
    6.4364   11.0935   18.8528 C   0  0  2  0  0  0  0  0  0  0  0  0
    5.4492   11.1848   19.8644 O   0  0  0  0  0  0  0  0  0  0  0  0
    6.5216    9.2878   14.2274 C   0  0  2  0  0  0  0  0  0  0  0  0
    7.6131    4.4294   14.8535 C   0  0  2  0  0  0  0  0  0  0  0  0
    6.2845    4.9011   14.6946 O   0  0  0  0  0  0  0  0  0  0  0  0
   10.9806    1.4364   11.2906 C   0  0  2  0  0  0  0  0  0  0  0  0
   11.7371    2.3823   10.5333 O   0  0  0  0  0  0  0  0  0  0  0  0
   14.2058   -0.7248   10.4469 C   0  0  2  0  0  0  0  0  0  0  0  0
   13.8517   -1.9835   11.0428 O   0  0  0  0  0  0  0  0  0  0  0  0
    5.9355   11.6853   17.5119 C   0  0  2  0  0  0  0  0  0  0  0  0
    7.0553   11.6568   16.5812 O   0  0  0  0  0  0  0  0  0  0  0  0
    5.3052    8.3899   13.8336 C   0  0  2  0  0  0  0  0  0  0  0  0
    5.4186    7.0996   14.4959 O   0  0  0  0  0  0  0  0  0  0  0  0
    8.0387    4.5980   16.3117 C   0  0  0  0  0  0  0  0  0  0  0  0
    7.1503    3.8078   17.1154 O   0  0  0  0  0  0  0  0  0  0  0  0
    9.5429    1.6099   10.8401 C   0  0  1  0  0  0  0  0  0  0  0  0
    8.5756    2.6215   11.1945 O   0  0  0  0  0  0  0  0  0  0  0  0
   14.5463    0.3708   11.4509 C   0  0  2  0  0  0  0  0  0  0  0  0
   14.3691    1.7590   11.1296 O   0  0  0  0  0  0  0  0  0  0  0  0
    5.5297   13.1158   17.6197 C   0  0  0  0  0  0  0  0  0  0  0  0
    6.6530   13.8410   18.0585 O   0  0  0  0  0  0  0  0  0  0  0  0
    5.1876    8.2621   12.2773 C   0  0  1  0  0  0  0  0  0  0  0  0
    3.9347    7.5837   11.9954 O   0  0  0  0  0  0  0  0  0  0  0  0
    9.1838    1.0424    9.4323 C   0  0  0  0  0  0  0  0  0  0  0  0
   10.3313    1.0140    8.5012 N   0  0  0  0  0  0  0  0  0  0  0  0
   15.6753    0.2442   12.4711 C   0  0  0  0  0  0  0  0  0  0  0  0
   16.6991    1.2387   12.2035 O   0  0  0  0  0  0  0  0  0  0  0  0
  1  2  1  1  0  0  0
  1  8  1  0  0  0  0
  1 36  1  0  0  0  0
  3  4  1  6  0  0  0
  3 10  1  0  0  0  0
  3 47  1  0  0  0  0
  5 11  1  0  0  0  0
  5 30  1  0  0  0  0
  5 38  1  1  0  0  0
  6 21  1  6  0  0  0
  6 42  1  0  0  0  0
  7 15  1  0  0  0  0
  7 44  1  0  0  0  0
  7 32  1  1  0  0  0
  8  9  1  6  0  0  0
  8 17  1  0  0  0  0
 11 12  1  6  0  0  0
 11 20  1  0  0  0  0
 13  6  1  0  0  0  0
 13 14  1  6  0  0  0
 15 16  1  6  0  0  0
 15 24  1  0  0  0  0
 17 26  1  0  0  0  0
 18 10  1  0  0  0  0
 18 19  1  6  0  0  0
 20 21  1  6  0  0  0
 20 29  1  0  0  0  0
 22 13  1  0  0  0  0
 22 23  1  1  0  0  0
 24 25  1  6  0  0  0
 24 33  1  0  0  0  0
 26 27  1  1  0  0  0
 26 35  1  0  0  0  0
 28  2  1  1  0  0  0
 28 18  1  0  0  0  0
 29 30  1  0  0  0  0
 29 39  1  1  0  0  0
 31 22  1  0  0  0  0
 31 32  1  6  0  0  0
 31 41  1  0  0  0  0
 33 34  1  1  0  0  0
 33 43  1  0  0  0  0
 35 36  1  0  0  0  0
 35 45  1  1  0  0  0
 37 28  1  0  0  0  0
 37 38  1  1  0  0  0
 39 40  1  0  0  0  0
 41 42  1  0  0  0  0
 41 49  1  6  0  0  0
 43 44  1  0  0  0  0
 43 51  1  6  0  0  0
 45 46  1  0  0  0  0
 47 37  1  0  0  0  0
 47 48  1  1  0  0  0
 49 50  1  0  0  0  0
 51 52  1  0  0  0  0
M  END
>  <CHROM.1>
-133.86299487,58.43331532,-58.63417665,76.61274569,-174.26907719,-57.69493063
176.05656872,95.58816463,59.25028269,-84.89731614,-27.75174880,115.73355332
8.99501112,5.51308509,13.29043059,-2.29863439,0.68814160,-2.10855003

>  <Name>
2esj_lig

>  <RI>
0

>  <Rbt.Current_Directory>
/home/itssahil/PROJECTS/Mol_Feturizer/New_Systems/rnas/2esj

>  <Rbt.Executable>
rbdock ($Id: //depot/dev/client3/rdock/2013.1/src/exe/rbdock.cxx#4 $)

>  <Rbt.Library>
libRbt.so (2013.1, Build901 2013/11/27)

>  <Rbt.Parameter_File>
/export/apps/rDock/src/rDock_2013.1_src/data/scripts/dock_solv.prm

>  <Rbt.Receptor>
prm/blind_docking_40.prm

>  <SCORE>
14.2931

>  <SCORE.INTER>
-5.01454

>  <SCORE.INTER.CONST>
1

>  <SCORE.INTER.POLAR>
-0.684061

>  <SCORE.INTER.ROT>
12

>  <SCORE.INTER.SOLV>
25.2349

>  <SCORE.INTER.VDW>
-21.0745

>  <SCORE.INTER.norm>
-0.0964334

>  <SCORE.INTRA>
2.78755

>  <SCORE.INTRA.DIHEDRAL>
-11.6451

>  <SCORE.INTRA.DIHEDRAL.0>
32.9766

>  <SCORE.INTRA.POLAR>
0

>  <SCORE.INTRA.POLAR.0>
0

>  <SCORE.INTRA.REPUL>
0

>  <SCORE.INTRA.REPUL.0>
0

>  <SCORE.INTRA.SOLV>
4.84572

>  <SCORE.INTRA.SOLV.lig_0>
-114.358

>  <SCORE.INTRA.VDW>
6.18725

>  <SCORE.INTRA.VDW.0>
-8.24257

>  <SCORE.INTRA.norm>
0.0536067

>  <SCORE.RESTR>
16.52

>  <SCORE.RESTR.CAVITY>
16.52

>  <SCORE.RESTR.norm>
0.317693

>  <SCORE.SYSTEM>
0

>  <SCORE.SYSTEM.CONST>
0

>  <SCORE.SYSTEM.DIHEDRAL>
0

>  <SCORE.SYSTEM.SOLV>
0

>  <SCORE.SYSTEM.norm>
0

>  <SCORE.heavy>
52

>  <SCORE.norm>
0.274866

>  <RMSD>
18.434

$$$$
2esj_lig
 OpenBabel11021811423D
libRbt.so/2013.1/901 2013/11/27
 52 56  0  0  0  0  0  0  0  0999 V2000
    5.4350   10.5302   15.8405 C   0  0  2  0  0  0  0  0  0  0  0  0
    6.2192   10.0292   14.7410 O   0  0  0  0  0  0  0  0  0  0  0  0
    3.3808    8.5758   11.8915 C   0  0  2  0  0  0  0  0  0  0  0  0
    2.6136    8.2887   10.6683 N   0  0  0  0  0  0  0  0  0  0  0  0
    7.2697    6.3989   13.0170 C   0  0  1  0  0  0  0  0  0  0  0  0
    9.4824    2.9446   13.4541 C   0  0  1  0  0  0  0  0  0  0  0  0
   10.6852   -0.2416    9.6026 C   0  0  1  0  0  0  0  0  0  0  0  0
    6.3294   10.4821   17.1143 C   0  0  2  0  0  0  0  0  0  0  0  0
    7.5739   11.2315   16.9453 N   0  0  0  0  0  0  0  0  0  0  0  0
    3.4583   10.1349   12.1378 C   0  0  0  0  0  0  0  0  0  0  0  0
    8.4833    6.0898   13.8947 C   0  0  2  0  0  0  0  0  0  0  0  0
    9.7249    6.1557   13.1603 O   0  0  0  0  0  0  0  0  0  0  0  0
   10.1016    2.9546   11.9852 C   0  0  2  0  0  0  0  0  0  0  0  0
    9.0590    2.6716   10.9636 N   0  0  0  0  0  0  0  0  0  0  0  0
   11.2297   -1.5973   10.0375 C   0  0  1  0  0  0  0  0  0  0  0  0
   11.1702   -2.5109    8.9239 O   0  0  0  0  0  0  0  0  0  0  0  0
    6.6492    9.0069   17.5153 C   0  0  0  0  0  0  0  0  0  0  0  0
    4.2343   10.4209   13.4860 C   0  0  2  0  0  0  0  0  0  0  0  0
    4.3321   11.8635   13.7314 N   0  0  0  0  0  0  0  0  0  0  0  0
    8.1267    4.7147   14.3806 C   0  0  2  0  0  0  0  0  0  0  0  0
    8.3523    3.7625   13.3722 O   0  0  0  0  0  0  0  0  0  0  0  0
   11.3612    1.9813   11.9485 C   0  0  1  0  0  0  0  0  0  0  0  0
   12.2449    2.3278   13.0198 O   0  0  0  0  0  0  0  0  0  0  0  0
   12.6608   -1.5866   10.5613 C   0  0  1  0  0  0  0  0  0  0  0  0
   13.0740   -2.9512   10.6921 O   0  0  0  0  0  0  0  0  0  0  0  0
    5.3107    8.2251   17.6662 C   0  0  2  0  0  0  0  0  0  0  0  0
    5.5240    6.8954   18.1051 O   0  0  0  0  0  0  0  0  0  0  0  0
    5.6473    9.7833   13.4427 C   0  0  2  0  0  0  0  0  0  0  0  0
    6.5945    4.7136   14.5592 C   0  0  2  0  0  0  0  0  0  0  0  0
    6.1823    5.6472   13.5735 O   0  0  0  0  0  0  0  0  0  0  0  0
   10.9375    0.4771   12.2076 C   0  0  2  0  0  0  0  0  0  0  0  0
   10.0871    0.1562   11.1057 O   0  0  0  0  0  0  0  0  0  0  0  0
   13.6437   -0.8440    9.6544 C   0  0  2  0  0  0  0  0  0  0  0  0
   14.8476   -0.6507   10.4145 O   0  0  0  0  0  0  0  0  0  0  0  0
    4.5667    8.2651   16.3083 C   0  0  2  0  0  0  0  0  0  0  0  0
    4.2889    9.6628   16.0081 O   0  0  0  0  0  0  0  0  0  0  0  0
    5.6519    8.2625   13.0845 C   0  0  2  0  0  0  0  0  0  0  0  0
    7.0243    7.7877   12.9974 O   0  0  0  0  0  0  0  0  0  0  0  0
    6.0677    5.1540   15.9246 C   0  0  0  0  0  0  0  0  0  0  0  0
    6.8190    4.4509   16.9251 O   0  0  0  0  0  0  0  0  0  0  0  0
   10.0332    0.5097   13.4247 C   0  0  1  0  0  0  0  0  0  0  0  0
    9.1177    1.5322   13.8728 O   0  0  0  0  0  0  0  0  0  0  0  0
   13.0357    0.4417    9.1048 C   0  0  2  0  0  0  0  0  0  0  0  0
   11.6287    0.5476    8.8383 O   0  0  0  0  0  0  0  0  0  0  0  0
    3.2411    7.5840   16.3478 C   0  0  0  0  0  0  0  0  0  0  0  0
    3.4732    6.2253   16.6307 O   0  0  0  0  0  0  0  0  0  0  0  0
    4.8360    7.9959   11.7748 C   0  0  1  0  0  0  0  0  0  0  0  0
    4.7262    6.5557   11.6227 O   0  0  0  0  0  0  0  0  0  0  0  0
    9.5493   -0.8706   13.9665 C   0  0  0  0  0  0  0  0  0  0  0  0
    8.4765   -0.7605   14.9772 N   0  0  0  0  0  0  0  0  0  0  0  0
   13.7850    1.3812    8.1628 C   0  0  0  0  0  0  0  0  0  0  0  0
   14.5725    2.3291    8.9310 O   0  0  0  0  0  0  0  0  0  0  0  0
  1  2  1  6  0  0  0
  1  8  1  0  0  0  0
  1 36  1  0  0  0  0
  3  4  1  6  0  0  0
  3 10  1  0  0  0  0
  3 47  1  0  0  0  0
  5 11  1  0  0  0  0
  5 30  1  0  0  0  0
  5 38  1  1  0  0  0
  6 21  1  6  0  0  0
  6 42  1  0  0  0  0
  7 15  1  0  0  0  0
  7 44  1  0  0  0  0
  7 32  1  1  0  0  0
  8  9  1  6  0  0  0
  8 17  1  0  0  0  0
 11 12  1  6  0  0  0
 11 20  1  0  0  0  0
 13  6  1  0  0  0  0
 13 14  1  6  0  0  0
 15 16  1  6  0  0  0
 15 24  1  0  0  0  0
 17 26  1  0  0  0  0
 18 10  1  0  0  0  0
 18 19  1  6  0  0  0
 20 21  1  6  0  0  0
 20 29  1  0  0  0  0
 22 13  1  0  0  0  0
 22 23  1  1  0  0  0
 24 25  1  6  0  0  0
 24 33  1  0  0  0  0
 26 27  1  6  0  0  0
 26 35  1  0  0  0  0
 28  2  1  1  0  0  0
 28 18  1  0  0  0  0
 29 30  1  0  0  0  0
 29 39  1  1  0  0  0
 31 22  1  0  0  0  0
 31 32  1  6  0  0  0
 31 41  1  0  0  0  0
 33 34  1  1  0  0  0
 33 43  1  0  0  0  0
 35 36  1  0  0  0  0
 35 45  1  1  0  0  0
 37 28  1  0  0  0  0
 37 38  1  6  0  0  0
 39 40  1  0  0  0  0
 41 42  1  0  0  0  0
 41 49  1  6  0  0  0
 43 44  1  0  0  0  0
 43 51  1  6  0  0  0
 45 46  1  0  0  0  0
 47 37  1  0  0  0  0
 47 48  1  1  0  0  0
 49 50  1  0  0  0  0
 51 52  1  0  0  0  0
M  END
>  <CHROM.1>
172.29310326,-138.30080831,-134.73205721,70.73863517,103.64416027,10.80306113
-47.82374112,79.51780232,-63.03835925,164.33478689,-168.87933253,-86.88493664
8.16435914,4.62962245,13.12487656,-3.08182579,-0.96370834,2.09391888

>  <Name>
2esj_lig

>  <RI>
0

>  <Rbt.Current_Directory>
/home/itssahil/PROJECTS/Mol_Feturizer/New_Systems/rnas/2esj

>  <Rbt.Executable>
rbdock ($Id: //depot/dev/client3/rdock/2013.1/src/exe/rbdock.cxx#4 $)

>  <Rbt.Library>
libRbt.so (2013.1, Build901 2013/11/27)

>  <Rbt.Parameter_File>
/export/apps/rDock/src/rDock_2013.1_src/data/scripts/dock_solv.prm

>  <Rbt.Receptor>
prm/blind_docking_60.prm

>  <SCORE>
20.3288

>  <SCORE.INTER>
-1.91174

>  <SCORE.INTER.CONST>
1

>  <SCORE.INTER.POLAR>
-0.817941

>  <SCORE.INTER.ROT>
12

>  <SCORE.INTER.SOLV>
24.5319

>  <SCORE.INTER.VDW>
-18.3253

>  <SCORE.INTER.norm>
-0.0367642

>  <SCORE.INTRA>
5.64348

>  <SCORE.INTRA.DIHEDRAL>
0.721365

>  <SCORE.INTRA.DIHEDRAL.0>
32.9766

>  <SCORE.INTRA.POLAR>
0

>  <SCORE.INTRA.POLAR.0>
0

>  <SCORE.INTRA.REPUL>
0

>  <SCORE.INTRA.REPUL.0>
0

>  <SCORE.INTRA.SOLV>
-0.688274

>  <SCORE.INTRA.SOLV.lig_0>
-114.358

>  <SCORE.INTRA.VDW>
5.62693

>  <SCORE.INTRA.VDW.0>
-8.24257

>  <SCORE.INTRA.norm>
0.108528

>  <SCORE.RESTR>
16.5971

>  <SCORE.RESTR.CAVITY>
16.5971

>  <SCORE.RESTR.norm>
0.319175

>  <SCORE.SYSTEM>
0

>  <SCORE.SYSTEM.CONST>
0

>  <SCORE.SYSTEM.DIHEDRAL>
0

>  <SCORE.SYSTEM.SOLV>
0

>  <SCORE.SYSTEM.norm>
0

>  <SCORE.heavy>
52

>  <SCORE.norm>
0.390939

>  <RMSD>
18.487

$$$$
2esj_lig
 OpenBabel11021811423D
libRbt.so/2013.1/901 2013/11/27
 52 56  0  0  0  0  0  0  0  0999 V2000
    7.1297    8.5128   15.3706 C   0  0  2  0  0  0  0  0  0  0  0  0
    6.5405    8.2382   16.6560 O   0  0  0  0  0  0  0  0  0  0  0  0
    2.9907    6.5204   18.3100 C   0  0  2  0  0  0  0  0  0  0  0  0
    1.5983    6.1997   18.6650 N   0  0  0  0  0  0  0  0  0  0  0  0
    5.9318    5.3825   14.5858 C   0  0  1  0  0  0  0  0  0  0  0  0
    9.2436    3.0014   13.5702 C   0  0  1  0  0  0  0  0  0  0  0  0
   11.1982    1.6031    9.1381 C   0  0  1  0  0  0  0  0  0  0  0  0
    8.1681    9.6568   15.5659 C   0  0  2  0  0  0  0  0  0  0  0  0
    9.1783    9.3218   16.5691 N   0  0  0  0  0  0  0  0  0  0  0  0
    3.3030    8.0366   18.6279 C   0  0  0  0  0  0  0  0  0  0  0  0
    7.2664    6.0412   14.2343 C   0  0  2  0  0  0  0  0  0  0  0  0
    7.3280    6.4573   12.8528 O   0  0  0  0  0  0  0  0  0  0  0  0
   10.2041    3.4802   12.3915 C   0  0  2  0  0  0  0  0  0  0  0  0
    9.4312    3.7597   11.1523 N   0  0  0  0  0  0  0  0  0  0  0  0
   10.5132    0.5796    8.2399 C   0  0  1  0  0  0  0  0  0  0  0  0
   10.5331    1.0552    6.8790 O   0  0  0  0  0  0  0  0  0  0  0  0
    7.4588   10.9931   15.9535 C   0  0  0  0  0  0  0  0  0  0  0  0
    4.8180    8.3467   18.2960 C   0  0  2  0  0  0  0  0  0  0  0  0
    5.1309    9.7531   18.5699 N   0  0  0  0  0  0  0  0  0  0  0  0
    8.2189    4.9360   14.5883 C   0  0  2  0  0  0  0  0  0  0  0  0
    8.2105    3.9420   13.5952 O   0  0  0  0  0  0  0  0  0  0  0  0
   11.3839    2.4241   12.2246 C   0  0  1  0  0  0  0  0  0  0  0  0
   11.9939    2.2063   13.5010 O   0  0  0  0  0  0  0  0  0  0  0  0
   11.1243   -0.8163    8.2595 C   0  0  1  0  0  0  0  0  0  0  0  0
   10.5141   -1.5606    7.1994 O   0  0  0  0  0  0  0  0  0  0  0  0
    6.3735   11.3152   14.8839 C   0  0  2  0  0  0  0  0  0  0  0  0
    5.7414   12.5581   15.1327 O   0  0  0  0  0  0  0  0  0  0  0  0
    5.1292    8.0024   16.8162 C   0  0  2  0  0  0  0  0  0  0  0  0
    7.6141    4.2359   15.8226 C   0  0  2  0  0  0  0  0  0  0  0  0
    6.2237    4.4353   15.6226 O   0  0  0  0  0  0  0  0  0  0  0  0
   10.8350    1.0120   11.7620 C   0  0  2  0  0  0  0  0  0  0  0  0
   10.2659    1.2599   10.4754 O   0  0  0  0  0  0  0  0  0  0  0  0
   12.6431   -0.8270    8.0775 C   0  0  2  0  0  0  0  0  0  0  0  0
   13.0956   -2.1449    8.4280 O   0  0  0  0  0  0  0  0  0  0  0  0
    5.3524   10.1508   14.8591 C   0  0  2  0  0  0  0  0  0  0  0  0
    6.0778    8.9473   14.4768 O   0  0  0  0  0  0  0  0  0  0  0  0
    4.7321    6.5496   16.4006 C   0  0  2  0  0  0  0  0  0  0  0  0
    4.9960    6.3603   14.9825 O   0  0  0  0  0  0  0  0  0  0  0  0
    8.0142    4.7955   17.1873 C   0  0  0  0  0  0  0  0  0  0  0  0
    7.1607    4.1907   18.1698 O   0  0  0  0  0  0  0  0  0  0  0  0
    9.6624    0.7087   12.6748 C   0  0  1  0  0  0  0  0  0  0  0  0
    8.7172    1.6041   13.2991 O   0  0  0  0  0  0  0  0  0  0  0  0
   13.3088    0.2952    8.8662 C   0  0  2  0  0  0  0  0  0  0  0  0
   12.6444    1.5490    9.0860 O   0  0  0  0  0  0  0  0  0  0  0  0
    4.2869   10.3296   13.8318 C   0  0  0  0  0  0  0  0  0  0  0  0
    4.8756   10.1160   12.5717 O   0  0  0  0  0  0  0  0  0  0  0  0
    3.2443    6.2472   16.7841 C   0  0  1  0  0  0  0  0  0  0  0  0
    3.0181    4.8325   16.5455 O   0  0  0  0  0  0  0  0  0  0  0  0
    8.9920   -0.6889   12.5019 C   0  0  0  0  0  0  0  0  0  0  0  0
    9.7293   -1.7801   13.1729 N   0  0  0  0  0  0  0  0  0  0  0  0
   14.8171    0.5336    8.8643 C   0  0  0  0  0  0  0  0  0  0  0  0
   15.1534    1.5887    9.8036 O   0  0  0  0  0  0  0  0  0  0  0  0
  1  2  1  1  0  0  0
  1  8  1  0  0  0  0
  1 36  1  0  0  0  0
  3  4  1  6  0  0  0
  3 10  1  0  0  0  0
  3 47  1  0  0  0  0
  5 11  1  0  0  0  0
  5 30  1  0  0  0  0
  5 38  1  1  0  0  0
  6 21  1  6  0  0  0
  6 42  1  0  0  0  0
  7 15  1  0  0  0  0
  7 44  1  0  0  0  0
  7 32  1  1  0  0  0
  8  9  1  1  0  0  0
  8 17  1  0  0  0  0
 11 12  1  6  0  0  0
 11 20  1  0  0  0  0
 13  6  1  0  0  0  0
 13 14  1  6  0  0  0
 15 16  1  6  0  0  0
 15 24  1  0  0  0  0
 17 26  1  0  0  0  0
 18 10  1  0  0  0  0
 18 19  1  6  0  0  0
 20 21  1  6  0  0  0
 20 29  1  0  0  0  0
 22 13  1  0  0  0  0
 22 23  1  1  0  0  0
 24 25  1  6  0  0  0
 24 33  1  0  0  0  0
 26 27  1  1  0  0  0
 26 35  1  0  0  0  0
 28  2  1  1  0  0  0
 28 18  1  0  0  0  0
 29 30  1  0  0  0  0
 29 39  1  1  0  0  0
 31 22  1  0  0  0  0
 31 32  1  6  0  0  0
 31 41  1  0  0  0  0
 33 34  1  1  0  0  0
 33 43  1  0  0  0  0
 35 36  1  0  0  0  0
 35 45  1  6  0  0  0
 37 28  1  0  0  0  0
 37 38  1  6  0  0  0
 39 40  1  0  0  0  0
 41 42  1  0  0  0  0
 41 49  1  6  0  0  0
 43 44  1  0  0  0  0
 43 51  1  6  0  0  0
 45 46  1  0  0  0  0
 47 37  1  0  0  0  0
 47 48  1  1  0  0  0
 49 50  1  0  0  0  0
 51 52  1  0  0  0  0
M  END
>  <CHROM.1>
137.96832851,-101.17006215,-102.44594839,130.69543120,164.77695597,-156.65060188
169.02713465,70.35267278,72.43030695,118.14328958,80.10332473,-174.65201104
8.13578967,4.67417012,13.53899359,-2.47711689,-0.83847128,3.07831218

>  <Name>
2esj_lig

>  <RI>
0

>  <Rbt.Current_Directory>
/home/itssahil/PROJECTS/Mol_Feturizer/New_Systems/rnas/2esj

>  <Rbt.Executable>
rbdock ($Id: //depot/dev/client3/rdock/2013.1/src/exe/rbdock.cxx#4 $)

>  <Rbt.Library>
libRbt.so (2013.1, Build901 2013/11/27)

>  <Rbt.Parameter_File>
/export/apps/rDock/src/rDock_2013.1_src/data/scripts/dock_solv.prm

>  <Rbt.Receptor>
prm/blind_docking_60.prm

>  <SCORE>
24.3079

>  <SCORE.INTER>
-1.07395

>  <SCORE.INTER.CONST>
1

>  <SCORE.INTER.POLAR>
-0.231255

>  <SCORE.INTER.ROT>
12

>  <SCORE.INTER.SOLV>
19.1638

>  <SCORE.INTER.VDW>
-17.933

>  <SCORE.INTER.norm>
-0.0206529

>  <SCORE.INTRA>
5.91149

>  <SCORE.INTRA.DIHEDRAL>
7.66025

>  <SCORE.INTRA.DIHEDRAL.0>
32.9766

>  <SCORE.INTRA.POLAR>
0

>  <SCORE.INTRA.POLAR.0>
0

>  <SCORE.INTRA.REPUL>
0

>  <SCORE.INTRA.REPUL.0>
0

>  <SCORE.INTRA.SOLV>
-1.87445

>  <SCORE.INTRA.SOLV.lig_0>
-114.358

>  <SCORE.INTRA.VDW>
3.01858

>  <SCORE.INTRA.VDW.0>
-8.24257

>  <SCORE.INTRA.norm>
0.113682

>  <SCORE.RESTR>
19.4704

>  <SCORE.RESTR.CAVITY>
19.4704

>  <SCORE.RESTR.norm>
0.374431

>  <SCORE.SYSTEM>
0

>  <SCORE.SYSTEM.CONST>
0

>  <SCORE.SYSTEM.DIHEDRAL>
0

>  <SCORE.SYSTEM.SOLV>
0

>  <SCORE.SYSTEM.norm>
0

>  <SCORE.heavy>
52

>  <SCORE.norm>
0.46746

>  <RMSD>
18.498

$$$$
2esj_lig
 OpenBabel11021811423D
libRbt.so/2013.1/901 2013/11/27
 52 56  0  0  0  0  0  0  0  0999 V2000
    4.9407   10.0284   12.4696 C   0  0  2  0  0  0  0  0  0  0  0  0
    4.8740    8.5916   12.5467 O   0  0  0  0  0  0  0  0  0  0  0  0
    3.9348    7.2860   16.5092 C   0  0  2  0  0  0  0  0  0  0  0  0
    3.2853    6.7221   17.7040 N   0  0  0  0  0  0  0  0  0  0  0  0
    6.4974    5.6098   12.6335 C   0  0  1  0  0  0  0  0  0  0  0  0
    8.6739    4.5674   11.4162 C   0  0  1  0  0  0  0  0  0  0  0  0
   12.5361    1.1932   12.2302 C   0  0  1  0  0  0  0  0  0  0  0  0
    5.7337   10.3921   11.1797 C   0  0  2  0  0  0  0  0  0  0  0  0
    5.1359    9.8081    9.9794 N   0  0  0  0  0  0  0  0  0  0  0  0
    3.0086    8.3814   15.8462 C   0  0  0  0  0  0  0  0  0  0  0  0
    6.8126    6.8231   11.7577 C   0  0  2  0  0  0  0  0  0  0  0  0
    6.3741    6.6461   10.3933 O   0  0  0  0  0  0  0  0  0  0  0  0
    9.7210    4.1694   12.5505 C   0  0  2  0  0  0  0  0  0  0  0  0
   11.0971    4.5940   12.1804 N   0  0  0  0  0  0  0  0  0  0  0  0
   13.6709    1.8549   11.4569 C   0  0  1  0  0  0  0  0  0  0  0  0
   14.8228    1.9738   12.3155 O   0  0  0  0  0  0  0  0  0  0  0  0
    7.2260    9.9471   11.2989 C   0  0  0  0  0  0  0  0  0  0  0  0
    3.7473    9.0170   14.6005 C   0  0  2  0  0  0  0  0  0  0  0  0
    2.9022   10.0288   13.9579 N   0  0  0  0  0  0  0  0  0  0  0  0
    8.3032    6.8991   11.9212 C   0  0  2  0  0  0  0  0  0  0  0  0
    8.9344    5.9131   11.1442 O   0  0  0  0  0  0  0  0  0  0  0  0
    9.5610    2.6201   12.8812 C   0  0  1  0  0  0  0  0  0  0  0  0
    8.1832    2.3454   13.1548 O   0  0  0  0  0  0  0  0  0  0  0  0
   14.1029    1.1305   10.1876 C   0  0  1  0  0  0  0  0  0  0  0  0
   15.3105    1.7527    9.7351 O   0  0  0  0  0  0  0  0  0  0  0  0
    7.8323   10.5620   12.5951 C   0  0  2  0  0  0  0  0  0  0  0  0
    9.2101   10.2609   12.7263 O   0  0  0  0  0  0  0  0  0  0  0  0
    4.1383    7.9142   13.5826 C   0  0  2  0  0  0  0  0  0  0  0  0
    8.5913    6.4704   13.3747 C   0  0  2  0  0  0  0  0  0  0  0  0
    7.5247    5.5713   13.6337 O   0  0  0  0  0  0  0  0  0  0  0  0
    9.9413    1.7203   11.6342 C   0  0  2  0  0  0  0  0  0  0  0  0
   11.3256    1.9936   11.4121 O   0  0  0  0  0  0  0  0  0  0  0  0
   14.3473   -0.3666   10.3850 C   0  0  2  0  0  0  0  0  0  0  0  0
   14.4335   -0.9511    9.0752 O   0  0  0  0  0  0  0  0  0  0  0  0
    7.0177   10.0458   13.8071 C   0  0  2  0  0  0  0  0  0  0  0  0
    5.6478   10.5096   13.6368 O   0  0  0  0  0  0  0  0  0  0  0  0
    4.9566    6.7352   14.2001 C   0  0  2  0  0  0  0  0  0  0  0  0
    5.2026    5.7274   13.1801 O   0  0  0  0  0  0  0  0  0  0  0  0
    8.5844    7.5796   14.4260 C   0  0  0  0  0  0  0  0  0  0  0  0
    8.3761    6.9621   15.7047 O   0  0  0  0  0  0  0  0  0  0  0  0
    9.2109    2.3279   10.4521 C   0  0  1  0  0  0  0  0  0  0  0  0
    8.8648    3.7036   10.1832 O   0  0  0  0  0  0  0  0  0  0  0  0
   13.2859   -0.9930   11.2827 C   0  0  2  0  0  0  0  0  0  0  0  0
   12.6667   -0.2449   12.3404 O   0  0  0  0  0  0  0  0  0  0  0  0
    7.4820   10.6102   15.1065 C   0  0  0  0  0  0  0  0  0  0  0  0
    6.7484    9.9778   16.1273 O   0  0  0  0  0  0  0  0  0  0  0  0
    4.2323    6.1544   15.4612 C   0  0  1  0  0  0  0  0  0  0  0  0
    5.1420    5.2070   16.0809 O   0  0  0  0  0  0  0  0  0  0  0  0
    9.3299    1.5654    9.0966 C   0  0  0  0  0  0  0  0  0  0  0  0
   10.6641    0.9696    8.8741 N   0  0  0  0  0  0  0  0  0  0  0  0
   13.2828   -2.4721   11.6618 C   0  0  0  0  0  0  0  0  0  0  0  0
   13.6526   -3.2792   10.5126 O   0  0  0  0  0  0  0  0  0  0  0  0
  1  2  1  1  0  0  0
  1  8  1  0  0  0  0
  1 36  1  0  0  0  0
  3  4  1  1  0  0  0
  3 10  1  0  0  0  0
  3 47  1  0  0  0  0
  5 11  1  0  0  0  0
  5 30  1  0  0  0  0
  5 38  1  1  0  0  0
  6 21  1  6  0  0  0
  6 42  1  0  0  0  0
  7 15  1  0  0  0  0
  7 44  1  0  0  0  0
  7 32  1  6  0  0  0
  8  9  1  6  0  0  0
  8 17  1  0  0  0  0
 11 12  1  6  0  0  0
 11 20  1  0  0  0  0
 13  6  1  0  0  0  0
 13 14  1  6  0  0  0
 15 16  1  1  0  0  0
 15 24  1  0  0  0  0
 17 26  1  0  0  0  0
 18 10  1  0  0  0  0
 18 19  1  6  0  0  0
 20 21  1  6  0  0  0
 20 29  1  0  0  0  0
 22 13  1  0  0  0  0
 22 23  1  6  0  0  0
 24 25  1  1  0  0  0
 24 33  1  0  0  0  0
 26 27  1  1  0  0  0
 26 35  1  0  0  0  0
 28  2  1  6  0  0  0
 28 18  1  0  0  0  0
 29 30  1  0  0  0  0
 29 39  1  1  0  0  0
 31 22  1  0  0  0  0
 31 32  1  6  0  0  0
 31 41  1  0  0  0  0
 33 34  1  6  0  0  0
 33 43  1  0  0  0  0
 35 36  1  0  0  0  0
 35 45  1  1  0  0  0
 37 28  1  0  0  0  0
 37 38  1  6  0  0  0
 39 40  1  0  0  0  0
 41 42  1  0  0  0  0
 41 49  1  6  0  0  0
 43 44  1  0  0  0  0
 43 51  1  1  0  0  0
 45 46  1  0  0  0  0
 47 37  1  0  0  0  0
 47 48  1  1  0  0  0
 49 50  1  0  0  0  0
 51 52  1  0  0  0  0
M  END
>  <CHROM.1>
-176.25010316,-70.01979248,-86.78602607,175.53842109,-62.19298325,-9.97188724
159.15527242,85.00779710,-174.84692733,106.09454707,-37.14113773,-40.26566685
8.52594752,5.20803255,12.54486468,-2.52996930,-0.67010316,2.77226529

>  <Name>
2esj_lig

>  <RI>
0

>  <Rbt.Current_Directory>
/home/itssahil/PROJECTS/Mol_Feturizer/New_Systems/rnas/2esj

>  <Rbt.Executable>
rbdock ($Id: //depot/dev/client3/rdock/2013.1/src/exe/rbdock.cxx#4 $)

>  <Rbt.Library>
libRbt.so (2013.1, Build901 2013/11/27)

>  <Rbt.Parameter_File>
/export/apps/rDock/src/rDock_2013.1_src/data/scripts/dock_solv.prm

>  <Rbt.Receptor>
prm/blind_docking_40.prm

>  <SCORE>
23.0702

>  <SCORE.INTER>
-9.38724

>  <SCORE.INTER.CONST>
1

>  <SCORE.INTER.POLAR>
-1.97655

>  <SCORE.INTER.ROT>
12

>  <SCORE.INTER.SOLV>
28.6135

>  <SCORE.INTER.VDW>
-20.8075

>  <SCORE.INTER.norm>
-0.180524

>  <SCORE.INTRA>
11.1722

>  <SCORE.INTRA.DIHEDRAL>
-7.00104

>  <SCORE.INTRA.DIHEDRAL.0>
32.9766

>  <SCORE.INTRA.POLAR>
0

>  <SCORE.INTRA.POLAR.0>
0

>  <SCORE.INTRA.REPUL>
0

>  <SCORE.INTRA.REPUL.0>
0

>  <SCORE.INTRA.SOLV>
6.74175

>  <SCORE.INTRA.SOLV.lig_0>
-114.358

>  <SCORE.INTRA.VDW>
11.3018

>  <SCORE.INTRA.VDW.0>
-8.24257

>  <SCORE.INTRA.norm>
0.21485

>  <SCORE.RESTR>
21.2852

>  <SCORE.RESTR.CAVITY>
21.2852

>  <SCORE.RESTR.norm>
0.409332

>  <SCORE.SYSTEM>
0

>  <SCORE.SYSTEM.CONST>
0

>  <SCORE.SYSTEM.DIHEDRAL>
0

>  <SCORE.SYSTEM.SOLV>
0

>  <SCORE.SYSTEM.norm>
0

>  <SCORE.heavy>
52

>  <SCORE.norm>
0.443657

>  <RMSD>
18.659

$$$$
2esj_lig
 OpenBabel11021811423D
libRbt.so/2013.1/901 2013/11/27
 52 56  0  0  0  0  0  0  0  0999 V2000
    6.9515    7.6542   16.6897 C   0  0  2  0  0  0  0  0  0  0  0  0
    5.7704    8.0589   15.9714 O   0  0  0  0  0  0  0  0  0  0  0  0
    2.6467    6.8865   18.6465 C   0  0  2  0  0  0  0  0  0  0  0  0
    1.4080    6.8066   19.4379 N   0  0  0  0  0  0  0  0  0  0  0  0
    4.0780    7.6284   13.9751 C   0  0  1  0  0  0  0  0  0  0  0  0
    5.6568   10.3491   11.6925 C   0  0  1  0  0  0  0  0  0  0  0  0
    9.4274   12.0529   14.8990 C   0  0  1  0  0  0  0  0  0  0  0  0
    7.8673    6.8865   15.6912 C   0  0  2  0  0  0  0  0  0  0  0  0
    8.1934    7.6874   14.5116 N   0  0  0  0  0  0  0  0  0  0  0  0
    3.3826    8.2590   18.9156 C   0  0  0  0  0  0  0  0  0  0  0  0
    3.6640    7.3878   12.5228 C   0  0  2  0  0  0  0  0  0  0  0  0
    4.4606    6.3658   11.8853 O   0  0  0  0  0  0  0  0  0  0  0  0
    7.2012   10.2569   11.3083 C   0  0  2  0  0  0  0  0  0  0  0  0
    7.9094    9.2762   12.1730 N   0  0  0  0  0  0  0  0  0  0  0  0
    8.9824   10.8818   15.7673 C   0  0  1  0  0  0  0  0  0  0  0  0
    9.9987   10.6102   16.7532 O   0  0  0  0  0  0  0  0  0  0  0  0
    7.2081    5.5404   15.2524 C   0  0  0  0  0  0  0  0  0  0  0  0
    4.7391    8.3014   18.1035 C   0  0  2  0  0  0  0  0  0  0  0  0
    5.4362    9.5725   18.3255 N   0  0  0  0  0  0  0  0  0  0  0  0
    3.8547    8.7633   11.9521 C   0  0  2  0  0  0  0  0  0  0  0  0
    5.2191    9.0228   11.7385 O   0  0  0  0  0  0  0  0  0  0  0  0
    7.8218   11.7231   11.3061 C   0  0  1  0  0  0  0  0  0  0  0  0
    7.0066   12.5693   10.4886 O   0  0  0  0  0  0  0  0  0  0  0  0
    7.6593   11.0785   16.4974 C   0  0  1  0  0  0  0  0  0  0  0  0
    7.5258   10.0001   17.4299 O   0  0  0  0  0  0  0  0  0  0  0  0
    6.8497    4.7174   16.5252 C   0  0  2  0  0  0  0  0  0  0  0  0
    6.3164    3.4468   16.1978 O   0  0  0  0  0  0  0  0  0  0  0  0
    4.4710    8.0895   16.5908 C   0  0  2  0  0  0  0  0  0  0  0  0
    3.4591    9.7450   13.0744 C   0  0  2  0  0  0  0  0  0  0  0  0
    3.7907    9.0083   14.2407 O   0  0  0  0  0  0  0  0  0  0  0  0
    7.7941   12.3651   12.7540 C   0  0  2  0  0  0  0  0  0  0  0  0
    8.6417   11.5176   13.5310 O   0  0  0  0  0  0  0  0  0  0  0  0
    7.5592   12.4098   17.2442 C   0  0  2  0  0  0  0  0  0  0  0  0
    6.1789   12.5829   17.6042 O   0  0  0  0  0  0  0  0  0  0  0  0
    5.8608    5.5478   17.3805 C   0  0  2  0  0  0  0  0  0  0  0  0
    6.5455    6.7745   17.7645 O   0  0  0  0  0  0  0  0  0  0  0  0
    3.6404    6.8077   16.2620 C   0  0  2  0  0  0  0  0  0  0  0  0
    3.3841    6.7482   14.8312 O   0  0  0  0  0  0  0  0  0  0  0  0
    1.9875   10.1529   13.1350 C   0  0  0  0  0  0  0  0  0  0  0  0
    1.9403   11.5678   13.3703 O   0  0  0  0  0  0  0  0  0  0  0  0
    6.3909   12.1310   13.2796 C   0  0  1  0  0  0  0  0  0  0  0  0
    5.4774   11.0408   13.0313 O   0  0  0  0  0  0  0  0  0  0  0  0
    8.1422   13.5558   16.4250 C   0  0  2  0  0  0  0  0  0  0  0  0
    9.2399   13.3460   15.5235 O   0  0  0  0  0  0  0  0  0  0  0  0
    5.4826    4.8743   18.6556 C   0  0  0  0  0  0  0  0  0  0  0  0
    4.3047    4.1435   18.4133 O   0  0  0  0  0  0  0  0  0  0  0  0
    2.3272    6.7609   17.1137 C   0  0  1  0  0  0  0  0  0  0  0  0
    1.7193    5.4602   16.8948 O   0  0  0  0  0  0  0  0  0  0  0  0
    6.0551   12.7622   14.6658 C   0  0  0  0  0  0  0  0  0  0  0  0
    5.2174   11.8929   15.5187 N   0  0  0  0  0  0  0  0  0  0  0  0
    8.1870   14.9982   16.9243 C   0  0  0  0  0  0  0  0  0  0  0  0
    7.3350   15.1455   18.0910 O   0  0  0  0  0  0  0  0  0  0  0  0
  1  2  1  6  0  0  0
  1  8  1  0  0  0  0
  1 36  1  0  0  0  0
  3  4  1  1  0  0  0
  3 10  1  0  0  0  0
  3 47  1  0  0  0  0
  5 11  1  0  0  0  0
  5 30  1  0  0  0  0
  5 38  1  1  0  0  0
  6 21  1  1  0  0  0
  6 42  1  0  0  0  0
  7 15  1  0  0  0  0
  7 44  1  0  0  0  0
  7 32  1  6  0  0  0
  8  9  1  6  0  0  0
  8 17  1  0  0  0  0
 11 12  1  6  0  0  0
 11 20  1  0  0  0  0
 13  6  1  0  0  0  0
 13 14  1  1  0  0  0
 15 16  1  1  0  0  0
 15 24  1  0  0  0  0
 17 26  1  0  0  0  0
 18 10  1  0  0  0  0
 18 19  1  6  0  0  0
 20 21  1  1  0  0  0
 20 29  1  0  0  0  0
 22 13  1  0  0  0  0
 22 23  1  6  0  0  0
 24 25  1  1  0  0  0
 24 33  1  0  0  0  0
 26 27  1  6  0  0  0
 26 35  1  0  0  0  0
 28  2  1  6  0  0  0
 28 18  1  0  0  0  0
 29 30  1  0  0  0  0
 29 39  1  1  0  0  0
 31 22  1  0  0  0  0
 31 32  1  1  0  0  0
 31 41  1  0  0  0  0
 33 34  1  6  0  0  0
 33 43  1  0  0  0  0
 35 36  1  0  0  0  0
 35 45  1  1  0  0  0
 37 28  1  0  0  0  0
 37 38  1  6  0  0  0
 39 40  1  0  0  0  0
 41 42  1  0  0  0  0
 41 49  1  1  0  0  0
 43 44  1  0  0  0  0
 43 51  1  1  0  0  0
 45 46  1  0  0  0  0
 47 37  1  0  0  0  0
 47 48  1  1  0  0  0
 49 50  1  0  0  0  0
 51 52  1  0  0  0  0
M  END
>  <CHROM.1>
144.43777826,179.62282843,-175.02579790,130.63143637,-156.62789702,26.37588448
-136.66539524,154.82402138,-92.82917632,11.48408844,-140.97400744,-13.49274127
5.81078641,9.25750918,15.33000706,-2.45300926,-0.96285273,-1.15644126

>  <Name>
2esj_lig

>  <RI>
224

>  <Rbt.Current_Directory>
/home/itssahil/PROJECTS/Mol_Feturizer/New_Systems/rnas/2esj

>  <Rbt.Executable>
rbdock ($Id: //depot/dev/client3/rdock/2013.1/src/exe/rbdock.cxx#4 $)

>  <Rbt.Library>
libRbt.so (2013.1, Build901 2013/11/27)

>  <Rbt.Parameter_File>
/export/apps/rDock/src/rDock_2013.1_src/data/scripts/dock_solv.prm

>  <Rbt.Receptor>
prm/blind_docking_100.prm

>  <SCORE>
43.6135

>  <SCORE.INTER>
-0.835859

>  <SCORE.INTER.CONST>
1

>  <SCORE.INTER.POLAR>
0

>  <SCORE.INTER.ROT>
12

>  <SCORE.INTER.SOLV>
19.2341

>  <SCORE.INTER.VDW>
-18.5686

>  <SCORE.INTER.norm>
-0.0160742

>  <SCORE.INTRA>
40.1633

>  <SCORE.INTRA.DIHEDRAL>
7.57761

>  <SCORE.INTRA.DIHEDRAL.0>
32.9766

>  <SCORE.INTRA.POLAR>
0

>  <SCORE.INTRA.POLAR.0>
0

>  <SCORE.INTRA.REPUL>
1.31969

>  <SCORE.INTRA.REPUL.0>
0

>  <SCORE.INTRA.SOLV>
16.0806

>  <SCORE.INTRA.SOLV.lig_0>
-114.358

>  <SCORE.INTRA.VDW>
21.7358

>  <SCORE.INTRA.VDW.0>
-8.24257

>  <SCORE.INTRA.norm>
0.772372

>  <SCORE.RESTR>
4.28605

>  <SCORE.RESTR.CAVITY>
4.28605

>  <SCORE.RESTR.norm>
0.0824241

>  <SCORE.SYSTEM>
0

>  <SCORE.SYSTEM.CONST>
0

>  <SCORE.SYSTEM.DIHEDRAL>
0

>  <SCORE.SYSTEM.SOLV>
0

>  <SCORE.SYSTEM.norm>
0

>  <SCORE.heavy>
52

>  <SCORE.norm>
0.838722

>  <RMSD>
21.953

$$$$
2esj_lig
 OpenBabel11021811423D
libRbt.so/2013.1/901 2013/11/27
 52 56  0  0  0  0  0  0  0  0999 V2000
    2.6254    6.1284   17.1856 C   0  0  2  0  0  0  0  0  0  0  0  0
    3.3316    7.2807   16.6873 O   0  0  0  0  0  0  0  0  0  0  0  0
    7.0890    5.4728   15.7376 C   0  0  2  0  0  0  0  0  0  0  0  0
    8.4209    5.1645   15.1914 N   0  0  0  0  0  0  0  0  0  0  0  0
    5.9239    9.5373   17.4001 C   0  0  1  0  0  0  0  0  0  0  0  0
    6.9285   13.1223   15.7419 C   0  0  1  0  0  0  0  0  0  0  0  0
    6.7355   11.5273   11.0227 C   0  0  1  0  0  0  0  0  0  0  0  0
    1.3865    6.6437   17.9760 C   0  0  2  0  0  0  0  0  0  0  0  0
    0.5266    7.5004   17.1599 N   0  0  0  0  0  0  0  0  0  0  0  0
    6.0541    5.7008   14.5653 C   0  0  0  0  0  0  0  0  0  0  0  0
    6.4547   10.5772   18.3877 C   0  0  2  0  0  0  0  0  0  0  0  0
    5.3944   11.2583   19.0928 O   0  0  0  0  0  0  0  0  0  0  0  0
    5.6811   13.5903   14.8666 C   0  0  2  0  0  0  0  0  0  0  0  0
    4.8420   12.4292   14.4682 N   0  0  0  0  0  0  0  0  0  0  0  0
    5.3297   11.0283   10.7091 C   0  0  1  0  0  0  0  0  0  0  0  0
    5.2770   10.5935    9.3355 O   0  0  0  0  0  0  0  0  0  0  0  0
    1.8264    7.4080   19.2650 C   0  0  0  0  0  0  0  0  0  0  0  0
    4.6183    5.9718   15.1708 C   0  0  2  0  0  0  0  0  0  0  0  0
    3.6402    6.2005   14.1022 N   0  0  0  0  0  0  0  0  0  0  0  0
    7.2434   11.4571   17.4615 C   0  0  2  0  0  0  0  0  0  0  0  0
    6.3852   12.2904   16.7244 O   0  0  0  0  0  0  0  0  0  0  0  0
    6.2037   14.4881   13.6601 C   0  0  1  0  0  0  0  0  0  0  0  0
    7.0446   15.5217   14.1829 O   0  0  0  0  0  0  0  0  0  0  0  0
    4.8350    9.8832   11.5844 C   0  0  1  0  0  0  0  0  0  0  0  0
    3.6207    9.3982   11.0008 O   0  0  0  0  0  0  0  0  0  0  0  0
    2.7584    6.4844   20.1041 C   0  0  2  0  0  0  0  0  0  0  0  0
    3.1341    7.0883   21.3289 O   0  0  0  0  0  0  0  0  0  0  0  0
    4.6581    7.1855   16.1354 C   0  0  2  0  0  0  0  0  0  0  0  0
    7.8521   10.5164   16.4012 C   0  0  2  0  0  0  0  0  0  0  0  0
    6.8858    9.4795   16.3376 O   0  0  0  0  0  0  0  0  0  0  0  0
    7.1131   13.6520   12.6686 C   0  0  2  0  0  0  0  0  0  0  0  0
    6.2358   12.6552   12.1422 O   0  0  0  0  0  0  0  0  0  0  0  0
    5.8318    8.7299   11.7124 C   0  0  2  0  0  0  0  0  0  0  0  0
    5.3713    7.8987   12.7903 O   0  0  0  0  0  0  0  0  0  0  0  0
    3.9944    6.1261   19.2421 C   0  0  2  0  0  0  0  0  0  0  0  0
    3.5117    5.4056   18.0721 O   0  0  0  0  0  0  0  0  0  0  0  0
    5.7456    7.0794   17.2521 C   0  0  2  0  0  0  0  0  0  0  0  0
    5.7458    8.2972   18.0479 O   0  0  0  0  0  0  0  0  0  0  0  0
    9.2186    9.9151   16.7282 C   0  0  0  0  0  0  0  0  0  0  0  0
    9.0628    9.0986   17.8981 O   0  0  0  0  0  0  0  0  0  0  0  0
    8.0985   12.9052   13.5470 C   0  0  1  0  0  0  0  0  0  0  0  0
    7.9388   12.3834   14.8837 O   0  0  0  0  0  0  0  0  0  0  0  0
    7.2588    9.2400   11.8793 C   0  0  2  0  0  0  0  0  0  0  0  0
    7.6896   10.4658   11.2681 O   0  0  0  0  0  0  0  0  0  0  0  0
    4.9391    5.2012   19.9309 C   0  0  0  0  0  0  0  0  0  0  0  0
    5.9615    4.8850   19.0172 O   0  0  0  0  0  0  0  0  0  0  0  0
    7.1491    6.7608   16.6347 C   0  0  1  0  0  0  0  0  0  0  0  0
    8.0522    6.4878   17.7389 O   0  0  0  0  0  0  0  0  0  0  0  0
    9.1926   12.0731   12.8100 C   0  0  0  0  0  0  0  0  0  0  0  0
    9.5397   10.8152   13.5043 N   0  0  0  0  0  0  0  0  0  0  0  0
    8.4638    8.3127   12.0202 C   0  0  0  0  0  0  0  0  0  0  0  0
    8.0312    7.0035   12.4759 O   0  0  0  0  0  0  0  0  0  0  0  0
  1  2  1  1  0  0  0
  1  8  1  0  0  0  0
  1 36  1  0  0  0  0
  3  4  1  6  0  0  0
  3 10  1  0  0  0  0
  3 47  1  0  0  0  0
  5 11  1  0  0  0  0
  5 30  1  0  0  0  0
  5 38  1  1  0  0  0
  6 21  1  1  0  0  0
  6 42  1  0  0  0  0
  7 15  1  0  0  0  0
  7 44  1  0  0  0  0
  7 32  1  1  0  0  0
  8  9  1  6  0  0  0
  8 17  1  0  0  0  0
 11 12  1  6  0  0  0
 11 20  1  0  0  0  0
 13  6  1  0  0  0  0
 13 14  1  6  0  0  0
 15 16  1  6  0  0  0
 15 24  1  0  0  0  0
 17 26  1  0  0  0  0
 18 10  1  0  0  0  0
 18 19  1  6  0  0  0
 20 21  1  6  0  0  0
 20 29  1  0  0  0  0
 22 13  1  0  0  0  0
 22 23  1  1  0  0  0
 24 25  1  6  0  0  0
 24 33  1  0  0  0  0
 26 27  1  1  0  0  0
 26 35  1  0  0  0  0
 28  2  1  1  0  0  0
 28 18  1  0  0  0  0
 29 30  1  0  0  0  0
 29 39  1  1  0  0  0
 31 22  1  0  0  0  0
 31 32  1  1  0  0  0
 31 41  1  0  0  0  0
 33 34  1  1  0  0  0
 33 43  1  0  0  0  0
 35 36  1  0  0  0  0
 35 45  1  1  0  0  0
 37 28  1  0  0  0  0
 37 38  1  6  0  0  0
 39 40  1  0  0  0  0
 41 42  1  0  0  0  0
 41 49  1  6  0  0  0
 43 44  1  0  0  0  0
 43 51  1  6  0  0  0
 45 46  1  0  0  0  0
 47 37  1  0  0  0  0
 47 48  1  1  0  0  0
 49 50  1  0  0  0  0
 51 52  1  0  0  0  0
M  END
>  <CHROM.1>
167.73441442,-156.93552237,164.76389910,-169.05610089,-175.82701100,46.19893490
62.77974885,179.23675625,176.08868521,-55.90730452,-144.24413406,-21.61971614
5.91332771,9.15694456,15.41579398,2.65374217,1.18439865,1.27573714

>  <Name>
2esj_lig

>  <RI>
224

>  <Rbt.Current_Directory>
/home/itssahil/PROJECTS/Mol_Feturizer/New_Systems/rnas/2esj

>  <Rbt.Executable>
rbdock ($Id: //depot/dev/client3/rdock/2013.1/src/exe/rbdock.cxx#4 $)

>  <Rbt.Library>
libRbt.so (2013.1, Build901 2013/11/27)

>  <Rbt.Parameter_File>
/export/apps/rDock/src/rDock_2013.1_src/data/scripts/dock_solv.prm

>  <Rbt.Receptor>
prm/blind_docking_100.prm

>  <SCORE>
-5.22752

>  <SCORE.INTER>
-10.6496

>  <SCORE.INTER.CONST>
1

>  <SCORE.INTER.POLAR>
-1.44872

>  <SCORE.INTER.ROT>
12

>  <SCORE.INTER.SOLV>
28.6889

>  <SCORE.INTER.VDW>
-23.4336

>  <SCORE.INTER.norm>
-0.2048

>  <SCORE.INTRA>
0.590329

>  <SCORE.INTRA.DIHEDRAL>
-20.8647

>  <SCORE.INTRA.DIHEDRAL.0>
32.9766

>  <SCORE.INTRA.POLAR>
0

>  <SCORE.INTRA.POLAR.0>
0

>  <SCORE.INTRA.REPUL>
0

>  <SCORE.INTRA.REPUL.0>
0

>  <SCORE.INTRA.SOLV>
8.76479

>  <SCORE.INTRA.SOLV.lig_0>
-114.358

>  <SCORE.INTRA.VDW>
6.6403

>  <SCORE.INTRA.VDW.0>
-8.24257

>  <SCORE.INTRA.norm>
0.0113525

>  <SCORE.RESTR>
4.83173

>  <SCORE.RESTR.CAVITY>
4.83173

>  <SCORE.RESTR.norm>
0.0929178

>  <SCORE.SYSTEM>
0

>  <SCORE.SYSTEM.CONST>
0

>  <SCORE.SYSTEM.DIHEDRAL>
0

>  <SCORE.SYSTEM.SOLV>
0

>  <SCORE.SYSTEM.norm>
0

>  <SCORE.heavy>
52

>  <SCORE.norm>
-0.100529

>  <RMSD>
21.999

$$$$
2esj_lig
 OpenBabel11021811423D
libRbt.so/2013.1/901 2013/11/27
 52 56  0  0  0  0  0  0  0  0999 V2000
    4.6380    5.5070   15.6914 C   0  0  2  0  0  0  0  0  0  0  0  0
    3.5482    6.4212   15.4647 O   0  0  0  0  0  0  0  0  0  0  0  0
    2.6951    9.4672   12.5869 C   0  0  2  0  0  0  0  0  0  0  0  0
    2.6707   10.7073   11.7938 N   0  0  0  0  0  0  0  0  0  0  0  0
    6.5558    7.4429   13.6169 C   0  0  1  0  0  0  0  0  0  0  0  0
    7.7434    9.3294   15.2574 C   0  0  1  0  0  0  0  0  0  0  0  0
    8.2643   14.1081   17.5930 C   0  0  1  0  0  0  0  0  0  0  0  0
    4.0789    4.0624   15.5316 C   0  0  2  0  0  0  0  0  0  0  0  0
    3.4529    3.8525   14.2266 N   0  0  0  0  0  0  0  0  0  0  0  0
    2.4242    9.7849   14.1111 C   0  0  0  0  0  0  0  0  0  0  0  0
    7.1172    6.8102   14.8909 C   0  0  2  0  0  0  0  0  0  0  0  0
    6.5190    7.3563   16.0865 O   0  0  0  0  0  0  0  0  0  0  0  0
    8.1626   10.6999   14.5594 C   0  0  2  0  0  0  0  0  0  0  0  0
    9.5272   11.1171   14.9774 N   0  0  0  0  0  0  0  0  0  0  0  0
    7.1606   14.8392   16.8376 C   0  0  1  0  0  0  0  0  0  0  0  0
    6.4975   15.7525   17.7346 O   0  0  0  0  0  0  0  0  0  0  0  0
    3.0601    3.7303   16.6678 C   0  0  0  0  0  0  0  0  0  0  0  0
    2.3953    8.4362   14.9368 C   0  0  2  0  0  0  0  0  0  0  0  0
    2.1587    8.7046   16.3591 N   0  0  0  0  0  0  0  0  0  0  0  0
    8.5767    7.1248   14.7329 C   0  0  2  0  0  0  0  0  0  0  0  0
    8.8262    8.4723   15.0434 O   0  0  0  0  0  0  0  0  0  0  0  0
    7.0211   11.7802   14.8142 C   0  0  1  0  0  0  0  0  0  0  0  0
    5.7612   11.2220   14.4272 O   0  0  0  0  0  0  0  0  0  0  0  0
    7.6194   15.6282   15.6172 C   0  0  1  0  0  0  0  0  0  0  0  0
    6.5102   16.4247   15.1865 O   0  0  0  0  0  0  0  0  0  0  0  0
    3.7421    3.9836   18.0449 C   0  0  2  0  0  0  0  0  0  0  0  0
    2.8971    3.6279   19.1245 O   0  0  0  0  0  0  0  0  0  0  0  0
    3.7230    7.6575   14.7477 C   0  0  2  0  0  0  0  0  0  0  0  0
    8.8682    7.0299   13.2210 C   0  0  2  0  0  0  0  0  0  0  0  0
    7.6202    7.4000   12.6565 O   0  0  0  0  0  0  0  0  0  0  0  0
    6.8853   12.1258   16.3542 C   0  0  2  0  0  0  0  0  0  0  0  0
    8.1434   12.7095   16.6961 O   0  0  0  0  0  0  0  0  0  0  0  0
    8.8211   16.5358   15.8859 C   0  0  2  0  0  0  0  0  0  0  0  0
    9.3200   16.9566   14.6057 O   0  0  0  0  0  0  0  0  0  0  0  0
    4.1607    5.4732   18.1152 C   0  0  2  0  0  0  0  0  0  0  0  0
    5.1178    5.7047   17.0422 O   0  0  0  0  0  0  0  0  0  0  0  0
    4.1139    7.4130   13.2549 C   0  0  2  0  0  0  0  0  0  0  0  0
    5.4052    6.7458   13.1934 O   0  0  0  0  0  0  0  0  0  0  0  0
    9.2754    5.6555   12.6910 C   0  0  0  0  0  0  0  0  0  0  0  0
    8.1302    4.7965   12.7919 O   0  0  0  0  0  0  0  0  0  0  0  0
    6.8467   10.7906   17.0723 C   0  0  1  0  0  0  0  0  0  0  0  0
    7.4839    9.5389   16.7378 O   0  0  0  0  0  0  0  0  0  0  0  0
    9.8568   15.8461   16.7668 C   0  0  2  0  0  0  0  0  0  0  0  0
    9.4692   14.8924   17.7678 O   0  0  0  0  0  0  0  0  0  0  0  0
    4.8708    5.8218   19.3788 C   0  0  0  0  0  0  0  0  0  0  0  0
    3.9393    5.7185   20.4285 O   0  0  0  0  0  0  0  0  0  0  0  0
    4.0868    8.7529   12.4450 C   0  0  1  0  0  0  0  0  0  0  0  0
    4.2674    8.4124   11.0448 O   0  0  0  0  0  0  0  0  0  0  0  0
    6.6104   10.8382   18.6133 C   0  0  0  0  0  0  0  0  0  0  0  0
    5.7109    9.7721   19.1020 N   0  0  0  0  0  0  0  0  0  0  0  0
   11.1560   16.5174   17.2066 C   0  0  0  0  0  0  0  0  0  0  0  0
   10.8696   17.5749   18.1596 O   0  0  0  0  0  0  0  0  0  0  0  0
  1  2  1  1  0  0  0
  1  8  1  0  0  0  0
  1 36  1  0  0  0  0
  3  4  1  6  0  0  0
  3 10  1  0  0  0  0
  3 47  1  0  0  0  0
  5 11  1  0  0  0  0
  5 30  1  0  0  0  0
  5 38  1  6  0  0  0
  6 21  1  1  0  0  0
  6 42  1  0  0  0  0
  7 15  1  0  0  0  0
  7 44  1  0  0  0  0
  7 32  1  6  0  0  0
  8  9  1  6  0  0  0
  8 17  1  0  0  0  0
 11 12  1  1  0  0  0
 11 20  1  0  0  0  0
 13  6  1  0  0  0  0
 13 14  1  1  0  0  0
 15 16  1  1  0  0  0
 15 24  1  0  0  0  0
 17 26  1  0  0  0  0
 18 10  1  0  0  0  0
 18 19  1  1  0  0  0
 20 21  1  6  0  0  0
 20 29  1  0  0  0  0
 22 13  1  0  0  0  0
 22 23  1  1  0  0  0
 24 25  1  1  0  0  0
 24 33  1  0  0  0  0
 26 27  1  1  0  0  0
 26 35  1  0  0  0  0
 28  2  1  1  0  0  0
 28 18  1  0  0  0  0
 29 30  1  0  0  0  0
 29 39  1  1  0  0  0
 31 22  1  0  0  0  0
 31 32  1  1  0  0  0
 31 41  1  0  0  0  0
 33 34  1  6  0  0  0
 33 43  1  0  0  0  0
 35 36  1  0  0  0  0
 35 45  1  1  0  0  0
 37 28  1  0  0  0  0
 37 38  1  1  0  0  0
 39 40  1  0  0  0  0
 41 42  1  0  0  0  0
 41 49  1  1  0  0  0
 43 44  1  0  0  0  0
 43 51  1  1  0  0  0
 45 46  1  0  0  0  0
 47 37  1  0  0  0  0
 47 48  1  6  0  0  0
 49 50  1  0  0  0  0
 51 52  1  0  0  0  0
M  END
>  <CHROM.1>
-141.14923908,112.42037972,-140.25229127,-44.01927277,-8.44245977,-170.65491920
68.19424451,133.99421288,-67.68549072,-66.99339322,140.09203264,69.92559619
6.26005695,9.57824316,15.63064216,2.76987585,-1.12489300,-1.89025935

>  <Name>
2esj_lig

>  <RI>
0

>  <Rbt.Current_Directory>
/home/itssahil/PROJECTS/Mol_Feturizer/New_Systems/rnas/2esj

>  <Rbt.Executable>
rbdock ($Id: //depot/dev/client3/rdock/2013.1/src/exe/rbdock.cxx#4 $)

>  <Rbt.Library>
libRbt.so (2013.1, Build901 2013/11/27)

>  <Rbt.Parameter_File>
/export/apps/rDock/src/rDock_2013.1_src/data/scripts/dock_solv.prm

>  <Rbt.Receptor>
prm/blind_docking_60.prm

>  <SCORE>
63.6703

>  <SCORE.INTER>
32.519

>  <SCORE.INTER.CONST>
1

>  <SCORE.INTER.POLAR>
-0.894427

>  <SCORE.INTER.ROT>
12

>  <SCORE.INTER.SOLV>
28.5667

>  <SCORE.INTER.VDW>
3.5385

>  <SCORE.INTER.norm>
0.625365

>  <SCORE.INTRA>
13.7436

>  <SCORE.INTRA.DIHEDRAL>
4.66712

>  <SCORE.INTRA.DIHEDRAL.0>
32.9766

>  <SCORE.INTRA.POLAR>
0

>  <SCORE.INTRA.POLAR.0>
0

>  <SCORE.INTRA.REPUL>
0

>  <SCORE.INTRA.REPUL.0>
0

>  <SCORE.INTRA.SOLV>
-0.302202

>  <SCORE.INTRA.SOLV.lig_0>
-114.358

>  <SCORE.INTRA.VDW>
11.5611

>  <SCORE.INTRA.VDW.0>
-8.24257

>  <SCORE.INTRA.norm>
0.2643

>  <SCORE.RESTR>
17.4077

>  <SCORE.RESTR.CAVITY>
17.4077

>  <SCORE.RESTR.norm>
0.334764

>  <SCORE.SYSTEM>
0

>  <SCORE.SYSTEM.CONST>
0

>  <SCORE.SYSTEM.DIHEDRAL>
0

>  <SCORE.SYSTEM.SOLV>
0

>  <SCORE.SYSTEM.norm>
0

>  <SCORE.heavy>
52

>  <SCORE.norm>
1.22443

>  <RMSD>
22.095

$$$$
2esj_lig
 OpenBabel11021811423D
libRbt.so/2013.1/901 2013/11/27
 52 56  0  0  0  0  0  0  0  0999 V2000
    3.5287    7.5823   19.1385 C   0  0  2  0  0  0  0  0  0  0  0  0
    4.9298    7.2593   19.0523 O   0  0  0  0  0  0  0  0  0  0  0  0
    7.8941    5.1254   16.8281 C   0  0  2  0  0  0  0  0  0  0  0  0
    8.6049    4.2455   15.8858 N   0  0  0  0  0  0  0  0  0  0  0  0
    6.2915    9.4220   15.9309 C   0  0  1  0  0  0  0  0  0  0  0  0
    8.0466   11.7781   14.4422 C   0  0  1  0  0  0  0  0  0  0  0  0
    5.3258   10.8413   10.2738 C   0  0  1  0  0  0  0  0  0  0  0  0
    2.7531    6.2496   19.3567 C   0  0  2  0  0  0  0  0  0  0  0  0
    3.2200    5.5247   20.5381 N   0  0  0  0  0  0  0  0  0  0  0  0
    6.8625    4.2911   17.6867 C   0  0  0  0  0  0  0  0  0  0  0  0
    6.2676   10.4801   17.0347 C   0  0  2  0  0  0  0  0  0  0  0  0
    5.0811   11.3017   16.9842 O   0  0  0  0  0  0  0  0  0  0  0  0
    7.7060   12.9951   13.4706 C   0  0  2  0  0  0  0  0  0  0  0  0
    6.2433   13.2610   13.4394 N   0  0  0  0  0  0  0  0  0  0  0  0
    4.2218   11.8901   10.2042 C   0  0  1  0  0  0  0  0  0  0  0  0
    3.4879   11.7244    8.9744 O   0  0  0  0  0  0  0  0  0  0  0  0
    2.8561    5.3323   18.0969 C   0  0  0  0  0  0  0  0  0  0  0  0
    6.1522    5.2415   18.7326 C   0  0  2  0  0  0  0  0  0  0  0  0
    5.1783    4.4933   19.5343 N   0  0  0  0  0  0  0  0  0  0  0  0
    7.5409   11.2171   16.7354 C   0  0  2  0  0  0  0  0  0  0  0  0
    7.3693   12.0671   15.6298 O   0  0  0  0  0  0  0  0  0  0  0  0
    8.3708   12.7239   12.0495 C   0  0  1  0  0  0  0  0  0  0  0  0
    9.7572   12.4215   12.2375 O   0  0  0  0  0  0  0  0  0  0  0  0
    3.2236   11.8620   11.3553 C   0  0  1  0  0  0  0  0  0  0  0  0
    2.1474   12.7387   11.0040 O   0  0  0  0  0  0  0  0  0  0  0  0
    2.3760    6.1335   16.8506 C   0  0  2  0  0  0  0  0  0  0  0  0
    2.3703    5.3346   15.6810 O   0  0  0  0  0  0  0  0  0  0  0  0
    5.4595    6.4237   18.0062 C   0  0  2  0  0  0  0  0  0  0  0  0
    8.5385   10.1517   16.2360 C   0  0  2  0  0  0  0  0  0  0  0  0
    7.6764    9.2023   15.6290 O   0  0  0  0  0  0  0  0  0  0  0  0
    7.7418   11.4491   11.3505 C   0  0  2  0  0  0  0  0  0  0  0  0
    6.3717   11.7987   11.1482 O   0  0  0  0  0  0  0  0  0  0  0  0
    2.6659   10.4692   11.6539 C   0  0  2  0  0  0  0  0  0  0  0  0
    2.0055   10.5490   12.9275 O   0  0  0  0  0  0  0  0  0  0  0  0
    3.2872    7.3755   16.6885 C   0  0  2  0  0  0  0  0  0  0  0  0
    3.1284    8.1879   17.8867 O   0  0  0  0  0  0  0  0  0  0  0  0
    6.3975    7.2213   17.0445 C   0  0  2  0  0  0  0  0  0  0  0  0
    5.6312    8.2530   16.3628 O   0  0  0  0  0  0  0  0  0  0  0  0
    9.3842    9.4574   17.3030 C   0  0  0  0  0  0  0  0  0  0  0  0
    8.5007    8.6561   18.1012 O   0  0  0  0  0  0  0  0  0  0  0  0
    7.7336   10.3632   12.4091 C   0  0  1  0  0  0  0  0  0  0  0  0
    7.5799   10.4650   13.8411 O   0  0  0  0  0  0  0  0  0  0  0  0
    3.7532    9.4032   11.5768 C   0  0  2  0  0  0  0  0  0  0  0  0
    4.8588    9.5288   10.6693 O   0  0  0  0  0  0  0  0  0  0  0  0
    2.8886    8.2479   15.5472 C   0  0  0  0  0  0  0  0  0  0  0  0
    3.8528    8.0854   14.5352 O   0  0  0  0  0  0  0  0  0  0  0  0
    7.1285    6.2560   16.0515 C   0  0  1  0  0  0  0  0  0  0  0  0
    8.1150    7.0442   15.3340 O   0  0  0  0  0  0  0  0  0  0  0  0
    7.2531    8.9517   11.9512 C   0  0  0  0  0  0  0  0  0  0  0  0
    7.2763    8.7715   10.4844 N   0  0  0  0  0  0  0  0  0  0  0  0
    3.4839    7.9197   11.8187 C   0  0  0  0  0  0  0  0  0  0  0  0
    3.6230    7.1815   10.5759 O   0  0  0  0  0  0  0  0  0  0  0  0
  1  2  1  6  0  0  0
  1  8  1  0  0  0  0
  1 36  1  0  0  0  0
  3  4  1  6  0  0  0
  3 10  1  0  0  0  0
  3 47  1  0  0  0  0
  5 11  1  0  0  0  0
  5 30  1  0  0  0  0
  5 38  1  1  0  0  0
  6 21  1  1  0  0  0
  6 42  1  0  0  0  0
  7 15  1  0  0  0  0
  7 44  1  0  0  0  0
  7 32  1  1  0  0  0
  8  9  1  1  0  0  0
  8 17  1  0  0  0  0
 11 12  1  6  0  0  0
 11 20  1  0  0  0  0
 13  6  1  0  0  0  0
 13 14  1  6  0  0  0
 15 16  1  6  0  0  0
 15 24  1  0  0  0  0
 17 26  1  0  0  0  0
 18 10  1  0  0  0  0
 18 19  1  6  0  0  0
 20 21  1  6  0  0  0
 20 29  1  0  0  0  0
 22 13  1  0  0  0  0
 22 23  1  1  0  0  0
 24 25  1  6  0  0  0
 24 33  1  0  0  0  0
 26 27  1  6  0  0  0
 26 35  1  0  0  0  0
 28  2  1  1  0  0  0
 28 18  1  0  0  0  0
 29 30  1  0  0  0  0
 29 39  1  1  0  0  0
 31 22  1  0  0  0  0
 31 32  1  1  0  0  0
 31 41  1  0  0  0  0
 33 34  1  1  0  0  0
 33 43  1  0  0  0  0
 35 36  1  0  0  0  0
 35 45  1  6  0  0  0
 37 28  1  0  0  0  0
 37 38  1  6  0  0  0
 39 40  1  0  0  0  0
 41 42  1  0  0  0  0
 41 49  1  6  0  0  0
 43 44  1  0  0  0  0
 43 51  1  6  0  0  0
 45 46  1  0  0  0  0
 47 37  1  0  0  0  0
 47 48  1  1  0  0  0
 49 50  1  0  0  0  0
 51 52  1  0  0  0  0
M  END
>  <CHROM.1>
62.61067225,-89.53868248,-175.76708144,-168.65535404,-112.17244362,-122.25464087
67.49193833,172.56381005,-107.78951140,152.42852376,17.97366092,110.88337519
5.60137260,8.96094051,14.82028003,1.63689030,0.38118822,2.20269691

>  <Name>
2esj_lig

>  <RI>
0

>  <Rbt.Current_Directory>
/home/itssahil/PROJECTS/Mol_Feturizer/New_Systems/rnas/2esj

>  <Rbt.Executable>
rbdock ($Id: //depot/dev/client3/rdock/2013.1/src/exe/rbdock.cxx#4 $)

>  <Rbt.Library>
libRbt.so (2013.1, Build901 2013/11/27)

>  <Rbt.Parameter_File>
/export/apps/rDock/src/rDock_2013.1_src/data/scripts/dock_solv.prm

>  <Rbt.Receptor>
prm/blind_docking_80.prm

>  <SCORE>
28.761

>  <SCORE.INTER>
-4.60103

>  <SCORE.INTER.CONST>
1

>  <SCORE.INTER.POLAR>
-2.20179

>  <SCORE.INTER.ROT>
12

>  <SCORE.INTER.SOLV>
32.4722

>  <SCORE.INTER.VDW>
-18.1521

>  <SCORE.INTER.norm>
-0.0884813

>  <SCORE.INTRA>
30.5028

>  <SCORE.INTRA.DIHEDRAL>
-0.00871541

>  <SCORE.INTRA.DIHEDRAL.0>
32.9766

>  <SCORE.INTRA.POLAR>
0

>  <SCORE.INTRA.POLAR.0>
0

>  <SCORE.INTRA.REPUL>
0.174658

>  <SCORE.INTRA.REPUL.0>
0

>  <SCORE.INTRA.SOLV>
11.2445

>  <SCORE.INTRA.SOLV.lig_0>
-114.358

>  <SCORE.INTRA.VDW>
24.0116

>  <SCORE.INTRA.VDW.0>
-8.24257

>  <SCORE.INTRA.norm>
0.586592

>  <SCORE.RESTR>
2.85919

>  <SCORE.RESTR.CAVITY>
2.85919

>  <SCORE.RESTR.norm>
0.0549844

>  <SCORE.SYSTEM>
0

>  <SCORE.SYSTEM.CONST>
0

>  <SCORE.SYSTEM.DIHEDRAL>
0

>  <SCORE.SYSTEM.SOLV>
0

>  <SCORE.SYSTEM.norm>
0

>  <SCORE.heavy>
52

>  <SCORE.norm>
0.553095

>  <RMSD>
22.263

$$$$
2esj_lig
 OpenBabel11021811423D
libRbt.so/2013.1/901 2013/11/27
 52 56  0  0  0  0  0  0  0  0999 V2000
    5.6359    9.0688   17.9681 C   0  0  2  0  0  0  0  0  0  0  0  0
    4.2960    8.7885   17.5197 O   0  0  0  0  0  0  0  0  0  0  0  0
    2.2309    5.1173   18.2583 C   0  0  2  0  0  0  0  0  0  0  0  0
    1.6156    3.7846   18.1460 N   0  0  0  0  0  0  0  0  0  0  0  0
    6.4547    6.8489   16.8720 C   0  0  1  0  0  0  0  0  0  0  0  0
    7.5629    7.7118   13.5236 C   0  0  1  0  0  0  0  0  0  0  0  0
    4.8053   11.5576   11.4071 C   0  0  1  0  0  0  0  0  0  0  0  0
    5.5330    9.6920   19.3915 C   0  0  2  0  0  0  0  0  0  0  0  0
    4.8152    8.8244   20.3248 N   0  0  0  0  0  0  0  0  0  0  0  0
    1.6635    6.0799   17.1407 C   0  0  0  0  0  0  0  0  0  0  0  0
    7.9760    6.9523   16.9884 C   0  0  2  0  0  0  0  0  0  0  0  0
    8.4026    8.2281   17.5135 O   0  0  0  0  0  0  0  0  0  0  0  0
    7.7824    9.1195   12.8083 C   0  0  2  0  0  0  0  0  0  0  0  0
    7.3664   10.2394   13.6935 N   0  0  0  0  0  0  0  0  0  0  0  0
    6.2723   11.9677   11.3503 C   0  0  1  0  0  0  0  0  0  0  0  0
    6.5000   12.7485   10.1600 O   0  0  0  0  0  0  0  0  0  0  0  0
    4.8479   11.0944   19.3375 C   0  0  0  0  0  0  0  0  0  0  0  0
    2.2910    7.5214   17.3140 C   0  0  2  0  0  0  0  0  0  0  0  0
    1.7903    8.4320   16.2791 N   0  0  0  0  0  0  0  0  0  0  0  0
    8.3771    6.7073   15.5625 C   0  0  2  0  0  0  0  0  0  0  0  0
    8.1504    7.8544   14.7834 O   0  0  0  0  0  0  0  0  0  0  0  0
    7.0750    9.0906   11.3822 C   0  0  1  0  0  0  0  0  0  0  0  0
    7.5193    7.9321   10.6687 O   0  0  0  0  0  0  0  0  0  0  0  0
    6.7696   12.7739   12.5441 C   0  0  1  0  0  0  0  0  0  0  0  0
    8.0729   13.2641   12.2107 O   0  0  0  0  0  0  0  0  0  0  0  0
    5.6156   11.9906   18.3210 C   0  0  2  0  0  0  0  0  0  0  0  0
    5.0926   13.3062   18.2790 O   0  0  0  0  0  0  0  0  0  0  0  0
    3.8392    7.4470   17.2649 C   0  0  2  0  0  0  0  0  0  0  0  0
    7.3703    5.6766   15.0114 C   0  0  2  0  0  0  0  0  0  0  0  0
    6.2054    5.9698   15.7664 O   0  0  0  0  0  0  0  0  0  0  0  0
    5.5042    8.9375   11.5187 C   0  0  2  0  0  0  0  0  0  0  0  0
    5.0932   10.1224   12.2024 O   0  0  0  0  0  0  0  0  0  0  0  0
    5.8646   13.9506   12.9135 C   0  0  2  0  0  0  0  0  0  0  0  0
    6.2813   14.4054   14.2113 O   0  0  0  0  0  0  0  0  0  0  0  0
    5.5593   11.3097   16.9310 C   0  0  2  0  0  0  0  0  0  0  0  0
    6.2269   10.0212   17.0530 O   0  0  0  0  0  0  0  0  0  0  0  0
    4.4622    6.4215   18.2655 C   0  0  2  0  0  0  0  0  0  0  0  0
    5.9048    6.3786   18.0827 O   0  0  0  0  0  0  0  0  0  0  0  0
    7.7345    4.2037   15.1945 C   0  0  0  0  0  0  0  0  0  0  0  0
    7.6842    3.9174   16.5999 O   0  0  0  0  0  0  0  0  0  0  0  0
    5.2868    7.8033   12.5018 C   0  0  1  0  0  0  0  0  0  0  0  0
    6.0837    7.3905   13.6327 O   0  0  0  0  0  0  0  0  0  0  0  0
    4.3905   13.5717   12.8251 C   0  0  2  0  0  0  0  0  0  0  0  0
    3.9231   12.6102   11.8666 O   0  0  0  0  0  0  0  0  0  0  0  0
    6.3071   12.0600   15.8820 C   0  0  0  0  0  0  0  0  0  0  0  0
    7.6666   12.0506   16.2448 O   0  0  0  0  0  0  0  0  0  0  0  0
    3.7915    5.0148   18.1115 C   0  0  1  0  0  0  0  0  0  0  0  0
    4.2830    4.1834   19.1962 O   0  0  0  0  0  0  0  0  0  0  0  0
    3.8085    7.3684   12.7432 C   0  0  0  0  0  0  0  0  0  0  0  0
    3.1164    6.9336   11.5117 N   0  0  0  0  0  0  0  0  0  0  0  0
    3.2590   14.5512   13.1284 C   0  0  0  0  0  0  0  0  0  0  0  0
    2.1560   13.8529   13.7646 O   0  0  0  0  0  0  0  0  0  0  0  0
  1  2  1  6  0  0  0
  1  8  1  0  0  0  0
  1 36  1  0  0  0  0
  3  4  1  6  0  0  0
  3 10  1  0  0  0  0
  3 47  1  0  0  0  0
  5 11  1  0  0  0  0
  5 30  1  0  0  0  0
  5 38  1  1  0  0  0
  6 21  1  1  0  0  0
  6 42  1  0  0  0  0
  7 15  1  0  0  0  0
  7 44  1  0  0  0  0
  7 32  1  1  0  0  0
  8  9  1  1  0  0  0
  8 17  1  0  0  0  0
 11 12  1  6  0  0  0
 11 20  1  0  0  0  0
 13  6  1  0  0  0  0
 13 14  1  1  0  0  0
 15 16  1  6  0  0  0
 15 24  1  0  0  0  0
 17 26  1  0  0  0  0
 18 10  1  0  0  0  0
 18 19  1  6  0  0  0
 20 21  1  6  0  0  0
 20 29  1  0  0  0  0
 22 13  1  0  0  0  0
 22 23  1  6  0  0  0
 24 25  1  6  0  0  0
 24 33  1  0  0  0  0
 26 27  1  6  0  0  0
 26 35  1  0  0  0  0
 28  2  1  1  0  0  0
 28 18  1  0  0  0  0
 29 30  1  0  0  0  0
 29 39  1  1  0  0  0
 31 22  1  0  0  0  0
 31 32  1  1  0  0  0
 31 41  1  0  0  0  0
 33 34  1  1  0  0  0
 33 43  1  0  0  0  0
 35 36  1  0  0  0  0
 35 45  1  6  0  0  0
 37 28  1  0  0  0  0
 37 38  1  6  0  0  0
 39 40  1  0  0  0  0
 41 42  1  0  0  0  0
 41 49  1  1  0  0  0
 43 44  1  0  0  0  0
 43 51  1  6  0  0  0
 45 46  1  0  0  0  0
 47 37  1  0  0  0  0
 47 48  1  1  0  0  0
 49 50  1  0  0  0  0
 51 52  1  0  0  0  0
M  END
>  <CHROM.1>
-115.96483224,169.67696525,-166.79839382,-82.06302872,-136.14494785,160.13101462
67.40351206,84.03130014,64.25890336,-19.90690518,58.51100343,-144.61761443
5.52890673,9.12222807,15.22394263,1.86863034,-1.19918287,2.76140896

>  <Name>
2esj_lig

>  <RI>
0

>  <Rbt.Current_Directory>
/home/itssahil/PROJECTS/Mol_Feturizer/New_Systems/rnas/2esj

>  <Rbt.Executable>
rbdock ($Id: //depot/dev/client3/rdock/2013.1/src/exe/rbdock.cxx#4 $)

>  <Rbt.Library>
libRbt.so (2013.1, Build901 2013/11/27)

>  <Rbt.Parameter_File>
/export/apps/rDock/src/rDock_2013.1_src/data/scripts/dock_solv.prm

>  <Rbt.Receptor>
prm/blind_docking_80.prm

>  <SCORE>
22.0864

>  <SCORE.INTER>
1.78448

>  <SCORE.INTER.CONST>
1

>  <SCORE.INTER.POLAR>
0

>  <SCORE.INTER.ROT>
12

>  <SCORE.INTER.SOLV>
24.6435

>  <SCORE.INTER.VDW>
-18.6248

>  <SCORE.INTER.norm>
0.0343169

>  <SCORE.INTRA>
16.1179

>  <SCORE.INTRA.DIHEDRAL>
-0.864789

>  <SCORE.INTRA.DIHEDRAL.0>
32.9766

>  <SCORE.INTRA.POLAR>
0

>  <SCORE.INTRA.POLAR.0>
0

>  <SCORE.INTRA.REPUL>
0.358748

>  <SCORE.INTRA.REPUL.0>
0

>  <SCORE.INTRA.SOLV>
4.65319

>  <SCORE.INTRA.SOLV.lig_0>
-114.358

>  <SCORE.INTRA.VDW>
12.43

>  <SCORE.INTRA.VDW.0>
-8.24257

>  <SCORE.INTRA.norm>
0.30996

>  <SCORE.RESTR>
4.18402

>  <SCORE.RESTR.CAVITY>
4.18402

>  <SCORE.RESTR.norm>
0.080462

>  <SCORE.SYSTEM>
0

>  <SCORE.SYSTEM.CONST>
0

>  <SCORE.SYSTEM.DIHEDRAL>
0

>  <SCORE.SYSTEM.SOLV>
0

>  <SCORE.SYSTEM.norm>
0

>  <SCORE.heavy>
52

>  <SCORE.norm>
0.424739

>  <RMSD>
22.425

$$$$
2esj_lig
 OpenBabel11021811423D
libRbt.so/2013.1/901 2013/11/27
 52 56  0  0  0  0  0  0  0  0999 V2000
    3.7777    5.1271   17.3553 C   0  0  2  0  0  0  0  0  0  0  0  0
    3.8017    5.5758   18.7238 O   0  0  0  0  0  0  0  0  0  0  0  0
    4.8020    9.5785   19.8489 C   0  0  2  0  0  0  0  0  0  0  0  0
    5.4767   10.7901   20.3432 N   0  0  0  0  0  0  0  0  0  0  0  0
    6.1399    7.9868   15.9619 C   0  0  1  0  0  0  0  0  0  0  0  0
    7.5840   10.2081   12.9655 C   0  0  1  0  0  0  0  0  0  0  0  0
    6.8682   14.8430   14.9117 C   0  0  1  0  0  0  0  0  0  0  0  0
    2.4589    5.6505   16.7136 C   0  0  2  0  0  0  0  0  0  0  0  0
    2.3337    7.1042   16.8137 N   0  0  0  0  0  0  0  0  0  0  0  0
    4.7554    8.4759   20.9801 C   0  0  0  0  0  0  0  0  0  0  0  0
    6.8994    7.1562   14.9266 C   0  0  2  0  0  0  0  0  0  0  0  0
    8.2521    6.8647   15.3397 O   0  0  0  0  0  0  0  0  0  0  0  0
    8.8601   11.1169   13.2606 C   0  0  2  0  0  0  0  0  0  0  0  0
    9.0171   11.3604   14.7191 N   0  0  0  0  0  0  0  0  0  0  0  0
    8.0535   15.6967   15.3472 C   0  0  1  0  0  0  0  0  0  0  0  0
    7.6404   17.0757   15.4258 O   0  0  0  0  0  0  0  0  0  0  0  0
    1.2139    4.9653   17.3613 C   0  0  0  0  0  0  0  0  0  0  0  0
    3.9758    7.2057   20.4505 C   0  0  2  0  0  0  0  0  0  0  0  0
    3.9299    6.1604   21.4782 N   0  0  0  0  0  0  0  0  0  0  0  0
    6.8010    8.0554   13.7283 C   0  0  2  0  0  0  0  0  0  0  0  0
    7.7054    9.1249   13.8399 O   0  0  0  0  0  0  0  0  0  0  0  0
    8.7779   12.4302   12.3643 C   0  0  1  0  0  0  0  0  0  0  0  0
    8.5638   12.0477   11.0017 O   0  0  0  0  0  0  0  0  0  0  0  0
    8.6742   15.3145   16.6855 C   0  0  1  0  0  0  0  0  0  0  0  0
    9.5972   16.3517   17.0357 O   0  0  0  0  0  0  0  0  0  0  0  0
    1.3820    3.4200   17.2629 C   0  0  2  0  0  0  0  0  0  0  0  0
    0.2487    2.7340   17.7641 O   0  0  0  0  0  0  0  0  0  0  0  0
    4.6393    6.6635   19.1579 C   0  0  2  0  0  0  0  0  0  0  0  0
    5.4153    8.7274   13.8169 C   0  0  2  0  0  0  0  0  0  0  0  0
    5.1998    8.7747   15.2184 O   0  0  0  0  0  0  0  0  0  0  0  0
    7.5329   13.3251   12.7622 C   0  0  2  0  0  0  0  0  0  0  0  0
    7.7965   13.7151   14.1109 O   0  0  0  0  0  0  0  0  0  0  0  0
    7.6536   15.1426   17.8119 C   0  0  2  0  0  0  0  0  0  0  0  0
    8.3353   14.4912   18.8961 O   0  0  0  0  0  0  0  0  0  0  0  0
    2.6721    3.0205   18.0212 C   0  0  2  0  0  0  0  0  0  0  0  0
    3.7870    3.6801   17.3557 O   0  0  0  0  0  0  0  0  0  0  0  0
    4.8263    7.7357   18.0370 C   0  0  2  0  0  0  0  0  0  0  0  0
    5.5222    7.1409   16.9064 O   0  0  0  0  0  0  0  0  0  0  0  0
    4.2556    7.9871   13.1515 C   0  0  0  0  0  0  0  0  0  0  0  0
    4.5694    7.8561   11.7572 O   0  0  0  0  0  0  0  0  0  0  0  0
    6.3523   12.3759   12.8355 C   0  0  1  0  0  0  0  0  0  0  0  0
    6.3038   10.9838   13.2154 O   0  0  0  0  0  0  0  0  0  0  0  0
    6.4045   14.4143   17.3284 C   0  0  2  0  0  0  0  0  0  0  0  0
    5.9330   14.5558   15.9795 O   0  0  0  0  0  0  0  0  0  0  0  0
    2.9615    1.5597   17.9531 C   0  0  0  0  0  0  0  0  0  0  0  0
    1.9059    0.8899   18.5990 O   0  0  0  0  0  0  0  0  0  0  0  0
    5.5547    9.0045   18.5954 C   0  0  1  0  0  0  0  0  0  0  0  0
    5.5136   10.0165   17.5544 O   0  0  0  0  0  0  0  0  0  0  0  0
    4.9595   13.0212   13.1121 C   0  0  0  0  0  0  0  0  0  0  0  0
    4.0798   13.0489   11.9246 N   0  0  0  0  0  0  0  0  0  0  0  0
    5.2133   14.1119   18.2347 C   0  0  0  0  0  0  0  0  0  0  0  0
    4.3592   13.1145   17.6144 O   0  0  0  0  0  0  0  0  0  0  0  0
  1  2  1  1  0  0  0
  1  8  1  0  0  0  0
  1 36  1  0  0  0  0
  3  4  1  1  0  0  0
  3 10  1  0  0  0  0
  3 47  1  0  0  0  0
  5 11  1  0  0  0  0
  5 30  1  0  0  0  0
  5 38  1  1  0  0  0
  6 21  1  1  0  0  0
  6 42  1  0  0  0  0
  7 15  1  0  0  0  0
  7 44  1  0  0  0  0
  7 32  1  1  0  0  0
  8  9  1  1  0  0  0
  8 17  1  0  0  0  0
 11 12  1  1  0  0  0
 11 20  1  0  0  0  0
 13  6  1  0  0  0  0
 13 14  1  1  0  0  0
 15 16  1  1  0  0  0
 15 24  1  0  0  0  0
 17 26  1  0  0  0  0
 18 10  1  0  0  0  0
 18 19  1  1  0  0  0
 20 21  1  1  0  0  0
 20 29  1  0  0  0  0
 22 13  1  0  0  0  0
 22 23  1  6  0  0  0
 24 25  1  1  0  0  0
 24 33  1  0  0  0  0
 26 27  1  1  0  0  0
 26 35  1  0  0  0  0
 28  2  1  6  0  0  0
 28 18  1  0  0  0  0
 29 30  1  0  0  0  0
 29 39  1  6  0  0  0
 31 22  1  0  0  0  0
 31 32  1  1  0  0  0
 31 41  1  0  0  0  0
 33 34  1  1  0  0  0
 33 43  1  0  0  0  0
 35 36  1  0  0  0  0
 35 45  1  6  0  0  0
 37 28  1  0  0  0  0
 37 38  1  6  0  0  0
 39 40  1  0  0  0  0
 41 42  1  0  0  0  0
 41 49  1  1  0  0  0
 43 44  1  0  0  0  0
 43 51  1  1  0  0  0
 45 46  1  0  0  0  0
 47 37  1  0  0  0  0
 47 48  1  6  0  0  0
 49 50  1  0  0  0  0
 51 52  1  0  0  0  0
M  END
>  <CHROM.1>
-104.55838305,175.60181135,-173.19241480,-128.30651490,-167.40166941,157.09092669
-60.04580436,171.45838768,-63.25813493,-161.65206791,106.70024776,-164.51458615
5.56618545,9.57429698,16.19222247,-2.95476881,1.13828381,1.06950153

>  <Name>
2esj_lig

>  <RI>
0

>  <Rbt.Current_Directory>
/home/itssahil/PROJECTS/Mol_Feturizer/New_Systems/rnas/2esj

>  <Rbt.Executable>
rbdock ($Id: //depot/dev/client3/rdock/2013.1/src/exe/rbdock.cxx#4 $)

>  <Rbt.Library>
libRbt.so (2013.1, Build901 2013/11/27)

>  <Rbt.Parameter_File>
/export/apps/rDock/src/rDock_2013.1_src/data/scripts/dock_solv.prm

>  <Rbt.Receptor>
prm/blind_docking_80.prm

>  <SCORE>
-1.00923

>  <SCORE.INTER>
-7.75646

>  <SCORE.INTER.CONST>
1

>  <SCORE.INTER.POLAR>
0

>  <SCORE.INTER.ROT>
12

>  <SCORE.INTER.SOLV>
17.1385

>  <SCORE.INTER.VDW>
-22.4838

>  <SCORE.INTER.norm>
-0.149163

>  <SCORE.INTRA>
2.69493

>  <SCORE.INTRA.DIHEDRAL>
-9.39515

>  <SCORE.INTRA.DIHEDRAL.0>
32.9766

>  <SCORE.INTRA.POLAR>
0

>  <SCORE.INTRA.POLAR.0>
0

>  <SCORE.INTRA.REPUL>
0

>  <SCORE.INTRA.REPUL.0>
0

>  <SCORE.INTRA.SOLV>
-0.0928628

>  <SCORE.INTRA.SOLV.lig_0>
-114.358

>  <SCORE.INTRA.VDW>
7.43893

>  <SCORE.INTRA.VDW.0>
-8.24257

>  <SCORE.INTRA.norm>
0.0518255

>  <SCORE.RESTR>
4.05231

>  <SCORE.RESTR.CAVITY>
4.05231

>  <SCORE.RESTR.norm>
0.077929

>  <SCORE.SYSTEM>
0

>  <SCORE.SYSTEM.CONST>
0

>  <SCORE.SYSTEM.DIHEDRAL>
0

>  <SCORE.SYSTEM.SOLV>
0

>  <SCORE.SYSTEM.norm>
0

>  <SCORE.heavy>
52

>  <SCORE.norm>
-0.0194082

>  <RMSD>
22.473

$$$$
2esj_lig
 OpenBabel11021811423D
libRbt.so/2013.1/901 2013/11/27
 52 56  0  0  0  0  0  0  0  0999 V2000
    4.1003    8.9635   19.9248 C   0  0  2  0  0  0  0  0  0  0  0  0
    5.5068    9.2511   20.0419 O   0  0  0  0  0  0  0  0  0  0  0  0
    5.8071   12.9492   17.9154 C   0  0  2  0  0  0  0  0  0  0  0  0
    6.1822   14.2934   17.4466 N   0  0  0  0  0  0  0  0  0  0  0  0
    7.8128    8.7413   16.9687 C   0  0  1  0  0  0  0  0  0  0  0  0
    7.6019    6.3893   13.7097 C   0  0  1  0  0  0  0  0  0  0  0  0
    6.1014   10.3469   10.5304 C   0  0  1  0  0  0  0  0  0  0  0  0
    3.6658    8.2146   21.2192 C   0  0  2  0  0  0  0  0  0  0  0  0
    3.9679    8.9793   22.4288 N   0  0  0  0  0  0  0  0  0  0  0  0
    5.3841   12.9967   19.4373 C   0  0  0  0  0  0  0  0  0  0  0  0
    7.1625    7.3845   17.2419 C   0  0  2  0  0  0  0  0  0  0  0  0
    8.0839    6.4408   17.8300 O   0  0  0  0  0  0  0  0  0  0  0  0
    8.6095    7.4137   13.0193 C   0  0  2  0  0  0  0  0  0  0  0  0
    8.4725    8.7741   13.6038 N   0  0  0  0  0  0  0  0  0  0  0  0
    6.6174   11.5227   11.3518 C   0  0  1  0  0  0  0  0  0  0  0  0
    6.7067   12.6876   10.5072 O   0  0  0  0  0  0  0  0  0  0  0  0
    4.3372    6.8069   21.3005 C   0  0  0  0  0  0  0  0  0  0  0  0
    4.9284   11.5565   19.9062 C   0  0  2  0  0  0  0  0  0  0  0  0
    4.5429   11.5703   21.3212 N   0  0  0  0  0  0  0  0  0  0  0  0
    6.7027    7.0179   15.8605 C   0  0  2  0  0  0  0  0  0  0  0  0
    7.7859    6.5756   15.0824 O   0  0  0  0  0  0  0  0  0  0  0  0
    8.4222    7.3380   11.4400 C   0  0  1  0  0  0  0  0  0  0  0  0
    8.5153    5.9704   11.0281 O   0  0  0  0  0  0  0  0  0  0  0  0
    5.7745   11.8869   12.5681 C   0  0  1  0  0  0  0  0  0  0  0  0
    6.2682   13.1350   13.0670 O   0  0  0  0  0  0  0  0  0  0  0  0
    4.0206    6.0222   19.9929 C   0  0  2  0  0  0  0  0  0  0  0  0
    4.5364    4.7037   20.0319 O   0  0  0  0  0  0  0  0  0  0  0  0
    6.0613   10.5253   19.6651 C   0  0  2  0  0  0  0  0  0  0  0  0
    6.2780    8.3413   15.1913 C   0  0  2  0  0  0  0  0  0  0  0  0
    7.1300    9.2802   15.8282 O   0  0  0  0  0  0  0  0  0  0  0  0
    6.9783    7.8226   11.0049 C   0  0  2  0  0  0  0  0  0  0  0  0
    6.9339    9.1948   11.3993 O   0  0  0  0  0  0  0  0  0  0  0  0
    4.2805   12.0169   12.2663 C   0  0  2  0  0  0  0  0  0  0  0  0
    3.6008   12.0468   13.5319 O   0  0  0  0  0  0  0  0  0  0  0  0
    4.5892    6.8219   18.7944 C   0  0  2  0  0  0  0  0  0  0  0  0
    3.9097    8.1097   18.7721 O   0  0  0  0  0  0  0  0  0  0  0  0
    6.6114   10.5099   18.2028 C   0  0  2  0  0  0  0  0  0  0  0  0
    7.7147    9.5664   18.1083 O   0  0  0  0  0  0  0  0  0  0  0  0
    4.8228    8.7660   15.3851 C   0  0  0  0  0  0  0  0  0  0  0  0
    4.4123    9.4577   14.1965 O   0  0  0  0  0  0  0  0  0  0  0  0
    6.0099    7.1028   11.9237 C   0  0  1  0  0  0  0  0  0  0  0  0
    6.1716    6.6822   13.2954 O   0  0  0  0  0  0  0  0  0  0  0  0
    3.8027   10.9181   11.3236 C   0  0  2  0  0  0  0  0  0  0  0  0
    4.6688   10.3673   10.3194 O   0  0  0  0  0  0  0  0  0  0  0  0
    4.3017    6.1849   17.4776 C   0  0  0  0  0  0  0  0  0  0  0  0
    5.0218    4.9771   17.4269 O   0  0  0  0  0  0  0  0  0  0  0  0
    7.0088   11.9527   17.7417 C   0  0  1  0  0  0  0  0  0  0  0  0
    7.3208   11.8803   16.3251 O   0  0  0  0  0  0  0  0  0  0  0  0
    4.4918    7.3225   11.6411 C   0  0  0  0  0  0  0  0  0  0  0  0
    4.1397    7.2119   10.2098 N   0  0  0  0  0  0  0  0  0  0  0  0
    2.3585   10.8042   10.8410 C   0  0  0  0  0  0  0  0  0  0  0  0
    2.2305   11.3881    9.5176 O   0  0  0  0  0  0  0  0  0  0  0  0
  1  2  1  1  0  0  0
  1  8  1  0  0  0  0
  1 36  1  0  0  0  0
  3  4  1  1  0  0  0
  3 10  1  0  0  0  0
  3 47  1  0  0  0  0
  5 11  1  0  0  0  0
  5 30  1  0  0  0  0
  5 38  1  1  0  0  0
  6 21  1  1  0  0  0
  6 42  1  0  0  0  0
  7 15  1  0  0  0  0
  7 44  1  0  0  0  0
  7 32  1  1  0  0  0
  8  9  1  1  0  0  0
  8 17  1  0  0  0  0
 11 12  1  6  0  0  0
 11 20  1  0  0  0  0
 13  6  1  0  0  0  0
 13 14  1  1  0  0  0
 15 16  1  6  0  0  0
 15 24  1  0  0  0  0
 17 26  1  0  0  0  0
 18 10  1  0  0  0  0
 18 19  1  1  0  0  0
 20 21  1  6  0  0  0
 20 29  1  0  0  0  0
 22 13  1  0  0  0  0
 22 23  1  1  0  0  0
 24 25  1  6  0  0  0
 24 33  1  0  0  0  0
 26 27  1  1  0  0  0
 26 35  1  0  0  0  0
 28  2  1  6  0  0  0
 28 18  1  0  0  0  0
 29 30  1  0  0  0  0
 29 39  1  1  0  0  0
 31 22  1  0  0  0  0
 31 32  1  1  0  0  0
 31 41  1  0  0  0  0
 33 34  1  1  0  0  0
 33 43  1  0  0  0  0
 35 36  1  0  0  0  0
 35 45  1  6  0  0  0
 37 28  1  0  0  0  0
 37 38  1  1  0  0  0
 39 40  1  0  0  0  0
 41 42  1  0  0  0  0
 41 49  1  1  0  0  0
 43 44  1  0  0  0  0
 43 51  1  6  0  0  0
 45 46  1  0  0  0  0
 47 37  1  0  0  0  0
 47 48  1  6  0  0  0
 49 50  1  0  0  0  0
 51 52  1  0  0  0  0
M  END
>  <CHROM.1>
-136.98261422,-95.17665587,118.27474405,-172.75797603,-170.01559171,29.64472483
-147.16241568,145.99317403,-66.85693666,139.24873258,45.57309758,98.40594058
5.73887872,9.16631737,15.44851918,1.89091417,-1.37149712,2.01046639

>  <Name>
2esj_lig

>  <RI>
224

>  <Rbt.Current_Directory>
/home/itssahil/PROJECTS/Mol_Feturizer/New_Systems/rnas/2esj

>  <Rbt.Executable>
rbdock ($Id: //depot/dev/client3/rdock/2013.1/src/exe/rbdock.cxx#4 $)

>  <Rbt.Library>
libRbt.so (2013.1, Build901 2013/11/27)

>  <Rbt.Parameter_File>
/export/apps/rDock/src/rDock_2013.1_src/data/scripts/dock_solv.prm

>  <Rbt.Receptor>
prm/blind_docking_100.prm

>  <SCORE>
0.524097

>  <SCORE.INTER>
-16.5488

>  <SCORE.INTER.CONST>
1

>  <SCORE.INTER.POLAR>
-2.29503

>  <SCORE.INTER.ROT>
12

>  <SCORE.INTER.SOLV>
22.8018

>  <SCORE.INTER.VDW>
-22.583

>  <SCORE.INTER.norm>
-0.318247

>  <SCORE.INTRA>
12.282

>  <SCORE.INTRA.DIHEDRAL>
7.87396

>  <SCORE.INTRA.DIHEDRAL.0>
32.9766

>  <SCORE.INTRA.POLAR>
0

>  <SCORE.INTRA.POLAR.0>
0

>  <SCORE.INTRA.REPUL>
0.0987713

>  <SCORE.INTRA.REPUL.0>
0

>  <SCORE.INTRA.SOLV>
8.69124

>  <SCORE.INTRA.SOLV.lig_0>
-114.358

>  <SCORE.INTRA.VDW>
3.50554

>  <SCORE.INTRA.VDW.0>
-8.24257

>  <SCORE.INTRA.norm>
0.236192

>  <SCORE.RESTR>
4.79093

>  <SCORE.RESTR.CAVITY>
4.79093

>  <SCORE.RESTR.norm>
0.0921334

>  <SCORE.SYSTEM>
0

>  <SCORE.SYSTEM.CONST>
0

>  <SCORE.SYSTEM.DIHEDRAL>
0

>  <SCORE.SYSTEM.SOLV>
0

>  <SCORE.SYSTEM.norm>
0

>  <SCORE.heavy>
52

>  <SCORE.norm>
0.0100788

>  <RMSD>
22.488

$$$$
2esj_lig
 OpenBabel11021811423D
libRbt.so/2013.1/901 2013/11/27
 52 56  0  0  0  0  0  0  0  0999 V2000
    3.3810    7.5489   17.3506 C   0  0  2  0  0  0  0  0  0  0  0  0
    3.1670    8.1182   18.6564 O   0  0  0  0  0  0  0  0  0  0  0  0
    5.8861   10.9138   20.4112 C   0  0  2  0  0  0  0  0  0  0  0  0
    6.9138   11.5728   21.2338 N   0  0  0  0  0  0  0  0  0  0  0  0
    6.3063    8.2342   16.4745 C   0  0  1  0  0  0  0  0  0  0  0  0
    7.8229   10.2825   14.0631 C   0  0  1  0  0  0  0  0  0  0  0  0
    5.4435   11.9593   11.3255 C   0  0  1  0  0  0  0  0  0  0  0  0
    2.0229    6.9589   16.8684 C   0  0  2  0  0  0  0  0  0  0  0  0
    0.9567    7.9600   16.8593 N   0  0  0  0  0  0  0  0  0  0  0  0
    4.7656   10.2856   21.3317 C   0  0  0  0  0  0  0  0  0  0  0  0
    7.7887    8.5760   16.3191 C   0  0  2  0  0  0  0  0  0  0  0  0
    8.0466    9.9890   16.4684 O   0  0  0  0  0  0  0  0  0  0  0  0
    6.5112   10.9379   14.6884 C   0  0  2  0  0  0  0  0  0  0  0  0
    5.2926   10.4921   13.9623 N   0  0  0  0  0  0  0  0  0  0  0  0
    3.9199   11.9213   11.3506 C   0  0  1  0  0  0  0  0  0  0  0  0
    3.4257   11.8442    9.9984 O   0  0  0  0  0  0  0  0  0  0  0  0
    1.5996    5.7415   17.7503 C   0  0  0  0  0  0  0  0  0  0  0  0
    3.6415    9.6346   20.4294 C   0  0  2  0  0  0  0  0  0  0  0  0
    2.5946    9.0316   21.2608 N   0  0  0  0  0  0  0  0  0  0  0  0
    8.0493    8.0442   14.9395 C   0  0  2  0  0  0  0  0  0  0  0  0
    7.5322    8.9189   13.9690 O   0  0  0  0  0  0  0  0  0  0  0  0
    6.7084   12.5160   14.7660 C   0  0  1  0  0  0  0  0  0  0  0  0
    7.9448   12.7955   15.4307 O   0  0  0  0  0  0  0  0  0  0  0  0
    3.3103   10.7694   12.1406 C   0  0  1  0  0  0  0  0  0  0  0  0
    1.9067   10.7582   11.8580 O   0  0  0  0  0  0  0  0  0  0  0  0
    2.7593    4.7018   17.7627 C   0  0  2  0  0  0  0  0  0  0  0  0
    2.4114    3.5335   18.4838 O   0  0  0  0  0  0  0  0  0  0  0  0
    4.2563    8.5730   19.4808 C   0  0  2  0  0  0  0  0  0  0  0  0
    7.1786    6.7782   14.8031 C   0  0  2  0  0  0  0  0  0  0  0  0
    6.0814    7.0826   15.6496 O   0  0  0  0  0  0  0  0  0  0  0  0
    6.8407   13.1541   13.3222 C   0  0  2  0  0  0  0  0  0  0  0  0
    5.5817   12.8866   12.7026 O   0  0  0  0  0  0  0  0  0  0  0  0
    3.9072    9.4032   11.7984 C   0  0  2  0  0  0  0  0  0  0  0  0
    3.4716    8.4906   12.8193 O   0  0  0  0  0  0  0  0  0  0  0  0
    4.0187    5.3829   18.3534 C   0  0  2  0  0  0  0  0  0  0  0  0
    4.3624    6.4928   17.4753 O   0  0  0  0  0  0  0  0  0  0  0  0
    5.4532    9.0974   18.6243 C   0  0  2  0  0  0  0  0  0  0  0  0
    5.9990    8.0062   17.8319 O   0  0  0  0  0  0  0  0  0  0  0  0
    7.8142    5.4628   15.2520 C   0  0  0  0  0  0  0  0  0  0  0  0
    8.7687    5.0801   14.2510 O   0  0  0  0  0  0  0  0  0  0  0  0
    7.8489   12.2941   12.5846 C   0  0  1  0  0  0  0  0  0  0  0  0
    8.1255   10.8819   12.7021 O   0  0  0  0  0  0  0  0  0  0  0  0
    5.4206    9.4803   11.6303 C   0  0  2  0  0  0  0  0  0  0  0  0
    6.0557   10.6630   11.1209 O   0  0  0  0  0  0  0  0  0  0  0  0
    5.2124    4.4901   18.3702 C   0  0  0  0  0  0  0  0  0  0  0  0
    6.2037    5.1256   19.1407 O   0  0  0  0  0  0  0  0  0  0  0  0
    6.5299    9.7826   19.5319 C   0  0  1  0  0  0  0  0  0  0  0  0
    7.5003   10.4074   18.6502 O   0  0  0  0  0  0  0  0  0  0  0  0
    8.2485   12.7670   11.1530 C   0  0  0  0  0  0  0  0  0  0  0  0
    9.5306   13.5015   11.1145 N   0  0  0  0  0  0  0  0  0  0  0  0
    6.2821    8.2702   11.2764 C   0  0  0  0  0  0  0  0  0  0  0  0
    7.6881    8.6288   11.3344 O   0  0  0  0  0  0  0  0  0  0  0  0
  1  2  1  1  0  0  0
  1  8  1  0  0  0  0
  1 36  1  0  0  0  0
  3  4  1  1  0  0  0
  3 10  1  0  0  0  0
  3 47  1  0  0  0  0
  5 11  1  0  0  0  0
  5 30  1  0  0  0  0
  5 38  1  1  0  0  0
  6 21  1  6  0  0  0
  6 42  1  0  0  0  0
  7 15  1  0  0  0  0
  7 44  1  0  0  0  0
  7 32  1  1  0  0  0
  8  9  1  1  0  0  0
  8 17  1  0  0  0  0
 11 12  1  6  0  0  0
 11 20  1  0  0  0  0
 13  6  1  0  0  0  0
 13 14  1  6  0  0  0
 15 16  1  6  0  0  0
 15 24  1  0  0  0  0
 17 26  1  0  0  0  0
 18 10  1  0  0  0  0
 18 19  1  1  0  0  0
 20 21  1  6  0  0  0
 20 29  1  0  0  0  0
 22 13  1  0  0  0  0
 22 23  1  1  0  0  0
 24 25  1  6  0  0  0
 24 33  1  0  0  0  0
 26 27  1  1  0  0  0
 26 35  1  0  0  0  0
 28  2  1  6  0  0  0
 28 18  1  0  0  0  0
 29 30  1  0  0  0  0
 29 39  1  1  0  0  0
 31 22  1  0  0  0  0
 31 32  1  6  0  0  0
 31 41  1  0  0  0  0
 33 34  1  1  0  0  0
 33 43  1  0  0  0  0
 35 36  1  0  0  0  0
 35 45  1  6  0  0  0
 37 28  1  0  0  0  0
 37 38  1  1  0  0  0
 39 40  1  0  0  0  0
 41 42  1  0  0  0  0
 41 49  1  6  0  0  0
 43 44  1  0  0  0  0
 43 51  1  6  0  0  0
 45 46  1  0  0  0  0
 47 37  1  0  0  0  0
 47 48  1  6  0  0  0
 49 50  1  0  0  0  0
 51 52  1  0  0  0  0
M  END
>  <CHROM.1>
170.55325252,95.88010554,-101.15590405,172.36536620,48.67442689,155.39956951
-74.43081113,-118.48479618,-169.41152799,135.37858340,99.17595787,-173.65023326
5.56319148,9.13569338,15.48986233,2.01708535,0.93134713,1.74922166

>  <Name>
2esj_lig

>  <RI>
224

>  <Rbt.Current_Directory>
/home/itssahil/PROJECTS/Mol_Feturizer/New_Systems/rnas/2esj

>  <Rbt.Executable>
rbdock ($Id: //depot/dev/client3/rdock/2013.1/src/exe/rbdock.cxx#4 $)

>  <Rbt.Library>
libRbt.so (2013.1, Build901 2013/11/27)

>  <Rbt.Parameter_File>
/export/apps/rDock/src/rDock_2013.1_src/data/scripts/dock_solv.prm

>  <Rbt.Receptor>
prm/blind_docking_100.prm

>  <SCORE>
26.4623

>  <SCORE.INTER>
0.298434

>  <SCORE.INTER.CONST>
1

>  <SCORE.INTER.POLAR>
-0.137008

>  <SCORE.INTER.ROT>
12

>  <SCORE.INTER.SOLV>
26.9543

>  <SCORE.INTER.VDW>
-19.9291

>  <SCORE.INTER.norm>
0.00573912

>  <SCORE.INTRA>
19.8165

>  <SCORE.INTRA.DIHEDRAL>
0.175974

>  <SCORE.INTRA.DIHEDRAL.0>
32.9766

>  <SCORE.INTRA.POLAR>
0

>  <SCORE.INTRA.POLAR.0>
0

>  <SCORE.INTRA.REPUL>
0.467727

>  <SCORE.INTRA.REPUL.0>
0

>  <SCORE.INTRA.SOLV>
5.68137

>  <SCORE.INTRA.SOLV.lig_0>
-114.358

>  <SCORE.INTRA.VDW>
14.5492

>  <SCORE.INTRA.VDW.0>
-8.24257

>  <SCORE.INTRA.norm>
0.381087

>  <SCORE.RESTR>
6.34736

>  <SCORE.RESTR.CAVITY>
6.34736

>  <SCORE.RESTR.norm>
0.122065

>  <SCORE.SYSTEM>
0

>  <SCORE.SYSTEM.CONST>
0

>  <SCORE.SYSTEM.DIHEDRAL>
0

>  <SCORE.SYSTEM.SOLV>
0

>  <SCORE.SYSTEM.norm>
0

>  <SCORE.heavy>
52

>  <SCORE.norm>
0.508891

>  <RMSD>
22.502

$$$$
2esj_lig
 OpenBabel11021811423D
libRbt.so/2013.1/901 2013/11/27
 52 56  0  0  0  0  0  0  0  0999 V2000
    4.8330    9.6003   20.0332 C   0  0  2  0  0  0  0  0  0  0  0  0
    3.6366    9.0985   19.4074 O   0  0  0  0  0  0  0  0  0  0  0  0
    3.0224    4.9699   18.4774 C   0  0  2  0  0  0  0  0  0  0  0  0
    2.8859    3.6701   17.7997 N   0  0  0  0  0  0  0  0  0  0  0  0
    6.4011    8.0141   17.8026 C   0  0  1  0  0  0  0  0  0  0  0  0
    8.3095    9.6735   14.4273 C   0  0  1  0  0  0  0  0  0  0  0  0
    5.2420    9.1295   12.0166 C   0  0  1  0  0  0  0  0  0  0  0  0
    4.4095   10.7355   21.0114 C   0  0  2  0  0  0  0  0  0  0  0  0
    3.4284   10.2802   21.9959 N   0  0  0  0  0  0  0  0  0  0  0  0
    2.0509    6.0330   17.8267 C   0  0  0  0  0  0  0  0  0  0  0  0
    7.8958    8.3360   17.8298 C   0  0  2  0  0  0  0  0  0  0  0  0
    8.1702    9.6275   18.4148 O   0  0  0  0  0  0  0  0  0  0  0  0
    7.5993   11.0303   13.9847 C   0  0  2  0  0  0  0  0  0  0  0  0
    6.1252   10.9439   14.1601 N   0  0  0  0  0  0  0  0  0  0  0  0
    4.0346    9.5072   11.1662 C   0  0  1  0  0  0  0  0  0  0  0  0
    3.3213    8.3096   10.7981 O   0  0  0  0  0  0  0  0  0  0  0  0
    3.8449   11.9635   20.2290 C   0  0  0  0  0  0  0  0  0  0  0  0
    2.1683    7.4048   18.6051 C   0  0  2  0  0  0  0  0  0  0  0  0
    1.2853    8.4143   18.0117 N   0  0  0  0  0  0  0  0  0  0  0  0
    8.2235    8.2394   16.3678 C   0  0  2  0  0  0  0  0  0  0  0  0
    7.7772    9.3845   15.6866 O   0  0  0  0  0  0  0  0  0  0  0  0
    8.0809   11.4106   12.5156 C   0  0  1  0  0  0  0  0  0  0  0  0
    9.5116   11.3937   12.4788 O   0  0  0  0  0  0  0  0  0  0  0  0
    3.0454   10.4598   11.8268 C   0  0  1  0  0  0  0  0  0  0  0  0
    1.8834   10.5096   10.9916 O   0  0  0  0  0  0  0  0  0  0  0  0
    4.8970   12.4141   19.1727 C   0  0  2  0  0  0  0  0  0  0  0  0
    4.4806   13.5754   18.4769 O   0  0  0  0  0  0  0  0  0  0  0  0
    3.6366    7.9037   18.6039 C   0  0  2  0  0  0  0  0  0  0  0  0
    7.3390    7.1050   15.8105 C   0  0  2  0  0  0  0  0  0  0  0  0
    6.2019    7.1754   16.6561 O   0  0  0  0  0  0  0  0  0  0  0  0
    7.6090   10.3326   11.4551 C   0  0  2  0  0  0  0  0  0  0  0  0
    6.1828   10.4012   11.4943 O   0  0  0  0  0  0  0  0  0  0  0  0
    2.6362   10.0411   13.2401 C   0  0  2  0  0  0  0  0  0  0  0  0
    1.9717   11.1688   13.8329 O   0  0  0  0  0  0  0  0  0  0  0  0
    5.1549   11.2317   18.2060 C   0  0  2  0  0  0  0  0  0  0  0  0
    5.6922   10.1343   18.9985 O   0  0  0  0  0  0  0  0  0  0  0  0
    4.6693    6.8534   19.1249 C   0  0  2  0  0  0  0  0  0  0  0  0
    6.0144    7.3955   19.0096 O   0  0  0  0  0  0  0  0  0  0  0  0
    7.9248    5.6946   15.8669 C   0  0  0  0  0  0  0  0  0  0  0  0
    7.0913    4.9147   16.7368 O   0  0  0  0  0  0  0  0  0  0  0  0
    7.9691    8.9856   12.0516 C   0  0  1  0  0  0  0  0  0  0  0  0
    8.0172    8.5657   13.4322 O   0  0  0  0  0  0  0  0  0  0  0  0
    3.8286    9.5252   14.0378 C   0  0  2  0  0  0  0  0  0  0  0  0
    4.9146    8.8384   13.3970 O   0  0  0  0  0  0  0  0  0  0  0  0
    6.1874   11.5348   17.1742 C   0  0  0  0  0  0  0  0  0  0  0  0
    6.5010   12.9025   17.2803 O   0  0  0  0  0  0  0  0  0  0  0  0
    4.5017    5.4883   18.3763 C   0  0  1  0  0  0  0  0  0  0  0  0
    5.3545    4.5228   19.0471 O   0  0  0  0  0  0  0  0  0  0  0  0
    7.7039    7.7368   11.1555 C   0  0  0  0  0  0  0  0  0  0  0  0
    8.5432    6.5725   11.5088 N   0  0  0  0  0  0  0  0  0  0  0  0
    3.7157    9.0281   15.4772 C   0  0  0  0  0  0  0  0  0  0  0  0
    2.3946    8.4705   15.7069 O   0  0  0  0  0  0  0  0  0  0  0  0
  1  2  1  6  0  0  0
  1  8  1  0  0  0  0
  1 36  1  0  0  0  0
  3  4  1  6  0  0  0
  3 10  1  0  0  0  0
  3 47  1  0  0  0  0
  5 11  1  0  0  0  0
  5 30  1  0  0  0  0
  5 38  1  1  0  0  0
  6 21  1  1  0  0  0
  6 42  1  0  0  0  0
  7 15  1  0  0  0  0
  7 44  1  0  0  0  0
  7 32  1  1  0  0  0
  8  9  1  1  0  0  0
  8 17  1  0  0  0  0
 11 12  1  6  0  0  0
 11 20  1  0  0  0  0
 13  6  1  0  0  0  0
 13 14  1  6  0  0  0
 15 16  1  1  0  0  0
 15 24  1  0  0  0  0
 17 26  1  0  0  0  0
 18 10  1  0  0  0  0
 18 19  1  6  0  0  0
 20 21  1  6  0  0  0
 20 29  1  0  0  0  0
 22 13  1  0  0  0  0
 22 23  1  1  0  0  0
 24 25  1  6  0  0  0
 24 33  1  0  0  0  0
 26 27  1  6  0  0  0
 26 35  1  0  0  0  0
 28  2  1  1  0  0  0
 28 18  1  0  0  0  0
 29 30  1  0  0  0  0
 29 39  1  1  0  0  0
 31 22  1  0  0  0  0
 31 32  1  1  0  0  0
 31 41  1  0  0  0  0
 33 34  1  1  0  0  0
 33 43  1  0  0  0  0
 35 36  1  0  0  0  0
 35 45  1  6  0  0  0
 37 28  1  0  0  0  0
 37 38  1  6  0  0  0
 39 40  1  0  0  0  0
 41 42  1  0  0  0  0
 41 49  1  6  0  0  0
 43 44  1  0  0  0  0
 43 51  1  1  0  0  0
 45 46  1  0  0  0  0
 47 37  1  0  0  0  0
 47 48  1  1  0  0  0
 49 50  1  0  0  0  0
 51 52  1  0  0  0  0
M  END
>  <CHROM.1>
-170.00268345,-172.27845898,-179.06405629,-151.99045471,161.63308073,157.91870743
116.38614906,-114.99332378,-7.83285767,-47.11111519,156.15613881,29.58420416
5.35653104,8.98441767,15.93300740,2.88229047,-1.28849717,3.04375223

>  <Name>
2esj_lig

>  <RI>
224

>  <Rbt.Current_Directory>
/home/itssahil/PROJECTS/Mol_Feturizer/New_Systems/rnas/2esj

>  <Rbt.Executable>
rbdock ($Id: //depot/dev/client3/rdock/2013.1/src/exe/rbdock.cxx#4 $)

>  <Rbt.Library>
libRbt.so (2013.1, Build901 2013/11/27)

>  <Rbt.Parameter_File>
/export/apps/rDock/src/rDock_2013.1_src/data/scripts/dock_solv.prm

>  <Rbt.Receptor>
prm/blind_docking_100.prm

>  <SCORE>
39.5824

>  <SCORE.INTER>
25.3304

>  <SCORE.INTER.CONST>
1

>  <SCORE.INTER.POLAR>
0

>  <SCORE.INTER.ROT>
12

>  <SCORE.INTER.SOLV>
27.4792

>  <SCORE.INTER.VDW>
-3.87279

>  <SCORE.INTER.norm>
0.487123

>  <SCORE.INTRA>
9.87756

>  <SCORE.INTRA.DIHEDRAL>
-2.04758

>  <SCORE.INTRA.DIHEDRAL.0>
32.9766

>  <SCORE.INTRA.POLAR>
0

>  <SCORE.INTRA.POLAR.0>
0

>  <SCORE.INTRA.REPUL>
0.169142

>  <SCORE.INTRA.REPUL.0>
0

>  <SCORE.INTRA.SOLV>
6.91259

>  <SCORE.INTRA.SOLV.lig_0>
-114.358

>  <SCORE.INTRA.VDW>
6.59935

>  <SCORE.INTRA.VDW.0>
-8.24257

>  <SCORE.INTRA.norm>
0.189953

>  <SCORE.RESTR>
4.37448

>  <SCORE.RESTR.CAVITY>
4.37448

>  <SCORE.RESTR.norm>
0.0841246

>  <SCORE.SYSTEM>
0

>  <SCORE.SYSTEM.CONST>
0

>  <SCORE.SYSTEM.DIHEDRAL>
0

>  <SCORE.SYSTEM.SOLV>
0

>  <SCORE.SYSTEM.norm>
0

>  <SCORE.heavy>
52

>  <SCORE.norm>
0.761201

>  <RMSD>
22.506

$$$$
2esj_lig
 OpenBabel11021811423D
libRbt.so/2013.1/901 2013/11/27
 52 56  0  0  0  0  0  0  0  0999 V2000
    5.0060    8.4912   18.0661 C   0  0  2  0  0  0  0  0  0  0  0  0
    3.9649    8.3456   17.0813 O   0  0  0  0  0  0  0  0  0  0  0  0
    2.3947    4.4646   17.9535 C   0  0  2  0  0  0  0  0  0  0  0  0
    1.5198    3.3010   18.1721 N   0  0  0  0  0  0  0  0  0  0  0  0
    4.1821    7.5817   14.4038 C   0  0  1  0  0  0  0  0  0  0  0  0
    6.7171   10.3291   12.5497 C   0  0  1  0  0  0  0  0  0  0  0  0
    8.8369   14.0100   15.6506 C   0  0  1  0  0  0  0  0  0  0  0  0
    6.1413    9.3431   17.4253 C   0  0  2  0  0  0  0  0  0  0  0  0
    5.6583   10.6377   16.9460 N   0  0  0  0  0  0  0  0  0  0  0  0
    1.9339    5.6757   18.8581 C   0  0  0  0  0  0  0  0  0  0  0  0
    4.7872    7.2160   13.0479 C   0  0  2  0  0  0  0  0  0  0  0  0
    5.9655    6.3909   13.1753 O   0  0  0  0  0  0  0  0  0  0  0  0
    8.2535   10.3221   12.9748 C   0  0  2  0  0  0  0  0  0  0  0  0
    8.4054   10.0331   14.4254 N   0  0  0  0  0  0  0  0  0  0  0  0
    8.1041   13.3334   16.8034 C   0  0  1  0  0  0  0  0  0  0  0  0
    8.6717   13.7786   18.0516 O   0  0  0  0  0  0  0  0  0  0  0  0
    6.8279    8.5676   16.2565 C   0  0  0  0  0  0  0  0  0  0  0  0
    2.9200    6.8953   18.6539 C   0  0  2  0  0  0  0  0  0  0  0  0
    2.5060    8.0390   19.4735 N   0  0  0  0  0  0  0  0  0  0  0  0
    5.0501    8.5837   12.4873 C   0  0  2  0  0  0  0  0  0  0  0  0
    6.1933    9.1469   13.0793 O   0  0  0  0  0  0  0  0  0  0  0  0
    8.9320   11.6763   12.4840 C   0  0  1  0  0  0  0  0  0  0  0  0
    8.6522   11.8558   11.0918 O   0  0  0  0  0  0  0  0  0  0  0  0
    6.6014   13.5816   16.8547 C   0  0  1  0  0  0  0  0  0  0  0  0
    6.1318   13.0782   18.1102 O   0  0  0  0  0  0  0  0  0  0  0  0
    7.3119    7.1851   16.7858 C   0  0  2  0  0  0  0  0  0  0  0  0
    8.0147    6.4581   15.7940 O   0  0  0  0  0  0  0  0  0  0  0  0
    2.9809    7.2972   17.1573 C   0  0  2  0  0  0  0  0  0  0  0  0
    3.8938    9.4745   12.9866 C   0  0  2  0  0  0  0  0  0  0  0  0
    3.5644    8.8637   14.2241 O   0  0  0  0  0  0  0  0  0  0  0  0
    8.3070   12.9346   13.2157 C   0  0  2  0  0  0  0  0  0  0  0  0
    8.6337   12.7394   14.5924 O   0  0  0  0  0  0  0  0  0  0  0  0
    6.2152   15.0559   16.7232 C   0  0  2  0  0  0  0  0  0  0  0  0
    4.8003   15.0956   16.4753 O   0  0  0  0  0  0  0  0  0  0  0  0
    6.0794    6.4015   17.3014 C   0  0  2  0  0  0  0  0  0  0  0  0
    5.5028    7.1723   18.3943 O   0  0  0  0  0  0  0  0  0  0  0  0
    3.3150    6.1158   16.1911 C   0  0  2  0  0  0  0  0  0  0  0  0
    3.2717    6.5860   14.8150 O   0  0  0  0  0  0  0  0  0  0  0  0
    2.6479    9.5316   12.1033 C   0  0  0  0  0  0  0  0  0  0  0  0
    1.7101   10.4152   12.7352 O   0  0  0  0  0  0  0  0  0  0  0  0
    6.8036   12.7572   13.1243 C   0  0  1  0  0  0  0  0  0  0  0  0
    6.0113   11.5503   13.1097 O   0  0  0  0  0  0  0  0  0  0  0  0
    7.0571   15.7626   15.6667 C   0  0  2  0  0  0  0  0  0  0  0  0
    8.4166   15.3755   15.4140 O   0  0  0  0  0  0  0  0  0  0  0  0
    6.4312    5.0730   17.8791 C   0  0  0  0  0  0  0  0  0  0  0  0
    7.0103    4.3060   16.8513 O   0  0  0  0  0  0  0  0  0  0  0  0
    2.3600    4.9011   16.4449 C   0  0  1  0  0  0  0  0  0  0  0  0
    2.8577    3.7903   15.6526 O   0  0  0  0  0  0  0  0  0  0  0  0
    5.9321   13.9237   13.6835 C   0  0  0  0  0  0  0  0  0  0  0  0
    4.5000   13.8037   13.3380 N   0  0  0  0  0  0  0  0  0  0  0  0
    6.8981   17.2430   15.3281 C   0  0  0  0  0  0  0  0  0  0  0  0
    6.2031   17.3899   14.0615 O   0  0  0  0  0  0  0  0  0  0  0  0
  1  2  1  6  0  0  0
  1  8  1  0  0  0  0
  1 36  1  0  0  0  0
  3  4  1  6  0  0  0
  3 10  1  0  0  0  0
  3 47  1  0  0  0  0
  5 11  1  0  0  0  0
  5 30  1  0  0  0  0
  5 38  1  6  0  0  0
  6 21  1  1  0  0  0
  6 42  1  0  0  0  0
  7 15  1  0  0  0  0
  7 44  1  0  0  0  0
  7 32  1  6  0  0  0
  8  9  1  6  0  0  0
  8 17  1  0  0  0  0
 11 12  1  1  0  0  0
 11 20  1  0  0  0  0
 13  6  1  0  0  0  0
 13 14  1  1  0  0  0
 15 16  1  1  0  0  0
 15 24  1  0  0  0  0
 17 26  1  0  0  0  0
 18 10  1  0  0  0  0
 18 19  1  1  0  0  0
 20 21  1  1  0  0  0
 20 29  1  0  0  0  0
 22 13  1  0  0  0  0
 22 23  1  6  0  0  0
 24 25  1  1  0  0  0
 24 33  1  0  0  0  0
 26 27  1  6  0  0  0
 26 35  1  0  0  0  0
 28  2  1  1  0  0  0
 28 18  1  0  0  0  0
 29 30  1  0  0  0  0
 29 39  1  6  0  0  0
 31 22  1  0  0  0  0
 31 32  1  1  0  0  0
 31 41  1  0  0  0  0
 33 34  1  6  0  0  0
 33 43  1  0  0  0  0
 35 36  1  0  0  0  0
 35 45  1  1  0  0  0
 37 28  1  0  0  0  0
 37 38  1  6  0  0  0
 39 40  1  0  0  0  0
 41 42  1  0  0  0  0
 41 49  1  1  0  0  0
 43 44  1  0  0  0  0
 43 51  1  1  0  0  0
 45 46  1  0  0  0  0
 47 37  1  0  0  0  0
 47 48  1  6  0  0  0
 49 50  1  0  0  0  0
 51 52  1  0  0  0  0
M  END
>  <CHROM.1>
159.83961287,135.18491241,-155.66089872,139.00238708,170.52256291,23.84191632
-179.44679159,151.49598501,-61.96967799,62.74988178,169.20984872,-104.76443508
5.60602470,9.86132057,15.44976291,2.97366502,-1.19405738,-1.98193246

>  <Name>
2esj_lig

>  <RI>
0

>  <Rbt.Current_Directory>
/home/itssahil/PROJECTS/Mol_Feturizer/New_Systems/rnas/2esj

>  <Rbt.Executable>
rbdock ($Id: //depot/dev/client3/rdock/2013.1/src/exe/rbdock.cxx#4 $)

>  <Rbt.Library>
libRbt.so (2013.1, Build901 2013/11/27)

>  <Rbt.Parameter_File>
/export/apps/rDock/src/rDock_2013.1_src/data/scripts/dock_solv.prm

>  <Rbt.Receptor>
prm/blind_docking_80.prm

>  <SCORE>
7.26143

>  <SCORE.INTER>
-2.06661

>  <SCORE.INTER.CONST>
1

>  <SCORE.INTER.POLAR>
0

>  <SCORE.INTER.ROT>
12

>  <SCORE.INTER.SOLV>
16.172

>  <SCORE.INTER.VDW>
-18.3684

>  <SCORE.INTER.norm>
-0.0397425

>  <SCORE.INTRA>
4.67302

>  <SCORE.INTRA.DIHEDRAL>
-2.47377

>  <SCORE.INTRA.DIHEDRAL.0>
32.9766

>  <SCORE.INTRA.POLAR>
0

>  <SCORE.INTRA.POLAR.0>
0

>  <SCORE.INTRA.REPUL>
0

>  <SCORE.INTRA.REPUL.0>
0

>  <SCORE.INTRA.SOLV>
6.77991

>  <SCORE.INTRA.SOLV.lig_0>
-114.358

>  <SCORE.INTRA.VDW>
2.51995

>  <SCORE.INTRA.VDW.0>
-8.24257

>  <SCORE.INTRA.norm>
0.0898658

>  <SCORE.RESTR>
4.65502

>  <SCORE.RESTR.CAVITY>
4.65502

>  <SCORE.RESTR.norm>
0.0895196

>  <SCORE.SYSTEM>
0

>  <SCORE.SYSTEM.CONST>
0

>  <SCORE.SYSTEM.DIHEDRAL>
0

>  <SCORE.SYSTEM.SOLV>
0

>  <SCORE.SYSTEM.norm>
0

>  <SCORE.heavy>
52

>  <SCORE.norm>
0.139643

>  <RMSD>
22.517

$$$$
2esj_lig
 OpenBabel11021811423D
libRbt.so/2013.1/901 2013/11/27
 52 56  0  0  0  0  0  0  0  0999 V2000
    4.9141    9.8287   21.3772 C   0  0  2  0  0  0  0  0  0  0  0  0
    5.1200    8.9309   20.2697 O   0  0  0  0  0  0  0  0  0  0  0  0
    3.8188    4.9591   19.3646 C   0  0  2  0  0  0  0  0  0  0  0  0
    3.0229    3.7478   19.1063 N   0  0  0  0  0  0  0  0  0  0  0  0
    5.2063    8.9586   16.8400 C   0  0  1  0  0  0  0  0  0  0  0  0
    8.5011   10.1460   14.7973 C   0  0  1  0  0  0  0  0  0  0  0  0
    5.9026   10.6816   10.7540 C   0  0  1  0  0  0  0  0  0  0  0  0
    3.5613   10.5627   21.1402 C   0  0  2  0  0  0  0  0  0  0  0  0
    2.4464    9.6298   20.9791 N   0  0  0  0  0  0  0  0  0  0  0  0
    3.4716    5.5509   20.7882 C   0  0  0  0  0  0  0  0  0  0  0  0
    6.5279    8.6334   17.5372 C   0  0  2  0  0  0  0  0  0  0  0  0
    6.8633    9.5975   18.5587 O   0  0  0  0  0  0  0  0  0  0  0  0
    8.1978   11.6531   14.3756 C   0  0  2  0  0  0  0  0  0  0  0  0
    6.7357   11.9239   14.3744 N   0  0  0  0  0  0  0  0  0  0  0  0
    4.7721   11.6766   10.9895 C   0  0  1  0  0  0  0  0  0  0  0  0
    3.9272   11.7186    9.8221 O   0  0  0  0  0  0  0  0  0  0  0  0
    3.6484   11.5042   19.8972 C   0  0  0  0  0  0  0  0  0  0  0  0
    4.3778    6.8158   21.0719 C   0  0  2  0  0  0  0  0  0  0  0  0
    4.0654    7.3930   22.3834 N   0  0  0  0  0  0  0  0  0  0  0  0
    7.4633    8.6289   16.3628 C   0  0  2  0  0  0  0  0  0  0  0  0
    7.7578    9.9434   15.9631 O   0  0  0  0  0  0  0  0  0  0  0  0
    8.9410   11.9654   13.0026 C   0  0  1  0  0  0  0  0  0  0  0  0
   10.3189   11.5993   13.1288 O   0  0  0  0  0  0  0  0  0  0  0  0
    3.8905   11.3862   12.1982 C   0  0  1  0  0  0  0  0  0  0  0  0
    2.7646   12.2676   12.1225 O   0  0  0  0  0  0  0  0  0  0  0  0
    4.8555   12.4709   20.0819 C   0  0  2  0  0  0  0  0  0  0  0  0
    4.9473   13.4072   19.0231 O   0  0  0  0  0  0  0  0  0  0  0  0
    4.1907    7.8767   19.9564 C   0  0  2  0  0  0  0  0  0  0  0  0
    6.6561    8.0515   15.1818 C   0  0  2  0  0  0  0  0  0  0  0  0
    5.3343    8.4546   15.5032 O   0  0  0  0  0  0  0  0  0  0  0  0
    8.3662   11.0822   11.8199 C   0  0  2  0  0  0  0  0  0  0  0  0
    7.0046   11.4971   11.7005 O   0  0  0  0  0  0  0  0  0  0  0  0
    3.3980    9.9397   12.2687 C   0  0  2  0  0  0  0  0  0  0  0  0
    2.8617    9.7459   13.5876 O   0  0  0  0  0  0  0  0  0  0  0  0
    6.1453   11.6223   20.2064 C   0  0  2  0  0  0  0  0  0  0  0  0
    5.9999   10.7852   21.3892 O   0  0  0  0  0  0  0  0  0  0  0  0
    4.4023    7.3271   18.5092 C   0  0  2  0  0  0  0  0  0  0  0  0
    4.1294    8.3809   17.5442 O   0  0  0  0  0  0  0  0  0  0  0  0
    6.6941    6.5335   15.0086 C   0  0  0  0  0  0  0  0  0  0  0  0
    6.3583    5.9454   16.2739 O   0  0  0  0  0  0  0  0  0  0  0  0
    8.3149    9.6639   12.3547 C   0  0  1  0  0  0  0  0  0  0  0  0
    8.0836    9.1870   13.6977 O   0  0  0  0  0  0  0  0  0  0  0  0
    4.4981    8.9551   11.8880 C   0  0  2  0  0  0  0  0  0  0  0  0
    5.5077    9.2990   10.9266 O   0  0  0  0  0  0  0  0  0  0  0  0
    7.3667   12.4457   20.4358 C   0  0  0  0  0  0  0  0  0  0  0  0
    7.2376   13.0488   21.7006 O   0  0  0  0  0  0  0  0  0  0  0  0
    3.5344    6.0463   18.2671 C   0  0  1  0  0  0  0  0  0  0  0  0
    3.9329    5.4935   16.9845 O   0  0  0  0  0  0  0  0  0  0  0  0
    7.8771    8.5576   11.3461 C   0  0  0  0  0  0  0  0  0  0  0  0
    7.6942    7.2316   11.9730 N   0  0  0  0  0  0  0  0  0  0  0  0
    4.2893    7.4428   11.8596 C   0  0  0  0  0  0  0  0  0  0  0  0
    4.8209    6.8920   10.6256 O   0  0  0  0  0  0  0  0  0  0  0  0
  1  2  1  6  0  0  0
  1  8  1  0  0  0  0
  1 36  1  0  0  0  0
  3  4  1  6  0  0  0
  3 10  1  0  0  0  0
  3 47  1  0  0  0  0
  5 11  1  0  0  0  0
  5 30  1  0  0  0  0
  5 38  1  1  0  0  0
  6 21  1  1  0  0  0
  6 42  1  0  0  0  0
  7 15  1  0  0  0  0
  7 44  1  0  0  0  0
  7 32  1  1  0  0  0
  8  9  1  6  0  0  0
  8 17  1  0  0  0  0
 11 12  1  1  0  0  0
 11 20  1  0  0  0  0
 13  6  1  0  0  0  0
 13 14  1  6  0  0  0
 15 16  1  6  0  0  0
 15 24  1  0  0  0  0
 17 26  1  0  0  0  0
 18 10  1  0  0  0  0
 18 19  1  1  0  0  0
 20 21  1  6  0  0  0
 20 29  1  0  0  0  0
 22 13  1  0  0  0  0
 22 23  1  1  0  0  0
 24 25  1  6  0  0  0
 24 33  1  0  0  0  0
 26 27  1  6  0  0  0
 26 35  1  0  0  0  0
 28  2  1  1  0  0  0
 28 18  1  0  0  0  0
 29 30  1  0  0  0  0
 29 39  1  1  0  0  0
 31 22  1  0  0  0  0
 31 32  1  1  0  0  0
 31 41  1  0  0  0  0
 33 34  1  1  0  0  0
 33 43  1  0  0  0  0
 35 36  1  0  0  0  0
 35 45  1  1  0  0  0
 37 28  1  0  0  0  0
 37 38  1  6  0  0  0
 39 40  1  0  0  0  0
 41 42  1  0  0  0  0
 41 49  1  6  0  0  0
 43 44  1  0  0  0  0
 43 51  1  6  0  0  0
 45 46  1  0  0  0  0
 47 37  1  0  0  0  0
 47 48  1  6  0  0  0
 49 50  1  0  0  0  0
 51 52  1  0  0  0  0
M  END
>  <CHROM.1>
-59.61149566,-16.80137315,160.19425712,-175.71459554,-173.33022398,-72.09428398
51.32838232,-169.72055247,66.02997917,108.36516159,-173.11903812,132.78158596
5.59453973,9.38267623,16.07275223,-1.99095922,-1.12570071,-1.81353991

>  <Name>
2esj_lig

>  <RI>
224

>  <Rbt.Current_Directory>
/home/itssahil/PROJECTS/Mol_Feturizer/New_Systems/rnas/2esj

>  <Rbt.Executable>
rbdock ($Id: //depot/dev/client3/rdock/2013.1/src/exe/rbdock.cxx#4 $)

>  <Rbt.Library>
libRbt.so (2013.1, Build901 2013/11/27)

>  <Rbt.Parameter_File>
/export/apps/rDock/src/rDock_2013.1_src/data/scripts/dock_solv.prm

>  <Rbt.Receptor>
prm/blind_docking_100.prm

>  <SCORE>
6.59833

>  <SCORE.INTER>
-13.4974

>  <SCORE.INTER.CONST>
1

>  <SCORE.INTER.POLAR>
-0.938083

>  <SCORE.INTER.ROT>
12

>  <SCORE.INTER.SOLV>
17.2383

>  <SCORE.INTER.VDW>
-23.2174

>  <SCORE.INTER.norm>
-0.259566

>  <SCORE.INTRA>
12.8246

>  <SCORE.INTRA.DIHEDRAL>
-10.7112

>  <SCORE.INTRA.DIHEDRAL.0>
32.9766

>  <SCORE.INTRA.POLAR>
0

>  <SCORE.INTRA.POLAR.0>
0

>  <SCORE.INTRA.REPUL>
0.0015572

>  <SCORE.INTRA.REPUL.0>
0

>  <SCORE.INTRA.SOLV>
11.2712

>  <SCORE.INTRA.SOLV.lig_0>
-114.358

>  <SCORE.INTRA.VDW>
12.5368

>  <SCORE.INTRA.VDW.0>
-8.24257

>  <SCORE.INTRA.norm>
0.246627

>  <SCORE.RESTR>
7.27112

>  <SCORE.RESTR.CAVITY>
7.27112

>  <SCORE.RESTR.norm>
0.139829

>  <SCORE.SYSTEM>
0

>  <SCORE.SYSTEM.CONST>
0

>  <SCORE.SYSTEM.DIHEDRAL>
0

>  <SCORE.SYSTEM.SOLV>
0

>  <SCORE.SYSTEM.norm>
0

>  <SCORE.heavy>
52

>  <SCORE.norm>
0.126891

>  <RMSD>
22.549

$$$$
2esj_lig
 OpenBabel11021811423D
libRbt.so/2013.1/901 2013/11/27
 52 56  0  0  0  0  0  0  0  0999 V2000
    3.5334    8.0827   20.5769 C   0  0  2  0  0  0  0  0  0  0  0  0
    4.8966    8.5243   20.7237 O   0  0  0  0  0  0  0  0  0  0  0  0
    4.6563   12.4750   19.1043 C   0  0  2  0  0  0  0  0  0  0  0  0
    4.8557   13.9015   18.8002 N   0  0  0  0  0  0  0  0  0  0  0  0
    7.2124    9.0173   17.3781 C   0  0  1  0  0  0  0  0  0  0  0  0
    7.9870    7.7229   13.7815 C   0  0  1  0  0  0  0  0  0  0  0  0
    4.7965    9.9143   12.2627 C   0  0  1  0  0  0  0  0  0  0  0  0
    3.4596    6.6128   21.0855 C   0  0  2  0  0  0  0  0  0  0  0  0
    3.9311    6.4797   22.4636 N   0  0  0  0  0  0  0  0  0  0  0  0
    4.3464   12.2794   20.6416 C   0  0  0  0  0  0  0  0  0  0  0  0
    8.7145    8.7794   17.2184 C   0  0  2  0  0  0  0  0  0  0  0  0
    9.4397    9.9992   16.9509 O   0  0  0  0  0  0  0  0  0  0  0  0
    8.3856    8.5735   12.4936 C   0  0  2  0  0  0  0  0  0  0  0  0
    7.9988   10.0002   12.6545 N   0  0  0  0  0  0  0  0  0  0  0  0
    3.6369   10.0080   11.2777 C   0  0  1  0  0  0  0  0  0  0  0  0
    2.3940    9.8700   11.9949 O   0  0  0  0  0  0  0  0  0  0  0  0
    4.2717    5.6589   20.1530 C   0  0  0  0  0  0  0  0  0  0  0  0
    4.0769   10.7493   20.9377 C   0  0  2  0  0  0  0  0  0  0  0  0
    3.7996   10.5384   22.3623 N   0  0  0  0  0  0  0  0  0  0  0  0
    8.7173    7.7987   16.0816 C   0  0  2  0  0  0  0  0  0  0  0  0
    8.4810    8.4571   14.8630 O   0  0  0  0  0  0  0  0  0  0  0  0
    7.7960    7.8585   11.1989 C   0  0  1  0  0  0  0  0  0  0  0  0
    8.1937    6.4835   11.2082 O   0  0  0  0  0  0  0  0  0  0  0  0
    3.5726   11.2978   10.4686 C   0  0  1  0  0  0  0  0  0  0  0  0
    2.3127   11.3084    9.7883 O   0  0  0  0  0  0  0  0  0  0  0  0
    3.7675    5.8361   18.6901 C   0  0  2  0  0  0  0  0  0  0  0  0
    4.4105    4.9420   17.7994 O   0  0  0  0  0  0  0  0  0  0  0  0
    5.2879    9.8901   20.4902 C   0  0  2  0  0  0  0  0  0  0  0  0
    7.4657    6.9189   16.2794 C   0  0  2  0  0  0  0  0  0  0  0  0
    6.5752    7.8144   16.9260 O   0  0  0  0  0  0  0  0  0  0  0  0
    6.2120    7.8498   11.2139 C   0  0  2  0  0  0  0  0  0  0  0  0
    5.8521    9.2314   11.1696 O   0  0  0  0  0  0  0  0  0  0  0  0
    3.7015   12.5645   11.3164 C   0  0  2  0  0  0  0  0  0  0  0  0
    3.9371   13.6522   10.4075 O   0  0  0  0  0  0  0  0  0  0  0  0
    3.9869    7.3119   18.2739 C   0  0  2  0  0  0  0  0  0  0  0  0
    3.1913    8.1375   19.1719 O   0  0  0  0  0  0  0  0  0  0  0  0
    5.7251   10.1238   19.0085 C   0  0  2  0  0  0  0  0  0  0  0  0
    6.9088    9.3289   18.7197 O   0  0  0  0  0  0  0  0  0  0  0  0
    7.6411    5.6693   17.1416 C   0  0  0  0  0  0  0  0  0  0  0  0
    6.5822    4.7605   16.8061 O   0  0  0  0  0  0  0  0  0  0  0  0
    5.8176    7.3697   12.5974 C   0  0  1  0  0  0  0  0  0  0  0  0
    6.4815    7.5519   13.8665 O   0  0  0  0  0  0  0  0  0  0  0  0
    4.7658   12.4084   12.3969 C   0  0  2  0  0  0  0  0  0  0  0  0
    5.0302   11.1351   13.0058 O   0  0  0  0  0  0  0  0  0  0  0  0
    3.4940    7.6109   16.8991 C   0  0  0  0  0  0  0  0  0  0  0  0
    4.1208    8.7972   16.4750 O   0  0  0  0  0  0  0  0  0  0  0  0
    5.9371   11.6490   18.7240 C   0  0  1  0  0  0  0  0  0  0  0  0
    6.1474   11.7942   17.2943 O   0  0  0  0  0  0  0  0  0  0  0  0
    4.2923    7.1669   12.8526 C   0  0  0  0  0  0  0  0  0  0  0  0
    3.8232    7.7744   14.1158 N   0  0  0  0  0  0  0  0  0  0  0  0
    5.1040   13.5102   13.3985 C   0  0  0  0  0  0  0  0  0  0  0  0
    3.8909   13.9887   14.0374 O   0  0  0  0  0  0  0  0  0  0  0  0
  1  2  1  6  0  0  0
  1  8  1  0  0  0  0
  1 36  1  0  0  0  0
  3  4  1  1  0  0  0
  3 10  1  0  0  0  0
  3 47  1  0  0  0  0
  5 11  1  0  0  0  0
  5 30  1  0  0  0  0
  5 38  1  1  0  0  0
  6 21  1  1  0  0  0
  6 42  1  0  0  0  0
  7 15  1  0  0  0  0
  7 44  1  0  0  0  0
  7 32  1  6  0  0  0
  8  9  1  1  0  0  0
  8 17  1  0  0  0  0
 11 12  1  6  0  0  0
 11 20  1  0  0  0  0
 13  6  1  0  0  0  0
 13 14  1  1  0  0  0
 15 16  1  1  0  0  0
 15 24  1  0  0  0  0
 17 26  1  0  0  0  0
 18 10  1  0  0  0  0
 18 19  1  1  0  0  0
 20 21  1  6  0  0  0
 20 29  1  0  0  0  0
 22 13  1  0  0  0  0
 22 23  1  1  0  0  0
 24 25  1  1  0  0  0
 24 33  1  0  0  0  0
 26 27  1  6  0  0  0
 26 35  1  0  0  0  0
 28  2  1  6  0  0  0
 28 18  1  0  0  0  0
 29 30  1  0  0  0  0
 29 39  1  1  0  0  0
 31 22  1  0  0  0  0
 31 32  1  1  0  0  0
 31 41  1  0  0  0  0
 33 34  1  6  0  0  0
 33 43  1  0  0  0  0
 35 36  1  0  0  0  0
 35 45  1  6  0  0  0
 37 28  1  0  0  0  0
 37 38  1  1  0  0  0
 39 40  1  0  0  0  0
 41 42  1  0  0  0  0
 41 49  1  1  0  0  0
 43 44  1  0  0  0  0
 43 51  1  1  0  0  0
 45 46  1  0  0  0  0
 47 37  1  0  0  0  0
 47 48  1  6  0  0  0
 49 50  1  0  0  0  0
 51 52  1  0  0  0  0
M  END
>  <CHROM.1>
-172.75326043,153.97555852,-158.07858230,-105.61905153,-157.83900946,33.42615191
-158.74068112,-128.15215467,-160.98884597,158.54480339,-132.51619631,51.40923784
5.41306511,9.17837441,15.83998879,1.66467263,-1.13972415,1.87430862

>  <Name>
2esj_lig

>  <RI>
224

>  <Rbt.Current_Directory>
/home/itssahil/PROJECTS/Mol_Feturizer/New_Systems/rnas/2esj

>  <Rbt.Executable>
rbdock ($Id: //depot/dev/client3/rdock/2013.1/src/exe/rbdock.cxx#4 $)

>  <Rbt.Library>
libRbt.so (2013.1, Build901 2013/11/27)

>  <Rbt.Parameter_File>
/export/apps/rDock/src/rDock_2013.1_src/data/scripts/dock_solv.prm

>  <Rbt.Receptor>
prm/blind_docking_100.prm

>  <SCORE>
1.03992

>  <SCORE.INTER>
-16.22

>  <SCORE.INTER.CONST>
1

>  <SCORE.INTER.POLAR>
-0.605503

>  <SCORE.INTER.ROT>
12

>  <SCORE.INTER.SOLV>
17.9579

>  <SCORE.INTER.VDW>
-26.3809

>  <SCORE.INTER.norm>
-0.311922

>  <SCORE.INTRA>
10.2512

>  <SCORE.INTRA.DIHEDRAL>
-0.376378

>  <SCORE.INTRA.DIHEDRAL.0>
32.9766

>  <SCORE.INTRA.POLAR>
0

>  <SCORE.INTRA.POLAR.0>
0

>  <SCORE.INTRA.REPUL>
0.082185

>  <SCORE.INTRA.REPUL.0>
0

>  <SCORE.INTRA.SOLV>
6.70918

>  <SCORE.INTRA.SOLV.lig_0>
-114.358

>  <SCORE.INTRA.VDW>
6.67384

>  <SCORE.INTRA.VDW.0>
-8.24257

>  <SCORE.INTRA.norm>
0.197138

>  <SCORE.RESTR>
7.00872

>  <SCORE.RESTR.CAVITY>
7.00872

>  <SCORE.RESTR.norm>
0.134783

>  <SCORE.SYSTEM>
0

>  <SCORE.SYSTEM.CONST>
0

>  <SCORE.SYSTEM.DIHEDRAL>
0

>  <SCORE.SYSTEM.SOLV>
0

>  <SCORE.SYSTEM.norm>
0

>  <SCORE.heavy>
52

>  <SCORE.norm>
0.0199984

>  <RMSD>
22.737

$$$$
2esj_lig
 OpenBabel11021811423D
libRbt.so/2013.1/901 2013/11/27
 52 56  0  0  0  0  0  0  0  0999 V2000
    5.2876    9.1682   18.0419 C   0  0  2  0  0  0  0  0  0  0  0  0
    5.3381    7.8328   18.5795 O   0  0  0  0  0  0  0  0  0  0  0  0
    2.8837    4.3348   18.7450 C   0  0  2  0  0  0  0  0  0  0  0  0
    1.7973    3.3700   18.9826 N   0  0  0  0  0  0  0  0  0  0  0  0
    4.0688    8.1065   15.6884 C   0  0  1  0  0  0  0  0  0  0  0  0
    6.3414    9.5322   12.5399 C   0  0  1  0  0  0  0  0  0  0  0  0
    6.6821   13.9536   14.2320 C   0  0  1  0  0  0  0  0  0  0  0  0
    6.7291    9.5462   17.5899 C   0  0  2  0  0  0  0  0  0  0  0  0
    7.2757    8.5905   16.6271 N   0  0  0  0  0  0  0  0  0  0  0  0
    3.3497    4.9835   20.1086 C   0  0  0  0  0  0  0  0  0  0  0  0
    3.9901    7.3354   14.3701 C   0  0  2  0  0  0  0  0  0  0  0  0
    4.8550    6.1791   14.3561 O   0  0  0  0  0  0  0  0  0  0  0  0
    7.7607    9.8916   13.1705 C   0  0  2  0  0  0  0  0  0  0  0  0
    7.6315   10.2515   14.6074 N   0  0  0  0  0  0  0  0  0  0  0  0
    7.7982   14.9166   14.6200 C   0  0  1  0  0  0  0  0  0  0  0  0
    7.3166   16.2706   14.5051 O   0  0  0  0  0  0  0  0  0  0  0  0
    7.6851    9.6660   18.8190 C   0  0  0  0  0  0  0  0  0  0  0  0
    4.5555    5.9716   19.8409 C   0  0  2  0  0  0  0  0  0  0  0  0
    4.9987    6.5983   21.0906 N   0  0  0  0  0  0  0  0  0  0  0  0
    4.3833    8.4113   13.3996 C   0  0  2  0  0  0  0  0  0  0  0  0
    5.7722    8.6215   13.4340 O   0  0  0  0  0  0  0  0  0  0  0  0
    8.4662   10.9926   12.2620 C   0  0  1  0  0  0  0  0  0  0  0  0
    8.4631   10.5424   10.9033 O   0  0  0  0  0  0  0  0  0  0  0  0
    8.3565   14.7336   16.0261 C   0  0  1  0  0  0  0  0  0  0  0  0
    9.2073   15.8539   16.2930 O   0  0  0  0  0  0  0  0  0  0  0  0
    7.0703   10.6702   19.8385 C   0  0  2  0  0  0  0  0  0  0  0  0
    7.9259   10.8859   20.9466 O   0  0  0  0  0  0  0  0  0  0  0  0
    4.1485    7.0545   18.8082 C   0  0  2  0  0  0  0  0  0  0  0  0
    3.7933    9.7220   13.9596 C   0  0  2  0  0  0  0  0  0  0  0  0
    3.8045    9.4768   15.3570 O   0  0  0  0  0  0  0  0  0  0  0  0
    7.6553   12.3534   12.2678 C   0  0  2  0  0  0  0  0  0  0  0  0
    7.7082   12.7888   13.6272 O   0  0  0  0  0  0  0  0  0  0  0  0
    7.2806   14.6445   17.1099 C   0  0  2  0  0  0  0  0  0  0  0  0
    7.9273   14.1671   18.3009 O   0  0  0  0  0  0  0  0  0  0  0  0
    5.6879   10.1303   20.2819 C   0  0  2  0  0  0  0  0  0  0  0  0
    4.8493   10.0605   19.0933 O   0  0  0  0  0  0  0  0  0  0  0  0
    3.5645    6.4815   17.4772 C   0  0  2  0  0  0  0  0  0  0  0  0
    3.1480    7.5784   16.6170 O   0  0  0  0  0  0  0  0  0  0  0  0
    2.3725   10.0722   13.5188 C   0  0  0  0  0  0  0  0  0  0  0  0
    2.3678   10.1352   12.0850 O   0  0  0  0  0  0  0  0  0  0  0  0
    6.2093   11.9701   12.0182 C   0  0  1  0  0  0  0  0  0  0  0  0
    5.4872   10.7783   12.3961 O   0  0  0  0  0  0  0  0  0  0  0  0
    6.0979   13.7966   16.6555 C   0  0  2  0  0  0  0  0  0  0  0  0
    5.7004   13.7478   15.2766 O   0  0  0  0  0  0  0  0  0  0  0  0
    4.9812   11.0400   21.2281 C   0  0  0  0  0  0  0  0  0  0  0  0
    5.7523   11.1079   22.4033 O   0  0  0  0  0  0  0  0  0  0  0  0
    2.4066    5.4680   17.7674 C   0  0  1  0  0  0  0  0  0  0  0  0
    2.0564    4.8425   16.5043 O   0  0  0  0  0  0  0  0  0  0  0  0
    5.1956   13.1463   11.8704 C   0  0  0  0  0  0  0  0  0  0  0  0
    3.8018   12.6974   11.6689 N   0  0  0  0  0  0  0  0  0  0  0  0
    4.8711   13.5422   17.5284 C   0  0  0  0  0  0  0  0  0  0  0  0
    5.2776   12.9741   18.8014 O   0  0  0  0  0  0  0  0  0  0  0  0
  1  2  1  1  0  0  0
  1  8  1  0  0  0  0
  1 36  1  0  0  0  0
  3  4  1  1  0  0  0
  3 10  1  0  0  0  0
  3 47  1  0  0  0  0
  5 11  1  0  0  0  0
  5 30  1  0  0  0  0
  5 38  1  1  0  0  0
  6 21  1  1  0  0  0
  6 42  1  0  0  0  0
  7 15  1  0  0  0  0
  7 44  1  0  0  0  0
  7 32  1  1  0  0  0
  8  9  1  6  0  0  0
  8 17  1  0  0  0  0
 11 12  1  1  0  0  0
 11 20  1  0  0  0  0
 13  6  1  0  0  0  0
 13 14  1  1  0  0  0
 15 16  1  1  0  0  0
 15 24  1  0  0  0  0
 17 26  1  0  0  0  0
 18 10  1  0  0  0  0
 18 19  1  1  0  0  0
 20 21  1  1  0  0  0
 20 29  1  0  0  0  0
 22 13  1  0  0  0  0
 22 23  1  6  0  0  0
 24 25  1  1  0  0  0
 24 33  1  0  0  0  0
 26 27  1  1  0  0  0
 26 35  1  0  0  0  0
 28  2  1  6  0  0  0
 28 18  1  0  0  0  0
 29 30  1  0  0  0  0
 29 39  1  6  0  0  0
 31 22  1  0  0  0  0
 31 32  1  1  0  0  0
 31 41  1  0  0  0  0
 33 34  1  1  0  0  0
 33 43  1  0  0  0  0
 35 36  1  0  0  0  0
 35 45  1  1  0  0  0
 37 28  1  0  0  0  0
 37 38  1  6  0  0  0
 39 40  1  0  0  0  0
 41 42  1  0  0  0  0
 41 49  1  1  0  0  0
 43 44  1  0  0  0  0
 43 51  1  1  0  0  0
 45 46  1  0  0  0  0
 47 37  1  0  0  0  0
 47 48  1  6  0  0  0
 49 50  1  0  0  0  0
 51 52  1  0  0  0  0
M  END
>  <CHROM.1>
-165.51760422,88.39636876,160.93970634,-119.73268669,176.22155053,-159.25624722
-57.52626099,-163.65221071,-64.02842615,91.21502465,-178.31006693,-55.41653273
5.54455101,10.17031155,16.19928557,-2.47434958,-1.08519417,-1.41935320

>  <Name>
2esj_lig

>  <RI>
224

>  <Rbt.Current_Directory>
/home/itssahil/PROJECTS/Mol_Feturizer/New_Systems/rnas/2esj

>  <Rbt.Executable>
rbdock ($Id: //depot/dev/client3/rdock/2013.1/src/exe/rbdock.cxx#4 $)

>  <Rbt.Library>
libRbt.so (2013.1, Build901 2013/11/27)

>  <Rbt.Parameter_File>
/export/apps/rDock/src/rDock_2013.1_src/data/scripts/dock_solv.prm

>  <Rbt.Receptor>
prm/blind_docking_100.prm

>  <SCORE>
1.33449

>  <SCORE.INTER>
-8.57506

>  <SCORE.INTER.CONST>
1

>  <SCORE.INTER.POLAR>
0

>  <SCORE.INTER.ROT>
12

>  <SCORE.INTER.SOLV>
18.17

>  <SCORE.INTER.VDW>
-23.3734

>  <SCORE.INTER.norm>
-0.164905

>  <SCORE.INTRA>
2.80094

>  <SCORE.INTRA.DIHEDRAL>
-7.84916

>  <SCORE.INTRA.DIHEDRAL.0>
32.9766

>  <SCORE.INTRA.POLAR>
0

>  <SCORE.INTRA.POLAR.0>
0

>  <SCORE.INTRA.REPUL>
0

>  <SCORE.INTRA.REPUL.0>
0

>  <SCORE.INTRA.SOLV>
7.88047

>  <SCORE.INTRA.SOLV.lig_0>
-114.358

>  <SCORE.INTRA.VDW>
2.78528

>  <SCORE.INTRA.VDW.0>
-8.24257

>  <SCORE.INTRA.norm>
0.0538641

>  <SCORE.RESTR>
7.10862

>  <SCORE.RESTR.CAVITY>
7.10862

>  <SCORE.RESTR.norm>
0.136704

>  <SCORE.SYSTEM>
0

>  <SCORE.SYSTEM.CONST>
0

>  <SCORE.SYSTEM.DIHEDRAL>
0

>  <SCORE.SYSTEM.SOLV>
0

>  <SCORE.SYSTEM.norm>
0

>  <SCORE.heavy>
52

>  <SCORE.norm>
0.0256633

>  <RMSD>
22.748

$$$$
2esj_lig
 OpenBabel11021811423D
libRbt.so/2013.1/901 2013/11/27
 52 56  0  0  0  0  0  0  0  0999 V2000
    6.0381    5.4344   15.4357 C   0  0  2  0  0  0  0  0  0  0  0  0
    5.2596    6.4142   16.1491 O   0  0  0  0  0  0  0  0  0  0  0  0
    1.2236    6.2289   17.5506 C   0  0  2  0  0  0  0  0  0  0  0  0
   -0.0178    5.9011   18.2709 N   0  0  0  0  0  0  0  0  0  0  0  0
    5.1094    9.1251   18.3415 C   0  0  1  0  0  0  0  0  0  0  0  0
    7.1217   12.6697   17.7514 C   0  0  1  0  0  0  0  0  0  0  0  0
    6.3210   13.5408   12.7973 C   0  0  1  0  0  0  0  0  0  0  0  0
    7.5272    5.6284   15.8479 C   0  0  2  0  0  0  0  0  0  0  0  0
    7.7184    5.5296   17.2946 N   0  0  0  0  0  0  0  0  0  0  0  0
    1.8554    4.9234   16.9230 C   0  0  0  0  0  0  0  0  0  0  0  0
    5.9047    9.6604   19.5329 C   0  0  2  0  0  0  0  0  0  0  0  0
    5.0740   10.3760   20.4726 O   0  0  0  0  0  0  0  0  0  0  0  0
    6.1110   13.8271   17.3270 C   0  0  2  0  0  0  0  0  0  0  0  0
    4.9135   13.2678   16.6456 N   0  0  0  0  0  0  0  0  0  0  0  0
    4.8296   13.7546   12.5660 C   0  0  1  0  0  0  0  0  0  0  0  0
    4.6160   14.1638   11.2002 O   0  0  0  0  0  0  0  0  0  0  0  0
    8.0739    6.9979   15.3333 C   0  0  0  0  0  0  0  0  0  0  0  0
    3.1542    5.3035   16.1045 C   0  0  2  0  0  0  0  0  0  0  0  0
    3.7685    4.1059   15.5221 N   0  0  0  0  0  0  0  0  0  0  0  0
    6.9143   10.5173   18.8256 C   0  0  2  0  0  0  0  0  0  0  0  0
    6.3290   11.7246   18.4080 O   0  0  0  0  0  0  0  0  0  0  0  0
    6.9055   14.9280   16.4952 C   0  0  1  0  0  0  0  0  0  0  0  0
    8.0608   15.3263   17.2404 O   0  0  0  0  0  0  0  0  0  0  0  0
    3.9482   12.5413   12.8369 C   0  0  1  0  0  0  0  0  0  0  0  0
    2.6392   12.8508   12.3461 O   0  0  0  0  0  0  0  0  0  0  0  0
    7.8379    7.0883   13.7965 C   0  0  2  0  0  0  0  0  0  0  0  0
    8.3811    8.2765   13.2493 O   0  0  0  0  0  0  0  0  0  0  0  0
    4.1695    6.0436   17.0136 C   0  0  2  0  0  0  0  0  0  0  0  0
    7.2409    9.7852   17.5076 C   0  0  2  0  0  0  0  0  0  0  0  0
    6.0228    9.1105   17.2357 O   0  0  0  0  0  0  0  0  0  0  0  0
    7.4539   14.3381   15.1312 C   0  0  2  0  0  0  0  0  0  0  0  0
    6.2774   13.9841   14.4026 O   0  0  0  0  0  0  0  0  0  0  0  0
    4.4474   11.2563   12.1740 C   0  0  2  0  0  0  0  0  0  0  0  0
    3.7146   10.1707   12.7649 O   0  0  0  0  0  0  0  0  0  0  0  0
    6.3159    6.9813   13.5296 C   0  0  2  0  0  0  0  0  0  0  0  0
    5.8814    5.6801   14.0183 O   0  0  0  0  0  0  0  0  0  0  0  0
    3.5753    7.2798   17.7617 C   0  0  2  0  0  0  0  0  0  0  0  0
    4.5864    7.8495   18.6389 O   0  0  0  0  0  0  0  0  0  0  0  0
    8.3817    8.7694   17.5575 C   0  0  0  0  0  0  0  0  0  0  0  0
    9.3663    9.2696   18.4739 O   0  0  0  0  0  0  0  0  0  0  0  0
    8.1211   13.0246   15.4913 C   0  0  1  0  0  0  0  0  0  0  0  0
    7.7998   12.0755   16.5308 O   0  0  0  0  0  0  0  0  0  0  0  0
    5.9623   11.1230   12.2826 C   0  0  2  0  0  0  0  0  0  0  0  0
    6.8148   12.2784   12.2876 O   0  0  0  0  0  0  0  0  0  0  0  0
    5.9735    7.0085   12.0790 C   0  0  0  0  0  0  0  0  0  0  0  0
    6.7574    6.0287   11.4421 O   0  0  0  0  0  0  0  0  0  0  0  0
    2.2631    6.8925   18.5235 C   0  0  1  0  0  0  0  0  0  0  0  0
    1.6767    8.1239   19.0226 O   0  0  0  0  0  0  0  0  0  0  0  0
    8.8460   12.2740   14.3320 C   0  0  0  0  0  0  0  0  0  0  0  0
    8.3682   10.8884   14.1412 N   0  0  0  0  0  0  0  0  0  0  0  0
    6.7386    9.9437   11.7009 C   0  0  0  0  0  0  0  0  0  0  0  0
    6.7480   10.0232   10.2510 O   0  0  0  0  0  0  0  0  0  0  0  0
  1  2  1  1  0  0  0
  1  8  1  0  0  0  0
  1 36  1  0  0  0  0
  3  4  1  1  0  0  0
  3 10  1  0  0  0  0
  3 47  1  0  0  0  0
  5 11  1  0  0  0  0
  5 30  1  0  0  0  0
  5 38  1  1  0  0  0
  6 21  1  6  0  0  0
  6 42  1  0  0  0  0
  7 15  1  0  0  0  0
  7 44  1  0  0  0  0
  7 32  1  1  0  0  0
  8  9  1  1  0  0  0
  8 17  1  0  0  0  0
 11 12  1  1  0  0  0
 11 20  1  0  0  0  0
 13  6  1  0  0  0  0
 13 14  1  6  0  0  0
 15 16  1  6  0  0  0
 15 24  1  0  0  0  0
 17 26  1  0  0  0  0
 18 10  1  0  0  0  0
 18 19  1  1  0  0  0
 20 21  1  6  0  0  0
 20 29  1  0  0  0  0
 22 13  1  0  0  0  0
 22 23  1  1  0  0  0
 24 25  1  6  0  0  0
 24 33  1  0  0  0  0
 26 27  1  1  0  0  0
 26 35  1  0  0  0  0
 28  2  1  6  0  0  0
 28 18  1  0  0  0  0
 29 30  1  0  0  0  0
 29 39  1  1  0  0  0
 31 22  1  0  0  0  0
 31 32  1  6  0  0  0
 31 41  1  0  0  0  0
 33 34  1  1  0  0  0
 33 43  1  0  0  0  0
 35 36  1  0  0  0  0
 35 45  1  6  0  0  0
 37 28  1  0  0  0  0
 37 38  1  1  0  0  0
 39 40  1  0  0  0  0
 41 42  1  0  0  0  0
 41 49  1  6  0  0  0
 43 44  1  0  0  0  0
 43 51  1  6  0  0  0
 45 46  1  0  0  0  0
 47 37  1  0  0  0  0
 47 48  1  6  0  0  0
 49 50  1  0  0  0  0
 51 52  1  0  0  0  0
M  END
>  <CHROM.1>
-122.76867432,167.36392508,175.33398461,-162.83499021,178.73221667,-60.44183502
-34.91646823,170.01353029,52.11884622,112.21236546,-124.23663744,71.05695065
5.76416836,9.64185723,15.52427903,3.12225907,1.26053957,1.20806039

>  <Name>
2esj_lig

>  <RI>
0

>  <Rbt.Current_Directory>
/home/itssahil/PROJECTS/Mol_Feturizer/New_Systems/rnas/2esj

>  <Rbt.Executable>
rbdock ($Id: //depot/dev/client3/rdock/2013.1/src/exe/rbdock.cxx#4 $)

>  <Rbt.Library>
libRbt.so (2013.1, Build901 2013/11/27)

>  <Rbt.Parameter_File>
/export/apps/rDock/src/rDock_2013.1_src/data/scripts/dock_solv.prm

>  <Rbt.Receptor>
prm/blind_docking_80.prm

>  <SCORE>
8.26496

>  <SCORE.INTER>
-9.84517

>  <SCORE.INTER.CONST>
1

>  <SCORE.INTER.POLAR>
-0.805888

>  <SCORE.INTER.ROT>
12

>  <SCORE.INTER.SOLV>
18.0159

>  <SCORE.INTER.VDW>
-21.4825

>  <SCORE.INTER.norm>
-0.18933

>  <SCORE.INTRA>
10.2149

>  <SCORE.INTRA.DIHEDRAL>
-8.75274

>  <SCORE.INTRA.DIHEDRAL.0>
32.9766

>  <SCORE.INTRA.POLAR>
0

>  <SCORE.INTRA.POLAR.0>
0

>  <SCORE.INTRA.REPUL>
1.0444

>  <SCORE.INTRA.REPUL.0>
0

>  <SCORE.INTRA.SOLV>
8.03437

>  <SCORE.INTRA.SOLV.lig_0>
-114.358

>  <SCORE.INTRA.VDW>
5.35209

>  <SCORE.INTRA.VDW.0>
-8.24257

>  <SCORE.INTRA.norm>
0.196441

>  <SCORE.RESTR>
7.89523

>  <SCORE.RESTR.CAVITY>
7.89523

>  <SCORE.RESTR.norm>
0.151831

>  <SCORE.SYSTEM>
0

>  <SCORE.SYSTEM.CONST>
0

>  <SCORE.SYSTEM.DIHEDRAL>
0

>  <SCORE.SYSTEM.SOLV>
0

>  <SCORE.SYSTEM.norm>
0

>  <SCORE.heavy>
52

>  <SCORE.norm>
0.158942

>  <RMSD>
22.752

$$$$
2esj_lig
 OpenBabel11021811423D
libRbt.so/2013.1/901 2013/11/27
 52 56  0  0  0  0  0  0  0  0999 V2000
    4.3819    6.6645   17.0165 C   0  0  2  0  0  0  0  0  0  0  0  0
    4.3347    6.4858   15.5880 O   0  0  0  0  0  0  0  0  0  0  0  0
    7.4399    6.5566   12.6485 C   0  0  2  0  0  0  0  0  0  0  0  0
    8.4420    6.9599   11.6482 N   0  0  0  0  0  0  0  0  0  0  0  0
    7.2215    8.6327   16.5867 C   0  0  1  0  0  0  0  0  0  0  0  0
    6.7538   11.8945   15.2248 C   0  0  1  0  0  0  0  0  0  0  0  0
    6.3421   15.9976   15.3599 C   0  0  1  0  0  0  0  0  0  0  0  0
    4.8837    5.3285   17.6397 C   0  0  2  0  0  0  0  0  0  0  0  0
    6.1785    4.9172   17.0979 N   0  0  0  0  0  0  0  0  0  0  0  0
    6.0077    7.0793   12.2325 C   0  0  0  0  0  0  0  0  0  0  0  0
    5.9173    9.3553   16.2473 C   0  0  2  0  0  0  0  0  0  0  0  0
    5.7983    9.6434   14.8372 O   0  0  0  0  0  0  0  0  0  0  0  0
    8.0963   12.6602   14.8340 C   0  0  2  0  0  0  0  0  0  0  0  0
    8.4575   13.6669   15.8669 N   0  0  0  0  0  0  0  0  0  0  0  0
    7.4317   16.9242   15.8869 C   0  0  1  0  0  0  0  0  0  0  0  0
    6.8196   18.0956   16.4627 O   0  0  0  0  0  0  0  0  0  0  0  0
    3.8361    4.1889   17.4324 C   0  0  0  0  0  0  0  0  0  0  0  0
    4.9366    6.5864   13.2867 C   0  0  2  0  0  0  0  0  0  0  0  0
    3.5987    7.0702   12.9307 N   0  0  0  0  0  0  0  0  0  0  0  0
    6.0444   10.5728   17.1166 C   0  0  2  0  0  0  0  0  0  0  0  0
    6.9438   11.4911   16.5491 O   0  0  0  0  0  0  0  0  0  0  0  0
    7.9522   13.2347   13.3560 C   0  0  1  0  0  0  0  0  0  0  0  0
    7.5412   12.1752   12.4858 O   0  0  0  0  0  0  0  0  0  0  0  0
    8.3556   16.3134   16.9337 C   0  0  1  0  0  0  0  0  0  0  0  0
    9.1446   17.3785   17.4752 O   0  0  0  0  0  0  0  0  0  0  0  0
    2.4625    4.6596   17.9956 C   0  0  2  0  0  0  0  0  0  0  0  0
    1.4813    3.6418   17.9097 O   0  0  0  0  0  0  0  0  0  0  0  0
    5.3214    7.0620   14.7118 C   0  0  2  0  0  0  0  0  0  0  0  0
    6.7538   10.1015   18.4028 C   0  0  2  0  0  0  0  0  0  0  0  0
    7.5549    9.0333   17.9230 O   0  0  0  0  0  0  0  0  0  0  0  0
    6.8119   14.3308   13.2701 C   0  0  2  0  0  0  0  0  0  0  0  0
    7.2703   15.3830   14.1205 O   0  0  0  0  0  0  0  0  0  0  0  0
    7.6165   15.6024   18.0687 C   0  0  2  0  0  0  0  0  0  0  0  0
    8.5944   14.8281   18.7821 O   0  0  0  0  0  0  0  0  0  0  0  0
    2.0313    5.9338   17.2277 C   0  0  2  0  0  0  0  0  0  0  0  0
    3.0412    6.9527   17.4786 O   0  0  0  0  0  0  0  0  0  0  0  0
    6.7741    6.6810   15.1426 C   0  0  2  0  0  0  0  0  0  0  0  0
    7.0534    7.2384   16.4570 O   0  0  0  0  0  0  0  0  0  0  0  0
    5.8546    9.5930   19.5292 C   0  0  0  0  0  0  0  0  0  0  0  0
    5.1537    8.4417   19.0365 O   0  0  0  0  0  0  0  0  0  0  0  0
    5.6115   13.7299   13.9758 C   0  0  1  0  0  0  0  0  0  0  0  0
    5.5536   12.8134   15.0900 O   0  0  0  0  0  0  0  0  0  0  0  0
    6.4352   14.7927   17.5459 C   0  0  2  0  0  0  0  0  0  0  0  0
    5.6934   15.2149   16.3912 O   0  0  0  0  0  0  0  0  0  0  0  0
    0.7443    6.5043   17.7180 C   0  0  0  0  0  0  0  0  0  0  0  0
    0.6121    7.7889   17.1591 O   0  0  0  0  0  0  0  0  0  0  0  0
    7.8127    7.1331   14.0613 C   0  0  1  0  0  0  0  0  0  0  0  0
    9.0985    6.5745   14.4406 O   0  0  0  0  0  0  0  0  0  0  0  0
    4.2977   14.5700   13.9473 C   0  0  0  0  0  0  0  0  0  0  0  0
    3.6005   14.5244   12.6448 N   0  0  0  0  0  0  0  0  0  0  0  0
    5.5099   13.9870   18.4551 C   0  0  0  0  0  0  0  0  0  0  0  0
    6.2570   12.9271   19.1087 O   0  0  0  0  0  0  0  0  0  0  0  0
  1  2  1  6  0  0  0
  1  8  1  0  0  0  0
  1 36  1  0  0  0  0
  3  4  1  6  0  0  0
  3 10  1  0  0  0  0
  3 47  1  0  0  0  0
  5 11  1  0  0  0  0
  5 30  1  0  0  0  0
  5 38  1  1  0  0  0
  6 21  1  1  0  0  0
  6 42  1  0  0  0  0
  7 15  1  0  0  0  0
  7 44  1  0  0  0  0
  7 32  1  6  0  0  0
  8  9  1  6  0  0  0
  8 17  1  0  0  0  0
 11 12  1  6  0  0  0
 11 20  1  0  0  0  0
 13  6  1  0  0  0  0
 13 14  1  1  0  0  0
 15 16  1  1  0  0  0
 15 24  1  0  0  0  0
 17 26  1  0  0  0  0
 18 10  1  0  0  0  0
 18 19  1  6  0  0  0
 20 21  1  6  0  0  0
 20 29  1  0  0  0  0
 22 13  1  0  0  0  0
 22 23  1  6  0  0  0
 24 25  1  1  0  0  0
 24 33  1  0  0  0  0
 26 27  1  6  0  0  0
 26 35  1  0  0  0  0
 28  2  1  1  0  0  0
 28 18  1  0  0  0  0
 29 30  1  0  0  0  0
 29 39  1  1  0  0  0
 31 22  1  0  0  0  0
 31 32  1  1  0  0  0
 31 41  1  0  0  0  0
 33 34  1  6  0  0  0
 33 43  1  0  0  0  0
 35 36  1  0  0  0  0
 35 45  1  1  0  0  0
 37 28  1  0  0  0  0
 37 38  1  1  0  0  0
 39 40  1  0  0  0  0
 41 42  1  0  0  0  0
 41 49  1  1  0  0  0
 43 44  1  0  0  0  0
 43 51  1  1  0  0  0
 45 46  1  0  0  0  0
 47 37  1  0  0  0  0
 47 48  1  1  0  0  0
 49 50  1  0  0  0  0
 51 52  1  0  0  0  0
M  END
>  <CHROM.1>
-104.77901077,64.72235347,-168.21388615,175.17539082,52.76395735,177.81185773
62.05821555,-126.26376242,167.40972118,-71.10913181,75.84858169,-63.49766055
5.91424461,10.40501420,15.98205994,2.15570069,-1.01174412,-2.66197914

>  <Name>
2esj_lig

>  <RI>
0

>  <Rbt.Current_Directory>
/home/itssahil/PROJECTS/Mol_Feturizer/New_Systems/rnas/2esj

>  <Rbt.Executable>
rbdock ($Id: //depot/dev/client3/rdock/2013.1/src/exe/rbdock.cxx#4 $)

>  <Rbt.Library>
libRbt.so (2013.1, Build901 2013/11/27)

>  <Rbt.Parameter_File>
/export/apps/rDock/src/rDock_2013.1_src/data/scripts/dock_solv.prm

>  <Rbt.Receptor>
prm/blind_docking_80.prm

>  <SCORE>
1.75947

>  <SCORE.INTER>
-7.92531

>  <SCORE.INTER.CONST>
1

>  <SCORE.INTER.POLAR>
-0.0956054

>  <SCORE.INTER.ROT>
12

>  <SCORE.INTER.SOLV>
18.3327

>  <SCORE.INTER.VDW>
-22.6758

>  <SCORE.INTER.norm>
-0.15241

>  <SCORE.INTRA>
5.37064

>  <SCORE.INTRA.DIHEDRAL>
-13.0031

>  <SCORE.INTRA.DIHEDRAL.0>
32.9766

>  <SCORE.INTRA.POLAR>
0

>  <SCORE.INTRA.POLAR.0>
0

>  <SCORE.INTRA.REPUL>
0.0273695

>  <SCORE.INTRA.REPUL.0>
0

>  <SCORE.INTRA.SOLV>
8.01566

>  <SCORE.INTRA.SOLV.lig_0>
-114.358

>  <SCORE.INTRA.VDW>
7.72752

>  <SCORE.INTRA.VDW.0>
-8.24257

>  <SCORE.INTRA.norm>
0.103282

>  <SCORE.RESTR>
4.31415

>  <SCORE.RESTR.CAVITY>
4.31415

>  <SCORE.RESTR.norm>
0.0829643

>  <SCORE.SYSTEM>
0

>  <SCORE.SYSTEM.CONST>
0

>  <SCORE.SYSTEM.DIHEDRAL>
0

>  <SCORE.SYSTEM.SOLV>
0

>  <SCORE.SYSTEM.norm>
0

>  <SCORE.heavy>
52

>  <SCORE.norm>
0.033836

>  <RMSD>
22.783

$$$$
2esj_lig
 OpenBabel11021811423D
libRbt.so/2013.1/901 2013/11/27
 52 56  0  0  0  0  0  0  0  0999 V2000
    5.3345    8.8344   18.7800 C   0  0  2  0  0  0  0  0  0  0  0  0
    4.2565    8.6924   17.8351 O   0  0  0  0  0  0  0  0  0  0  0  0
    2.3725    4.8564   17.9900 C   0  0  2  0  0  0  0  0  0  0  0  0
    1.7919    3.5433   17.6644 N   0  0  0  0  0  0  0  0  0  0  0  0
    6.4201    7.0597   16.6969 C   0  0  1  0  0  0  0  0  0  0  0  0
    7.6712    8.7911   13.4103 C   0  0  1  0  0  0  0  0  0  0  0  0
    4.8126   12.8458   11.9323 C   0  0  1  0  0  0  0  0  0  0  0  0
    4.7799    9.6115   20.0102 C   0  0  2  0  0  0  0  0  0  0  0  0
    3.6174    8.9516   20.6035 N   0  0  0  0  0  0  0  0  0  0  0  0
    1.6876    5.9889   17.1264 C   0  0  0  0  0  0  0  0  0  0  0  0
    7.9484    7.0973   16.6585 C   0  0  2  0  0  0  0  0  0  0  0  0
    8.4925    8.1786   17.4459 O   0  0  0  0  0  0  0  0  0  0  0  0
    7.7836   10.3730   13.2489 C   0  0  2  0  0  0  0  0  0  0  0  0
    6.9874   11.0746   14.2905 N   0  0  0  0  0  0  0  0  0  0  0  0
    6.0868   13.3945   12.5639 C   0  0  1  0  0  0  0  0  0  0  0  0
    6.4921   14.5834   11.8563 O   0  0  0  0  0  0  0  0  0  0  0  0
    4.4159   11.0803   19.6237 C   0  0  0  0  0  0  0  0  0  0  0  0
    2.2818    7.3975   17.5320 C   0  0  2  0  0  0  0  0  0  0  0  0
    1.6716    8.4662   16.7344 N   0  0  0  0  0  0  0  0  0  0  0  0
    8.1821    7.2319   15.1816 C   0  0  2  0  0  0  0  0  0  0  0  0
    7.9318    8.5493   14.7617 O   0  0  0  0  0  0  0  0  0  0  0  0
    7.4239   10.7665   11.7486 C   0  0  1  0  0  0  0  0  0  0  0  0
    8.2166    9.9728   10.8595 O   0  0  0  0  0  0  0  0  0  0  0  0
    5.9828   13.7405   14.0444 C   0  0  1  0  0  0  0  0  0  0  0  0
    7.1751   14.4501   14.3981 O   0  0  0  0  0  0  0  0  0  0  0  0
    5.6612   11.7529   18.9738 C   0  0  2  0  0  0  0  0  0  0  0  0
    5.4243   13.1154   18.6680 O   0  0  0  0  0  0  0  0  0  0  0  0
    3.8227    7.4054   17.3570 C   0  0  2  0  0  0  0  0  0  0  0  0
    7.0714    6.4057   14.5008 C   0  0  2  0  0  0  0  0  0  0  0  0
    6.0101    6.5114   15.4365 O   0  0  0  0  0  0  0  0  0  0  0  0
    5.9160   10.4227   11.4061 C   0  0  2  0  0  0  0  0  0  0  0  0
    5.1571   11.2545   12.2850 O   0  0  0  0  0  0  0  0  0  0  0  0
    4.7624   14.5942   14.3938 C   0  0  2  0  0  0  0  0  0  0  0  0
    4.6322   14.5693   15.8245 O   0  0  0  0  0  0  0  0  0  0  0  0
    6.0493   10.9440   17.7112 C   0  0  2  0  0  0  0  0  0  0  0  0
    6.3895    9.5970   18.1480 O   0  0  0  0  0  0  0  0  0  0  0  0
    4.5555    6.2363   18.0897 C   0  0  2  0  0  0  0  0  0  0  0  0
    5.9795    6.2960   17.7977 O   0  0  0  0  0  0  0  0  0  0  0  0
    7.3781    4.9299   14.2484 C   0  0  0  0  0  0  0  0  0  0  0  0
    8.7392    4.6981   14.6400 O   0  0  0  0  0  0  0  0  0  0  0  0
    5.6972    9.0044   11.8967 C   0  0  1  0  0  0  0  0  0  0  0  0
    6.2875    8.3086   13.0157 O   0  0  0  0  0  0  0  0  0  0  0  0
    3.5202   14.1280   13.6427 C   0  0  2  0  0  0  0  0  0  0  0  0
    3.6133   13.5536   12.3300 O   0  0  0  0  0  0  0  0  0  0  0  0
    7.2653   11.4722   17.0295 C   0  0  0  0  0  0  0  0  0  0  0  0
    6.9677   12.7735   16.5844 O   0  0  0  0  0  0  0  0  0  0  0  0
    3.9187    4.8562   17.7129 C   0  0  1  0  0  0  0  0  0  0  0  0
    4.5214    3.8551   18.5754 O   0  0  0  0  0  0  0  0  0  0  0  0
    4.3058    8.3706   11.5881 C   0  0  0  0  0  0  0  0  0  0  0  0
    4.3482    7.3584   10.5118 N   0  0  0  0  0  0  0  0  0  0  0  0
    2.1575   14.8015   13.7874 C   0  0  0  0  0  0  0  0  0  0  0  0
    1.9730   15.7793   12.7297 O   0  0  0  0  0  0  0  0  0  0  0  0
  1  2  1  6  0  0  0
  1  8  1  0  0  0  0
  1 36  1  0  0  0  0
  3  4  1  6  0  0  0
  3 10  1  0  0  0  0
  3 47  1  0  0  0  0
  5 11  1  0  0  0  0
  5 30  1  0  0  0  0
  5 38  1  1  0  0  0
  6 21  1  1  0  0  0
  6 42  1  0  0  0  0
  7 15  1  0  0  0  0
  7 44  1  0  0  0  0
  7 32  1  1  0  0  0
  8  9  1  6  0  0  0
  8 17  1  0  0  0  0
 11 12  1  1  0  0  0
 11 20  1  0  0  0  0
 13  6  1  0  0  0  0
 13 14  1  1  0  0  0
 15 16  1  6  0  0  0
 15 24  1  0  0  0  0
 17 26  1  0  0  0  0
 18 10  1  0  0  0  0
 18 19  1  6  0  0  0
 20 21  1  6  0  0  0
 20 29  1  0  0  0  0
 22 13  1  0  0  0  0
 22 23  1  6  0  0  0
 24 25  1  6  0  0  0
 24 33  1  0  0  0  0
 26 27  1  6  0  0  0
 26 35  1  0  0  0  0
 28  2  1  1  0  0  0
 28 18  1  0  0  0  0
 29 30  1  0  0  0  0
 29 39  1  1  0  0  0
 31 22  1  0  0  0  0
 31 32  1  1  0  0  0
 31 41  1  0  0  0  0
 33 34  1  1  0  0  0
 33 43  1  0  0  0  0
 35 36  1  0  0  0  0
 35 45  1  1  0  0  0
 37 28  1  0  0  0  0
 37 38  1  6  0  0  0
 39 40  1  0  0  0  0
 41 42  1  0  0  0  0
 41 49  1  1  0  0  0
 43 44  1  0  0  0  0
 43 51  1  6  0  0  0
 45 46  1  0  0  0  0
 47 37  1  0  0  0  0
 47 48  1  1  0  0  0
 49 50  1  0  0  0  0
 51 52  1  0  0  0  0
M  END
>  <CHROM.1>
-123.10416257,174.34604245,-166.97903804,-88.35236459,-159.62738551,130.32991399
-4.54631828,83.21455469,-63.20862943,-17.37559498,105.82566541,95.10916205
5.44598849,9.62338459,15.40797991,1.68516570,-1.13568743,2.72219169

>  <Name>
2esj_lig

>  <RI>
0

>  <Rbt.Current_Directory>
/home/itssahil/PROJECTS/Mol_Feturizer/New_Systems/rnas/2esj

>  <Rbt.Executable>
rbdock ($Id: //depot/dev/client3/rdock/2013.1/src/exe/rbdock.cxx#4 $)

>  <Rbt.Library>
libRbt.so (2013.1, Build901 2013/11/27)

>  <Rbt.Parameter_File>
/export/apps/rDock/src/rDock_2013.1_src/data/scripts/dock_solv.prm

>  <Rbt.Receptor>
prm/blind_docking_80.prm

>  <SCORE>
14.138

>  <SCORE.INTER>
-6.96147

>  <SCORE.INTER.CONST>
1

>  <SCORE.INTER.POLAR>
-1.95106

>  <SCORE.INTER.ROT>
12

>  <SCORE.INTER.SOLV>
24.5622

>  <SCORE.INTER.VDW>
-17.9248

>  <SCORE.INTER.norm>
-0.133874

>  <SCORE.INTRA>
14.8791

>  <SCORE.INTRA.DIHEDRAL>
6.00611

>  <SCORE.INTRA.DIHEDRAL.0>
32.9766

>  <SCORE.INTRA.POLAR>
0

>  <SCORE.INTRA.POLAR.0>
0

>  <SCORE.INTRA.REPUL>
0.41062

>  <SCORE.INTRA.REPUL.0>
0

>  <SCORE.INTRA.SOLV>
3.40072

>  <SCORE.INTRA.SOLV.lig_0>
-114.358

>  <SCORE.INTRA.VDW>
8.12256

>  <SCORE.INTRA.VDW.0>
-8.24257

>  <SCORE.INTRA.norm>
0.286136

>  <SCORE.RESTR>
6.22035

>  <SCORE.RESTR.CAVITY>
6.22035

>  <SCORE.RESTR.norm>
0.119622

>  <SCORE.SYSTEM>
0

>  <SCORE.SYSTEM.CONST>
0

>  <SCORE.SYSTEM.DIHEDRAL>
0

>  <SCORE.SYSTEM.SOLV>
0

>  <SCORE.SYSTEM.norm>
0

>  <SCORE.heavy>
52

>  <SCORE.norm>
0.271884

>  <RMSD>
22.785

$$$$
2esj_lig
 OpenBabel11021811423D
libRbt.so/2013.1/901 2013/11/27
 52 56  0  0  0  0  0  0  0  0999 V2000
    4.8440    5.2213   18.8829 C   0  0  2  0  0  0  0  0  0  0  0  0
    4.5529    6.5812   18.5078 O   0  0  0  0  0  0  0  0  0  0  0  0
    3.9800   10.4782   20.1731 C   0  0  2  0  0  0  0  0  0  0  0  0
    4.0061   11.6778   21.0261 N   0  0  0  0  0  0  0  0  0  0  0  0
    7.2659    9.2888   17.1119 C   0  0  1  0  0  0  0  0  0  0  0  0
    8.8625   10.9337   13.7679 C   0  0  1  0  0  0  0  0  0  0  0  0
    4.6434   13.6954   12.1270 C   0  0  1  0  0  0  0  0  0  0  0  0
    5.2633    4.4585   17.5917 C   0  0  2  0  0  0  0  0  0  0  0  0
    6.3953    5.0930   16.9170 N   0  0  0  0  0  0  0  0  0  0  0  0
    3.4558    9.2329   20.9928 C   0  0  0  0  0  0  0  0  0  0  0  0
    8.6131    8.6930   16.7014 C   0  0  2  0  0  0  0  0  0  0  0  0
    9.7134    9.2505   17.4523 O   0  0  0  0  0  0  0  0  0  0  0  0
    8.6623   12.4988   13.9948 C   0  0  2  0  0  0  0  0  0  0  0  0
    7.5723   12.7622   14.9713 N   0  0  0  0  0  0  0  0  0  0  0  0
    3.8083   12.8258   13.0596 C   0  0  1  0  0  0  0  0  0  0  0  0
    2.5706   13.5028   13.3567 O   0  0  0  0  0  0  0  0  0  0  0  0
    4.0604    4.3322   16.6037 C   0  0  0  0  0  0  0  0  0  0  0  0
    3.3787    7.9688   20.0453 C   0  0  2  0  0  0  0  0  0  0  0  0
    2.9071    6.7942   20.7861 N   0  0  0  0  0  0  0  0  0  0  0  0
    8.6292    9.0337   15.2393 C   0  0  2  0  0  0  0  0  0  0  0  0
    8.9381   10.3918   15.0537 O   0  0  0  0  0  0  0  0  0  0  0  0
    8.4841   13.2077   12.5804 C   0  0  1  0  0  0  0  0  0  0  0  0
    9.5646   12.8161   11.7272 O   0  0  0  0  0  0  0  0  0  0  0  0
    3.4698   11.4387   12.5272 C   0  0  1  0  0  0  0  0  0  0  0  0
    2.5015   10.8690   13.4149 O   0  0  0  0  0  0  0  0  0  0  0  0
    2.8620    3.6760   17.3514 C   0  0  2  0  0  0  0  0  0  0  0  0
    1.7584    3.4602   16.4902 O   0  0  0  0  0  0  0  0  0  0  0  0
    4.7637    7.6851   19.4078 C   0  0  2  0  0  0  0  0  0  0  0  0
    7.1673    8.9146   14.7614 C   0  0  2  0  0  0  0  0  0  0  0  0
    6.4452    9.2482   15.9363 O   0  0  0  0  0  0  0  0  0  0  0  0
    7.1627   12.7237   11.8531 C   0  0  2  0  0  0  0  0  0  0  0  0
    6.1082   13.1597   12.7124 O   0  0  0  0  0  0  0  0  0  0  0  0
    2.9107   11.4443   11.1033 C   0  0  2  0  0  0  0  0  0  0  0  0
    2.9401   10.0850   10.6386 O   0  0  0  0  0  0  0  0  0  0  0  0
    2.4816    4.5795   18.5506 C   0  0  2  0  0  0  0  0  0  0  0  0
    3.6391    4.6381   19.4324 O   0  0  0  0  0  0  0  0  0  0  0  0
    5.3969    8.9145   18.6808 C   0  0  2  0  0  0  0  0  0  0  0  0
    6.7194    8.5604   18.1889 O   0  0  0  0  0  0  0  0  0  0  0  0
    6.7222    7.5384   14.2678 C   0  0  0  0  0  0  0  0  0  0  0  0
    7.4847    7.2339   13.0907 O   0  0  0  0  0  0  0  0  0  0  0  0
    7.1706   11.2103   11.9530 C   0  0  1  0  0  0  0  0  0  0  0  0
    7.6989   10.3518   12.9866 O   0  0  0  0  0  0  0  0  0  0  0  0
    3.6602   12.4283   10.2120 C   0  0  2  0  0  0  0  0  0  0  0  0
    4.2206   13.6390   10.7430 O   0  0  0  0  0  0  0  0  0  0  0  0
    1.3693    4.0226   19.3722 C   0  0  0  0  0  0  0  0  0  0  0  0
    1.8531    2.8637   20.0071 O   0  0  0  0  0  0  0  0  0  0  0  0
    5.4169   10.1677   19.6197 C   0  0  1  0  0  0  0  0  0  0  0  0
    5.8341   11.3017   18.8138 O   0  0  0  0  0  0  0  0  0  0  0  0
    6.0172   10.4606   11.2177 C   0  0  0  0  0  0  0  0  0  0  0  0
    6.4164    9.1356   10.6985 N   0  0  0  0  0  0  0  0  0  0  0  0
    3.3123   12.6528    8.7423 C   0  0  0  0  0  0  0  0  0  0  0  0
    2.7880   13.9941    8.5562 O   0  0  0  0  0  0  0  0  0  0  0  0
  1  2  1  6  0  0  0
  1  8  1  0  0  0  0
  1 36  1  0  0  0  0
  3  4  1  1  0  0  0
  3 10  1  0  0  0  0
  3 47  1  0  0  0  0
  5 11  1  0  0  0  0
  5 30  1  0  0  0  0
  5 38  1  1  0  0  0
  6 21  1  1  0  0  0
  6 42  1  0  0  0  0
  7 15  1  0  0  0  0
  7 44  1  0  0  0  0
  7 32  1  6  0  0  0
  8  9  1  6  0  0  0
  8 17  1  0  0  0  0
 11 12  1  1  0  0  0
 11 20  1  0  0  0  0
 13  6  1  0  0  0  0
 13 14  1  1  0  0  0
 15 16  1  6  0  0  0
 15 24  1  0  0  0  0
 17 26  1  0  0  0  0
 18 10  1  0  0  0  0
 18 19  1  1  0  0  0
 20 21  1  1  0  0  0
 20 29  1  0  0  0  0
 22 13  1  0  0  0  0
 22 23  1  6  0  0  0
 24 25  1  1  0  0  0
 24 33  1  0  0  0  0
 26 27  1  6  0  0  0
 26 35  1  0  0  0  0
 28  2  1  6  0  0  0
 28 18  1  0  0  0  0
 29 30  1  0  0  0  0
 29 39  1  1  0  0  0
 31 22  1  0  0  0  0
 31 32  1  1  0  0  0
 31 41  1  0  0  0  0
 33 34  1  6  0  0  0
 33 43  1  0  0  0  0
 35 36  1  0  0  0  0
 35 45  1  1  0  0  0
 37 28  1  0  0  0  0
 37 38  1  1  0  0  0
 39 40  1  0  0  0  0
 41 42  1  0  0  0  0
 41 49  1  1  0  0  0
 43 44  1  0  0  0  0
 43 51  1  6  0  0  0
 45 46  1  0  0  0  0
 47 37  1  0  0  0  0
 47 48  1  6  0  0  0
 49 50  1  0  0  0  0
 51 52  1  0  0  0  0
M  END
>  <CHROM.1>
-149.29189355,-176.28752878,156.99195843,131.15740220,-173.31300444,-97.35538346
-64.51340788,144.29996279,67.69692140,156.63939405,147.88417985,112.95809846
5.30659650,9.36868432,15.35361263,1.77388499,0.52806736,2.18069996

>  <Name>
2esj_lig

>  <RI>
0

>  <Rbt.Current_Directory>
/home/itssahil/PROJECTS/Mol_Feturizer/New_Systems/rnas/2esj

>  <Rbt.Executable>
rbdock ($Id: //depot/dev/client3/rdock/2013.1/src/exe/rbdock.cxx#4 $)

>  <Rbt.Library>
libRbt.so (2013.1, Build901 2013/11/27)

>  <Rbt.Parameter_File>
/export/apps/rDock/src/rDock_2013.1_src/data/scripts/dock_solv.prm

>  <Rbt.Receptor>
prm/blind_docking_80.prm

>  <SCORE>
13.9689

>  <SCORE.INTER>
-7.10391

>  <SCORE.INTER.CONST>
1

>  <SCORE.INTER.POLAR>
-0.887466

>  <SCORE.INTER.ROT>
12

>  <SCORE.INTER.SOLV>
17.8867

>  <SCORE.INTER.VDW>
-19.3399

>  <SCORE.INTER.norm>
-0.136614

>  <SCORE.INTRA>
8.64041

>  <SCORE.INTRA.DIHEDRAL>
-1.53211

>  <SCORE.INTRA.DIHEDRAL.0>
32.9766

>  <SCORE.INTRA.POLAR>
0

>  <SCORE.INTRA.POLAR.0>
0

>  <SCORE.INTRA.REPUL>
0

>  <SCORE.INTRA.REPUL.0>
0

>  <SCORE.INTRA.SOLV>
4.76735

>  <SCORE.INTRA.SOLV.lig_0>
-114.358

>  <SCORE.INTRA.VDW>
7.0228

>  <SCORE.INTRA.VDW.0>
-8.24257

>  <SCORE.INTRA.norm>
0.166162

>  <SCORE.RESTR>
12.4324

>  <SCORE.RESTR.CAVITY>
12.4324

>  <SCORE.RESTR.norm>
0.239084

>  <SCORE.SYSTEM>
0

>  <SCORE.SYSTEM.CONST>
0

>  <SCORE.SYSTEM.DIHEDRAL>
0

>  <SCORE.SYSTEM.SOLV>
0

>  <SCORE.SYSTEM.norm>
0

>  <SCORE.heavy>
52

>  <SCORE.norm>
0.268633

>  <RMSD>
22.877

$$$$
2esj_lig
 OpenBabel11021811423D
libRbt.so/2013.1/901 2013/11/27
 52 56  0  0  0  0  0  0  0  0999 V2000
    5.4579    8.4199   17.3958 C   0  0  2  0  0  0  0  0  0  0  0  0
    4.7932    9.2049   18.4042 O   0  0  0  0  0  0  0  0  0  0  0  0
    5.3437   11.2914   22.0962 C   0  0  2  0  0  0  0  0  0  0  0  0
    5.8195   11.7558   23.4097 N   0  0  0  0  0  0  0  0  0  0  0  0
    6.5952   11.8285   17.3366 C   0  0  1  0  0  0  0  0  0  0  0  0
    6.1137   13.5268   14.0146 C   0  0  1  0  0  0  0  0  0  0  0  0
    6.3331    9.2871   11.0217 C   0  0  1  0  0  0  0  0  0  0  0  0
    4.6921    8.6320   16.0565 C   0  0  2  0  0  0  0  0  0  0  0  0
    4.6103   10.0439   15.6834 N   0  0  0  0  0  0  0  0  0  0  0  0
    4.9812    9.7544   22.1556 C   0  0  0  0  0  0  0  0  0  0  0  0
    5.8102   13.1138   17.6016 C   0  0  2  0  0  0  0  0  0  0  0  0
    4.3918   12.8758   17.7312 O   0  0  0  0  0  0  0  0  0  0  0  0
    4.9587   13.2018   12.9651 C   0  0  2  0  0  0  0  0  0  0  0  0
    4.2011   11.9860   13.3635 N   0  0  0  0  0  0  0  0  0  0  0  0
    5.0015    8.6043   11.3119 C   0  0  1  0  0  0  0  0  0  0  0  0
    4.7999    7.5373   10.3636 O   0  0  0  0  0  0  0  0  0  0  0  0
    3.2574    8.0197   16.1319 C   0  0  0  0  0  0  0  0  0  0  0  0
    4.4168    9.2882   20.7536 C   0  0  2  0  0  0  0  0  0  0  0  0
    4.0848    7.8599   20.7778 N   0  0  0  0  0  0  0  0  0  0  0  0
    6.1920   13.9217   16.3952 C   0  0  2  0  0  0  0  0  0  0  0  0
    5.4878   13.4784   15.2630 O   0  0  0  0  0  0  0  0  0  0  0  0
    5.5871   13.1537   11.5030 C   0  0  1  0  0  0  0  0  0  0  0  0
    6.3362   14.3532   11.2817 O   0  0  0  0  0  0  0  0  0  0  0  0
    4.8604    8.0215   12.7129 C   0  0  1  0  0  0  0  0  0  0  0  0
    3.6683    7.2284   12.7235 O   0  0  0  0  0  0  0  0  0  0  0  0
    3.3700    6.5245   16.5530 C   0  0  2  0  0  0  0  0  0  0  0  0
    2.1066    5.8844   16.5663 O   0  0  0  0  0  0  0  0  0  0  0  0
    5.4445    9.5849   19.6307 C   0  0  2  0  0  0  0  0  0  0  0  0
    7.6592   13.5564   16.0890 C   0  0  2  0  0  0  0  0  0  0  0  0
    7.7334   12.2187   16.5558 O   0  0  0  0  0  0  0  0  0  0  0  0
    6.6235   11.9646   11.3576 C   0  0  2  0  0  0  0  0  0  0  0  0
    5.8376   10.7874   11.5498 O   0  0  0  0  0  0  0  0  0  0  0  0
    6.0474    7.1583   13.1440 C   0  0  2  0  0  0  0  0  0  0  0  0
    5.9189    6.9502   14.5599 O   0  0  0  0  0  0  0  0  0  0  0  0
    4.0574    6.4586   17.9395 C   0  0  2  0  0  0  0  0  0  0  0  0
    5.3889    7.0292   17.7898 O   0  0  0  0  0  0  0  0  0  0  0  0
    5.9385   11.0666   19.5912 C   0  0  2  0  0  0  0  0  0  0  0  0
    6.9498   11.2145   18.5559 O   0  0  0  0  0  0  0  0  0  0  0  0
    8.7296   14.3955   16.7859 C   0  0  0  0  0  0  0  0  0  0  0  0
    8.8352   15.6382   16.0757 O   0  0  0  0  0  0  0  0  0  0  0  0
    7.5254   12.0558   12.5735 C   0  0  1  0  0  0  0  0  0  0  0  0
    7.2328   12.5067   13.9135 O   0  0  0  0  0  0  0  0  0  0  0  0
    7.3737    7.7786   12.7190 C   0  0  2  0  0  0  0  0  0  0  0  0
    7.4821    8.5590   11.5186 O   0  0  0  0  0  0  0  0  0  0  0  0
    4.2624    5.0640   18.4246 C   0  0  0  0  0  0  0  0  0  0  0  0
    2.9910    4.4855   18.5952 O   0  0  0  0  0  0  0  0  0  0  0  0
    6.4455   11.5229   21.0008 C   0  0  1  0  0  0  0  0  0  0  0  0
    6.6990   12.9509   20.9247 O   0  0  0  0  0  0  0  0  0  0  0  0
    8.7169   11.0509   12.6303 C   0  0  0  0  0  0  0  0  0  0  0  0
    9.5244   11.1677   13.8628 N   0  0  0  0  0  0  0  0  0  0  0  0
    8.7263    7.1309   13.0062 C   0  0  0  0  0  0  0  0  0  0  0  0
    8.8412    5.8795   12.2785 O   0  0  0  0  0  0  0  0  0  0  0  0
  1  2  1  1  0  0  0
  1  8  1  0  0  0  0
  1 36  1  0  0  0  0
  3  4  1  1  0  0  0
  3 10  1  0  0  0  0
  3 47  1  0  0  0  0
  5 11  1  0  0  0  0
  5 30  1  0  0  0  0
  5 38  1  1  0  0  0
  6 21  1  1  0  0  0
  6 42  1  0  0  0  0
  7 15  1  0  0  0  0
  7 44  1  0  0  0  0
  7 32  1  1  0  0  0
  8  9  1  1  0  0  0
  8 17  1  0  0  0  0
 11 12  1  6  0  0  0
 11 20  1  0  0  0  0
 13  6  1  0  0  0  0
 13 14  1  1  0  0  0
 15 16  1  6  0  0  0
 15 24  1  0  0  0  0
 17 26  1  0  0  0  0
 18 10  1  0  0  0  0
 18 19  1  1  0  0  0
 20 21  1  6  0  0  0
 20 29  1  0  0  0  0
 22 13  1  0  0  0  0
 22 23  1  1  0  0  0
 24 25  1  6  0  0  0
 24 33  1  0  0  0  0
 26 27  1  1  0  0  0
 26 35  1  0  0  0  0
 28  2  1  6  0  0  0
 28 18  1  0  0  0  0
 29 30  1  0  0  0  0
 29 39  1  1  0  0  0
 31 22  1  0  0  0  0
 31 32  1  1  0  0  0
 31 41  1  0  0  0  0
 33 34  1  1  0  0  0
 33 43  1  0  0  0  0
 35 36  1  0  0  0  0
 35 45  1  6  0  0  0
 37 28  1  0  0  0  0
 37 38  1  6  0  0  0
 39 40  1  0  0  0  0
 41 42  1  0  0  0  0
 41 49  1  1  0  0  0
 43 44  1  0  0  0  0
 43 51  1  6  0  0  0
 45 46  1  0  0  0  0
 47 37  1  0  0  0  0
 47 48  1  6  0  0  0
 49 50  1  0  0  0  0
 51 52  1  0  0  0  0
M  END
>  <CHROM.1>
-160.02050060,46.79799959,-170.39252503,-170.91218719,-146.18158096,-133.96495260
-78.44094959,159.75498138,-63.43460241,103.55634959,-178.07300088,65.36513948
5.85525445,10.11502358,15.79583985,2.06661879,1.20071275,1.15719254

>  <Name>
2esj_lig

>  <RI>
224

>  <Rbt.Current_Directory>
/home/itssahil/PROJECTS/Mol_Feturizer/New_Systems/rnas/2esj

>  <Rbt.Executable>
rbdock ($Id: //depot/dev/client3/rdock/2013.1/src/exe/rbdock.cxx#4 $)

>  <Rbt.Library>
libRbt.so (2013.1, Build901 2013/11/27)

>  <Rbt.Parameter_File>
/export/apps/rDock/src/rDock_2013.1_src/data/scripts/dock_solv.prm

>  <Rbt.Receptor>
prm/blind_docking_100.prm

>  <SCORE>
9.09937

>  <SCORE.INTER>
-10.5774

>  <SCORE.INTER.CONST>
1

>  <SCORE.INTER.POLAR>
-0.848934

>  <SCORE.INTER.ROT>
12

>  <SCORE.INTER.SOLV>
20.0229

>  <SCORE.INTER.VDW>
-22.4961

>  <SCORE.INTER.norm>
-0.203412

>  <SCORE.INTRA>
10.2918

>  <SCORE.INTRA.DIHEDRAL>
-5.31854

>  <SCORE.INTRA.DIHEDRAL.0>
32.9766

>  <SCORE.INTRA.POLAR>
0

>  <SCORE.INTRA.POLAR.0>
0

>  <SCORE.INTRA.REPUL>
0.462195

>  <SCORE.INTRA.REPUL.0>
0

>  <SCORE.INTRA.SOLV>
8.65674

>  <SCORE.INTRA.SOLV.lig_0>
-114.358

>  <SCORE.INTRA.VDW>
6.31177

>  <SCORE.INTRA.VDW.0>
-8.24257

>  <SCORE.INTRA.norm>
0.19792

>  <SCORE.RESTR>
9.38498

>  <SCORE.RESTR.CAVITY>
9.38498

>  <SCORE.RESTR.norm>
0.18048

>  <SCORE.SYSTEM>
0

>  <SCORE.SYSTEM.CONST>
0

>  <SCORE.SYSTEM.DIHEDRAL>
0

>  <SCORE.SYSTEM.SOLV>
0

>  <SCORE.SYSTEM.norm>
0

>  <SCORE.heavy>
52

>  <SCORE.norm>
0.174988

>  <RMSD>
22.908

$$$$
2esj_lig
 OpenBabel11021811423D
libRbt.so/2013.1/901 2013/11/27
 52 56  0  0  0  0  0  0  0  0999 V2000
    5.4779    8.3447   18.5990 C   0  0  2  0  0  0  0  0  0  0  0  0
    4.3914    8.3119   17.6538 O   0  0  0  0  0  0  0  0  0  0  0  0
    3.1525    4.2277   17.3846 C   0  0  2  0  0  0  0  0  0  0  0  0
    2.3806    2.9742   17.3675 N   0  0  0  0  0  0  0  0  0  0  0  0
    4.0771    8.2438   14.5426 C   0  0  1  0  0  0  0  0  0  0  0  0
    6.6386   10.5149   12.3000 C   0  0  1  0  0  0  0  0  0  0  0  0
    6.5713   14.4061   14.9769 C   0  0  1  0  0  0  0  0  0  0  0  0
    5.4156    9.7144   19.3372 C   0  0  2  0  0  0  0  0  0  0  0  0
    4.1226    9.9363   19.9838 N   0  0  0  0  0  0  0  0  0  0  0  0
    2.9486    4.9794   18.7597 C   0  0  0  0  0  0  0  0  0  0  0  0
    4.7268    7.5261   13.3589 C   0  0  2  0  0  0  0  0  0  0  0  0
    5.8690    6.7356   13.7538 O   0  0  0  0  0  0  0  0  0  0  0  0
    8.0361   10.8681   12.9808 C   0  0  2  0  0  0  0  0  0  0  0  0
    7.9230   10.8705   14.4634 N   0  0  0  0  0  0  0  0  0  0  0  0
    7.3380   15.7230   14.9394 C   0  0  1  0  0  0  0  0  0  0  0  0
    6.3999   16.8176   14.9486 O   0  0  0  0  0  0  0  0  0  0  0  0
    5.7271   10.8901   18.3575 C   0  0  0  0  0  0  0  0  0  0  0  0
    3.8308    6.2919   18.7823 C   0  0  2  0  0  0  0  0  0  0  0  0
    3.6492    7.0164   20.0445 N   0  0  0  0  0  0  0  0  0  0  0  0
    5.0612    8.6959   12.4791 C   0  0  2  0  0  0  0  0  0  0  0  0
    6.1968    9.3670   12.9632 O   0  0  0  0  0  0  0  0  0  0  0  0
    8.5938   12.2178   12.3465 C   0  0  1  0  0  0  0  0  0  0  0  0
    8.5873   12.0960   10.9203 O   0  0  0  0  0  0  0  0  0  0  0  0
    8.3215   15.9365   16.0838 C   0  0  1  0  0  0  0  0  0  0  0  0
    8.7613   17.2974   16.0157 O   0  0  0  0  0  0  0  0  0  0  0  0
    7.0958   10.6191   17.6654 C   0  0  2  0  0  0  0  0  0  0  0  0
    7.4780   11.6875   16.8178 O   0  0  0  0  0  0  0  0  0  0  0  0
    3.4746    7.2041   17.5798 C   0  0  2  0  0  0  0  0  0  0  0  0
    3.9163    9.7114   12.6731 C   0  0  2  0  0  0  0  0  0  0  0  0
    3.5129    9.4493   14.0078 O   0  0  0  0  0  0  0  0  0  0  0  0
    7.6505   13.4462   12.6790 C   0  0  2  0  0  0  0  0  0  0  0  0
    7.7079   13.5589   14.1018 O   0  0  0  0  0  0  0  0  0  0  0  0
    7.7268   15.6645   17.4666 C   0  0  2  0  0  0  0  0  0  0  0  0
    8.8273   15.5998   18.3882 O   0  0  0  0  0  0  0  0  0  0  0  0
    6.9933    9.2832   16.8884 C   0  0  2  0  0  0  0  0  0  0  0  0
    6.7187    8.2360   17.8625 O   0  0  0  0  0  0  0  0  0  0  0  0
    3.5394    6.4881   16.1927 C   0  0  2  0  0  0  0  0  0  0  0  0
    3.1157    7.4094   15.1497 O   0  0  0  0  0  0  0  0  0  0  0  0
    2.7123    9.5661   11.7430 C   0  0  0  0  0  0  0  0  0  0  0  0
    2.4576    8.1631   11.5814 O   0  0  0  0  0  0  0  0  0  0  0  0
    6.2425   12.9791   12.3635 C   0  0  1  0  0  0  0  0  0  0  0  0
    5.6584   11.6623   12.4609 O   0  0  0  0  0  0  0  0  0  0  0  0
    6.8403   14.4241   17.4601 C   0  0  2  0  0  0  0  0  0  0  0  0
    6.0892   14.0495   16.2951 O   0  0  0  0  0  0  0  0  0  0  0  0
    8.2687    8.8962   16.2206 C   0  0  0  0  0  0  0  0  0  0  0  0
    7.9918    7.7968   15.3870 O   0  0  0  0  0  0  0  0  0  0  0  0
    2.7007    5.1658   16.2084 C   0  0  1  0  0  0  0  0  0  0  0  0
    2.9701    4.4713   14.9616 O   0  0  0  0  0  0  0  0  0  0  0  0
    5.1105   14.0427   12.5059 C   0  0  0  0  0  0  0  0  0  0  0  0
    3.8008   13.5760   12.0045 N   0  0  0  0  0  0  0  0  0  0  0  0
    6.1064   13.9182   18.6999 C   0  0  0  0  0  0  0  0  0  0  0  0
    4.8993   14.6966   18.9135 O   0  0  0  0  0  0  0  0  0  0  0  0
  1  2  1  6  0  0  0
  1  8  1  0  0  0  0
  1 36  1  0  0  0  0
  3  4  1  1  0  0  0
  3 10  1  0  0  0  0
  3 47  1  0  0  0  0
  5 11  1  0  0  0  0
  5 30  1  0  0  0  0
  5 38  1  6  0  0  0
  6 21  1  1  0  0  0
  6 42  1  0  0  0  0
  7 15  1  0  0  0  0
  7 44  1  0  0  0  0
  7 32  1  1  0  0  0
  8  9  1  6  0  0  0
  8 17  1  0  0  0  0
 11 12  1  1  0  0  0
 11 20  1  0  0  0  0
 13  6  1  0  0  0  0
 13 14  1  1  0  0  0
 15 16  1  1  0  0  0
 15 24  1  0  0  0  0
 17 26  1  0  0  0  0
 18 10  1  0  0  0  0
 18 19  1  1  0  0  0
 20 21  1  1  0  0  0
 20 29  1  0  0  0  0
 22 13  1  0  0  0  0
 22 23  1  6  0  0  0
 24 25  1  1  0  0  0
 24 33  1  0  0  0  0
 26 27  1  6  0  0  0
 26 35  1  0  0  0  0
 28  2  1  6  0  0  0
 28 18  1  0  0  0  0
 29 30  1  0  0  0  0
 29 39  1  6  0  0  0
 31 22  1  0  0  0  0
 31 32  1  1  0  0  0
 31 41  1  0  0  0  0
 33 34  1  1  0  0  0
 33 43  1  0  0  0  0
 35 36  1  0  0  0  0
 35 45  1  1  0  0  0
 37 28  1  0  0  0  0
 37 38  1  6  0  0  0
 39 40  1  0  0  0  0
 41 42  1  0  0  0  0
 41 49  1  1  0  0  0
 43 44  1  0  0  0  0
 43 51  1  1  0  0  0
 45 46  1  0  0  0  0
 47 37  1  0  0  0  0
 47 48  1  6  0  0  0
 49 50  1  0  0  0  0
 51 52  1  0  0  0  0
M  END
>  <CHROM.1>
-129.66871999,87.67510228,-171.93144926,-91.31415553,-177.87960918,7.03768250
39.33264161,-162.15147336,-170.87376157,88.42029612,171.93546788,79.78646759
5.66131108,10.44771434,15.51400807,-2.97713898,-1.16476996,-1.54197115

>  <Name>
2esj_lig

>  <RI>
0

>  <Rbt.Current_Directory>
/home/itssahil/PROJECTS/Mol_Feturizer/New_Systems/rnas/2esj

>  <Rbt.Executable>
rbdock ($Id: //depot/dev/client3/rdock/2013.1/src/exe/rbdock.cxx#4 $)

>  <Rbt.Library>
libRbt.so (2013.1, Build901 2013/11/27)

>  <Rbt.Parameter_File>
/export/apps/rDock/src/rDock_2013.1_src/data/scripts/dock_solv.prm

>  <Rbt.Receptor>
prm/blind_docking_80.prm

>  <SCORE>
6.97987

>  <SCORE.INTER>
-7.42423

>  <SCORE.INTER.CONST>
1

>  <SCORE.INTER.POLAR>
0

>  <SCORE.INTER.ROT>
12

>  <SCORE.INTER.SOLV>
11.4819

>  <SCORE.INTER.VDW>
-20.3768

>  <SCORE.INTER.norm>
-0.142774

>  <SCORE.INTRA>
11.2763

>  <SCORE.INTRA.DIHEDRAL>
-0.215169

>  <SCORE.INTRA.DIHEDRAL.0>
32.9766

>  <SCORE.INTRA.POLAR>
0

>  <SCORE.INTRA.POLAR.0>
0

>  <SCORE.INTRA.REPUL>
0.0990757

>  <SCORE.INTRA.REPUL.0>
0

>  <SCORE.INTRA.SOLV>
7.23926

>  <SCORE.INTRA.SOLV.lig_0>
-114.358

>  <SCORE.INTRA.VDW>
7.26891

>  <SCORE.INTRA.VDW.0>
-8.24257

>  <SCORE.INTRA.norm>
0.216853

>  <SCORE.RESTR>
3.12777

>  <SCORE.RESTR.CAVITY>
3.12777

>  <SCORE.RESTR.norm>
0.0601494

>  <SCORE.SYSTEM>
0

>  <SCORE.SYSTEM.CONST>
0

>  <SCORE.SYSTEM.DIHEDRAL>
0

>  <SCORE.SYSTEM.SOLV>
0

>  <SCORE.SYSTEM.norm>
0

>  <SCORE.heavy>
52

>  <SCORE.norm>
0.134228

>  <RMSD>
22.938

$$$$
2esj_lig
 OpenBabel11021811423D
libRbt.so/2013.1/901 2013/11/27
 52 56  0  0  0  0  0  0  0  0999 V2000
    4.4278    9.6030   11.3345 C   0  0  2  0  0  0  0  0  0  0  0  0
    4.6911    9.5384   12.7491 O   0  0  0  0  0  0  0  0  0  0  0  0
    7.9794    6.8047   12.7955 C   0  0  2  0  0  0  0  0  0  0  0  0
    9.1938    6.0470   13.1397 N   0  0  0  0  0  0  0  0  0  0  0  0
    4.6419    7.7576   15.7432 C   0  0  1  0  0  0  0  0  0  0  0  0
    5.5714    9.1573   18.8180 C   0  0  1  0  0  0  0  0  0  0  0  0
    7.4909   12.6213   16.2939 C   0  0  1  0  0  0  0  0  0  0  0  0
    2.9780   10.1413   11.1518 C   0  0  2  0  0  0  0  0  0  0  0  0
    2.7823   11.4361   11.8031 N   0  0  0  0  0  0  0  0  0  0  0  0
    8.2969    8.3515   12.7319 C   0  0  0  0  0  0  0  0  0  0  0  0
    3.4185    7.4697   16.6143 C   0  0  2  0  0  0  0  0  0  0  0  0
    2.3700    8.4455   16.4309 O   0  0  0  0  0  0  0  0  0  0  0  0
    5.4068   10.6042   19.4664 C   0  0  2  0  0  0  0  0  0  0  0  0
    4.6557   11.5135   18.5608 N   0  0  0  0  0  0  0  0  0  0  0  0
    7.5204   14.1412   16.4064 C   0  0  1  0  0  0  0  0  0  0  0  0
    8.4526   14.6694   15.4418 O   0  0  0  0  0  0  0  0  0  0  0  0
    1.9306    9.1144   11.6880 C   0  0  0  0  0  0  0  0  0  0  0  0
    6.9961    9.1426   12.3032 C   0  0  2  0  0  0  0  0  0  0  0  0
    7.2606   10.5841   12.2497 N   0  0  0  0  0  0  0  0  0  0  0  0
    4.0440    7.4861   17.9791 C   0  0  2  0  0  0  0  0  0  0  0  0
    4.2871    8.8066   18.3932 O   0  0  0  0  0  0  0  0  0  0  0  0
    6.8388   11.1351   19.9163 C   0  0  1  0  0  0  0  0  0  0  0  0
    7.4688   10.1371   20.7260 O   0  0  0  0  0  0  0  0  0  0  0  0
    6.1806   14.8358   16.1952 C   0  0  1  0  0  0  0  0  0  0  0  0
    6.4421   16.2404   16.1011 O   0  0  0  0  0  0  0  0  0  0  0  0
    2.1745    7.7399   10.9974 C   0  0  2  0  0  0  0  0  0  0  0  0
    1.2077    6.7786   11.3816 O   0  0  0  0  0  0  0  0  0  0  0  0
    5.8328    8.8429   13.2840 C   0  0  2  0  0  0  0  0  0  0  0  0
    5.4535    6.8838   17.8053 C   0  0  2  0  0  0  0  0  0  0  0  0
    5.7693    7.2529   16.4722 O   0  0  0  0  0  0  0  0  0  0  0  0
    7.7946   11.3471   18.6709 C   0  0  2  0  0  0  0  0  0  0  0  0
    7.1542   12.3694   17.9059 O   0  0  0  0  0  0  0  0  0  0  0  0
    5.4374   14.3734   14.9407 C   0  0  2  0  0  0  0  0  0  0  0  0
    4.0925   14.8681   15.0469 O   0  0  0  0  0  0  0  0  0  0  0  0
    3.6111    7.2713   11.3374 C   0  0  2  0  0  0  0  0  0  0  0  0
    4.5293    8.2637   10.7961 O   0  0  0  0  0  0  0  0  0  0  0  0
    5.5432    7.3210   13.4867 C   0  0  2  0  0  0  0  0  0  0  0  0
    4.4911    7.1540   14.4775 O   0  0  0  0  0  0  0  0  0  0  0  0
    5.5685    5.3668   17.9509 C   0  0  0  0  0  0  0  0  0  0  0  0
    5.1630    5.0286   19.2854 O   0  0  0  0  0  0  0  0  0  0  0  0
    7.6750   10.0825   17.8423 C   0  0  1  0  0  0  0  0  0  0  0  0
    6.5493    9.1973   17.6582 O   0  0  0  0  0  0  0  0  0  0  0  0
    5.5374   12.8633   14.7561 C   0  0  2  0  0  0  0  0  0  0  0  0
    6.6980   12.1342   15.1842 O   0  0  0  0  0  0  0  0  0  0  0  0
    3.9742    5.9802   10.6866 C   0  0  0  0  0  0  0  0  0  0  0  0
    5.3539    5.7832   10.8807 O   0  0  0  0  0  0  0  0  0  0  0  0
    6.8535    6.5493   13.8606 C   0  0  1  0  0  0  0  0  0  0  0  0
    6.5384    5.1318   13.8386 O   0  0  0  0  0  0  0  0  0  0  0  0
    8.6035    9.9811   16.5932 C   0  0  0  0  0  0  0  0  0  0  0  0
    9.1302    8.6194   16.3628 N   0  0  0  0  0  0  0  0  0  0  0  0
    4.8992   12.1234   13.5826 C   0  0  0  0  0  0  0  0  0  0  0  0
    5.5254   12.5337   12.3383 O   0  0  0  0  0  0  0  0  0  0  0  0
  1  2  1  1  0  0  0
  1  8  1  0  0  0  0
  1 36  1  0  0  0  0
  3  4  1  1  0  0  0
  3 10  1  0  0  0  0
  3 47  1  0  0  0  0
  5 11  1  0  0  0  0
  5 30  1  0  0  0  0
  5 38  1  6  0  0  0
  6 21  1  6  0  0  0
  6 42  1  0  0  0  0
  7 15  1  0  0  0  0
  7 44  1  0  0  0  0
  7 32  1  1  0  0  0
  8  9  1  1  0  0  0
  8 17  1  0  0  0  0
 11 12  1  1  0  0  0
 11 20  1  0  0  0  0
 13  6  1  0  0  0  0
 13 14  1  6  0  0  0
 15 16  1  6  0  0  0
 15 24  1  0  0  0  0
 17 26  1  0  0  0  0
 18 10  1  0  0  0  0
 18 19  1  1  0  0  0
 20 21  1  6  0  0  0
 20 29  1  0  0  0  0
 22 13  1  0  0  0  0
 22 23  1  1  0  0  0
 24 25  1  6  0  0  0
 24 33  1  0  0  0  0
 26 27  1  1  0  0  0
 26 35  1  0  0  0  0
 28  2  1  6  0  0  0
 28 18  1  0  0  0  0
 29 30  1  0  0  0  0
 29 39  1  6  0  0  0
 31 22  1  0  0  0  0
 31 32  1  6  0  0  0
 31 41  1  0  0  0  0
 33 34  1  1  0  0  0
 33 43  1  0  0  0  0
 35 36  1  0  0  0  0
 35 45  1  6  0  0  0
 37 28  1  0  0  0  0
 37 38  1  1  0  0  0
 39 40  1  0  0  0  0
 41 42  1  0  0  0  0
 41 49  1  6  0  0  0
 43 44  1  0  0  0  0
 43 51  1  6  0  0  0
 45 46  1  0  0  0  0
 47 37  1  0  0  0  0
 47 48  1  6  0  0  0
 49 50  1  0  0  0  0
 51 52  1  0  0  0  0
M  END
>  <CHROM.1>
167.54084869,179.27651839,-169.27579771,-137.54493077,-126.92548875,39.02720425
-61.66278547,-160.39862164,170.08787121,-54.19093658,142.10555746,64.91387585
5.61269186,9.56969519,15.05060876,2.75494207,1.24724051,2.77986631

>  <Name>
2esj_lig

>  <RI>
0

>  <Rbt.Current_Directory>
/home/itssahil/PROJECTS/Mol_Feturizer/New_Systems/rnas/2esj

>  <Rbt.Executable>
rbdock ($Id: //depot/dev/client3/rdock/2013.1/src/exe/rbdock.cxx#4 $)

>  <Rbt.Library>
libRbt.so (2013.1, Build901 2013/11/27)

>  <Rbt.Parameter_File>
/export/apps/rDock/src/rDock_2013.1_src/data/scripts/dock_solv.prm

>  <Rbt.Receptor>
prm/blind_docking_40.prm

>  <SCORE>
46.4168

>  <SCORE.INTER>
24.6541

>  <SCORE.INTER.CONST>
1

>  <SCORE.INTER.POLAR>
-0.620162

>  <SCORE.INTER.ROT>
12

>  <SCORE.INTER.SOLV>
30.4467

>  <SCORE.INTER.VDW>
-3.24565

>  <SCORE.INTER.norm>
0.474117

>  <SCORE.INTRA>
9.7532

>  <SCORE.INTRA.DIHEDRAL>
-9.81351

>  <SCORE.INTRA.DIHEDRAL.0>
32.9766

>  <SCORE.INTRA.POLAR>
0

>  <SCORE.INTRA.POLAR.0>
0

>  <SCORE.INTRA.REPUL>
0

>  <SCORE.INTRA.REPUL.0>
0

>  <SCORE.INTRA.SOLV>
7.25366

>  <SCORE.INTRA.SOLV.lig_0>
-114.358

>  <SCORE.INTRA.VDW>
11.0331

>  <SCORE.INTRA.VDW.0>
-8.24257

>  <SCORE.INTRA.norm>
0.187561

>  <SCORE.RESTR>
12.0095

>  <SCORE.RESTR.CAVITY>
12.0095

>  <SCORE.RESTR.norm>
0.230952

>  <SCORE.SYSTEM>
0

>  <SCORE.SYSTEM.CONST>
0

>  <SCORE.SYSTEM.DIHEDRAL>
0

>  <SCORE.SYSTEM.SOLV>
0

>  <SCORE.SYSTEM.norm>
0

>  <SCORE.heavy>
52

>  <SCORE.norm>
0.89263

>  <RMSD>
22.946

$$$$
2esj_lig
 OpenBabel11021811423D
libRbt.so/2013.1/901 2013/11/27
 52 56  0  0  0  0  0  0  0  0999 V2000
    6.7470   10.9698   15.8768 C   0  0  2  0  0  0  0  0  0  0  0  0
    7.1015   10.9075   17.2715 O   0  0  0  0  0  0  0  0  0  0  0  0
    5.5242   10.5403   21.2295 C   0  0  2  0  0  0  0  0  0  0  0  0
    4.6759   10.5853   22.4318 N   0  0  0  0  0  0  0  0  0  0  0  0
    6.0437    8.2188   16.7874 C   0  0  1  0  0  0  0  0  0  0  0  0
    7.6263    6.8441   13.9876 C   0  0  1  0  0  0  0  0  0  0  0  0
    6.0248   10.4136   10.4478 C   0  0  1  0  0  0  0  0  0  0  0  0
    8.0650   11.1431   15.0656 C   0  0  2  0  0  0  0  0  0  0  0  0
    9.0265   10.0749   15.3373 N   0  0  0  0  0  0  0  0  0  0  0  0
    5.7060   11.9917   20.6312 C   0  0  0  0  0  0  0  0  0  0  0  0
    7.3787    7.7517   17.3688 C   0  0  2  0  0  0  0  0  0  0  0  0
    8.3467    8.8201   17.4526 O   0  0  0  0  0  0  0  0  0  0  0  0
    8.5752    7.4493   12.8586 C   0  0  2  0  0  0  0  0  0  0  0  0
    8.8652    8.8846   13.1169 N   0  0  0  0  0  0  0  0  0  0  0  0
    6.5571   11.5888   11.2596 C   0  0  1  0  0  0  0  0  0  0  0  0
    6.6235   12.7558   10.4158 O   0  0  0  0  0  0  0  0  0  0  0  0
    8.7191   12.5314   15.3551 C   0  0  0  0  0  0  0  0  0  0  0  0
    6.6671   11.9314   19.3765 C   0  0  2  0  0  0  0  0  0  0  0  0
    6.8420   13.2657   18.7935 N   0  0  0  0  0  0  0  0  0  0  0  0
    7.7386    6.6689   16.3931 C   0  0  2  0  0  0  0  0  0  0  0  0
    8.2176    7.2253   15.1950 O   0  0  0  0  0  0  0  0  0  0  0  0
    7.9440    7.1368   11.4307 C   0  0  1  0  0  0  0  0  0  0  0  0
    7.6594    5.7366   11.3470 O   0  0  0  0  0  0  0  0  0  0  0  0
    5.7422   11.9480   12.4963 C   0  0  1  0  0  0  0  0  0  0  0  0
    6.2444   13.1962   12.9863 O   0  0  0  0  0  0  0  0  0  0  0  0
    7.6695   13.6490   15.0810 C   0  0  2  0  0  0  0  0  0  0  0  0
    8.2211   14.9425   15.2502 O   0  0  0  0  0  0  0  0  0  0  0  0
    6.1106   10.9469   18.3154 C   0  0  2  0  0  0  0  0  0  0  0  0
    6.4065    6.0038   15.9895 C   0  0  2  0  0  0  0  0  0  0  0  0
    5.4905    7.0802   16.1130 O   0  0  0  0  0  0  0  0  0  0  0  0
    6.5540    7.8720   11.2393 C   0  0  2  0  0  0  0  0  0  0  0  0
    6.8803    9.2616   11.2941 O   0  0  0  0  0  0  0  0  0  0  0  0
    4.2412   12.0749   12.2301 C   0  0  2  0  0  0  0  0  0  0  0  0
    3.5914   12.1003   13.5114 O   0  0  0  0  0  0  0  0  0  0  0  0
    6.4568   13.4192   16.0167 C   0  0  2  0  0  0  0  0  0  0  0  0
    5.8911   12.1200   15.6808 O   0  0  0  0  0  0  0  0  0  0  0  0
    5.7939    9.5210   18.8699 C   0  0  2  0  0  0  0  0  0  0  0  0
    5.2099    8.7076   17.8146 O   0  0  0  0  0  0  0  0  0  0  0  0
    5.9369    4.8376   16.8585 C   0  0  0  0  0  0  0  0  0  0  0  0
    7.0286    3.9125   16.9673 O   0  0  0  0  0  0  0  0  0  0  0  0
    5.7631    7.5888   12.5020 C   0  0  1  0  0  0  0  0  0  0  0  0
    6.2190    7.3970   13.8585 O   0  0  0  0  0  0  0  0  0  0  0  0
    3.7440   10.9771   11.2963 C   0  0  2  0  0  0  0  0  0  0  0  0
    4.5875   10.4308   10.2707 O   0  0  0  0  0  0  0  0  0  0  0  0
    5.3614   14.4086   15.8075 C   0  0  0  0  0  0  0  0  0  0  0  0
    5.8406   15.6635   16.2268 O   0  0  0  0  0  0  0  0  0  0  0  0
    4.8831    9.6068   20.1408 C   0  0  1  0  0  0  0  0  0  0  0  0
    4.7993    8.2693   20.7004 O   0  0  0  0  0  0  0  0  0  0  0  0
    4.2960    8.1174   12.5349 C   0  0  0  0  0  0  0  0  0  0  0  0
    3.3202    7.1761   11.9461 N   0  0  0  0  0  0  0  0  0  0  0  0
    2.2891   10.8607   10.8477 C   0  0  0  0  0  0  0  0  0  0  0  0
    2.2015   11.0097    9.4058 O   0  0  0  0  0  0  0  0  0  0  0  0
  1  2  1  1  0  0  0
  1  8  1  0  0  0  0
  1 36  1  0  0  0  0
  3  4  1  1  0  0  0
  3 10  1  0  0  0  0
  3 47  1  0  0  0  0
  5 11  1  0  0  0  0
  5 30  1  0  0  0  0
  5 38  1  1  0  0  0
  6 21  1  1  0  0  0
  6 42  1  0  0  0  0
  7 15  1  0  0  0  0
  7 44  1  0  0  0  0
  7 32  1  1  0  0  0
  8  9  1  1  0  0  0
  8 17  1  0  0  0  0
 11 12  1  6  0  0  0
 11 20  1  0  0  0  0
 13  6  1  0  0  0  0
 13 14  1  1  0  0  0
 15 16  1  6  0  0  0
 15 24  1  0  0  0  0
 17 26  1  0  0  0  0
 18 10  1  0  0  0  0
 18 19  1  6  0  0  0
 20 21  1  6  0  0  0
 20 29  1  0  0  0  0
 22 13  1  0  0  0  0
 22 23  1  1  0  0  0
 24 25  1  6  0  0  0
 24 33  1  0  0  0  0
 26 27  1  1  0  0  0
 26 35  1  0  0  0  0
 28  2  1  6  0  0  0
 28 18  1  0  0  0  0
 29 30  1  0  0  0  0
 29 39  1  1  0  0  0
 31 22  1  0  0  0  0
 31 32  1  1  0  0  0
 31 41  1  0  0  0  0
 33 34  1  1  0  0  0
 33 43  1  0  0  0  0
 35 36  1  0  0  0  0
 35 45  1  6  0  0  0
 37 28  1  0  0  0  0
 37 38  1  6  0  0  0
 39 40  1  0  0  0  0
 41 42  1  0  0  0  0
 41 49  1  1  0  0  0
 43 44  1  0  0  0  0
 43 51  1  6  0  0  0
 45 46  1  0  0  0  0
 47 37  1  0  0  0  0
 47 48  1  1  0  0  0
 49 50  1  0  0  0  0
 51 52  1  0  0  0  0
M  END
>  <CHROM.1>
170.66742311,40.65650115,-170.04903687,163.23820933,-126.47840676,-135.44332893
-51.36103726,148.93487529,-67.45946329,74.23535658,86.86638161,117.82389938
6.20824407,9.94101508,15.00800376,0.92230718,-1.43173822,0.87789554

>  <Name>
2esj_lig

>  <RI>
224

>  <Rbt.Current_Directory>
/home/itssahil/PROJECTS/Mol_Feturizer/New_Systems/rnas/2esj

>  <Rbt.Executable>
rbdock ($Id: //depot/dev/client3/rdock/2013.1/src/exe/rbdock.cxx#4 $)

>  <Rbt.Library>
libRbt.so (2013.1, Build901 2013/11/27)

>  <Rbt.Parameter_File>
/export/apps/rDock/src/rDock_2013.1_src/data/scripts/dock_solv.prm

>  <Rbt.Receptor>
prm/blind_docking_100.prm

>  <SCORE>
4.63828

>  <SCORE.INTER>
-12.4213

>  <SCORE.INTER.CONST>
1

>  <SCORE.INTER.POLAR>
-1.11891

>  <SCORE.INTER.ROT>
12

>  <SCORE.INTER.SOLV>
21.4173

>  <SCORE.INTER.VDW>
-23.2903

>  <SCORE.INTER.norm>
-0.238872

>  <SCORE.INTRA>
13.5629

>  <SCORE.INTRA.DIHEDRAL>
-4.94285

>  <SCORE.INTRA.DIHEDRAL.0>
32.9766

>  <SCORE.INTRA.POLAR>
0

>  <SCORE.INTRA.POLAR.0>
0

>  <SCORE.INTRA.REPUL>
0.026952

>  <SCORE.INTRA.REPUL.0>
0

>  <SCORE.INTRA.SOLV>
11.525

>  <SCORE.INTRA.SOLV.lig_0>
-114.358

>  <SCORE.INTRA.VDW>
10.1371

>  <SCORE.INTRA.VDW.0>
-8.24257

>  <SCORE.INTRA.norm>
0.260826

>  <SCORE.RESTR>
3.49668

>  <SCORE.RESTR.CAVITY>
3.49668

>  <SCORE.RESTR.norm>
0.0672438

>  <SCORE.SYSTEM>
0

>  <SCORE.SYSTEM.CONST>
0

>  <SCORE.SYSTEM.DIHEDRAL>
0

>  <SCORE.SYSTEM.SOLV>
0

>  <SCORE.SYSTEM.norm>
0

>  <SCORE.heavy>
52

>  <SCORE.norm>
0.0891977

>  <RMSD>
22.953

$$$$
2esj_lig
 OpenBabel11021811423D
libRbt.so/2013.1/901 2013/11/27
 52 56  0  0  0  0  0  0  0  0999 V2000
    4.1960    7.0516   18.7447 C   0  0  2  0  0  0  0  0  0  0  0  0
    4.1132    7.8361   17.5395 O   0  0  0  0  0  0  0  0  0  0  0  0
    7.8507    6.8264   15.7230 C   0  0  2  0  0  0  0  0  0  0  0  0
    9.0234    6.7385   14.8373 N   0  0  0  0  0  0  0  0  0  0  0  0
    6.1088   10.7650   17.0914 C   0  0  1  0  0  0  0  0  0  0  0  0
    5.7543   13.8156   14.5607 C   0  0  1  0  0  0  0  0  0  0  0  0
    5.5092   10.5043   10.6161 C   0  0  1  0  0  0  0  0  0  0  0  0
    2.7410    6.7135   19.1847 C   0  0  2  0  0  0  0  0  0  0  0  0
    1.9915    6.0240   18.1349 N   0  0  0  0  0  0  0  0  0  0  0  0
    6.5258    6.5422   14.9098 C   0  0  0  0  0  0  0  0  0  0  0  0
    6.8075   12.0237   17.6070 C   0  0  2  0  0  0  0  0  0  0  0  0
    6.0069   12.7424   18.5702 O   0  0  0  0  0  0  0  0  0  0  0  0
    4.7298   12.8279   13.8424 C   0  0  2  0  0  0  0  0  0  0  0  0
    5.0835   11.4076   14.1047 N   0  0  0  0  0  0  0  0  0  0  0  0
    4.0907   10.8141   11.0801 C   0  0  1  0  0  0  0  0  0  0  0  0
    3.1798   10.6229    9.9791 O   0  0  0  0  0  0  0  0  0  0  0  0
    1.9769    8.0036   19.6214 C   0  0  0  0  0  0  0  0  0  0  0  0
    5.2840    6.5825   15.8885 C   0  0  2  0  0  0  0  0  0  0  0  0
    4.0383    6.3348   15.1551 N   0  0  0  0  0  0  0  0  0  0  0  0
    7.0303   12.7608   16.3181 C   0  0  2  0  0  0  0  0  0  0  0  0
    5.8351   13.3532   15.8769 O   0  0  0  0  0  0  0  0  0  0  0  0
    4.6247   13.2218   12.3033 C   0  0  1  0  0  0  0  0  0  0  0  0
    4.3443   14.6218   12.2022 O   0  0  0  0  0  0  0  0  0  0  0  0
    3.5925    9.9789   12.2534 C   0  0  1  0  0  0  0  0  0  0  0  0
    2.1905   10.2356   12.3908 O   0  0  0  0  0  0  0  0  0  0  0  0
    2.8054    8.7309   20.7215 C   0  0  2  0  0  0  0  0  0  0  0  0
    2.1314    9.8727   21.2199 O   0  0  0  0  0  0  0  0  0  0  0  0
    5.2169    7.9475   16.6216 C   0  0  2  0  0  0  0  0  0  0  0  0
    7.3245   11.6792   15.2582 C   0  0  2  0  0  0  0  0  0  0  0  0
    6.5844   10.5740   15.7518 O   0  0  0  0  0  0  0  0  0  0  0  0
    6.0033   13.0025   11.5546 C   0  0  2  0  0  0  0  0  0  0  0  0
    6.2333   11.5957   11.6456 O   0  0  0  0  0  0  0  0  0  0  0  0
    3.8179    8.4758   12.0799 C   0  0  2  0  0  0  0  0  0  0  0  0
    3.5952    7.8701   13.3638 O   0  0  0  0  0  0  0  0  0  0  0  0
    4.1879    9.0987   20.1278 C   0  0  2  0  0  0  0  0  0  0  0  0
    4.8458    7.8527   19.7596 O   0  0  0  0  0  0  0  0  0  0  0  0
    6.5399    8.3479   17.3498 C   0  0  2  0  0  0  0  0  0  0  0  0
    6.3910    9.6711   17.9358 O   0  0  0  0  0  0  0  0  0  0  0  0
    8.7878   11.2727   15.0880 C   0  0  0  0  0  0  0  0  0  0  0  0
    9.5395   12.4653   14.8194 O   0  0  0  0  0  0  0  0  0  0  0  0
    7.0559   13.6456   12.4370 C   0  0  1  0  0  0  0  0  0  0  0  0
    7.1071   13.7777   13.8738 O   0  0  0  0  0  0  0  0  0  0  0  0
    5.1868    8.1816   11.4767 C   0  0  2  0  0  0  0  0  0  0  0  0
    5.8048    9.0881   10.5503 O   0  0  0  0  0  0  0  0  0  0  0  0
    5.0894    9.7615   21.1129 C   0  0  0  0  0  0  0  0  0  0  0  0
    4.6026   11.0656   21.3193 O   0  0  0  0  0  0  0  0  0  0  0  0
    7.7628    8.2522   16.3764 C   0  0  1  0  0  0  0  0  0  0  0  0
    8.9618    8.4476   17.1723 O   0  0  0  0  0  0  0  0  0  0  0  0
    8.5121   13.6645   11.8784 C   0  0  0  0  0  0  0  0  0  0  0  0
    8.8536   12.4617   11.0902 N   0  0  0  0  0  0  0  0  0  0  0  0
    5.6804    6.7671   11.1813 C   0  0  0  0  0  0  0  0  0  0  0  0
    5.1997    5.8514   12.2007 O   0  0  0  0  0  0  0  0  0  0  0  0
  1  2  1  6  0  0  0
  1  8  1  0  0  0  0
  1 36  1  0  0  0  0
  3  4  1  6  0  0  0
  3 10  1  0  0  0  0
  3 47  1  0  0  0  0
  5 11  1  0  0  0  0
  5 30  1  0  0  0  0
  5 38  1  1  0  0  0
  6 21  1  1  0  0  0
  6 42  1  0  0  0  0
  7 15  1  0  0  0  0
  7 44  1  0  0  0  0
  7 32  1  1  0  0  0
  8  9  1  6  0  0  0
  8 17  1  0  0  0  0
 11 12  1  1  0  0  0
 11 20  1  0  0  0  0
 13  6  1  0  0  0  0
 13 14  1  6  0  0  0
 15 16  1  6  0  0  0
 15 24  1  0  0  0  0
 17 26  1  0  0  0  0
 18 10  1  0  0  0  0
 18 19  1  6  0  0  0
 20 21  1  6  0  0  0
 20 29  1  0  0  0  0
 22 13  1  0  0  0  0
 22 23  1  1  0  0  0
 24 25  1  6  0  0  0
 24 33  1  0  0  0  0
 26 27  1  6  0  0  0
 26 35  1  0  0  0  0
 28  2  1  1  0  0  0
 28 18  1  0  0  0  0
 29 30  1  0  0  0  0
 29 39  1  1  0  0  0
 31 22  1  0  0  0  0
 31 32  1  1  0  0  0
 31 41  1  0  0  0  0
 33 34  1  1  0  0  0
 33 43  1  0  0  0  0
 35 36  1  0  0  0  0
 35 45  1  1  0  0  0
 37 28  1  0  0  0  0
 37 38  1  6  0  0  0
 39 40  1  0  0  0  0
 41 42  1  0  0  0  0
 41 49  1  1  0  0  0
 43 44  1  0  0  0  0
 43 51  1  6  0  0  0
 45 46  1  0  0  0  0
 47 37  1  0  0  0  0
 47 48  1  1  0  0  0
 49 50  1  0  0  0  0
 51 52  1  0  0  0  0
M  END
>  <CHROM.1>
-158.81029223,-144.75545727,110.97476025,-63.51512963,-165.35231062,73.78711811
-55.09923251,81.03133385,-72.59027602,-60.03587783,-35.23915286,-35.72257560
5.50536316,9.97639105,15.24718155,2.12657182,1.17005556,1.46121356

>  <Name>
2esj_lig

>  <RI>
224

>  <Rbt.Current_Directory>
/home/itssahil/PROJECTS/Mol_Feturizer/New_Systems/rnas/2esj

>  <Rbt.Executable>
rbdock ($Id: //depot/dev/client3/rdock/2013.1/src/exe/rbdock.cxx#4 $)

>  <Rbt.Library>
libRbt.so (2013.1, Build901 2013/11/27)

>  <Rbt.Parameter_File>
/export/apps/rDock/src/rDock_2013.1_src/data/scripts/dock_solv.prm

>  <Rbt.Receptor>
prm/blind_docking_100.prm

>  <SCORE>
18.4084

>  <SCORE.INTER>
-0.328719

>  <SCORE.INTER.CONST>
1

>  <SCORE.INTER.POLAR>
-0.139865

>  <SCORE.INTER.ROT>
12

>  <SCORE.INTER.SOLV>
20.1185

>  <SCORE.INTER.VDW>
-18.0591

>  <SCORE.INTER.norm>
-0.00632153

>  <SCORE.INTRA>
10.0695

>  <SCORE.INTRA.DIHEDRAL>
-9.53167

>  <SCORE.INTRA.DIHEDRAL.0>
32.9766

>  <SCORE.INTRA.POLAR>
0

>  <SCORE.INTRA.POLAR.0>
0

>  <SCORE.INTRA.REPUL>
0

>  <SCORE.INTRA.REPUL.0>
0

>  <SCORE.INTRA.SOLV>
11.3631

>  <SCORE.INTRA.SOLV.lig_0>
-114.358

>  <SCORE.INTRA.VDW>
9.15382

>  <SCORE.INTRA.VDW.0>
-8.24257

>  <SCORE.INTRA.norm>
0.193645

>  <SCORE.RESTR>
8.66761

>  <SCORE.RESTR.CAVITY>
8.66761

>  <SCORE.RESTR.norm>
0.166685

>  <SCORE.SYSTEM>
0

>  <SCORE.SYSTEM.CONST>
0

>  <SCORE.SYSTEM.DIHEDRAL>
0

>  <SCORE.SYSTEM.SOLV>
0

>  <SCORE.SYSTEM.norm>
0

>  <SCORE.heavy>
52

>  <SCORE.norm>
0.354008

>  <RMSD>
22.972

$$$$
2esj_lig
 OpenBabel11021811423D
libRbt.so/2013.1/901 2013/11/27
 52 56  0  0  0  0  0  0  0  0999 V2000
    5.4727   12.2150   16.5091 C   0  0  2  0  0  0  0  0  0  0  0  0
    6.8336   12.0911   16.0536 O   0  0  0  0  0  0  0  0  0  0  0  0
    8.1161   13.0876   12.0975 C   0  0  2  0  0  0  0  0  0  0  0  0
    8.5563   13.0479   10.6933 N   0  0  0  0  0  0  0  0  0  0  0  0
    4.5207   10.8029   13.2878 C   0  0  1  0  0  0  0  0  0  0  0  0
    4.4222    7.9154   11.7026 C   0  0  1  0  0  0  0  0  0  0  0  0
    6.6808    6.8495   14.8291 C   0  0  1  0  0  0  0  0  0  0  0  0
    5.3980   13.4711   17.4265 C   0  0  2  0  0  0  0  0  0  0  0  0
    5.8582   14.6813   16.7461 N   0  0  0  0  0  0  0  0  0  0  0  0
    9.0868   12.2287   13.0017 C   0  0  0  0  0  0  0  0  0  0  0  0
    3.0056   10.6011   13.2384 C   0  0  2  0  0  0  0  0  0  0  0  0
    2.4929    9.9845   14.4394 O   0  0  0  0  0  0  0  0  0  0  0  0
    4.3783    6.3505   12.0032 C   0  0  2  0  0  0  0  0  0  0  0  0
    4.0987    6.0899   13.4402 N   0  0  0  0  0  0  0  0  0  0  0  0
    7.1579    5.8527   15.8790 C   0  0  1  0  0  0  0  0  0  0  0  0
    7.8563    6.5615   16.9221 O   0  0  0  0  0  0  0  0  0  0  0  0
    6.2202   13.2542   18.7364 C   0  0  0  0  0  0  0  0  0  0  0  0
    8.6330   12.3315   14.5133 C   0  0  2  0  0  0  0  0  0  0  0  0
    9.5109   11.5310   15.3732 N   0  0  0  0  0  0  0  0  0  0  0  0
    2.8826    9.7500   12.0077 C   0  0  2  0  0  0  0  0  0  0  0  0
    3.2591    8.4251   12.2858 O   0  0  0  0  0  0  0  0  0  0  0  0
    5.7095    5.6791   11.4444 C   0  0  1  0  0  0  0  0  0  0  0  0
    5.8836    6.0652   10.0772 O   0  0  0  0  0  0  0  0  0  0  0  0
    6.0616    5.0180   16.5299 C   0  0  1  0  0  0  0  0  0  0  0  0
    6.6552    4.3265   17.6343 O   0  0  0  0  0  0  0  0  0  0  0  0
    5.7279   11.9490   19.4291 C   0  0  2  0  0  0  0  0  0  0  0  0
    6.3804   11.7315   20.6673 O   0  0  0  0  0  0  0  0  0  0  0  0
    7.1600   11.8721   14.6684 C   0  0  2  0  0  0  0  0  0  0  0  0
    3.9710   10.2515   11.0365 C   0  0  2  0  0  0  0  0  0  0  0  0
    4.9720   10.7143   11.9292 O   0  0  0  0  0  0  0  0  0  0  0  0
    6.9906    6.2107   12.2096 C   0  0  2  0  0  0  0  0  0  0  0  0
    6.7994    5.7794   13.5578 O   0  0  0  0  0  0  0  0  0  0  0  0
    4.8728    5.8420   17.0277 C   0  0  2  0  0  0  0  0  0  0  0  0
    3.8145    4.9141   17.3172 O   0  0  0  0  0  0  0  0  0  0  0  0
    5.9473   10.7663   18.4533 C   0  0  2  0  0  0  0  0  0  0  0  0
    5.1423   11.0281   17.2682 O   0  0  0  0  0  0  0  0  0  0  0  0
    6.1594   12.5994   13.7139 C   0  0  2  0  0  0  0  0  0  0  0  0
    4.8274   12.0413   13.8890 O   0  0  0  0  0  0  0  0  0  0  0  0
    3.5716   11.3853   10.0927 C   0  0  0  0  0  0  0  0  0  0  0  0
    2.5844   12.1805   10.7656 O   0  0  0  0  0  0  0  0  0  0  0  0
    6.8523    7.7207   12.2410 C   0  0  1  0  0  0  0  0  0  0  0  0
    5.6667    8.5423   12.3036 O   0  0  0  0  0  0  0  0  0  0  0  0
    4.4944    6.9347   16.0340 C   0  0  2  0  0  0  0  0  0  0  0  0
    5.4844    7.5707   15.2111 O   0  0  0  0  0  0  0  0  0  0  0  0
    5.4652    9.4640   18.9955 C   0  0  0  0  0  0  0  0  0  0  0  0
    4.6565    9.7454   20.1121 O   0  0  0  0  0  0  0  0  0  0  0  0
    6.6539   12.5290   12.2298 C   0  0  1  0  0  0  0  0  0  0  0  0
    5.7818   13.3853   11.4453 O   0  0  0  0  0  0  0  0  0  0  0  0
    8.0465    8.5141   12.8551 C   0  0  0  0  0  0  0  0  0  0  0  0
    8.9530    7.6746   13.6665 N   0  0  0  0  0  0  0  0  0  0  0  0
    3.3503    7.9175   16.2722 C   0  0  0  0  0  0  0  0  0  0  0  0
    2.5670    7.4975   17.4206 O   0  0  0  0  0  0  0  0  0  0  0  0
  1  2  1  1  0  0  0
  1  8  1  0  0  0  0
  1 36  1  0  0  0  0
  3  4  1  6  0  0  0
  3 10  1  0  0  0  0
  3 47  1  0  0  0  0
  5 11  1  0  0  0  0
  5 30  1  0  0  0  0
  5 38  1  6  0  0  0
  6 21  1  1  0  0  0
  6 42  1  0  0  0  0
  7 15  1  0  0  0  0
  7 44  1  0  0  0  0
  7 32  1  6  0  0  0
  8  9  1  6  0  0  0
  8 17  1  0  0  0  0
 11 12  1  1  0  0  0
 11 20  1  0  0  0  0
 13  6  1  0  0  0  0
 13 14  1  1  0  0  0
 15 16  1  1  0  0  0
 15 24  1  0  0  0  0
 17 26  1  0  0  0  0
 18 10  1  0  0  0  0
 18 19  1  1  0  0  0
 20 21  1  1  0  0  0
 20 29  1  0  0  0  0
 22 13  1  0  0  0  0
 22 23  1  6  0  0  0
 24 25  1  1  0  0  0
 24 33  1  0  0  0  0
 26 27  1  1  0  0  0
 26 35  1  0  0  0  0
 28  2  1  1  0  0  0
 28 18  1  0  0  0  0
 29 30  1  0  0  0  0
 29 39  1  6  0  0  0
 31 22  1  0  0  0  0
 31 32  1  1  0  0  0
 31 41  1  0  0  0  0
 33 34  1  6  0  0  0
 33 43  1  0  0  0  0
 35 36  1  0  0  0  0
 35 45  1  1  0  0  0
 37 28  1  0  0  0  0
 37 38  1  6  0  0  0
 39 40  1  0  0  0  0
 41 42  1  0  0  0  0
 41 49  1  1  0  0  0
 43 44  1  0  0  0  0
 43 51  1  1  0  0  0
 45 46  1  0  0  0  0
 47 37  1  0  0  0  0
 47 48  1  6  0  0  0
 49 50  1  0  0  0  0
 51 52  1  0  0  0  0
M  END
>  <CHROM.1>
-131.98160530,-163.36582089,-169.45424231,-154.76303778,-112.30704482,158.95016043
30.61377797,-118.82560915,13.99638562,-78.02526500,-16.93078080,-10.28966746
5.65613529,9.49844625,14.59860788,-0.61891191,1.44063462,1.89438718

>  <Name>
2esj_lig

>  <RI>
224

>  <Rbt.Current_Directory>
/home/itssahil/PROJECTS/Mol_Feturizer/New_Systems/rnas/2esj

>  <Rbt.Executable>
rbdock ($Id: //depot/dev/client3/rdock/2013.1/src/exe/rbdock.cxx#4 $)

>  <Rbt.Library>
libRbt.so (2013.1, Build901 2013/11/27)

>  <Rbt.Parameter_File>
/export/apps/rDock/src/rDock_2013.1_src/data/scripts/dock_solv.prm

>  <Rbt.Receptor>
prm/blind_docking_100.prm

>  <SCORE>
23.8627

>  <SCORE.INTER>
-7.43027

>  <SCORE.INTER.CONST>
1

>  <SCORE.INTER.POLAR>
-0.616407

>  <SCORE.INTER.ROT>
12

>  <SCORE.INTER.SOLV>
27.6276

>  <SCORE.INTER.VDW>
-23.708

>  <SCORE.INTER.norm>
-0.14289

>  <SCORE.INTRA>
25.5379

>  <SCORE.INTRA.DIHEDRAL>
8.46773

>  <SCORE.INTRA.DIHEDRAL.0>
32.9766

>  <SCORE.INTRA.POLAR>
0

>  <SCORE.INTRA.POLAR.0>
0

>  <SCORE.INTRA.REPUL>
0.0367755

>  <SCORE.INTRA.REPUL.0>
0

>  <SCORE.INTRA.SOLV>
8.23161

>  <SCORE.INTRA.SOLV.lig_0>
-114.358

>  <SCORE.INTRA.VDW>
17.0044

>  <SCORE.INTRA.VDW.0>
-8.24257

>  <SCORE.INTRA.norm>
0.491114

>  <SCORE.RESTR>
5.75502

>  <SCORE.RESTR.CAVITY>
5.75502

>  <SCORE.RESTR.norm>
0.110673

>  <SCORE.SYSTEM>
0

>  <SCORE.SYSTEM.CONST>
0

>  <SCORE.SYSTEM.DIHEDRAL>
0

>  <SCORE.SYSTEM.SOLV>
0

>  <SCORE.SYSTEM.norm>
0

>  <SCORE.heavy>
52

>  <SCORE.norm>
0.458897

>  <RMSD>
23.003

$$$$
2esj_lig
 OpenBabel11021811423D
libRbt.so/2013.1/901 2013/11/27
 52 56  0  0  0  0  0  0  0  0999 V2000
    7.5873    8.1760   12.9822 C   0  0  2  0  0  0  0  0  0  0  0  0
    6.2310    8.0356   12.5180 O   0  0  0  0  0  0  0  0  0  0  0  0
    3.5493   11.0325   11.0634 C   0  0  2  0  0  0  0  0  0  0  0  0
    2.5297   12.0867   10.9348 N   0  0  0  0  0  0  0  0  0  0  0  0
    6.7427   11.5101   14.0789 C   0  0  1  0  0  0  0  0  0  0  0  0
    7.1371   11.5570   17.5855 C   0  0  1  0  0  0  0  0  0  0  0  0
    3.3523    8.4767   19.1814 C   0  0  1  0  0  0  0  0  0  0  0  0
    8.4310    7.0525   12.3108 C   0  0  2  0  0  0  0  0  0  0  0  0
    8.3465    7.0944   10.8512 N   0  0  0  0  0  0  0  0  0  0  0  0
    2.9324    9.7540   11.7580 C   0  0  0  0  0  0  0  0  0  0  0  0
    8.0330   11.6300   14.8908 C   0  0  2  0  0  0  0  0  0  0  0  0
    8.2765   10.4676   15.7124 O   0  0  0  0  0  0  0  0  0  0  0  0
    6.2022   10.3710   17.0750 C   0  0  2  0  0  0  0  0  0  0  0  0
    4.8013   10.8351   16.8932 N   0  0  0  0  0  0  0  0  0  0  0  0
    3.6341    7.8652   20.5490 C   0  0  1  0  0  0  0  0  0  0  0  0
    2.4260    7.2646   21.0572 O   0  0  0  0  0  0  0  0  0  0  0  0
    7.9952    5.6443   12.8268 C   0  0  0  0  0  0  0  0  0  0  0  0
    4.0248    8.6126   11.8337 C   0  0  2  0  0  0  0  0  0  0  0  0
    3.4810    7.4177   12.4874 N   0  0  0  0  0  0  0  0  0  0  0  0
    7.7534   12.8851   15.6657 C   0  0  2  0  0  0  0  0  0  0  0  0
    6.8665   12.6231   16.7236 O   0  0  0  0  0  0  0  0  0  0  0  0
    6.3762    9.1211   18.0457 C   0  0  1  0  0  0  0  0  0  0  0  0
    7.7710    8.8277   18.1767 O   0  0  0  0  0  0  0  0  0  0  0  0
    4.7322    6.8089   20.5760 C   0  0  1  0  0  0  0  0  0  0  0  0
    4.6919    6.1893   21.8663 O   0  0  0  0  0  0  0  0  0  0  0  0
    8.0714    5.6329   14.3824 C   0  0  2  0  0  0  0  0  0  0  0  0
    7.7622    4.3576   14.9154 O   0  0  0  0  0  0  0  0  0  0  0  0
    5.2822    9.1164   12.5887 C   0  0  2  0  0  0  0  0  0  0  0  0
    6.9458   13.7958   14.7181 C   0  0  2  0  0  0  0  0  0  0  0  0
    6.2560   12.8496   13.9169 O   0  0  0  0  0  0  0  0  0  0  0  0
    5.8649    9.4492   19.5086 C   0  0  2  0  0  0  0  0  0  0  0  0
    4.4686    9.7024   19.3448 O   0  0  0  0  0  0  0  0  0  0  0  0
    4.5838    5.7375   19.4943 C   0  0  2  0  0  0  0  0  0  0  0  0
    5.8272    5.0188   19.4463 O   0  0  0  0  0  0  0  0  0  0  0  0
    7.1167    6.7249   14.9255 C   0  0  2  0  0  0  0  0  0  0  0  0
    7.5912    8.0052   14.4192 O   0  0  0  0  0  0  0  0  0  0  0  0
    5.8754   10.4478   12.0261 C   0  0  2  0  0  0  0  0  0  0  0  0
    6.9987   10.8663   12.8504 O   0  0  0  0  0  0  0  0  0  0  0  0
    7.7542   14.7283   13.8167 C   0  0  0  0  0  0  0  0  0  0  0  0
    8.4355   15.6652   14.6638 O   0  0  0  0  0  0  0  0  0  0  0  0
    6.4824   10.7869   19.8684 C   0  0  1  0  0  0  0  0  0  0  0  0
    6.8160   11.9110   19.0259 O   0  0  0  0  0  0  0  0  0  0  0  0
    4.1576    6.3434   18.1618 C   0  0  2  0  0  0  0  0  0  0  0  0
    3.3198    7.5081   18.1053 O   0  0  0  0  0  0  0  0  0  0  0  0
    7.1431    6.8377   16.4118 C   0  0  0  0  0  0  0  0  0  0  0  0
    6.7681    5.5871   16.9366 O   0  0  0  0  0  0  0  0  0  0  0  0
    4.7666   11.5476   11.9120 C   0  0  1  0  0  0  0  0  0  0  0  0
    5.3506   12.6750   11.2068 O   0  0  0  0  0  0  0  0  0  0  0  0
    6.2218   11.3041   21.3166 C   0  0  0  0  0  0  0  0  0  0  0  0
    6.9464   12.5531   21.6326 N   0  0  0  0  0  0  0  0  0  0  0  0
    3.9226    5.5092   16.9046 C   0  0  0  0  0  0  0  0  0  0  0  0
    2.5828    4.9493   16.9245 O   0  0  0  0  0  0  0  0  0  0  0  0
  1  2  1  6  0  0  0
  1  8  1  0  0  0  0
  1 36  1  0  0  0  0
  3  4  1  1  0  0  0
  3 10  1  0  0  0  0
  3 47  1  0  0  0  0
  5 11  1  0  0  0  0
  5 30  1  0  0  0  0
  5 38  1  6  0  0  0
  6 21  1  6  0  0  0
  6 42  1  0  0  0  0
  7 15  1  0  0  0  0
  7 44  1  0  0  0  0
  7 32  1  6  0  0  0
  8  9  1  6  0  0  0
  8 17  1  0  0  0  0
 11 12  1  1  0  0  0
 11 20  1  0  0  0  0
 13  6  1  0  0  0  0
 13 14  1  1  0  0  0
 15 16  1  6  0  0  0
 15 24  1  0  0  0  0
 17 26  1  0  0  0  0
 18 10  1  0  0  0  0
 18 19  1  1  0  0  0
 20 21  1  1  0  0  0
 20 29  1  0  0  0  0
 22 13  1  0  0  0  0
 22 23  1  1  0  0  0
 24 25  1  1  0  0  0
 24 33  1  0  0  0  0
 26 27  1  1  0  0  0
 26 35  1  0  0  0  0
 28  2  1  6  0  0  0
 28 18  1  0  0  0  0
 29 30  1  0  0  0  0
 29 39  1  6  0  0  0
 31 22  1  0  0  0  0
 31 32  1  6  0  0  0
 31 41  1  0  0  0  0
 33 34  1  6  0  0  0
 33 43  1  0  0  0  0
 35 36  1  0  0  0  0
 35 45  1  1  0  0  0
 37 28  1  0  0  0  0
 37 38  1  1  0  0  0
 39 40  1  0  0  0  0
 41 42  1  0  0  0  0
 41 49  1  1  0  0  0
 43 44  1  0  0  0  0
 43 51  1  6  0  0  0
 45 46  1  0  0  0  0
 47 37  1  0  0  0  0
 47 48  1  6  0  0  0
 49 50  1  0  0  0  0
 51 52  1  0  0  0  0
M  END
>  <CHROM.1>
-160.14811087,169.66513435,-99.77034091,61.66984996,50.14048870,173.03159845
-65.05396119,78.81588069,-59.22417483,-79.11469860,175.09024333,83.17627034
5.91257026,9.23567468,15.93922737,0.65117085,-1.36507662,-1.99140698

>  <Name>
2esj_lig

>  <RI>
224

>  <Rbt.Current_Directory>
/home/itssahil/PROJECTS/Mol_Feturizer/New_Systems/rnas/2esj

>  <Rbt.Executable>
rbdock ($Id: //depot/dev/client3/rdock/2013.1/src/exe/rbdock.cxx#4 $)

>  <Rbt.Library>
libRbt.so (2013.1, Build901 2013/11/27)

>  <Rbt.Parameter_File>
/export/apps/rDock/src/rDock_2013.1_src/data/scripts/dock_solv.prm

>  <Rbt.Receptor>
prm/blind_docking_100.prm

>  <SCORE>
12.6679

>  <SCORE.INTER>
4.85779

>  <SCORE.INTER.CONST>
1

>  <SCORE.INTER.POLAR>
-0.405589

>  <SCORE.INTER.ROT>
12

>  <SCORE.INTER.SOLV>
24.5723

>  <SCORE.INTER.VDW>
-15.2003

>  <SCORE.INTER.norm>
0.0934191

>  <SCORE.INTRA>
1.47241

>  <SCORE.INTRA.DIHEDRAL>
-15.6823

>  <SCORE.INTRA.DIHEDRAL.0>
32.9766

>  <SCORE.INTRA.POLAR>
0

>  <SCORE.INTRA.POLAR.0>
0

>  <SCORE.INTRA.REPUL>
0

>  <SCORE.INTRA.REPUL.0>
0

>  <SCORE.INTRA.SOLV>
1.33002

>  <SCORE.INTRA.SOLV.lig_0>
-114.358

>  <SCORE.INTRA.VDW>
8.64854

>  <SCORE.INTRA.VDW.0>
-8.24257

>  <SCORE.INTRA.norm>
0.0283156

>  <SCORE.RESTR>
6.33772

>  <SCORE.RESTR.CAVITY>
6.33772

>  <SCORE.RESTR.norm>
0.121879

>  <SCORE.SYSTEM>
0

>  <SCORE.SYSTEM.CONST>
0

>  <SCORE.SYSTEM.DIHEDRAL>
0

>  <SCORE.SYSTEM.SOLV>
0

>  <SCORE.SYSTEM.norm>
0

>  <SCORE.heavy>
52

>  <SCORE.norm>
0.243614

>  <RMSD>
23.005

$$$$
2esj_lig
 OpenBabel11021811423D
libRbt.so/2013.1/901 2013/11/27
 52 56  0  0  0  0  0  0  0  0999 V2000
    4.8076    8.1814   18.5821 C   0  0  2  0  0  0  0  0  0  0  0  0
    3.9446    8.4223   17.4543 O   0  0  0  0  0  0  0  0  0  0  0  0
    1.9013    4.6683   17.3136 C   0  0  2  0  0  0  0  0  0  0  0  0
    0.9567    3.5730   17.0387 N   0  0  0  0  0  0  0  0  0  0  0  0
    4.3691    8.1094   14.8164 C   0  0  1  0  0  0  0  0  0  0  0  0
    6.3276   11.2880   14.2383 C   0  0  1  0  0  0  0  0  0  0  0  0
    6.4103   15.8216   15.4790 C   0  0  1  0  0  0  0  0  0  0  0  0
    5.8187    9.3632   18.6595 C   0  0  2  0  0  0  0  0  0  0  0  0
    5.1482   10.6598   18.7523 N   0  0  0  0  0  0  0  0  0  0  0  0
    1.1394    5.9091   17.9280 C   0  0  0  0  0  0  0  0  0  0  0  0
    5.4948    8.4286   13.8318 C   0  0  2  0  0  0  0  0  0  0  0  0
    6.7586    8.6520   14.4940 O   0  0  0  0  0  0  0  0  0  0  0  0
    6.1056   12.3810   15.3774 C   0  0  2  0  0  0  0  0  0  0  0  0
    4.9930   13.3022   15.0247 N   0  0  0  0  0  0  0  0  0  0  0  0
    7.7492   16.4349   15.8723 C   0  0  1  0  0  0  0  0  0  0  0  0
    7.5269   17.7563   16.4041 O   0  0  0  0  0  0  0  0  0  0  0  0
    6.7839    9.3522   17.4317 C   0  0  0  0  0  0  0  0  0  0  0  0
    2.1775    7.0519   18.2712 C   0  0  2  0  0  0  0  0  0  0  0  0
    1.4934    8.2220   18.8313 N   0  0  0  0  0  0  0  0  0  0  0  0
    4.9303    9.6440   13.1549 C   0  0  2  0  0  0  0  0  0  0  0  0
    5.0543   10.7715   13.9841 O   0  0  0  0  0  0  0  0  0  0  0  0
    7.4953   13.0928   15.6888 C   0  0  1  0  0  0  0  0  0  0  0  0
    8.4819   12.0884   15.9468 O   0  0  0  0  0  0  0  0  0  0  0  0
    8.5516   15.6437   16.8982 C   0  0  1  0  0  0  0  0  0  0  0  0
    9.6411   16.4739   17.3153 O   0  0  0  0  0  0  0  0  0  0  0  0
    7.4668    7.9554   17.3413 C   0  0  2  0  0  0  0  0  0  0  0  0
    8.4164    7.9004   16.2918 O   0  0  0  0  0  0  0  0  0  0  0  0
    2.9815    7.4503   17.0063 C   0  0  2  0  0  0  0  0  0  0  0  0
    3.4080    9.4103   13.0676 C   0  0  2  0  0  0  0  0  0  0  0  0
    3.1672    8.6062   14.2115 O   0  0  0  0  0  0  0  0  0  0  0  0
    8.0232   13.9045   14.4352 C   0  0  2  0  0  0  0  0  0  0  0  0
    7.0349   14.9150   14.2287 O   0  0  0  0  0  0  0  0  0  0  0  0
    7.7389   15.2206   18.1232 C   0  0  2  0  0  0  0  0  0  0  0  0
    8.5221   14.2414   18.8250 O   0  0  0  0  0  0  0  0  0  0  0  0
    6.3628    6.8829   17.1683 C   0  0  2  0  0  0  0  0  0  0  0  0
    5.5148    6.9402   18.3508 O   0  0  0  0  0  0  0  0  0  0  0  0
    3.6645    6.2487   16.2780 C   0  0  2  0  0  0  0  0  0  0  0  0
    4.3236    6.7229   15.0708 O   0  0  0  0  0  0  0  0  0  0  0  0
    2.9009    8.6834   11.8225 C   0  0  0  0  0  0  0  0  0  0  0  0
    3.1712    9.5239   10.6911 O   0  0  0  0  0  0  0  0  0  0  0  0
    7.8960   12.9624   13.2535 C   0  0  1  0  0  0  0  0  0  0  0  0
    6.9290   11.9213   12.9972 O   0  0  0  0  0  0  0  0  0  0  0  0
    6.3441   14.7450   17.7320 C   0  0  2  0  0  0  0  0  0  0  0  0
    5.6565   15.2996   16.6000 O   0  0  0  0  0  0  0  0  0  0  0  0
    6.9005    5.4934   17.1176 C   0  0  0  0  0  0  0  0  0  0  0  0
    5.8323    4.6176   17.3864 O   0  0  0  0  0  0  0  0  0  0  0  0
    2.6298    5.1083   15.9934 C   0  0  1  0  0  0  0  0  0  0  0  0
    3.3759    3.9647   15.4988 O   0  0  0  0  0  0  0  0  0  0  0  0
    8.4499   13.4804   11.8905 C   0  0  0  0  0  0  0  0  0  0  0  0
    7.3923   13.7686   10.8991 N   0  0  0  0  0  0  0  0  0  0  0  0
    5.3093   14.2716   18.7502 C   0  0  0  0  0  0  0  0  0  0  0  0
    5.1067   15.2929   19.7625 O   0  0  0  0  0  0  0  0  0  0  0  0
  1  2  1  6  0  0  0
  1  8  1  0  0  0  0
  1 36  1  0  0  0  0
  3  4  1  6  0  0  0
  3 10  1  0  0  0  0
  3 47  1  0  0  0  0
  5 11  1  0  0  0  0
  5 30  1  0  0  0  0
  5 38  1  6  0  0  0
  6 21  1  6  0  0  0
  6 42  1  0  0  0  0
  7 15  1  0  0  0  0
  7 44  1  0  0  0  0
  7 32  1  6  0  0  0
  8  9  1  6  0  0  0
  8 17  1  0  0  0  0
 11 12  1  1  0  0  0
 11 20  1  0  0  0  0
 13  6  1  0  0  0  0
 13 14  1  6  0  0  0
 15 16  1  1  0  0  0
 15 24  1  0  0  0  0
 17 26  1  0  0  0  0
 18 10  1  0  0  0  0
 18 19  1  6  0  0  0
 20 21  1  1  0  0  0
 20 29  1  0  0  0  0
 22 13  1  0  0  0  0
 22 23  1  6  0  0  0
 24 25  1  1  0  0  0
 24 33  1  0  0  0  0
 26 27  1  6  0  0  0
 26 35  1  0  0  0  0
 28  2  1  1  0  0  0
 28 18  1  0  0  0  0
 29 30  1  0  0  0  0
 29 39  1  6  0  0  0
 31 22  1  0  0  0  0
 31 32  1  6  0  0  0
 31 41  1  0  0  0  0
 33 34  1  6  0  0  0
 33 43  1  0  0  0  0
 35 36  1  0  0  0  0
 35 45  1  1  0  0  0
 37 28  1  0  0  0  0
 37 38  1  6  0  0  0
 39 40  1  0  0  0  0
 41 42  1  0  0  0  0
 41 49  1  6  0  0  0
 43 44  1  0  0  0  0
 43 51  1  1  0  0  0
 45 46  1  0  0  0  0
 47 37  1  0  0  0  0
 47 48  1  1  0  0  0
 49 50  1  0  0  0  0
 51 52  1  0  0  0  0
M  END
>  <CHROM.1>
173.22816223,159.40995854,-171.05944502,61.23093560,68.88985354,51.10697823
-64.74407148,45.63974255,161.67393234,5.98497451,-110.28550341,54.55447917
5.57123378,10.41780988,15.94685287,-3.09592257,-1.15438977,-1.57946008

>  <Name>
2esj_lig

>  <RI>
0

>  <Rbt.Current_Directory>
/home/itssahil/PROJECTS/Mol_Feturizer/New_Systems/rnas/2esj

>  <Rbt.Executable>
rbdock ($Id: //depot/dev/client3/rdock/2013.1/src/exe/rbdock.cxx#4 $)

>  <Rbt.Library>
libRbt.so (2013.1, Build901 2013/11/27)

>  <Rbt.Parameter_File>
/export/apps/rDock/src/rDock_2013.1_src/data/scripts/dock_solv.prm

>  <Rbt.Receptor>
prm/blind_docking_80.prm

>  <SCORE>
-0.350909

>  <SCORE.INTER>
-4.79715

>  <SCORE.INTER.CONST>
1

>  <SCORE.INTER.POLAR>
-0.871231

>  <SCORE.INTER.ROT>
12

>  <SCORE.INTER.SOLV>
18.4459

>  <SCORE.INTER.VDW>
-18.0426

>  <SCORE.INTER.norm>
-0.092253

>  <SCORE.INTRA>
-0.602801

>  <SCORE.INTRA.DIHEDRAL>
-15.3138

>  <SCORE.INTRA.DIHEDRAL.0>
32.9766

>  <SCORE.INTRA.POLAR>
0

>  <SCORE.INTRA.POLAR.0>
0

>  <SCORE.INTRA.REPUL>
0

>  <SCORE.INTRA.REPUL.0>
0

>  <SCORE.INTRA.SOLV>
3.90603

>  <SCORE.INTRA.SOLV.lig_0>
-114.358

>  <SCORE.INTRA.VDW>
5.10109

>  <SCORE.INTRA.VDW.0>
-8.24257

>  <SCORE.INTRA.norm>
-0.0115923

>  <SCORE.RESTR>
5.04905

>  <SCORE.RESTR.CAVITY>
5.04905

>  <SCORE.RESTR.norm>
0.097097

>  <SCORE.SYSTEM>
0

>  <SCORE.SYSTEM.CONST>
0

>  <SCORE.SYSTEM.DIHEDRAL>
0

>  <SCORE.SYSTEM.SOLV>
0

>  <SCORE.SYSTEM.norm>
0

>  <SCORE.heavy>
52

>  <SCORE.norm>
-0.00674825

>  <RMSD>
23.020

$$$$
2esj_lig
 OpenBabel11021811423D
libRbt.so/2013.1/901 2013/11/27
 52 56  0  0  0  0  0  0  0  0999 V2000
    8.1571    7.5648   12.5762 C   0  0  2  0  0  0  0  0  0  0  0  0
    6.8087    7.6959   12.0868 O   0  0  0  0  0  0  0  0  0  0  0  0
    4.4246   11.1077   11.1052 C   0  0  2  0  0  0  0  0  0  0  0  0
    3.5453   12.2876   11.1478 N   0  0  0  0  0  0  0  0  0  0  0  0
    7.9203   10.4873   13.9305 C   0  0  1  0  0  0  0  0  0  0  0  0
    7.7269   11.4706   17.9686 C   0  0  1  0  0  0  0  0  0  0  0  0
    3.3971    9.0071   19.7709 C   0  0  1  0  0  0  0  0  0  0  0  0
    8.6500    6.1327   12.2140 C   0  0  2  0  0  0  0  0  0  0  0  0
    8.5614    5.8635   10.7791 N   0  0  0  0  0  0  0  0  0  0  0  0
    3.7101    9.8661   11.7726 C   0  0  0  0  0  0  0  0  0  0  0  0
    8.5288   11.8182   14.3744 C   0  0  2  0  0  0  0  0  0  0  0  0
    9.9566   11.7319   14.5725 O   0  0  0  0  0  0  0  0  0  0  0  0
    7.3804   10.0115   18.5092 C   0  0  2  0  0  0  0  0  0  0  0  0
    6.5706    9.2531   17.5193 N   0  0  0  0  0  0  0  0  0  0  0  0
    4.3953    7.8723   19.9694 C   0  0  1  0  0  0  0  0  0  0  0  0
    4.0139    7.1034   21.1277 O   0  0  0  0  0  0  0  0  0  0  0  0
    7.8499    5.0508   13.0067 C   0  0  0  0  0  0  0  0  0  0  0  0
    4.6451    8.5950   11.6646 C   0  0  2  0  0  0  0  0  0  0  0  0
    4.0100    7.4302   12.2896 N   0  0  0  0  0  0  0  0  0  0  0  0
    7.7463   12.0719   15.6304 C   0  0  2  0  0  0  0  0  0  0  0  0
    8.2230   11.2663   16.6783 O   0  0  0  0  0  0  0  0  0  0  0  0
    6.7284   10.1377   19.9564 C   0  0  1  0  0  0  0  0  0  0  0  0
    7.5805   10.9413   20.7792 O   0  0  0  0  0  0  0  0  0  0  0  0
    4.5336    6.9136   18.7930 C   0  0  1  0  0  0  0  0  0  0  0  0
    5.3165    5.8022   19.2423 O   0  0  0  0  0  0  0  0  0  0  0  0
    7.9401    5.3725   14.5279 C   0  0  2  0  0  0  0  0  0  0  0  0
    7.2984    4.3845   15.3141 O   0  0  0  0  0  0  0  0  0  0  0  0
    6.0208    8.8778   12.3221 C   0  0  2  0  0  0  0  0  0  0  0  0
    6.3268   11.5319   15.3603 C   0  0  2  0  0  0  0  0  0  0  0  0
    6.5816   10.4777   14.4456 O   0  0  0  0  0  0  0  0  0  0  0  0
    5.3398   10.8979   19.9009 C   0  0  2  0  0  0  0  0  0  0  0  0
    4.5081   10.0538   19.1034 O   0  0  0  0  0  0  0  0  0  0  0  0
    3.1964    6.4057   18.2510 C   0  0  2  0  0  0  0  0  0  0  0  0
    3.4688    5.7854   16.9838 O   0  0  0  0  0  0  0  0  0  0  0  0
    7.3302    6.7761   14.7666 C   0  0  2  0  0  0  0  0  0  0  0  0
    8.1324    7.7302   14.0136 O   0  0  0  0  0  0  0  0  0  0  0  0
    6.7309   10.1644   11.7914 C   0  0  2  0  0  0  0  0  0  0  0  0
    7.9692   10.3742   12.5255 O   0  0  0  0  0  0  0  0  0  0  0  0
    5.3323   12.5117   14.7385 C   0  0  0  0  0  0  0  0  0  0  0  0
    5.2880   13.6743   15.5788 O   0  0  0  0  0  0  0  0  0  0  0  0
    5.5846   12.1383   19.0632 C   0  0  1  0  0  0  0  0  0  0  0  0
    6.4874   12.3462   17.9558 O   0  0  0  0  0  0  0  0  0  0  0  0
    2.1568    7.5194   18.1937 C   0  0  2  0  0  0  0  0  0  0  0  0
    2.1569    8.5906   19.1499 O   0  0  0  0  0  0  0  0  0  0  0  0
    7.4059    7.2119   16.1903 C   0  0  0  0  0  0  0  0  0  0  0  0
    6.6380    6.3094   16.9492 O   0  0  0  0  0  0  0  0  0  0  0  0
    5.7707   11.3995   11.8604 C   0  0  1  0  0  0  0  0  0  0  0  0
    6.4319   12.4965   11.1758 O   0  0  0  0  0  0  0  0  0  0  0  0
    4.3908   13.1334   18.9320 C   0  0  0  0  0  0  0  0  0  0  0  0
    4.8149   14.5402   18.7715 N   0  0  0  0  0  0  0  0  0  0  0  0
    0.7273    7.3002   17.7035 C   0  0  0  0  0  0  0  0  0  0  0  0
    0.3596    5.9037   17.8561 O   0  0  0  0  0  0  0  0  0  0  0  0
  1  2  1  1  0  0  0
  1  8  1  0  0  0  0
  1 36  1  0  0  0  0
  3  4  1  1  0  0  0
  3 10  1  0  0  0  0
  3 47  1  0  0  0  0
  5 11  1  0  0  0  0
  5 30  1  0  0  0  0
  5 38  1  6  0  0  0
  6 21  1  6  0  0  0
  6 42  1  0  0  0  0
  7 15  1  0  0  0  0
  7 44  1  0  0  0  0
  7 32  1  6  0  0  0
  8  9  1  6  0  0  0
  8 17  1  0  0  0  0
 11 12  1  1  0  0  0
 11 20  1  0  0  0  0
 13  6  1  0  0  0  0
 13 14  1  6  0  0  0
 15 16  1  1  0  0  0
 15 24  1  0  0  0  0
 17 26  1  0  0  0  0
 18 10  1  0  0  0  0
 18 19  1  1  0  0  0
 20 21  1  1  0  0  0
 20 29  1  0  0  0  0
 22 13  1  0  0  0  0
 22 23  1  1  0  0  0
 24 25  1  1  0  0  0
 24 33  1  0  0  0  0
 26 27  1  1  0  0  0
 26 35  1  0  0  0  0
 28  2  1  6  0  0  0
 28 18  1  0  0  0  0
 29 30  1  0  0  0  0
 29 39  1  6  0  0  0
 31 22  1  0  0  0  0
 31 32  1  6  0  0  0
 31 41  1  0  0  0  0
 33 34  1  6  0  0  0
 33 43  1  0  0  0  0
 35 36  1  0  0  0  0
 35 45  1  1  0  0  0
 37 28  1  0  0  0  0
 37 38  1  1  0  0  0
 39 40  1  0  0  0  0
 41 42  1  0  0  0  0
 41 49  1  6  0  0  0
 43 44  1  0  0  0  0
 43 51  1  1  0  0  0
 45 46  1  0  0  0  0
 47 37  1  0  0  0  0
 47 48  1  6  0  0  0
 49 50  1  0  0  0  0
 51 52  1  0  0  0  0
M  END
>  <CHROM.1>
176.34511822,-122.69425029,133.27745594,-85.99978885,172.55073411,-178.75652774
-54.81261684,99.64026044,-62.82902891,-56.90727582,149.47852436,23.92689102
5.85764930,9.24503093,15.81765455,0.40934294,-1.16610189,-2.64027396

>  <Name>
2esj_lig

>  <RI>
224

>  <Rbt.Current_Directory>
/home/itssahil/PROJECTS/Mol_Feturizer/New_Systems/rnas/2esj

>  <Rbt.Executable>
rbdock ($Id: //depot/dev/client3/rdock/2013.1/src/exe/rbdock.cxx#4 $)

>  <Rbt.Library>
libRbt.so (2013.1, Build901 2013/11/27)

>  <Rbt.Parameter_File>
/export/apps/rDock/src/rDock_2013.1_src/data/scripts/dock_solv.prm

>  <Rbt.Receptor>
prm/blind_docking_100.prm

>  <SCORE>
29.1956

>  <SCORE.INTER>
19.1936

>  <SCORE.INTER.CONST>
1

>  <SCORE.INTER.POLAR>
0

>  <SCORE.INTER.ROT>
12

>  <SCORE.INTER.SOLV>
25.0423

>  <SCORE.INTER.VDW>
-7.15173

>  <SCORE.INTER.norm>
0.369107

>  <SCORE.INTRA>
4.05289

>  <SCORE.INTRA.DIHEDRAL>
-5.01774

>  <SCORE.INTRA.DIHEDRAL.0>
32.9766

>  <SCORE.INTRA.POLAR>
0

>  <SCORE.INTRA.POLAR.0>
0

>  <SCORE.INTRA.REPUL>
0

>  <SCORE.INTRA.REPUL.0>
0

>  <SCORE.INTRA.SOLV>
4.48079

>  <SCORE.INTRA.SOLV.lig_0>
-114.358

>  <SCORE.INTRA.VDW>
4.32136

>  <SCORE.INTRA.VDW.0>
-8.24257

>  <SCORE.INTRA.norm>
0.0779401

>  <SCORE.RESTR>
5.94912

>  <SCORE.RESTR.CAVITY>
5.94912

>  <SCORE.RESTR.norm>
0.114406

>  <SCORE.SYSTEM>
0

>  <SCORE.SYSTEM.CONST>
0

>  <SCORE.SYSTEM.DIHEDRAL>
0

>  <SCORE.SYSTEM.SOLV>
0

>  <SCORE.SYSTEM.norm>
0

>  <SCORE.heavy>
52

>  <SCORE.norm>
0.561453

>  <RMSD>
23.098

$$$$
2esj_lig
 OpenBabel11021811423D
libRbt.so/2013.1/901 2013/11/27
 52 56  0  0  0  0  0  0  0  0999 V2000
    6.8738   12.0376   15.0718 C   0  0  2  0  0  0  0  0  0  0  0  0
    5.5553   11.6725   14.6213 O   0  0  0  0  0  0  0  0  0  0  0  0
    2.9490   11.4732   11.2367 C   0  0  2  0  0  0  0  0  0  0  0  0
    2.3380   11.5994    9.9032 N   0  0  0  0  0  0  0  0  0  0  0  0
    6.1133    8.3277   13.0633 C   0  0  1  0  0  0  0  0  0  0  0  0
    6.4897    5.7068   14.7056 C   0  0  1  0  0  0  0  0  0  0  0  0
    4.7965    5.4233   19.7135 C   0  0  1  0  0  0  0  0  0  0  0  0
    7.3015   11.0046   16.1558 C   0  0  2  0  0  0  0  0  0  0  0  0
    7.2556    9.6298   15.6588 N   0  0  0  0  0  0  0  0  0  0  0  0
    3.3234   12.8990   11.8062 C   0  0  0  0  0  0  0  0  0  0  0  0
    5.2772    7.4153   12.1650 C   0  0  2  0  0  0  0  0  0  0  0  0
    3.8807    7.4103   12.5326 O   0  0  0  0  0  0  0  0  0  0  0  0
    6.3581    4.3492   15.5306 C   0  0  2  0  0  0  0  0  0  0  0  0
    4.9315    4.0078   15.7740 N   0  0  0  0  0  0  0  0  0  0  0  0
    3.3698    5.0505   19.3275 C   0  0  1  0  0  0  0  0  0  0  0  0
    2.6993    4.4919   20.4750 O   0  0  0  0  0  0  0  0  0  0  0  0
    6.4122   11.1366   17.4329 C   0  0  0  0  0  0  0  0  0  0  0  0
    3.9231   12.7478   13.2619 C   0  0  2  0  0  0  0  0  0  0  0  0
    4.2921   14.0576   13.8088 N   0  0  0  0  0  0  0  0  0  0  0  0
    5.9759    6.1040   12.3801 C   0  0  2  0  0  0  0  0  0  0  0  0
    5.6192    5.5543   13.6231 O   0  0  0  0  0  0  0  0  0  0  0  0
    7.2584    4.4505   16.8399 C   0  0  1  0  0  0  0  0  0  0  0  0
    8.5811    4.8463   16.4624 O   0  0  0  0  0  0  0  0  0  0  0  0
    2.5180    6.1974   18.7971 C   0  0  1  0  0  0  0  0  0  0  0  0
    1.1700    5.7214   18.7159 O   0  0  0  0  0  0  0  0  0  0  0  0
    6.4592   12.6124   17.9283 C   0  0  2  0  0  0  0  0  0  0  0  0
    5.7335   12.7873   19.1320 O   0  0  0  0  0  0  0  0  0  0  0  0
    5.1532   11.8036   13.2450 C   0  0  2  0  0  0  0  0  0  0  0  0
    7.4725    6.4433   12.5375 C   0  0  2  0  0  0  0  0  0  0  0  0
    7.4218    7.7419   13.1070 O   0  0  0  0  0  0  0  0  0  0  0  0
    6.7322    5.5804   17.8176 C   0  0  2  0  0  0  0  0  0  0  0  0
    5.4292    5.1367   18.1993 O   0  0  0  0  0  0  0  0  0  0  0  0
    2.5607    7.4524   19.6708 C   0  0  2  0  0  0  0  0  0  0  0  0
    1.9837    8.5178   18.8983 O   0  0  0  0  0  0  0  0  0  0  0  0
    5.9182   13.5236   16.7986 C   0  0  2  0  0  0  0  0  0  0  0  0
    6.8009   13.3613   15.6518 O   0  0  0  0  0  0  0  0  0  0  0  0
    4.8837   10.4140   12.5837 C   0  0  2  0  0  0  0  0  0  0  0  0
    6.1167    9.6426   12.5533 O   0  0  0  0  0  0  0  0  0  0  0  0
    8.2998    6.4861   11.2533 C   0  0  0  0  0  0  0  0  0  0  0  0
    7.5954    7.3097   10.3124 O   0  0  0  0  0  0  0  0  0  0  0  0
    6.5084    6.8030   16.9486 C   0  0  1  0  0  0  0  0  0  0  0  0
    6.1048    6.8966   15.5655 O   0  0  0  0  0  0  0  0  0  0  0  0
    3.9716    7.7356   20.1743 C   0  0  2  0  0  0  0  0  0  0  0  0
    4.8961    6.6703   20.4432 O   0  0  0  0  0  0  0  0  0  0  0  0
    5.9609   14.9728   17.1457 C   0  0  0  0  0  0  0  0  0  0  0  0
    7.2783   15.2740   17.5380 O   0  0  0  0  0  0  0  0  0  0  0  0
    4.2436   10.5866   11.1650 C   0  0  1  0  0  0  0  0  0  0  0  0
    3.8492    9.2657   10.7080 O   0  0  0  0  0  0  0  0  0  0  0  0
    6.0820    8.1096   17.6861 C   0  0  0  0  0  0  0  0  0  0  0  0
    4.6377    8.4026   17.5722 N   0  0  0  0  0  0  0  0  0  0  0  0
    4.3121    8.9193   21.0768 C   0  0  0  0  0  0  0  0  0  0  0  0
    3.4742   10.0565   20.7400 O   0  0  0  0  0  0  0  0  0  0  0  0
  1  2  1  1  0  0  0
  1  8  1  0  0  0  0
  1 36  1  0  0  0  0
  3  4  1  6  0  0  0
  3 10  1  0  0  0  0
  3 47  1  0  0  0  0
  5 11  1  0  0  0  0
  5 30  1  0  0  0  0
  5 38  1  6  0  0  0
  6 21  1  6  0  0  0
  6 42  1  0  0  0  0
  7 15  1  0  0  0  0
  7 44  1  0  0  0  0
  7 32  1  6  0  0  0
  8  9  1  6  0  0  0
  8 17  1  0  0  0  0
 11 12  1  1  0  0  0
 11 20  1  0  0  0  0
 13  6  1  0  0  0  0
 13 14  1  1  0  0  0
 15 16  1  1  0  0  0
 15 24  1  0  0  0  0
 17 26  1  0  0  0  0
 18 10  1  0  0  0  0
 18 19  1  6  0  0  0
 20 21  1  1  0  0  0
 20 29  1  0  0  0  0
 22 13  1  0  0  0  0
 22 23  1  6  0  0  0
 24 25  1  1  0  0  0
 24 33  1  0  0  0  0
 26 27  1  1  0  0  0
 26 35  1  0  0  0  0
 28  2  1  1  0  0  0
 28 18  1  0  0  0  0
 29 30  1  0  0  0  0
 29 39  1  6  0  0  0
 31 22  1  0  0  0  0
 31 32  1  6  0  0  0
 31 41  1  0  0  0  0
 33 34  1  6  0  0  0
 33 43  1  0  0  0  0
 35 36  1  0  0  0  0
 35 45  1  1  0  0  0
 37 28  1  0  0  0  0
 37 38  1  6  0  0  0
 39 40  1  0  0  0  0
 41 42  1  0  0  0  0
 41 49  1  1  0  0  0
 43 44  1  0  0  0  0
 43 51  1  1  0  0  0
 45 46  1  0  0  0  0
 47 37  1  0  0  0  0
 47 48  1  1  0  0  0
 49 50  1  0  0  0  0
 51 52  1  0  0  0  0
M  END
>  <CHROM.1>
-142.69571792,68.40985805,-144.41883907,166.32824666,-99.54359861,-121.51103280
49.79689508,145.93052610,53.50575483,128.62440684,-102.05446630,-34.22590181
5.28655575,8.76261415,15.70660776,0.91447387,1.39935733,-0.18816935

>  <Name>
2esj_lig

>  <RI>
224

>  <Rbt.Current_Directory>
/home/itssahil/PROJECTS/Mol_Feturizer/New_Systems/rnas/2esj

>  <Rbt.Executable>
rbdock ($Id: //depot/dev/client3/rdock/2013.1/src/exe/rbdock.cxx#4 $)

>  <Rbt.Library>
libRbt.so (2013.1, Build901 2013/11/27)

>  <Rbt.Parameter_File>
/export/apps/rDock/src/rDock_2013.1_src/data/scripts/dock_solv.prm

>  <Rbt.Receptor>
prm/blind_docking_100.prm

>  <SCORE>
21.8215

>  <SCORE.INTER>
-6.99997

>  <SCORE.INTER.CONST>
1

>  <SCORE.INTER.POLAR>
-1.28227

>  <SCORE.INTER.ROT>
12

>  <SCORE.INTER.SOLV>
18.7425

>  <SCORE.INTER.VDW>
-18.2399

>  <SCORE.INTER.norm>
-0.134615

>  <SCORE.INTRA>
19.0299

>  <SCORE.INTRA.DIHEDRAL>
7.35569

>  <SCORE.INTRA.DIHEDRAL.0>
32.9766

>  <SCORE.INTRA.POLAR>
0

>  <SCORE.INTRA.POLAR.0>
0

>  <SCORE.INTRA.REPUL>
0.167517

>  <SCORE.INTRA.REPUL.0>
0

>  <SCORE.INTRA.SOLV>
13.3979

>  <SCORE.INTRA.SOLV.lig_0>
-114.358

>  <SCORE.INTRA.VDW>
7.81553

>  <SCORE.INTRA.VDW.0>
-8.24257

>  <SCORE.INTRA.norm>
0.36596

>  <SCORE.RESTR>
9.79153

>  <SCORE.RESTR.CAVITY>
9.79153

>  <SCORE.RESTR.norm>
0.188299

>  <SCORE.SYSTEM>
0

>  <SCORE.SYSTEM.CONST>
0

>  <SCORE.SYSTEM.DIHEDRAL>
0

>  <SCORE.SYSTEM.SOLV>
0

>  <SCORE.SYSTEM.norm>
0

>  <SCORE.heavy>
52

>  <SCORE.norm>
0.419644

>  <RMSD>
23.157

$$$$
2esj_lig
 OpenBabel11021811423D
libRbt.so/2013.1/901 2013/11/27
 52 56  0  0  0  0  0  0  0  0999 V2000
    5.5398   10.1979   10.8122 C   0  0  2  0  0  0  0  0  0  0  0  0
    6.2000    9.7764   12.0210 O   0  0  0  0  0  0  0  0  0  0  0  0
    7.0398    5.6992   11.0418 C   0  0  2  0  0  0  0  0  0  0  0  0
    7.4579    4.2878   11.0673 N   0  0  0  0  0  0  0  0  0  0  0  0
    4.6490    7.8649   14.3214 C   0  0  1  0  0  0  0  0  0  0  0  0
    5.8946    8.7569   16.4920 C   0  0  1  0  0  0  0  0  0  0  0  0
    8.1723   13.4548   17.0561 C   0  0  1  0  0  0  0  0  0  0  0  0
    5.5605   11.7548   10.7854 C   0  0  2  0  0  0  0  0  0  0  0  0
    6.9174   12.2919   10.8820 N   0  0  0  0  0  0  0  0  0  0  0  0
    8.2512    6.6377   11.4277 C   0  0  0  0  0  0  0  0  0  0  0  0
    3.4115    8.2726   15.1221 C   0  0  2  0  0  0  0  0  0  0  0  0
    3.2194    9.7036   15.1480 O   0  0  0  0  0  0  0  0  0  0  0  0
    6.9151    9.0806   17.6731 C   0  0  2  0  0  0  0  0  0  0  0  0
    6.3283   10.0502   18.6357 N   0  0  0  0  0  0  0  0  0  0  0  0
    7.0953   13.9230   18.0279 C   0  0  1  0  0  0  0  0  0  0  0  0
    7.5443   15.1221   18.6906 O   0  0  0  0  0  0  0  0  0  0  0  0
    4.6746   12.3437   11.9288 C   0  0  0  0  0  0  0  0  0  0  0  0
    7.7994    8.1508   11.3372 C   0  0  2  0  0  0  0  0  0  0  0  0
    8.9033    9.0438   11.7043 N   0  0  0  0  0  0  0  0  0  0  0  0
    3.7388    7.6702   16.4578 C   0  0  2  0  0  0  0  0  0  0  0  0
    4.6896    8.4550   17.1320 O   0  0  0  0  0  0  0  0  0  0  0  0
    8.3113    9.5176   17.0449 C   0  0  1  0  0  0  0  0  0  0  0  0
    8.7215    8.5279   16.0957 O   0  0  0  0  0  0  0  0  0  0  0  0
    5.7357   14.2117   17.4032 C   0  0  1  0  0  0  0  0  0  0  0  0
    4.9383   14.8554   18.4032 O   0  0  0  0  0  0  0  0  0  0  0  0
    3.2434   11.7395   11.8183 C   0  0  2  0  0  0  0  0  0  0  0  0
    2.3632   12.2906   12.7815 O   0  0  0  0  0  0  0  0  0  0  0  0
    6.5725    8.4047   12.2511 C   0  0  2  0  0  0  0  0  0  0  0  0
    4.4863    6.3549   16.1566 C   0  0  2  0  0  0  0  0  0  0  0  0
    5.1249    6.6541   14.9254 O   0  0  0  0  0  0  0  0  0  0  0  0
    8.1809   10.8696   16.2298 C   0  0  2  0  0  0  0  0  0  0  0  0
    7.8051   11.8372   17.2110 O   0  0  0  0  0  0  0  0  0  0  0  0
    5.8045   15.1006   16.1602 C   0  0  2  0  0  0  0  0  0  0  0  0
    4.5205   15.0222   15.5201 O   0  0  0  0  0  0  0  0  0  0  0  0
    3.3513   10.2007   11.9587 C   0  0  2  0  0  0  0  0  0  0  0  0
    4.1738    9.7224   10.8561 O   0  0  0  0  0  0  0  0  0  0  0  0
    5.3777    7.4290   12.0033 C   0  0  2  0  0  0  0  0  0  0  0  0
    4.3172    7.7061   12.9598 O   0  0  0  0  0  0  0  0  0  0  0  0
    3.6237    5.1046   15.9881 C   0  0  0  0  0  0  0  0  0  0  0  0
    2.8434    4.9534   17.1832 O   0  0  0  0  0  0  0  0  0  0  0  0
    6.9645   10.6967   15.3407 C   0  0  1  0  0  0  0  0  0  0  0  0
    5.7491    9.9508   15.5665 O   0  0  0  0  0  0  0  0  0  0  0  0
    6.9768   14.7183   15.2635 C   0  0  2  0  0  0  0  0  0  0  0  0
    8.1964   14.1952   15.8118 O   0  0  0  0  0  0  0  0  0  0  0  0
    2.0387    9.5077   11.8204 C   0  0  0  0  0  0  0  0  0  0  0  0
    2.1227    8.6657   10.6960 O   0  0  0  0  0  0  0  0  0  0  0  0
    5.8568    5.9388   12.0470 C   0  0  1  0  0  0  0  0  0  0  0  0
    4.7397    5.1156   11.6183 O   0  0  0  0  0  0  0  0  0  0  0  0
    6.6637   11.8575   14.3432 C   0  0  0  0  0  0  0  0  0  0  0  0
    5.3819   12.5432   14.6105 N   0  0  0  0  0  0  0  0  0  0  0  0
    7.2973   15.4418   13.9575 C   0  0  0  0  0  0  0  0  0  0  0  0
    6.0914   16.0415   13.4142 O   0  0  0  0  0  0  0  0  0  0  0  0
  1  2  1  1  0  0  0
  1  8  1  0  0  0  0
  1 36  1  0  0  0  0
  3  4  1  1  0  0  0
  3 10  1  0  0  0  0
  3 47  1  0  0  0  0
  5 11  1  0  0  0  0
  5 30  1  0  0  0  0
  5 38  1  6  0  0  0
  6 21  1  1  0  0  0
  6 42  1  0  0  0  0
  7 15  1  0  0  0  0
  7 44  1  0  0  0  0
  7 32  1  6  0  0  0
  8  9  1  1  0  0  0
  8 17  1  0  0  0  0
 11 12  1  1  0  0  0
 11 20  1  0  0  0  0
 13  6  1  0  0  0  0
 13 14  1  6  0  0  0
 15 16  1  6  0  0  0
 15 24  1  0  0  0  0
 17 26  1  0  0  0  0
 18 10  1  0  0  0  0
 18 19  1  1  0  0  0
 20 21  1  1  0  0  0
 20 29  1  0  0  0  0
 22 13  1  0  0  0  0
 22 23  1  6  0  0  0
 24 25  1  1  0  0  0
 24 33  1  0  0  0  0
 26 27  1  1  0  0  0
 26 35  1  0  0  0  0
 28  2  1  6  0  0  0
 28 18  1  0  0  0  0
 29 30  1  0  0  0  0
 29 39  1  6  0  0  0
 31 22  1  0  0  0  0
 31 32  1  1  0  0  0
 31 41  1  0  0  0  0
 33 34  1  6  0  0  0
 33 43  1  0  0  0  0
 35 36  1  0  0  0  0
 35 45  1  6  0  0  0
 37 28  1  0  0  0  0
 37 38  1  1  0  0  0
 39 40  1  0  0  0  0
 41 42  1  0  0  0  0
 41 49  1  1  0  0  0
 43 44  1  0  0  0  0
 43 51  1  1  0  0  0
 45 46  1  0  0  0  0
 47 37  1  0  0  0  0
 47 48  1  6  0  0  0
 49 50  1  0  0  0  0
 51 52  1  0  0  0  0
M  END
>  <CHROM.1>
-168.57356775,174.86189156,-156.90601820,159.35688634,-54.50047527,73.96155905
-56.55442250,152.58717353,117.75220481,-46.69973563,-115.98655680,-25.97034390
5.68991206,10.16878095,14.34813275,2.60907925,1.36892649,2.57125562

>  <Name>
2esj_lig

>  <RI>
224

>  <Rbt.Current_Directory>
/home/itssahil/PROJECTS/Mol_Feturizer/New_Systems/rnas/2esj

>  <Rbt.Executable>
rbdock ($Id: //depot/dev/client3/rdock/2013.1/src/exe/rbdock.cxx#4 $)

>  <Rbt.Library>
libRbt.so (2013.1, Build901 2013/11/27)

>  <Rbt.Parameter_File>
/export/apps/rDock/src/rDock_2013.1_src/data/scripts/dock_solv.prm

>  <Rbt.Receptor>
prm/blind_docking_100.prm

>  <SCORE>
2.69944

>  <SCORE.INTER>
-10.0893

>  <SCORE.INTER.CONST>
1

>  <SCORE.INTER.POLAR>
-1.49881

>  <SCORE.INTER.ROT>
12

>  <SCORE.INTER.SOLV>
24.0807

>  <SCORE.INTER.VDW>
-21.3571

>  <SCORE.INTER.norm>
-0.194026

>  <SCORE.INTRA>
5.74334

>  <SCORE.INTRA.DIHEDRAL>
-11.6368

>  <SCORE.INTRA.DIHEDRAL.0>
32.9766

>  <SCORE.INTRA.POLAR>
0

>  <SCORE.INTRA.POLAR.0>
0

>  <SCORE.INTRA.REPUL>
0

>  <SCORE.INTRA.REPUL.0>
0

>  <SCORE.INTRA.SOLV>
10.19

>  <SCORE.INTRA.SOLV.lig_0>
-114.358

>  <SCORE.INTRA.VDW>
6.46672

>  <SCORE.INTRA.VDW.0>
-8.24257

>  <SCORE.INTRA.norm>
0.110449

>  <SCORE.RESTR>
7.04543

>  <SCORE.RESTR.CAVITY>
7.04543

>  <SCORE.RESTR.norm>
0.135489

>  <SCORE.SYSTEM>
0

>  <SCORE.SYSTEM.CONST>
0

>  <SCORE.SYSTEM.DIHEDRAL>
0

>  <SCORE.SYSTEM.SOLV>
0

>  <SCORE.SYSTEM.norm>
0

>  <SCORE.heavy>
52

>  <SCORE.norm>
0.0519122

>  <RMSD>
23.159

$$$$
2esj_lig
 OpenBabel11021811423D
libRbt.so/2013.1/901 2013/11/27
 52 56  0  0  0  0  0  0  0  0999 V2000
    4.1449    8.1058   12.6437 C   0  0  2  0  0  0  0  0  0  0  0  0
    4.7641    9.3878   12.8622 O   0  0  0  0  0  0  0  0  0  0  0  0
    3.0012   11.6872    9.7168 C   0  0  2  0  0  0  0  0  0  0  0  0
    2.4438   12.7664    8.8851 N   0  0  0  0  0  0  0  0  0  0  0  0
    7.0348   10.6201   12.4112 C   0  0  1  0  0  0  0  0  0  0  0  0
    8.5160   10.0556   16.0806 C   0  0  1  0  0  0  0  0  0  0  0  0
    4.5964    7.7424   18.8971 C   0  0  1  0  0  0  0  0  0  0  0  0
    4.0188    7.4042   14.0283 C   0  0  2  0  0  0  0  0  0  0  0  0
    3.2739    8.2131   14.9927 N   0  0  0  0  0  0  0  0  0  0  0  0
    2.2432   11.6139   11.1016 C   0  0  0  0  0  0  0  0  0  0  0  0
    8.5572   10.7563   12.4567 C   0  0  2  0  0  0  0  0  0  0  0  0
    9.2306    9.5566   12.0178 O   0  0  0  0  0  0  0  0  0  0  0  0
    8.4565    8.5605   16.6305 C   0  0  2  0  0  0  0  0  0  0  0  0
    7.4571    7.7545   15.8805 N   0  0  0  0  0  0  0  0  0  0  0  0
    5.0459    6.2883   18.8140 C   0  0  1  0  0  0  0  0  0  0  0  0
    4.6179    5.5917   20.0015 O   0  0  0  0  0  0  0  0  0  0  0  0
    5.4270    7.0539   14.6057 C   0  0  0  0  0  0  0  0  0  0  0  0
    2.8153   10.4123   11.9563 C   0  0  2  0  0  0  0  0  0  0  0  0
    2.1369   10.3305   13.2539 N   0  0  0  0  0  0  0  0  0  0  0  0
    8.7600   11.0810   13.9084 C   0  0  2  0  0  0  0  0  0  0  0  0
    8.6319    9.9233   14.6943 O   0  0  0  0  0  0  0  0  0  0  0  0
    8.2435    8.5979   18.2079 C   0  0  1  0  0  0  0  0  0  0  0  0
    9.2313    9.4561   18.7879 O   0  0  0  0  0  0  0  0  0  0  0  0
    4.5323    5.5162   17.6047 C   0  0  1  0  0  0  0  0  0  0  0  0
    4.8509    4.1364   17.8167 O   0  0  0  0  0  0  0  0  0  0  0  0
    6.2079    6.2136   13.5524 C   0  0  2  0  0  0  0  0  0  0  0  0
    7.4689    5.7946   14.0427 O   0  0  0  0  0  0  0  0  0  0  0  0
    4.3451   10.5703   12.1556 C   0  0  2  0  0  0  0  0  0  0  0  0
    7.5521   11.9475   14.3204 C   0  0  2  0  0  0  0  0  0  0  0  0
    6.5347   11.4640   13.4577 O   0  0  0  0  0  0  0  0  0  0  0  0
    6.8430    9.2334   18.5876 C   0  0  2  0  0  0  0  0  0  0  0  0
    5.8851    8.3361   18.0241 O   0  0  0  0  0  0  0  0  0  0  0  0
    3.0266    5.6594   17.3759 C   0  0  2  0  0  0  0  0  0  0  0  0
    2.7551    5.1528   16.0589 O   0  0  0  0  0  0  0  0  0  0  0  0
    6.3498    7.0587   12.2621 C   0  0  2  0  0  0  0  0  0  0  0  0
    5.0052    7.3325   11.7743 O   0  0  0  0  0  0  0  0  0  0  0  0
    5.1458   10.7684   10.8287 C   0  0  2  0  0  0  0  0  0  0  0  0
    6.5517   10.9811   11.1363 O   0  0  0  0  0  0  0  0  0  0  0  0
    7.7006   13.4568   14.1313 C   0  0  0  0  0  0  0  0  0  0  0  0
    8.5701   13.9387   15.1664 O   0  0  0  0  0  0  0  0  0  0  0  0
    6.7366   10.5079   17.7725 C   0  0  1  0  0  0  0  0  0  0  0  0
    7.2611   10.8183   16.4636 O   0  0  0  0  0  0  0  0  0  0  0  0
    2.5598    7.0925   17.6051 C   0  0  2  0  0  0  0  0  0  0  0  0
    3.1991    7.9402   18.5719 O   0  0  0  0  0  0  0  0  0  0  0  0
    7.0442    6.3323   11.1610 C   0  0  0  0  0  0  0  0  0  0  0  0
    7.6339    7.2981   10.3246 O   0  0  0  0  0  0  0  0  0  0  0  0
    4.5316   11.9289    9.9752 C   0  0  1  0  0  0  0  0  0  0  0  0
    5.2037   11.9174    8.6877 O   0  0  0  0  0  0  0  0  0  0  0  0
    5.4816   11.3962   18.0346 C   0  0  0  0  0  0  0  0  0  0  0  0
    5.7602   12.8452   17.9481 N   0  0  0  0  0  0  0  0  0  0  0  0
    1.1035    7.5279   17.4587 C   0  0  0  0  0  0  0  0  0  0  0  0
    0.2221    6.3998   17.7018 O   0  0  0  0  0  0  0  0  0  0  0  0
  1  2  1  1  0  0  0
  1  8  1  0  0  0  0
  1 36  1  0  0  0  0
  3  4  1  6  0  0  0
  3 10  1  0  0  0  0
  3 47  1  0  0  0  0
  5 11  1  0  0  0  0
  5 30  1  0  0  0  0
  5 38  1  6  0  0  0
  6 21  1  6  0  0  0
  6 42  1  0  0  0  0
  7 15  1  0  0  0  0
  7 44  1  0  0  0  0
  7 32  1  6  0  0  0
  8  9  1  1  0  0  0
  8 17  1  0  0  0  0
 11 12  1  1  0  0  0
 11 20  1  0  0  0  0
 13  6  1  0  0  0  0
 13 14  1  6  0  0  0
 15 16  1  1  0  0  0
 15 24  1  0  0  0  0
 17 26  1  0  0  0  0
 18 10  1  0  0  0  0
 18 19  1  1  0  0  0
 20 21  1  1  0  0  0
 20 29  1  0  0  0  0
 22 13  1  0  0  0  0
 22 23  1  1  0  0  0
 24 25  1  1  0  0  0
 24 33  1  0  0  0  0
 26 27  1  1  0  0  0
 26 35  1  0  0  0  0
 28  2  1  6  0  0  0
 28 18  1  0  0  0  0
 29 30  1  0  0  0  0
 29 39  1  6  0  0  0
 31 22  1  0  0  0  0
 31 32  1  6  0  0  0
 31 41  1  0  0  0  0
 33 34  1  6  0  0  0
 33 43  1  0  0  0  0
 35 36  1  0  0  0  0
 35 45  1  6  0  0  0
 37 28  1  0  0  0  0
 37 38  1  1  0  0  0
 39 40  1  0  0  0  0
 41 42  1  0  0  0  0
 41 49  1  6  0  0  0
 43 44  1  0  0  0  0
 43 51  1  1  0  0  0
 45 46  1  0  0  0  0
 47 37  1  0  0  0  0
 47 48  1  6  0  0  0
 49 50  1  0  0  0  0
 51 52  1  0  0  0  0
M  END
>  <CHROM.1>
-140.43987966,172.63420290,-177.60139085,-116.72831792,-167.13430922,34.12582234
-74.54695375,130.78678388,-154.25261269,17.39322048,144.05833711,26.41741589
5.56822051,9.06680482,14.67885477,1.41492488,-0.60140739,-1.11920198

>  <Name>
2esj_lig

>  <RI>
0

>  <Rbt.Current_Directory>
/home/itssahil/PROJECTS/Mol_Feturizer/New_Systems/rnas/2esj

>  <Rbt.Executable>
rbdock ($Id: //depot/dev/client3/rdock/2013.1/src/exe/rbdock.cxx#4 $)

>  <Rbt.Library>
libRbt.so (2013.1, Build901 2013/11/27)

>  <Rbt.Parameter_File>
/export/apps/rDock/src/rDock_2013.1_src/data/scripts/dock_solv.prm

>  <Rbt.Receptor>
prm/blind_docking_80.prm

>  <SCORE>
22.3734

>  <SCORE.INTER>
1.6275

>  <SCORE.INTER.CONST>
1

>  <SCORE.INTER.POLAR>
-0.586574

>  <SCORE.INTER.ROT>
12

>  <SCORE.INTER.SOLV>
31.0639

>  <SCORE.INTER.VDW>
-18.9144

>  <SCORE.INTER.norm>
0.0312981

>  <SCORE.INTRA>
16.0955

>  <SCORE.INTRA.DIHEDRAL>
3.98536

>  <SCORE.INTRA.DIHEDRAL.0>
32.9766

>  <SCORE.INTRA.POLAR>
0

>  <SCORE.INTRA.POLAR.0>
0

>  <SCORE.INTRA.REPUL>
0.0141622

>  <SCORE.INTRA.REPUL.0>
0

>  <SCORE.INTRA.SOLV>
8.266

>  <SCORE.INTRA.SOLV.lig_0>
-114.358

>  <SCORE.INTRA.VDW>
9.89904

>  <SCORE.INTRA.VDW.0>
-8.24257

>  <SCORE.INTRA.norm>
0.309529

>  <SCORE.RESTR>
4.65035

>  <SCORE.RESTR.CAVITY>
4.65035

>  <SCORE.RESTR.norm>
0.0894297

>  <SCORE.SYSTEM>
0

>  <SCORE.SYSTEM.CONST>
0

>  <SCORE.SYSTEM.DIHEDRAL>
0

>  <SCORE.SYSTEM.SOLV>
0

>  <SCORE.SYSTEM.norm>
0

>  <SCORE.heavy>
52

>  <SCORE.norm>
0.430257

>  <RMSD>
23.162

$$$$
2esj_lig
 OpenBabel11021811423D
libRbt.so/2013.1/901 2013/11/27
 52 56  0  0  0  0  0  0  0  0999 V2000
    5.2719   10.8676   18.8866 C   0  0  2  0  0  0  0  0  0  0  0  0
    4.6363   10.2366   20.0147 O   0  0  0  0  0  0  0  0  0  0  0  0
    3.0456    6.4201   21.1066 C   0  0  2  0  0  0  0  0  0  0  0  0
    2.2708    5.1704   21.1784 N   0  0  0  0  0  0  0  0  0  0  0  0
    4.8901    8.3831   17.3285 C   0  0  1  0  0  0  0  0  0  0  0  0
    3.9072    9.1358   13.2688 C   0  0  1  0  0  0  0  0  0  0  0  0
    6.8058   12.2112   11.4776 C   0  0  1  0  0  0  0  0  0  0  0  0
    6.8049   10.8817   19.1599 C   0  0  2  0  0  0  0  0  0  0  0  0
    7.3355    9.5411   19.4060 N   0  0  0  0  0  0  0  0  0  0  0  0
    2.0779    7.6689   21.1426 C   0  0  0  0  0  0  0  0  0  0  0  0
    5.3554    7.6153   16.0906 C   0  0  2  0  0  0  0  0  0  0  0  0
    6.5537    8.1769   15.5125 O   0  0  0  0  0  0  0  0  0  0  0  0
    5.2243    8.4822   12.6529 C   0  0  2  0  0  0  0  0  0  0  0  0
    6.4453    9.0214   13.3082 N   0  0  0  0  0  0  0  0  0  0  0  0
    8.3109   12.0285   11.6356 C   0  0  1  0  0  0  0  0  0  0  0  0
    8.9785   13.2483   11.2551 O   0  0  0  0  0  0  0  0  0  0  0  0
    7.1479   11.8166   20.3629 C   0  0  0  0  0  0  0  0  0  0  0  0
    2.9304    9.0010   21.1244 C   0  0  2  0  0  0  0  0  0  0  0  0
    2.0542   10.1770   21.1435 N   0  0  0  0  0  0  0  0  0  0  0  0
    4.1374    7.7337   15.2209 C   0  0  2  0  0  0  0  0  0  0  0  0
    4.0613    9.0166   14.6525 O   0  0  0  0  0  0  0  0  0  0  0  0
    5.1865    8.6377   11.0688 C   0  0  1  0  0  0  0  0  0  0  0  0
    3.9355    8.1382   10.5846 O   0  0  0  0  0  0  0  0  0  0  0  0
    8.7776   11.6542   13.0371 C   0  0  1  0  0  0  0  0  0  0  0  0
   10.2056   11.7592   13.0500 O   0  0  0  0  0  0  0  0  0  0  0  0
    6.5530   13.2295   20.0877 C   0  0  2  0  0  0  0  0  0  0  0  0
    6.8938   14.1521   21.1069 O   0  0  0  0  0  0  0  0  0  0  0  0
    3.8537    9.0356   19.8790 C   0  0  2  0  0  0  0  0  0  0  0  0
    2.9282    7.6766   16.1770 C   0  0  2  0  0  0  0  0  0  0  0  0
    3.4631    8.2430   17.3627 O   0  0  0  0  0  0  0  0  0  0  0  0
    5.2401   10.1604   10.6357 C   0  0  2  0  0  0  0  0  0  0  0  0
    6.5109   10.6148   11.1034 O   0  0  0  0  0  0  0  0  0  0  0  0
    8.1942   12.5409   14.1387 C   0  0  2  0  0  0  0  0  0  0  0  0
    8.4645   11.8853   15.3884 O   0  0  0  0  0  0  0  0  0  0  0  0
    5.0181   13.0908   19.9338 C   0  0  2  0  0  0  0  0  0  0  0  0
    4.7746   12.2231   18.7898 O   0  0  0  0  0  0  0  0  0  0  0  0
    4.7554    7.7701   19.7161 C   0  0  2  0  0  0  0  0  0  0  0  0
    5.5201    7.8733   18.4828 O   0  0  0  0  0  0  0  0  0  0  0  0
    2.3701    6.2880   16.4869 C   0  0  0  0  0  0  0  0  0  0  0  0
    1.1624    6.4659   17.2415 O   0  0  0  0  0  0  0  0  0  0  0  0
    4.2117   10.8681   11.4969 C   0  0  1  0  0  0  0  0  0  0  0  0
    3.7811   10.5879   12.8462 O   0  0  0  0  0  0  0  0  0  0  0  0
    6.7195   12.8401   13.8934 C   0  0  2  0  0  0  0  0  0  0  0  0
    6.1908   12.9470   12.5627 O   0  0  0  0  0  0  0  0  0  0  0  0
    4.3432   14.3822   19.6184 C   0  0  0  0  0  0  0  0  0  0  0  0
    2.9598   14.1318   19.5594 O   0  0  0  0  0  0  0  0  0  0  0  0
    3.8979    6.4618   19.7878 C   0  0  1  0  0  0  0  0  0  0  0  0
    4.8232    5.3430   19.8248 O   0  0  0  0  0  0  0  0  0  0  0  0
    3.9822   12.3821   11.2003 C   0  0  0  0  0  0  0  0  0  0  0  0
    2.6547   12.6710   10.6180 N   0  0  0  0  0  0  0  0  0  0  0  0
    5.8798   13.7103   14.8258 C   0  0  0  0  0  0  0  0  0  0  0  0
    4.5400   13.8644   14.2871 O   0  0  0  0  0  0  0  0  0  0  0  0
  1  2  1  1  0  0  0
  1  8  1  0  0  0  0
  1 36  1  0  0  0  0
  3  4  1  6  0  0  0
  3 10  1  0  0  0  0
  3 47  1  0  0  0  0
  5 11  1  0  0  0  0
  5 30  1  0  0  0  0
  5 38  1  1  0  0  0
  6 21  1  1  0  0  0
  6 42  1  0  0  0  0
  7 15  1  0  0  0  0
  7 44  1  0  0  0  0
  7 32  1  1  0  0  0
  8  9  1  1  0  0  0
  8 17  1  0  0  0  0
 11 12  1  6  0  0  0
 11 20  1  0  0  0  0
 13  6  1  0  0  0  0
 13 14  1  1  0  0  0
 15 16  1  1  0  0  0
 15 24  1  0  0  0  0
 17 26  1  0  0  0  0
 18 10  1  0  0  0  0
 18 19  1  6  0  0  0
 20 21  1  1  0  0  0
 20 29  1  0  0  0  0
 22 13  1  0  0  0  0
 22 23  1  1  0  0  0
 24 25  1  6  0  0  0
 24 33  1  0  0  0  0
 26 27  1  1  0  0  0
 26 35  1  0  0  0  0
 28  2  1  1  0  0  0
 28 18  1  0  0  0  0
 29 30  1  0  0  0  0
 29 39  1  1  0  0  0
 31 22  1  0  0  0  0
 31 32  1  1  0  0  0
 31 41  1  0  0  0  0
 33 34  1  1  0  0  0
 33 43  1  0  0  0  0
 35 36  1  0  0  0  0
 35 45  1  6  0  0  0
 37 28  1  0  0  0  0
 37 38  1  6  0  0  0
 39 40  1  0  0  0  0
 41 42  1  0  0  0  0
 41 49  1  1  0  0  0
 43 44  1  0  0  0  0
 43 51  1  6  0  0  0
 45 46  1  0  0  0  0
 47 37  1  0  0  0  0
 47 48  1  1  0  0  0
 49 50  1  0  0  0  0
 51 52  1  0  0  0  0
M  END
>  <CHROM.1>
-119.61322555,-141.59208570,-62.75346758,-170.43873813,127.61302978,-158.53628730
-172.69437514,-153.72196983,-177.63299522,-40.45497078,111.40170690,176.98412177
5.12458171,10.18829779,16.15341141,-2.16190913,-1.05616414,-1.76940943

>  <Name>
2esj_lig

>  <RI>
224

>  <Rbt.Current_Directory>
/home/itssahil/PROJECTS/Mol_Feturizer/New_Systems/rnas/2esj

>  <Rbt.Executable>
rbdock ($Id: //depot/dev/client3/rdock/2013.1/src/exe/rbdock.cxx#4 $)

>  <Rbt.Library>
libRbt.so (2013.1, Build901 2013/11/27)

>  <Rbt.Parameter_File>
/export/apps/rDock/src/rDock_2013.1_src/data/scripts/dock_solv.prm

>  <Rbt.Receptor>
prm/blind_docking_100.prm

>  <SCORE>
10.4466

>  <SCORE.INTER>
-6.7412

>  <SCORE.INTER.CONST>
1

>  <SCORE.INTER.POLAR>
-0.807297

>  <SCORE.INTER.ROT>
12

>  <SCORE.INTER.SOLV>
23.5594

>  <SCORE.INTER.VDW>
-21.2563

>  <SCORE.INTER.norm>
-0.129638

>  <SCORE.INTRA>
7.45445

>  <SCORE.INTRA.DIHEDRAL>
-1.70869

>  <SCORE.INTRA.DIHEDRAL.0>
32.9766

>  <SCORE.INTRA.POLAR>
0

>  <SCORE.INTRA.POLAR.0>
0

>  <SCORE.INTRA.REPUL>
0

>  <SCORE.INTRA.REPUL.0>
0

>  <SCORE.INTRA.SOLV>
3.26012

>  <SCORE.INTRA.SOLV.lig_0>
-114.358

>  <SCORE.INTRA.VDW>
6.67873

>  <SCORE.INTRA.VDW.0>
-8.24257

>  <SCORE.INTRA.norm>
0.143355

>  <SCORE.RESTR>
9.73332

>  <SCORE.RESTR.CAVITY>
9.73332

>  <SCORE.RESTR.norm>
0.187179

>  <SCORE.SYSTEM>
0

>  <SCORE.SYSTEM.CONST>
0

>  <SCORE.SYSTEM.DIHEDRAL>
0

>  <SCORE.SYSTEM.SOLV>
0

>  <SCORE.SYSTEM.norm>
0

>  <SCORE.heavy>
52

>  <SCORE.norm>
0.200895

>  <RMSD>
23.174

$$$$
2esj_lig
 OpenBabel11021811423D
libRbt.so/2013.1/901 2013/11/27
 52 56  0  0  0  0  0  0  0  0999 V2000
    6.8738   12.2353   19.4048 C   0  0  2  0  0  0  0  0  0  0  0  0
    5.5933   12.0301   20.0317 O   0  0  0  0  0  0  0  0  0  0  0  0
    3.0403    8.6911   20.8195 C   0  0  2  0  0  0  0  0  0  0  0  0
    2.1169    7.5499   20.7084 N   0  0  0  0  0  0  0  0  0  0  0  0
    6.6325    8.9916   18.1808 C   0  0  1  0  0  0  0  0  0  0  0  0
    7.2143    7.5850   14.2479 C   0  0  1  0  0  0  0  0  0  0  0  0
    5.3167   10.0585   10.3489 C   0  0  1  0  0  0  0  0  0  0  0  0
    7.2035   13.7544   19.4986 C   0  0  2  0  0  0  0  0  0  0  0  0
    7.1870   14.2400   20.8782 N   0  0  0  0  0  0  0  0  0  0  0  0
    2.4012    9.9801   20.1658 C   0  0  0  0  0  0  0  0  0  0  0  0
    7.9910    8.4452   17.7400 C   0  0  2  0  0  0  0  0  0  0  0  0
    8.8965    9.4907   17.3246 O   0  0  0  0  0  0  0  0  0  0  0  0
    8.2380    8.3804   13.3202 C   0  0  2  0  0  0  0  0  0  0  0  0
    7.9827    9.8442   13.3751 N   0  0  0  0  0  0  0  0  0  0  0  0
    5.8388   11.4842   10.4848 C   0  0  1  0  0  0  0  0  0  0  0  0
    5.3346   12.2793    9.3929 O   0  0  0  0  0  0  0  0  0  0  0  0
    6.2145   14.5940   18.6292 C   0  0  0  0  0  0  0  0  0  0  0  0
    3.3813   11.2081   20.3472 C   0  0  2  0  0  0  0  0  0  0  0  0
    2.8169   12.4160   19.7363 N   0  0  0  0  0  0  0  0  0  0  0  0
    7.5689    7.5203   16.6352 C   0  0  2  0  0  0  0  0  0  0  0  0
    7.2530    8.2496   15.4765 O   0  0  0  0  0  0  0  0  0  0  0  0
    8.2116    7.7472   11.8596 C   0  0  1  0  0  0  0  0  0  0  0  0
    8.4064    6.3331   11.9648 O   0  0  0  0  0  0  0  0  0  0  0  0
    5.4763   12.1889   11.7865 C   0  0  1  0  0  0  0  0  0  0  0  0
    5.8373   13.5664   11.6370 O   0  0  0  0  0  0  0  0  0  0  0  0
    6.2330   14.0432   17.1725 C   0  0  2  0  0  0  0  0  0  0  0  0
    5.4133   14.8103   16.3089 O   0  0  0  0  0  0  0  0  0  0  0  0
    4.7683   10.8889   19.7313 C   0  0  2  0  0  0  0  0  0  0  0  0
    6.2186    6.9207   17.0787 C   0  0  2  0  0  0  0  0  0  0  0  0
    5.6790    7.9653   17.8729 O   0  0  0  0  0  0  0  0  0  0  0  0
    6.7973    7.9381   11.1720 C   0  0  2  0  0  0  0  0  0  0  0  0
    6.6523    9.3541   11.0526 O   0  0  0  0  0  0  0  0  0  0  0  0
    3.9935   12.0899   12.1490 C   0  0  2  0  0  0  0  0  0  0  0  0
    3.8697   12.5127   13.5167 O   0  0  0  0  0  0  0  0  0  0  0  0
    5.7930   12.5585   17.2068 C   0  0  2  0  0  0  0  0  0  0  0  0
    6.7648   11.8379   18.0176 O   0  0  0  0  0  0  0  0  0  0  0  0
    5.4063    9.5592   20.2469 C   0  0  2  0  0  0  0  0  0  0  0  0
    6.6619    9.3208   19.5519 O   0  0  0  0  0  0  0  0  0  0  0  0
    6.2823    5.6374   17.9063 C   0  0  0  0  0  0  0  0  0  0  0  0
    7.3637    4.8455   17.3934 O   0  0  0  0  0  0  0  0  0  0  0  0
    5.7763    7.5096   12.2083 C   0  0  1  0  0  0  0  0  0  0  0  0
    5.8203    7.6049   13.6483 O   0  0  0  0  0  0  0  0  0  0  0  0
    3.4416   10.6961   11.8710 C   0  0  2  0  0  0  0  0  0  0  0  0
    3.9482    9.8940   10.7931 O   0  0  0  0  0  0  0  0  0  0  0  0
    5.8191   11.9100   15.8647 C   0  0  0  0  0  0  0  0  0  0  0  0
    5.2102   10.6480   15.9941 O   0  0  0  0  0  0  0  0  0  0  0  0
    4.4010    8.3670   20.1048 C   0  0  1  0  0  0  0  0  0  0  0  0
    4.9920    7.2240   20.7783 O   0  0  0  0  0  0  0  0  0  0  0  0
    4.2853    7.5002   11.7506 C   0  0  0  0  0  0  0  0  0  0  0  0
    4.1090    7.1160   10.3343 N   0  0  0  0  0  0  0  0  0  0  0  0
    1.9868   10.3097   12.1276 C   0  0  0  0  0  0  0  0  0  0  0  0
    1.7479    8.9503   11.6761 O   0  0  0  0  0  0  0  0  0  0  0  0
  1  2  1  1  0  0  0
  1  8  1  0  0  0  0
  1 36  1  0  0  0  0
  3  4  1  6  0  0  0
  3 10  1  0  0  0  0
  3 47  1  0  0  0  0
  5 11  1  0  0  0  0
  5 30  1  0  0  0  0
  5 38  1  1  0  0  0
  6 21  1  1  0  0  0
  6 42  1  0  0  0  0
  7 15  1  0  0  0  0
  7 44  1  0  0  0  0
  7 32  1  1  0  0  0
  8  9  1  1  0  0  0
  8 17  1  0  0  0  0
 11 12  1  6  0  0  0
 11 20  1  0  0  0  0
 13  6  1  0  0  0  0
 13 14  1  6  0  0  0
 15 16  1  6  0  0  0
 15 24  1  0  0  0  0
 17 26  1  0  0  0  0
 18 10  1  0  0  0  0
 18 19  1  6  0  0  0
 20 21  1  6  0  0  0
 20 29  1  0  0  0  0
 22 13  1  0  0  0  0
 22 23  1  1  0  0  0
 24 25  1  6  0  0  0
 24 33  1  0  0  0  0
 26 27  1  6  0  0  0
 26 35  1  0  0  0  0
 28  2  1  1  0  0  0
 28 18  1  0  0  0  0
 29 30  1  0  0  0  0
 29 39  1  1  0  0  0
 31 22  1  0  0  0  0
 31 32  1  1  0  0  0
 31 41  1  0  0  0  0
 33 34  1  1  0  0  0
 33 43  1  0  0  0  0
 35 36  1  0  0  0  0
 35 45  1  6  0  0  0
 37 28  1  0  0  0  0
 37 38  1  6  0  0  0
 39 40  1  0  0  0  0
 41 42  1  0  0  0  0
 41 49  1  6  0  0  0
 43 44  1  0  0  0  0
 43 51  1  6  0  0  0
 45 46  1  0  0  0  0
 47 37  1  0  0  0  0
 47 48  1  1  0  0  0
 49 50  1  0  0  0  0
 51 52  1  0  0  0  0
M  END
>  <CHROM.1>
157.64219627,-165.76869118,-123.78838114,-177.16026886,161.72285558,-167.46472349
-36.96391978,178.68070244,-171.10722315,-69.20195829,34.49638547,175.95328663
5.62679581,9.93422824,15.69059875,1.63339146,-1.38731224,1.52080024

>  <Name>
2esj_lig

>  <RI>
224

>  <Rbt.Current_Directory>
/home/itssahil/PROJECTS/Mol_Feturizer/New_Systems/rnas/2esj

>  <Rbt.Executable>
rbdock ($Id: //depot/dev/client3/rdock/2013.1/src/exe/rbdock.cxx#4 $)

>  <Rbt.Library>
libRbt.so (2013.1, Build901 2013/11/27)

>  <Rbt.Parameter_File>
/export/apps/rDock/src/rDock_2013.1_src/data/scripts/dock_solv.prm

>  <Rbt.Receptor>
prm/blind_docking_100.prm

>  <SCORE>
-4.9211

>  <SCORE.INTER>
-11.7996

>  <SCORE.INTER.CONST>
1

>  <SCORE.INTER.POLAR>
-1.94934

>  <SCORE.INTER.ROT>
12

>  <SCORE.INTER.SOLV>
25.7618

>  <SCORE.INTER.VDW>
-21.5559

>  <SCORE.INTER.norm>
-0.226915

>  <SCORE.INTRA>
-1.7263

>  <SCORE.INTRA.DIHEDRAL>
-12.8718

>  <SCORE.INTRA.DIHEDRAL.0>
32.9766

>  <SCORE.INTRA.POLAR>
0

>  <SCORE.INTRA.POLAR.0>
0

>  <SCORE.INTRA.REPUL>
0.00168259

>  <SCORE.INTRA.REPUL.0>
0

>  <SCORE.INTRA.SOLV>
3.89162

>  <SCORE.INTRA.SOLV.lig_0>
-114.358

>  <SCORE.INTRA.VDW>
2.75538

>  <SCORE.INTRA.VDW.0>
-8.24257

>  <SCORE.INTRA.norm>
-0.0331981

>  <SCORE.RESTR>
8.60479

>  <SCORE.RESTR.CAVITY>
8.60479

>  <SCORE.RESTR.norm>
0.165477

>  <SCORE.SYSTEM>
0

>  <SCORE.SYSTEM.CONST>
0

>  <SCORE.SYSTEM.DIHEDRAL>
0

>  <SCORE.SYSTEM.SOLV>
0

>  <SCORE.SYSTEM.norm>
0

>  <SCORE.heavy>
52

>  <SCORE.norm>
-0.0946365

>  <RMSD>
23.202

$$$$
2esj_lig
 OpenBabel11021811423D
libRbt.so/2013.1/901 2013/11/27
 52 56  0  0  0  0  0  0  0  0999 V2000
    8.2017    8.9279   12.3127 C   0  0  2  0  0  0  0  0  0  0  0  0
    6.8102    9.2974   12.3572 O   0  0  0  0  0  0  0  0  0  0  0  0
    6.3168   12.8428   10.0175 C   0  0  2  0  0  0  0  0  0  0  0  0
    5.8974   14.1523    9.4915 N   0  0  0  0  0  0  0  0  0  0  0  0
    7.4491   12.1478   14.3511 C   0  0  1  0  0  0  0  0  0  0  0  0
    6.8434   11.9358   17.8691 C   0  0  1  0  0  0  0  0  0  0  0  0
    4.0181    7.8847   18.0060 C   0  0  1  0  0  0  0  0  0  0  0  0
    8.2802    7.4580   11.8044 C   0  0  2  0  0  0  0  0  0  0  0  0
    7.6278    7.2856   10.5068 N   0  0  0  0  0  0  0  0  0  0  0  0
    5.0603   11.9076   10.2277 C   0  0  0  0  0  0  0  0  0  0  0  0
    8.3740   12.5136   15.5127 C   0  0  2  0  0  0  0  0  0  0  0  0
    8.7099   11.3712   16.3297 O   0  0  0  0  0  0  0  0  0  0  0  0
    6.4877   10.5679   17.1318 C   0  0  2  0  0  0  0  0  0  0  0  0
    5.1192   10.6132   16.5521 N   0  0  0  0  0  0  0  0  0  0  0  0
    3.0412    7.4203   19.0800 C   0  0  1  0  0  0  0  0  0  0  0  0
    1.9592    6.7000   18.4565 O   0  0  0  0  0  0  0  0  0  0  0  0
    7.6578    6.4743   12.8456 C   0  0  0  0  0  0  0  0  0  0  0  0
    5.5356   10.4874   10.7363 C   0  0  2  0  0  0  0  0  0  0  0  0
    4.3857    9.6032   10.9525 N   0  0  0  0  0  0  0  0  0  0  0  0
    7.5398   13.5476   16.2120 C   0  0  2  0  0  0  0  0  0  0  0  0
    6.5129   12.9349   16.9498 O   0  0  0  0  0  0  0  0  0  0  0  0
    6.7555    9.3573   18.1308 C   0  0  1  0  0  0  0  0  0  0  0  0
    8.0810    9.4766   18.6574 O   0  0  0  0  0  0  0  0  0  0  0  0
    3.6386    6.5283   20.1617 C   0  0  1  0  0  0  0  0  0  0  0  0
    2.5486    6.0062   20.9296 O   0  0  0  0  0  0  0  0  0  0  0  0
    8.3522    6.6935   14.2224 C   0  0  2  0  0  0  0  0  0  0  0  0
    7.8881    5.7776   15.1980 O   0  0  0  0  0  0  0  0  0  0  0  0
    6.3614   10.6285   12.0413 C   0  0  2  0  0  0  0  0  0  0  0  0
    6.7946   14.3127   15.0989 C   0  0  2  0  0  0  0  0  0  0  0  0
    6.6576   13.3169   14.0977 O   0  0  0  0  0  0  0  0  0  0  0  0
    5.7867    9.4154   19.3827 C   0  0  2  0  0  0  0  0  0  0  0  0
    4.4810    9.2597   18.8248 O   0  0  0  0  0  0  0  0  0  0  0  0
    4.4734    5.3695   19.6137 C   0  0  2  0  0  0  0  0  0  0  0  0
    5.2090    4.8253   20.7216 O   0  0  0  0  0  0  0  0  0  0  0  0
    8.1165    8.1606   14.6595 C   0  0  2  0  0  0  0  0  0  0  0  0
    8.7340    9.0157   13.6554 O   0  0  0  0  0  0  0  0  0  0  0  0
    7.5528   11.6340   11.9387 C   0  0  2  0  0  0  0  0  0  0  0  0
    8.2082   11.7452   13.2327 O   0  0  0  0  0  0  0  0  0  0  0  0
    7.5115   15.5271   14.5098 C   0  0  0  0  0  0  0  0  0  0  0  0
    6.5571   16.2513   13.7196 O   0  0  0  0  0  0  0  0  0  0  0  0
    5.8485   10.8458   19.8829 C   0  0  1  0  0  0  0  0  0  0  0  0
    6.0468   12.0758   19.1532 O   0  0  0  0  0  0  0  0  0  0  0  0
    5.3416    5.8114   18.4409 C   0  0  2  0  0  0  0  0  0  0  0  0
    4.9109    6.8437   17.5406 O   0  0  0  0  0  0  0  0  0  0  0  0
    8.7809    8.4999   15.9501 C   0  0  0  0  0  0  0  0  0  0  0  0
    8.3083    7.5950   16.9186 O   0  0  0  0  0  0  0  0  0  0  0  0
    7.0688   13.0169   11.3856 C   0  0  1  0  0  0  0  0  0  0  0  0
    8.2539   13.8194   11.1388 O   0  0  0  0  0  0  0  0  0  0  0  0
    5.0558   11.1587   21.1893 C   0  0  0  0  0  0  0  0  0  0  0  0
    4.1068   10.0912   21.5694 N   0  0  0  0  0  0  0  0  0  0  0  0
    6.2718    4.8621   17.6889 C   0  0  0  0  0  0  0  0  0  0  0  0
    7.4275    4.5470   18.5097 O   0  0  0  0  0  0  0  0  0  0  0  0
  1  2  1  1  0  0  0
  1  8  1  0  0  0  0
  1 36  1  0  0  0  0
  3  4  1  1  0  0  0
  3 10  1  0  0  0  0
  3 47  1  0  0  0  0
  5 11  1  0  0  0  0
  5 30  1  0  0  0  0
  5 38  1  6  0  0  0
  6 21  1  6  0  0  0
  6 42  1  0  0  0  0
  7 15  1  0  0  0  0
  7 44  1  0  0  0  0
  7 32  1  1  0  0  0
  8  9  1  6  0  0  0
  8 17  1  0  0  0  0
 11 12  1  1  0  0  0
 11 20  1  0  0  0  0
 13  6  1  0  0  0  0
 13 14  1  1  0  0  0
 15 16  1  6  0  0  0
 15 24  1  0  0  0  0
 17 26  1  0  0  0  0
 18 10  1  0  0  0  0
 18 19  1  1  0  0  0
 20 21  1  1  0  0  0
 20 29  1  0  0  0  0
 22 13  1  0  0  0  0
 22 23  1  1  0  0  0
 24 25  1  6  0  0  0
 24 33  1  0  0  0  0
 26 27  1  1  0  0  0
 26 35  1  0  0  0  0
 28  2  1  6  0  0  0
 28 18  1  0  0  0  0
 29 30  1  0  0  0  0
 29 39  1  6  0  0  0
 31 22  1  0  0  0  0
 31 32  1  6  0  0  0
 31 41  1  0  0  0  0
 33 34  1  1  0  0  0
 33 43  1  0  0  0  0
 35 36  1  0  0  0  0
 35 45  1  1  0  0  0
 37 28  1  0  0  0  0
 37 38  1  1  0  0  0
 39 40  1  0  0  0  0
 41 42  1  0  0  0  0
 41 49  1  6  0  0  0
 43 44  1  0  0  0  0
 43 51  1  6  0  0  0
 45 46  1  0  0  0  0
 47 37  1  0  0  0  0
 47 48  1  6  0  0  0
 49 50  1  0  0  0  0
 51 52  1  0  0  0  0
M  END
>  <CHROM.1>
-144.39693237,-166.76316795,-101.60495861,110.83409649,53.52345596,113.33655608
-167.86873728,62.26434202,-56.74323355,-57.67698759,-13.62412875,-72.96683705
6.40737451,9.76231039,15.73109294,-0.53624572,-1.29996866,-3.06615087

>  <Name>
2esj_lig

>  <RI>
224

>  <Rbt.Current_Directory>
/home/itssahil/PROJECTS/Mol_Feturizer/New_Systems/rnas/2esj

>  <Rbt.Executable>
rbdock ($Id: //depot/dev/client3/rdock/2013.1/src/exe/rbdock.cxx#4 $)

>  <Rbt.Library>
libRbt.so (2013.1, Build901 2013/11/27)

>  <Rbt.Parameter_File>
/export/apps/rDock/src/rDock_2013.1_src/data/scripts/dock_solv.prm

>  <Rbt.Receptor>
prm/blind_docking_100.prm

>  <SCORE>
0.377989

>  <SCORE.INTER>
-14.8165

>  <SCORE.INTER.CONST>
1

>  <SCORE.INTER.POLAR>
-1.00719

>  <SCORE.INTER.ROT>
12

>  <SCORE.INTER.SOLV>
24.1897

>  <SCORE.INTER.VDW>
-26.1836

>  <SCORE.INTER.norm>
-0.284932

>  <SCORE.INTRA>
8.72986

>  <SCORE.INTRA.DIHEDRAL>
-2.22462

>  <SCORE.INTRA.DIHEDRAL.0>
32.9766

>  <SCORE.INTRA.POLAR>
0

>  <SCORE.INTRA.POLAR.0>
0

>  <SCORE.INTRA.REPUL>
0

>  <SCORE.INTRA.REPUL.0>
0

>  <SCORE.INTRA.SOLV>
5.1217

>  <SCORE.INTRA.SOLV.lig_0>
-114.358

>  <SCORE.INTRA.VDW>
7.28131

>  <SCORE.INTRA.VDW.0>
-8.24257

>  <SCORE.INTRA.norm>
0.167882

>  <SCORE.RESTR>
6.4646

>  <SCORE.RESTR.CAVITY>
6.4646

>  <SCORE.RESTR.norm>
0.124319

>  <SCORE.SYSTEM>
0

>  <SCORE.SYSTEM.CONST>
0

>  <SCORE.SYSTEM.DIHEDRAL>
0

>  <SCORE.SYSTEM.SOLV>
0

>  <SCORE.SYSTEM.norm>
0

>  <SCORE.heavy>
52

>  <SCORE.norm>
0.00726903

>  <RMSD>
23.212

$$$$
2esj_lig
 OpenBabel11021811423D
libRbt.so/2013.1/901 2013/11/27
 52 56  0  0  0  0  0  0  0  0999 V2000
    5.4794    8.1170   16.5715 C   0  0  2  0  0  0  0  0  0  0  0  0
    5.5967    7.3130   17.7609 O   0  0  0  0  0  0  0  0  0  0  0  0
    1.7639    8.0450   19.5107 C   0  0  2  0  0  0  0  0  0  0  0  0
    0.5787    8.0586   20.3839 N   0  0  0  0  0  0  0  0  0  0  0  0
    6.2672   10.1409   19.2630 C   0  0  1  0  0  0  0  0  0  0  0  0
    7.5917   13.0883   16.5209 C   0  0  1  0  0  0  0  0  0  0  0  0
    5.3628   12.3507   12.1475 C   0  0  1  0  0  0  0  0  0  0  0  0
    5.3293    7.1467   15.3628 C   0  0  2  0  0  0  0  0  0  0  0  0
    4.1949    6.2371   15.5210 N   0  0  0  0  0  0  0  0  0  0  0  0
    2.1230    6.5631   19.0955 C   0  0  0  0  0  0  0  0  0  0  0  0
    5.4266   11.1346   18.4601 C   0  0  2  0  0  0  0  0  0  0  0  0
    5.0813   10.6321   17.1511 O   0  0  0  0  0  0  0  0  0  0  0  0
    6.1691   13.7769   16.3128 C   0  0  2  0  0  0  0  0  0  0  0  0
    5.1020   12.7566   16.1364 N   0  0  0  0  0  0  0  0  0  0  0  0
    3.8540   12.1612   12.2526 C   0  0  1  0  0  0  0  0  0  0  0  0
    3.3029   12.0059   10.9295 O   0  0  0  0  0  0  0  0  0  0  0  0
    6.6396    6.3263   15.1407 C   0  0  0  0  0  0  0  0  0  0  0  0
    3.3610    6.5734   18.1112 C   0  0  2  0  0  0  0  0  0  0  0  0
    3.7237    5.2070   17.7208 N   0  0  0  0  0  0  0  0  0  0  0  0
    6.3473   12.3204   18.4422 C   0  0  2  0  0  0  0  0  0  0  0  0
    7.3824   12.1258   17.5121 O   0  0  0  0  0  0  0  0  0  0  0  0
    6.2789   14.8456   15.1377 C   0  0  1  0  0  0  0  0  0  0  0  0
    7.3809   15.7183   15.4075 O   0  0  0  0  0  0  0  0  0  0  0  0
    3.4042   10.9716   13.0922 C   0  0  1  0  0  0  0  0  0  0  0  0
    1.9965   10.8141   12.8834 O   0  0  0  0  0  0  0  0  0  0  0  0
    7.8343    7.3153   14.9987 C   0  0  2  0  0  0  0  0  0  0  0  0
    9.0469    6.6394   14.7173 O   0  0  0  0  0  0  0  0  0  0  0  0
    4.5704    7.2858   18.7705 C   0  0  2  0  0  0  0  0  0  0  0  0
    7.0662   12.3181   19.8070 C   0  0  2  0  0  0  0  0  0  0  0  0
    7.0992   10.9347   20.1203 O   0  0  0  0  0  0  0  0  0  0  0  0
    6.6076   14.1507   13.7527 C   0  0  2  0  0  0  0  0  0  0  0  0
    5.4757   13.3168   13.5000 O   0  0  0  0  0  0  0  0  0  0  0  0
    4.1180    9.6647   12.7420 C   0  0  2  0  0  0  0  0  0  0  0  0
    3.8285    8.7355   13.7991 O   0  0  0  0  0  0  0  0  0  0  0  0
    7.9348    8.1489   16.3003 C   0  0  2  0  0  0  0  0  0  0  0  0
    6.6914    8.8954   16.4330 O   0  0  0  0  0  0  0  0  0  0  0  0
    4.2520    8.7157   19.3136 C   0  0  2  0  0  0  0  0  0  0  0  0
    5.4290    9.2579   19.9749 O   0  0  0  0  0  0  0  0  0  0  0  0
    6.3775   13.0772   20.9407 C   0  0  0  0  0  0  0  0  0  0  0  0
    5.1331   12.4153   21.2108 O   0  0  0  0  0  0  0  0  0  0  0  0
    7.7580   13.2027   14.0324 C   0  0  1  0  0  0  0  0  0  0  0  0
    8.0772   12.4590   15.2281 O   0  0  0  0  0  0  0  0  0  0  0  0
    5.6055    9.8890   12.4940 C   0  0  2  0  0  0  0  0  0  0  0  0
    6.0917   11.1179   11.9327 O   0  0  0  0  0  0  0  0  0  0  0  0
    9.0215    9.1686   16.2588 C   0  0  0  0  0  0  0  0  0  0  0  0
    8.8453    9.9254   15.0856 O   0  0  0  0  0  0  0  0  0  0  0  0
    2.9933    8.6906   20.2449 C   0  0  1  0  0  0  0  0  0  0  0  0
    2.6534   10.0704   20.5451 O   0  0  0  0  0  0  0  0  0  0  0  0
    8.3561   12.4553   12.8010 C   0  0  0  0  0  0  0  0  0  0  0  0
    9.6743   11.8432   13.0699 N   0  0  0  0  0  0  0  0  0  0  0  0
    6.5658    8.7637   12.1156 C   0  0  0  0  0  0  0  0  0  0  0  0
    6.0206    7.9977   11.0090 O   0  0  0  0  0  0  0  0  0  0  0  0
  1  2  1  1  0  0  0
  1  8  1  0  0  0  0
  1 36  1  0  0  0  0
  3  4  1  1  0  0  0
  3 10  1  0  0  0  0
  3 47  1  0  0  0  0
  5 11  1  0  0  0  0
  5 30  1  0  0  0  0
  5 38  1  1  0  0  0
  6 21  1  1  0  0  0
  6 42  1  0  0  0  0
  7 15  1  0  0  0  0
  7 44  1  0  0  0  0
  7 32  1  1  0  0  0
  8  9  1  1  0  0  0
  8 17  1  0  0  0  0
 11 12  1  6  0  0  0
 11 20  1  0  0  0  0
 13  6  1  0  0  0  0
 13 14  1  6  0  0  0
 15 16  1  6  0  0  0
 15 24  1  0  0  0  0
 17 26  1  0  0  0  0
 18 10  1  0  0  0  0
 18 19  1  1  0  0  0
 20 21  1  6  0  0  0
 20 29  1  0  0  0  0
 22 13  1  0  0  0  0
 22 23  1  1  0  0  0
 24 25  1  6  0  0  0
 24 33  1  0  0  0  0
 26 27  1  1  0  0  0
 26 35  1  0  0  0  0
 28  2  1  6  0  0  0
 28 18  1  0  0  0  0
 29 30  1  0  0  0  0
 29 39  1  1  0  0  0
 31 22  1  0  0  0  0
 31 32  1  1  0  0  0
 31 41  1  0  0  0  0
 33 34  1  1  0  0  0
 33 43  1  0  0  0  0
 35 36  1  0  0  0  0
 35 45  1  6  0  0  0
 37 28  1  0  0  0  0
 37 38  1  1  0  0  0
 39 40  1  0  0  0  0
 41 42  1  0  0  0  0
 41 49  1  6  0  0  0
 43 44  1  0  0  0  0
 43 51  1  6  0  0  0
 45 46  1  0  0  0  0
 47 37  1  0  0  0  0
 47 48  1  6  0  0  0
 49 50  1  0  0  0  0
 51 52  1  0  0  0  0
M  END
>  <CHROM.1>
-112.09361869,42.17009590,-26.74217387,-161.99740809,125.39816799,68.46732862
64.22963008,-179.07782687,52.29080510,97.97444392,164.54237472,50.01521361
5.64780067,10.21997252,16.09878204,2.43711337,1.14431046,1.24193551

>  <Name>
2esj_lig

>  <RI>
224

>  <Rbt.Current_Directory>
/home/itssahil/PROJECTS/Mol_Feturizer/New_Systems/rnas/2esj

>  <Rbt.Executable>
rbdock ($Id: //depot/dev/client3/rdock/2013.1/src/exe/rbdock.cxx#4 $)

>  <Rbt.Library>
libRbt.so (2013.1, Build901 2013/11/27)

>  <Rbt.Parameter_File>
/export/apps/rDock/src/rDock_2013.1_src/data/scripts/dock_solv.prm

>  <Rbt.Receptor>
prm/blind_docking_100.prm

>  <SCORE>
16.5058

>  <SCORE.INTER>
-4.62366

>  <SCORE.INTER.CONST>
1

>  <SCORE.INTER.POLAR>
-0.269204

>  <SCORE.INTER.ROT>
12

>  <SCORE.INTER.SOLV>
16.7049

>  <SCORE.INTER.VDW>
-19.3534

>  <SCORE.INTER.norm>
-0.0889164

>  <SCORE.INTRA>
15.431

>  <SCORE.INTRA.DIHEDRAL>
-1.33547

>  <SCORE.INTRA.DIHEDRAL.0>
32.9766

>  <SCORE.INTRA.POLAR>
0

>  <SCORE.INTRA.POLAR.0>
0

>  <SCORE.INTRA.REPUL>
0.411663

>  <SCORE.INTRA.REPUL.0>
0

>  <SCORE.INTRA.SOLV>
11.0538

>  <SCORE.INTRA.SOLV.lig_0>
-114.358

>  <SCORE.INTRA.VDW>
8.5135

>  <SCORE.INTRA.VDW.0>
-8.24257

>  <SCORE.INTRA.norm>
0.296749

>  <SCORE.RESTR>
5.69845

>  <SCORE.RESTR.CAVITY>
5.69845

>  <SCORE.RESTR.norm>
0.109586

>  <SCORE.SYSTEM>
0

>  <SCORE.SYSTEM.CONST>
0

>  <SCORE.SYSTEM.DIHEDRAL>
0

>  <SCORE.SYSTEM.SOLV>
0

>  <SCORE.SYSTEM.norm>
0

>  <SCORE.heavy>
52

>  <SCORE.norm>
0.317419

>  <RMSD>
23.227

$$$$
2esj_lig
 OpenBabel11021811423D
libRbt.so/2013.1/901 2013/11/27
 52 56  0  0  0  0  0  0  0  0999 V2000
    4.3015    9.9470   13.5067 C   0  0  2  0  0  0  0  0  0  0  0  0
    3.6968    8.6491   13.3495 O   0  0  0  0  0  0  0  0  0  0  0  0
    3.1296    4.9439   15.4081 C   0  0  2  0  0  0  0  0  0  0  0  0
    3.3108    3.7080   16.1872 N   0  0  0  0  0  0  0  0  0  0  0  0
    4.7705    8.9849   16.6770 C   0  0  1  0  0  0  0  0  0  0  0  0
    6.6432   10.2660   18.0033 C   0  0  1  0  0  0  0  0  0  0  0  0
    8.7907   14.1731   16.0175 C   0  0  1  0  0  0  0  0  0  0  0  0
    3.4748   10.9553   12.6554 C   0  0  2  0  0  0  0  0  0  0  0  0
    2.0601   10.9636   13.0266 N   0  0  0  0  0  0  0  0  0  0  0  0
    4.1245    4.9698   14.1805 C   0  0  0  0  0  0  0  0  0  0  0  0
    5.2289    7.9688   17.7239 C   0  0  2  0  0  0  0  0  0  0  0  0
    4.9036    8.3798   19.0695 O   0  0  0  0  0  0  0  0  0  0  0  0
    7.0234   11.0158   16.6489 C   0  0  2  0  0  0  0  0  0  0  0  0
    8.4952   11.0242   16.4376 N   0  0  0  0  0  0  0  0  0  0  0  0
    8.3035   15.5845   16.3247 C   0  0  1  0  0  0  0  0  0  0  0  0
    9.1620   16.5360   15.6645 O   0  0  0  0  0  0  0  0  0  0  0  0
    3.6211   10.6488   11.1310 C   0  0  0  0  0  0  0  0  0  0  0  0
    3.8745    6.2751   13.3229 C   0  0  2  0  0  0  0  0  0  0  0  0
    4.7957    6.3303   12.1831 N   0  0  0  0  0  0  0  0  0  0  0  0
    6.7010    7.9207   17.4329 C   0  0  2  0  0  0  0  0  0  0  0  0
    7.3428    9.0575   17.9526 O   0  0  0  0  0  0  0  0  0  0  0  0
    6.3346   12.4513   16.6417 C   0  0  1  0  0  0  0  0  0  0  0  0
    4.9390   12.2962   16.9193 O   0  0  0  0  0  0  0  0  0  0  0  0
    6.8669   15.8815   15.9122 C   0  0  1  0  0  0  0  0  0  0  0  0
    6.6681   17.2922   16.0562 O   0  0  0  0  0  0  0  0  0  0  0  0
    5.1350   10.6226   10.7661 C   0  0  2  0  0  0  0  0  0  0  0  0
    5.3389   10.4253    9.3784 O   0  0  0  0  0  0  0  0  0  0  0  0
    4.0308    7.5406   14.2056 C   0  0  2  0  0  0  0  0  0  0  0  0
    6.8352    8.0820   15.9046 C   0  0  2  0  0  0  0  0  0  0  0  0
    5.7017    8.8758   15.5915 O   0  0  0  0  0  0  0  0  0  0  0  0
    6.9048   13.3723   17.7975 C   0  0  2  0  0  0  0  0  0  0  0  0
    8.2860   13.5329   17.4704 O   0  0  0  0  0  0  0  0  0  0  0  0
    6.5396   15.4675   14.4764 C   0  0  2  0  0  0  0  0  0  0  0  0
    5.1095   15.5156   14.3445 O   0  0  0  0  0  0  0  0  0  0  0  0
    5.8201    9.5162   11.6062 C   0  0  2  0  0  0  0  0  0  0  0  0
    5.6581    9.8750   13.0084 O   0  0  0  0  0  0  0  0  0  0  0  0
    3.1611    7.5264   15.5034 C   0  0  2  0  0  0  0  0  0  0  0  0
    3.4410    8.7183   16.2893 O   0  0  0  0  0  0  0  0  0  0  0  0
    6.7968    6.7970   15.0782 C   0  0  0  0  0  0  0  0  0  0  0  0
    7.7271    6.9508   13.9963 O   0  0  0  0  0  0  0  0  0  0  0  0
    6.8793   12.5196   19.0515 C   0  0  1  0  0  0  0  0  0  0  0  0
    7.0507   11.0946   19.2077 O   0  0  0  0  0  0  0  0  0  0  0  0
    7.1563   14.1171   14.1294 C   0  0  2  0  0  0  0  0  0  0  0  0
    8.4006   13.6940   14.7078 O   0  0  0  0  0  0  0  0  0  0  0  0
    7.2901    9.4312   11.3731 C   0  0  0  0  0  0  0  0  0  0  0  0
    7.8261   10.7145   11.5872 O   0  0  0  0  0  0  0  0  0  0  0  0
    3.3862    6.2036   16.3107 C   0  0  1  0  0  0  0  0  0  0  0  0
    2.4083    6.1838   17.3843 O   0  0  0  0  0  0  0  0  0  0  0  0
    7.2980   13.2246   20.3783 C   0  0  0  0  0  0  0  0  0  0  0  0
    6.5668   14.4844   20.6291 N   0  0  0  0  0  0  0  0  0  0  0  0
    7.0033   13.4585   12.7602 C   0  0  0  0  0  0  0  0  0  0  0  0
    8.3114   13.2109   12.1803 O   0  0  0  0  0  0  0  0  0  0  0  0
  1  2  1  6  0  0  0
  1  8  1  0  0  0  0
  1 36  1  0  0  0  0
  3  4  1  1  0  0  0
  3 10  1  0  0  0  0
  3 47  1  0  0  0  0
  5 11  1  0  0  0  0
  5 30  1  0  0  0  0
  5 38  1  6  0  0  0
  6 21  1  1  0  0  0
  6 42  1  0  0  0  0
  7 15  1  0  0  0  0
  7 44  1  0  0  0  0
  7 32  1  1  0  0  0
  8  9  1  1  0  0  0
  8 17  1  0  0  0  0
 11 12  1  1  0  0  0
 11 20  1  0  0  0  0
 13  6  1  0  0  0  0
 13 14  1  1  0  0  0
 15 16  1  6  0  0  0
 15 24  1  0  0  0  0
 17 26  1  0  0  0  0
 18 10  1  0  0  0  0
 18 19  1  6  0  0  0
 20 21  1  1  0  0  0
 20 29  1  0  0  0  0
 22 13  1  0  0  0  0
 22 23  1  1  0  0  0
 24 25  1  6  0  0  0
 24 33  1  0  0  0  0
 26 27  1  6  0  0  0
 26 35  1  0  0  0  0
 28  2  1  6  0  0  0
 28 18  1  0  0  0  0
 29 30  1  0  0  0  0
 29 39  1  6  0  0  0
 31 22  1  0  0  0  0
 31 32  1  6  0  0  0
 31 41  1  0  0  0  0
 33 34  1  1  0  0  0
 33 43  1  0  0  0  0
 35 36  1  0  0  0  0
 35 45  1  6  0  0  0
 37 28  1  0  0  0  0
 37 38  1  1  0  0  0
 39 40  1  0  0  0  0
 41 42  1  0  0  0  0
 41 49  1  1  0  0  0
 43 44  1  0  0  0  0
 43 51  1  6  0  0  0
 45 46  1  0  0  0  0
 47 37  1  0  0  0  0
 47 48  1  1  0  0  0
 49 50  1  0  0  0  0
 51 52  1  0  0  0  0
M  END
>  <CHROM.1>
-166.88723411,-69.74656748,-93.45787528,69.42882420,-31.93680598,-148.76115001
-142.82559858,57.81734405,53.83109151,-56.07184263,51.92326672,122.23134409
5.88033202,10.55838945,15.25225087,3.10042617,1.18780114,1.81687498

>  <Name>
2esj_lig

>  <RI>
0

>  <Rbt.Current_Directory>
/home/itssahil/PROJECTS/Mol_Feturizer/New_Systems/rnas/2esj

>  <Rbt.Executable>
rbdock ($Id: //depot/dev/client3/rdock/2013.1/src/exe/rbdock.cxx#4 $)

>  <Rbt.Library>
libRbt.so (2013.1, Build901 2013/11/27)

>  <Rbt.Parameter_File>
/export/apps/rDock/src/rDock_2013.1_src/data/scripts/dock_solv.prm

>  <Rbt.Receptor>
prm/blind_docking_80.prm

>  <SCORE>
8.1189

>  <SCORE.INTER>
-3.5562

>  <SCORE.INTER.CONST>
1

>  <SCORE.INTER.POLAR>
-0.114154

>  <SCORE.INTER.ROT>
12

>  <SCORE.INTER.SOLV>
20.81

>  <SCORE.INTER.VDW>
-20.527

>  <SCORE.INTER.norm>
-0.0683884

>  <SCORE.INTRA>
4.98552

>  <SCORE.INTRA.DIHEDRAL>
-9.83751

>  <SCORE.INTRA.DIHEDRAL.0>
32.9766

>  <SCORE.INTRA.POLAR>
0

>  <SCORE.INTRA.POLAR.0>
0

>  <SCORE.INTRA.REPUL>
0.0207958

>  <SCORE.INTRA.REPUL.0>
0

>  <SCORE.INTRA.SOLV>
4.95263

>  <SCORE.INTRA.SOLV.lig_0>
-114.358

>  <SCORE.INTRA.VDW>
7.32399

>  <SCORE.INTRA.VDW.0>
-8.24257

>  <SCORE.INTRA.norm>
0.0958755

>  <SCORE.RESTR>
6.68957

>  <SCORE.RESTR.CAVITY>
6.68957

>  <SCORE.RESTR.norm>
0.128646

>  <SCORE.SYSTEM>
0

>  <SCORE.SYSTEM.CONST>
0

>  <SCORE.SYSTEM.DIHEDRAL>
0

>  <SCORE.SYSTEM.SOLV>
0

>  <SCORE.SYSTEM.norm>
0

>  <SCORE.heavy>
52

>  <SCORE.norm>
0.156133

>  <RMSD>
23.230

$$$$
2esj_lig
 OpenBabel11021811423D
libRbt.so/2013.1/901 2013/11/27
 52 56  0  0  0  0  0  0  0  0999 V2000
    7.1935    9.5676   13.2835 C   0  0  2  0  0  0  0  0  0  0  0  0
    5.9904    9.0603   12.6751 O   0  0  0  0  0  0  0  0  0  0  0  0
    2.8895   10.9535   10.4195 C   0  0  2  0  0  0  0  0  0  0  0  0
    1.6936   11.6992    9.9936 N   0  0  0  0  0  0  0  0  0  0  0  0
    5.8789   12.3283   13.6149 C   0  0  1  0  0  0  0  0  0  0  0  0
    6.8067   12.1564   17.0816 C   0  0  1  0  0  0  0  0  0  0  0  0
    4.7266    8.0432   17.9514 C   0  0  1  0  0  0  0  0  0  0  0  0
    8.3620    9.3276   12.2824 C   0  0  2  0  0  0  0  0  0  0  0  0
    8.1088    9.9410   10.9791 N   0  0  0  0  0  0  0  0  0  0  0  0
    2.4868    9.7884   11.4083 C   0  0  0  0  0  0  0  0  0  0  0  0
    7.1558   12.8157   14.3009 C   0  0  2  0  0  0  0  0  0  0  0  0
    7.9153   11.7341   14.8829 O   0  0  0  0  0  0  0  0  0  0  0  0
    6.3514   10.7294   16.5362 C   0  0  2  0  0  0  0  0  0  0  0  0
    4.8706   10.5960   16.5593 N   0  0  0  0  0  0  0  0  0  0  0  0
    3.5539    7.7738   18.8871 C   0  0  1  0  0  0  0  0  0  0  0  0
    2.4263    7.3168   18.1138 O   0  0  0  0  0  0  0  0  0  0  0  0
    8.6391    7.8009   12.1050 C   0  0  0  0  0  0  0  0  0  0  0  0
    3.7754    8.9628   11.8077 C   0  0  2  0  0  0  0  0  0  0  0  0
    3.4306    7.8820   12.7371 N   0  0  0  0  0  0  0  0  0  0  0  0
    6.5798   13.7737   15.3032 C   0  0  2  0  0  0  0  0  0  0  0  0
    6.0172   13.0751   16.3848 O   0  0  0  0  0  0  0  0  0  0  0  0
    7.1413    9.5969   17.3288 C   0  0  1  0  0  0  0  0  0  0  0  0
    8.5420    9.8867   17.2764 O   0  0  0  0  0  0  0  0  0  0  0  0
    3.8182    6.7496   19.9841 C   0  0  1  0  0  0  0  0  0  0  0  0
    2.5599    6.4553   20.6007 O   0  0  0  0  0  0  0  0  0  0  0  0
    8.8821    7.1674   13.5068 C   0  0  2  0  0  0  0  0  0  0  0  0
    9.2167    5.7943   13.4134 O   0  0  0  0  0  0  0  0  0  0  0  0
    4.8425    9.8961   12.4365 C   0  0  2  0  0  0  0  0  0  0  0  0
    5.3674   14.4305   14.6117 C   0  0  2  0  0  0  0  0  0  0  0  0
    4.9358   13.4024   13.7344 O   0  0  0  0  0  0  0  0  0  0  0  0
    6.7586    9.5926   18.8660 C   0  0  2  0  0  0  0  0  0  0  0  0
    5.3677    9.2677   18.8815 O   0  0  0  0  0  0  0  0  0  0  0  0
    4.4499    5.4520   19.4768 C   0  0  2  0  0  0  0  0  0  0  0  0
    4.9183    4.7371   20.6319 O   0  0  0  0  0  0  0  0  0  0  0  0
    7.6140    7.3882   14.3683 C   0  0  2  0  0  0  0  0  0  0  0  0
    7.4280    8.8262   14.5039 O   0  0  0  0  0  0  0  0  0  0  0  0
    5.2010   11.1391   11.5605 C   0  0  2  0  0  0  0  0  0  0  0  0
    6.1486   11.9805   12.2750 O   0  0  0  0  0  0  0  0  0  0  0  0
    5.6475   15.6986   13.8060 C   0  0  0  0  0  0  0  0  0  0  0  0
    6.6040   15.3629   12.7901 O   0  0  0  0  0  0  0  0  0  0  0  0
    6.8444   11.0391   19.3139 C   0  0  1  0  0  0  0  0  0  0  0  0
    6.5834   12.2544   18.5794 O   0  0  0  0  0  0  0  0  0  0  0  0
    5.5241    5.7249   18.4298 C   0  0  2  0  0  0  0  0  0  0  0  0
    5.4295    6.8464   17.5381 O   0  0  0  0  0  0  0  0  0  0  0  0
    7.7511    6.8610   15.7561 C   0  0  0  0  0  0  0  0  0  0  0  0
    8.2419    5.5456   15.6611 O   0  0  0  0  0  0  0  0  0  0  0  0
    3.9077   11.9124   11.1345 C   0  0  1  0  0  0  0  0  0  0  0  0
    4.3093   12.9251   10.1741 O   0  0  0  0  0  0  0  0  0  0  0  0
    6.6129   11.3099   20.8324 C   0  0  0  0  0  0  0  0  0  0  0  0
    5.5022   10.5214   21.4061 N   0  0  0  0  0  0  0  0  0  0  0  0
    6.3165    4.6164   17.7407 C   0  0  0  0  0  0  0  0  0  0  0  0
    7.6002    4.4431   18.3970 O   0  0  0  0  0  0  0  0  0  0  0  0
  1  2  1  6  0  0  0
  1  8  1  0  0  0  0
  1 36  1  0  0  0  0
  3  4  1  1  0  0  0
  3 10  1  0  0  0  0
  3 47  1  0  0  0  0
  5 11  1  0  0  0  0
  5 30  1  0  0  0  0
  5 38  1  6  0  0  0
  6 21  1  6  0  0  0
  6 42  1  0  0  0  0
  7 15  1  0  0  0  0
  7 44  1  0  0  0  0
  7 32  1  1  0  0  0
  8  9  1  6  0  0  0
  8 17  1  0  0  0  0
 11 12  1  1  0  0  0
 11 20  1  0  0  0  0
 13  6  1  0  0  0  0
 13 14  1  1  0  0  0
 15 16  1  6  0  0  0
 15 24  1  0  0  0  0
 17 26  1  0  0  0  0
 18 10  1  0  0  0  0
 18 19  1  1  0  0  0
 20 21  1  1  0  0  0
 20 29  1  0  0  0  0
 22 13  1  0  0  0  0
 22 23  1  1  0  0  0
 24 25  1  6  0  0  0
 24 33  1  0  0  0  0
 26 27  1  6  0  0  0
 26 35  1  0  0  0  0
 28  2  1  6  0  0  0
 28 18  1  0  0  0  0
 29 30  1  0  0  0  0
 29 39  1  6  0  0  0
 31 22  1  0  0  0  0
 31 32  1  6  0  0  0
 31 41  1  0  0  0  0
 33 34  1  1  0  0  0
 33 43  1  0  0  0  0
 35 36  1  0  0  0  0
 35 45  1  1  0  0  0
 37 28  1  0  0  0  0
 37 38  1  1  0  0  0
 39 40  1  0  0  0  0
 41 42  1  0  0  0  0
 41 49  1  1  0  0  0
 43 44  1  0  0  0  0
 43 51  1  6  0  0  0
 45 46  1  0  0  0  0
 47 37  1  0  0  0  0
 47 48  1  6  0  0  0
 49 50  1  0  0  0  0
 51 52  1  0  0  0  0
M  END
>  <CHROM.1>
-121.42742421,162.10748925,-101.72356010,153.26124226,54.74068520,-178.75153595
58.94463451,44.97647181,-49.16291133,-48.85882122,-41.77040866,-97.65548144
5.87813725,9.63760316,15.45606680,-1.76640550,-1.46028047,2.02857905

>  <Name>
2esj_lig

>  <RI>
224

>  <Rbt.Current_Directory>
/home/itssahil/PROJECTS/Mol_Feturizer/New_Systems/rnas/2esj

>  <Rbt.Executable>
rbdock ($Id: //depot/dev/client3/rdock/2013.1/src/exe/rbdock.cxx#4 $)

>  <Rbt.Library>
libRbt.so (2013.1, Build901 2013/11/27)

>  <Rbt.Parameter_File>
/export/apps/rDock/src/rDock_2013.1_src/data/scripts/dock_solv.prm

>  <Rbt.Receptor>
prm/blind_docking_100.prm

>  <SCORE>
2.01373

>  <SCORE.INTER>
-7.99961

>  <SCORE.INTER.CONST>
1

>  <SCORE.INTER.POLAR>
-0.845851

>  <SCORE.INTER.ROT>
12

>  <SCORE.INTER.SOLV>
29.4065

>  <SCORE.INTER.VDW>
-23.9157

>  <SCORE.INTER.norm>
-0.153839

>  <SCORE.INTRA>
5.45981

>  <SCORE.INTRA.DIHEDRAL>
-7.62709

>  <SCORE.INTRA.DIHEDRAL.0>
32.9766

>  <SCORE.INTRA.POLAR>
0

>  <SCORE.INTRA.POLAR.0>
0

>  <SCORE.INTRA.REPUL>
0.0320545

>  <SCORE.INTRA.REPUL.0>
0

>  <SCORE.INTRA.SOLV>
6.10541

>  <SCORE.INTRA.SOLV.lig_0>
-114.358

>  <SCORE.INTRA.VDW>
6.06038

>  <SCORE.INTRA.VDW.0>
-8.24257

>  <SCORE.INTRA.norm>
0.104996

>  <SCORE.RESTR>
4.55353

>  <SCORE.RESTR.CAVITY>
4.55353

>  <SCORE.RESTR.norm>
0.0875679

>  <SCORE.SYSTEM>
0

>  <SCORE.SYSTEM.CONST>
0

>  <SCORE.SYSTEM.DIHEDRAL>
0

>  <SCORE.SYSTEM.SOLV>
0

>  <SCORE.SYSTEM.norm>
0

>  <SCORE.heavy>
52

>  <SCORE.norm>
0.0387257

>  <RMSD>
23.272

$$$$
2esj_lig
 OpenBabel11021811423D
libRbt.so/2013.1/901 2013/11/27
 52 56  0  0  0  0  0  0  0  0999 V2000
    6.3442   12.0439   12.1560 C   0  0  2  0  0  0  0  0  0  0  0  0
    6.2921   11.1556   13.2888 O   0  0  0  0  0  0  0  0  0  0  0  0
    7.8669    7.6063   11.4969 C   0  0  2  0  0  0  0  0  0  0  0  0
    8.3568    6.2431   11.2344 N   0  0  0  0  0  0  0  0  0  0  0  0
    4.0381    8.6466   13.7918 C   0  0  1  0  0  0  0  0  0  0  0  0
    2.5177    6.1172   16.2688 C   0  0  1  0  0  0  0  0  0  0  0  0
    3.3409    4.3611   19.8535 C   0  0  1  0  0  0  0  0  0  0  0  0
    6.3370   13.5019   12.7031 C   0  0  2  0  0  0  0  0  0  0  0  0
    7.4332   13.7468   13.6399 N   0  0  0  0  0  0  0  0  0  0  0  0
    8.6705    8.2579   12.6916 C   0  0  0  0  0  0  0  0  0  0  0  0
    4.2559    7.1427   13.9629 C   0  0  2  0  0  0  0  0  0  0  0  0
    3.1014    6.3706   13.5672 O   0  0  0  0  0  0  0  0  0  0  0  0
    1.4745    6.5150   17.4067 C   0  0  2  0  0  0  0  0  0  0  0  0
    2.1733    6.9894   18.6304 N   0  0  0  0  0  0  0  0  0  0  0  0
    3.2263    5.2915   21.0554 C   0  0  1  0  0  0  0  0  0  0  0  0
    4.2079    4.9143   22.0416 O   0  0  0  0  0  0  0  0  0  0  0  0
    4.9721   13.8342   13.3857 C   0  0  0  0  0  0  0  0  0  0  0  0
    8.1714    9.7412   12.9198 C   0  0  2  0  0  0  0  0  0  0  0  0
    8.8930   10.3650   14.0338 N   0  0  0  0  0  0  0  0  0  0  0  0
    4.5685    7.0763   15.4299 C   0  0  2  0  0  0  0  0  0  0  0  0
    3.3933    7.2033   16.1898 O   0  0  0  0  0  0  0  0  0  0  0  0
    0.4693    5.3013   17.6338 C   0  0  1  0  0  0  0  0  0  0  0  0
   -0.0775    4.9108   16.3700 O   0  0  0  0  0  0  0  0  0  0  0  0
    3.4103    6.7734   20.7514 C   0  0  1  0  0  0  0  0  0  0  0  0
    3.5070    7.4544   22.0073 O   0  0  0  0  0  0  0  0  0  0  0  0
    3.8213   13.5434   12.3774 C   0  0  2  0  0  0  0  0  0  0  0  0
    2.5558   13.8969   12.9062 O   0  0  0  0  0  0  0  0  0  0  0  0
    6.6437    9.7631   13.1860 C   0  0  2  0  0  0  0  0  0  0  0  0
    5.3616    8.3597   15.7515 C   0  0  2  0  0  0  0  0  0  0  0  0
    4.8372    9.2756   14.8033 O   0  0  0  0  0  0  0  0  0  0  0  0
    1.2216    4.0239   18.1919 C   0  0  2  0  0  0  0  0  0  0  0  0
    1.7231    4.4384   19.4635 O   0  0  0  0  0  0  0  0  0  0  0  0
    4.6509    7.0811   19.9111 C   0  0  2  0  0  0  0  0  0  0  0  0
    4.5177    8.4361   19.4519 O   0  0  0  0  0  0  0  0  0  0  0  0
    3.8792   12.0448   11.9901 C   0  0  2  0  0  0  0  0  0  0  0  0
    5.1659   11.8131   11.3484 O   0  0  0  0  0  0  0  0  0  0  0  0
    5.7947    9.0283   12.0997 C   0  0  2  0  0  0  0  0  0  0  0  0
    4.3922    9.0442   12.4858 O   0  0  0  0  0  0  0  0  0  0  0  0
    6.8795    8.2801   15.5920 C   0  0  0  0  0  0  0  0  0  0  0  0
    7.4464    9.4020   16.2845 O   0  0  0  0  0  0  0  0  0  0  0  0
    2.4426    3.8490   17.3094 C   0  0  1  0  0  0  0  0  0  0  0  0
    3.2488    4.8386   16.6347 O   0  0  0  0  0  0  0  0  0  0  0  0
    4.8401    6.0572   18.7974 C   0  0  2  0  0  0  0  0  0  0  0  0
    4.4359    4.6895   18.9644 O   0  0  0  0  0  0  0  0  0  0  0  0
    2.8464   11.6602   10.9862 C   0  0  0  0  0  0  0  0  0  0  0  0
    2.9597   10.2737   10.7744 O   0  0  0  0  0  0  0  0  0  0  0  0
    6.3374    7.5801   11.8536 C   0  0  1  0  0  0  0  0  0  0  0  0
    5.6259    7.0438   10.7066 O   0  0  0  0  0  0  0  0  0  0  0  0
    3.3178    2.5862   17.5783 C   0  0  0  0  0  0  0  0  0  0  0  0
    2.7862    1.3592   16.9484 N   0  0  0  0  0  0  0  0  0  0  0  0
    6.0022    6.1075   17.8082 C   0  0  0  0  0  0  0  0  0  0  0  0
    6.0006    4.9142   16.9805 O   0  0  0  0  0  0  0  0  0  0  0  0
  1  2  1  1  0  0  0
  1  8  1  0  0  0  0
  1 36  1  0  0  0  0
  3  4  1  1  0  0  0
  3 10  1  0  0  0  0
  3 47  1  0  0  0  0
  5 11  1  0  0  0  0
  5 30  1  0  0  0  0
  5 38  1  6  0  0  0
  6 21  1  1  0  0  0
  6 42  1  0  0  0  0
  7 15  1  0  0  0  0
  7 44  1  0  0  0  0
  7 32  1  6  0  0  0
  8  9  1  1  0  0  0
  8 17  1  0  0  0  0
 11 12  1  1  0  0  0
 11 20  1  0  0  0  0
 13  6  1  0  0  0  0
 13 14  1  1  0  0  0
 15 16  1  1  0  0  0
 15 24  1  0  0  0  0
 17 26  1  0  0  0  0
 18 10  1  0  0  0  0
 18 19  1  1  0  0  0
 20 21  1  1  0  0  0
 20 29  1  0  0  0  0
 22 13  1  0  0  0  0
 22 23  1  6  0  0  0
 24 25  1  1  0  0  0
 24 33  1  0  0  0  0
 26 27  1  1  0  0  0
 26 35  1  0  0  0  0
 28  2  1  6  0  0  0
 28 18  1  0  0  0  0
 29 30  1  0  0  0  0
 29 39  1  6  0  0  0
 31 22  1  0  0  0  0
 31 32  1  1  0  0  0
 31 41  1  0  0  0  0
 33 34  1  6  0  0  0
 33 43  1  0  0  0  0
 35 36  1  0  0  0  0
 35 45  1  6  0  0  0
 37 28  1  0  0  0  0
 37 38  1  1  0  0  0
 39 40  1  0  0  0  0
 41 42  1  0  0  0  0
 41 49  1  1  0  0  0
 43 44  1  0  0  0  0
 43 51  1  1  0  0  0
 45 46  1  0  0  0  0
 47 37  1  0  0  0  0
 47 48  1  6  0  0  0
 49 50  1  0  0  0  0
 51 52  1  0  0  0  0
M  END
>  <CHROM.1>
-162.80224672,-69.63947120,169.56026561,163.83352859,75.11380307,68.17669869
-163.82378304,-123.28669671,-177.00511470,-49.36485642,81.44648906,172.95435483
4.53345181,7.89761977,15.46997798,0.40539072,1.25707839,0.31688315

>  <Name>
2esj_lig

>  <RI>
0

>  <Rbt.Current_Directory>
/home/itssahil/PROJECTS/Mol_Feturizer/New_Systems/rnas/2esj

>  <Rbt.Executable>
rbdock ($Id: //depot/dev/client3/rdock/2013.1/src/exe/rbdock.cxx#4 $)

>  <Rbt.Library>
libRbt.so (2013.1, Build901 2013/11/27)

>  <Rbt.Parameter_File>
/export/apps/rDock/src/rDock_2013.1_src/data/scripts/dock_solv.prm

>  <Rbt.Receptor>
prm/blind_docking_80.prm

>  <SCORE>
33.0164

>  <SCORE.INTER>
18.4425

>  <SCORE.INTER.CONST>
1

>  <SCORE.INTER.POLAR>
-0.782707

>  <SCORE.INTER.ROT>
12

>  <SCORE.INTER.SOLV>
18.8337

>  <SCORE.INTER.VDW>
-2.97387

>  <SCORE.INTER.norm>
0.354663

>  <SCORE.INTRA>
7.42008

>  <SCORE.INTRA.DIHEDRAL>
-14.9756

>  <SCORE.INTRA.DIHEDRAL.0>
32.9766

>  <SCORE.INTRA.POLAR>
0

>  <SCORE.INTRA.POLAR.0>
0

>  <SCORE.INTRA.REPUL>
0

>  <SCORE.INTRA.REPUL.0>
0

>  <SCORE.INTRA.SOLV>
9.1219

>  <SCORE.INTRA.SOLV.lig_0>
-114.358

>  <SCORE.INTRA.VDW>
10.3469

>  <SCORE.INTRA.VDW.0>
-8.24257

>  <SCORE.INTRA.norm>
0.142694

>  <SCORE.RESTR>
7.15387

>  <SCORE.RESTR.CAVITY>
7.15387

>  <SCORE.RESTR.norm>
0.137574

>  <SCORE.SYSTEM>
0

>  <SCORE.SYSTEM.CONST>
0

>  <SCORE.SYSTEM.DIHEDRAL>
0

>  <SCORE.SYSTEM.SOLV>
0

>  <SCORE.SYSTEM.norm>
0

>  <SCORE.heavy>
52

>  <SCORE.norm>
0.634932

>  <RMSD>
23.291

$$$$
2esj_lig
 OpenBabel11021811423D
libRbt.so/2013.1/901 2013/11/27
 52 56  0  0  0  0  0  0  0  0999 V2000
    5.7049   12.5269   17.8042 C   0  0  2  0  0  0  0  0  0  0  0  0
    6.9626   13.0396   18.2842 O   0  0  0  0  0  0  0  0  0  0  0  0
    7.5675   16.5268   15.8839 C   0  0  2  0  0  0  0  0  0  0  0  0
    8.1425   17.6733   15.1614 N   0  0  0  0  0  0  0  0  0  0  0  0
    7.1412   11.8284   14.8061 C   0  0  1  0  0  0  0  0  0  0  0  0
    4.8621    9.6286   12.2553 C   0  0  1  0  0  0  0  0  0  0  0  0
    5.0142    7.1912   14.6427 C   0  0  1  0  0  0  0  0  0  0  0  0
    4.6856   12.6113   18.9785 C   0  0  2  0  0  0  0  0  0  0  0  0
    4.5567   13.9707   19.5027 N   0  0  0  0  0  0  0  0  0  0  0  0
    7.9330   16.6062   17.4194 C   0  0  0  0  0  0  0  0  0  0  0  0
    6.2537   12.6527   13.8726 C   0  0  2  0  0  0  0  0  0  0  0  0
    5.0346   13.0872   14.5134 O   0  0  0  0  0  0  0  0  0  0  0  0
    3.6163    8.8624   12.8896 C   0  0  2  0  0  0  0  0  0  0  0  0
    3.8311    8.5996   14.3373 N   0  0  0  0  0  0  0  0  0  0  0  0
    6.5104    6.9864   14.4348 C   0  0  1  0  0  0  0  0  0  0  0  0
    7.2061    8.2038   14.7701 O   0  0  0  0  0  0  0  0  0  0  0  0
    5.0808   11.6341   20.1308 C   0  0  0  0  0  0  0  0  0  0  0  0
    7.2579   15.4001   18.1882 C   0  0  2  0  0  0  0  0  0  0  0  0
    7.5933   15.4428   19.6153 N   0  0  0  0  0  0  0  0  0  0  0  0
    6.0468   11.6723   12.7546 C   0  0  2  0  0  0  0  0  0  0  0  0
    5.1073   10.6951   13.1244 O   0  0  0  0  0  0  0  0  0  0  0  0
    3.3009    7.5725   12.0112 C   0  0  1  0  0  0  0  0  0  0  0  0
    3.1827    7.9643   10.6397 O   0  0  0  0  0  0  0  0  0  0  0  0
    7.1306    5.8525   15.2421 C   0  0  1  0  0  0  0  0  0  0  0  0
    8.5516    5.9627   15.1044 O   0  0  0  0  0  0  0  0  0  0  0  0
    5.2345   10.1998   19.5435 C   0  0  2  0  0  0  0  0  0  0  0  0
    5.5178    9.2456   20.5513 O   0  0  0  0  0  0  0  0  0  0  0  0
    7.7004   14.0485   17.5696 C   0  0  2  0  0  0  0  0  0  0  0  0
    7.3700   10.8894   12.6288 C   0  0  2  0  0  0  0  0  0  0  0  0
    7.8554   10.9149   13.9618 O   0  0  0  0  0  0  0  0  0  0  0  0
    4.4946    6.5323   12.0617 C   0  0  2  0  0  0  0  0  0  0  0  0
    4.5609    6.1390   13.4333 O   0  0  0  0  0  0  0  0  0  0  0  0
    6.7617    5.8788   16.7264 C   0  0  2  0  0  0  0  0  0  0  0  0
    7.1478    4.6078   17.2745 O   0  0  0  0  0  0  0  0  0  0  0  0
    6.3418   10.2320   18.4610 C   0  0  2  0  0  0  0  0  0  0  0  0
    5.8999   11.1463   17.4171 O   0  0  0  0  0  0  0  0  0  0  0  0
    7.4771   13.9479   16.0266 C   0  0  2  0  0  0  0  0  0  0  0  0
    7.9937   12.6770   15.5424 O   0  0  0  0  0  0  0  0  0  0  0  0
    8.4252   11.4811   11.6949 C   0  0  0  0  0  0  0  0  0  0  0  0
    8.7086   12.8120   12.1508 O   0  0  0  0  0  0  0  0  0  0  0  0
    5.7530    7.3398   11.8077 C   0  0  1  0  0  0  0  0  0  0  0  0
    6.0633    8.7069   12.1531 O   0  0  0  0  0  0  0  0  0  0  0  0
    5.2922    6.2297   16.9313 C   0  0  2  0  0  0  0  0  0  0  0  0
    4.6012    7.1065   16.0282 O   0  0  0  0  0  0  0  0  0  0  0  0
    6.5441    8.9150   17.7924 C   0  0  0  0  0  0  0  0  0  0  0  0
    7.8202    8.9344   17.1996 O   0  0  0  0  0  0  0  0  0  0  0  0
    8.1092   15.1771   15.2906 C   0  0  1  0  0  0  0  0  0  0  0  0
    7.6922   15.1070   13.9011 O   0  0  0  0  0  0  0  0  0  0  0  0
    7.0842    6.5341   11.7000 C   0  0  0  0  0  0  0  0  0  0  0  0
    8.0317    7.0959   10.7144 N   0  0  0  0  0  0  0  0  0  0  0  0
    4.6463    6.3389   18.3106 C   0  0  0  0  0  0  0  0  0  0  0  0
    3.7902    7.5106   18.3657 O   0  0  0  0  0  0  0  0  0  0  0  0
  1  2  1  1  0  0  0
  1  8  1  0  0  0  0
  1 36  1  0  0  0  0
  3  4  1  6  0  0  0
  3 10  1  0  0  0  0
  3 47  1  0  0  0  0
  5 11  1  0  0  0  0
  5 30  1  0  0  0  0
  5 38  1  6  0  0  0
  6 21  1  1  0  0  0
  6 42  1  0  0  0  0
  7 15  1  0  0  0  0
  7 44  1  0  0  0  0
  7 32  1  6  0  0  0
  8  9  1  1  0  0  0
  8 17  1  0  0  0  0
 11 12  1  1  0  0  0
 11 20  1  0  0  0  0
 13  6  1  0  0  0  0
 13 14  1  1  0  0  0
 15 16  1  1  0  0  0
 15 24  1  0  0  0  0
 17 26  1  0  0  0  0
 18 10  1  0  0  0  0
 18 19  1  1  0  0  0
 20 21  1  1  0  0  0
 20 29  1  0  0  0  0
 22 13  1  0  0  0  0
 22 23  1  6  0  0  0
 24 25  1  1  0  0  0
 24 33  1  0  0  0  0
 26 27  1  1  0  0  0
 26 35  1  0  0  0  0
 28  2  1  1  0  0  0
 28 18  1  0  0  0  0
 29 30  1  0  0  0  0
 29 39  1  6  0  0  0
 31 22  1  0  0  0  0
 31 32  1  1  0  0  0
 31 41  1  0  0  0  0
 33 34  1  6  0  0  0
 33 43  1  0  0  0  0
 35 36  1  0  0  0  0
 35 45  1  6  0  0  0
 37 28  1  0  0  0  0
 37 38  1  6  0  0  0
 39 40  1  0  0  0  0
 41 42  1  0  0  0  0
 41 49  1  1  0  0  0
 43 44  1  0  0  0  0
 43 51  1  1  0  0  0
 45 46  1  0  0  0  0
 47 37  1  0  0  0  0
 47 48  1  6  0  0  0
 49 50  1  0  0  0  0
 51 52  1  0  0  0  0
M  END
>  <CHROM.1>
-129.31177086,38.64794735,-171.95121223,-83.65565808,-174.77163944,93.67689118
57.28001624,-67.08806002,-160.14936646,125.50586060,144.51972528,136.64859074
6.26238815,10.30933284,15.41236462,0.77096404,1.32376228,1.17022275

>  <Name>
2esj_lig

>  <RI>
224

>  <Rbt.Current_Directory>
/home/itssahil/PROJECTS/Mol_Feturizer/New_Systems/rnas/2esj

>  <Rbt.Executable>
rbdock ($Id: //depot/dev/client3/rdock/2013.1/src/exe/rbdock.cxx#4 $)

>  <Rbt.Library>
libRbt.so (2013.1, Build901 2013/11/27)

>  <Rbt.Parameter_File>
/export/apps/rDock/src/rDock_2013.1_src/data/scripts/dock_solv.prm

>  <Rbt.Receptor>
prm/blind_docking_100.prm

>  <SCORE>
14.9752

>  <SCORE.INTER>
-15.0091

>  <SCORE.INTER.CONST>
1

>  <SCORE.INTER.POLAR>
-1.74443

>  <SCORE.INTER.ROT>
12

>  <SCORE.INTER.SOLV>
18.9489

>  <SCORE.INTER.VDW>
-22.1076

>  <SCORE.INTER.norm>
-0.288637

>  <SCORE.INTRA>
23.9275

>  <SCORE.INTRA.DIHEDRAL>
-2.18516

>  <SCORE.INTRA.DIHEDRAL.0>
32.9766

>  <SCORE.INTRA.POLAR>
0

>  <SCORE.INTRA.POLAR.0>
0

>  <SCORE.INTRA.REPUL>
0.0467722

>  <SCORE.INTRA.REPUL.0>
0

>  <SCORE.INTRA.SOLV>
8.44391

>  <SCORE.INTRA.SOLV.lig_0>
-114.358

>  <SCORE.INTRA.VDW>
20.5643

>  <SCORE.INTRA.VDW.0>
-8.24257

>  <SCORE.INTRA.norm>
0.460145

>  <SCORE.RESTR>
6.05673

>  <SCORE.RESTR.CAVITY>
6.05673

>  <SCORE.RESTR.norm>
0.116476

>  <SCORE.SYSTEM>
0

>  <SCORE.SYSTEM.CONST>
0

>  <SCORE.SYSTEM.DIHEDRAL>
0

>  <SCORE.SYSTEM.SOLV>
0

>  <SCORE.SYSTEM.norm>
0

>  <SCORE.heavy>
52

>  <SCORE.norm>
0.287984

>  <RMSD>
23.318

$$$$
2esj_lig
 OpenBabel11021811423D
libRbt.so/2013.1/901 2013/11/27
 52 56  0  0  0  0  0  0  0  0999 V2000
    8.5531   10.1496   14.7783 C   0  0  2  0  0  0  0  0  0  0  0  0
    7.5721   10.2958   13.7338 O   0  0  0  0  0  0  0  0  0  0  0  0
    8.1030   13.7801   11.3119 C   0  0  2  0  0  0  0  0  0  0  0  0
    8.4096   14.7206   10.2216 N   0  0  0  0  0  0  0  0  0  0  0  0
    5.1332    9.9135   12.6294 C   0  0  1  0  0  0  0  0  0  0  0  0
    3.8767    6.8037   14.9056 C   0  0  1  0  0  0  0  0  0  0  0  0
    4.6613    6.5608   19.9508 C   0  0  1  0  0  0  0  0  0  0  0  0
    8.1973    8.8620   15.5786 C   0  0  2  0  0  0  0  0  0  0  0  0
    8.1316    7.6784   14.7219 N   0  0  0  0  0  0  0  0  0  0  0  0
    9.3793   12.9194   11.6696 C   0  0  0  0  0  0  0  0  0  0  0  0
    3.6713    9.5241   12.4066 C   0  0  2  0  0  0  0  0  0  0  0  0
    2.7582   10.3738   13.1344 O   0  0  0  0  0  0  0  0  0  0  0  0
    3.1143    6.9442   16.2985 C   0  0  2  0  0  0  0  0  0  0  0  0
    3.5183    8.1881   17.0059 N   0  0  0  0  0  0  0  0  0  0  0  0
    3.2421    6.0795   19.6720 C   0  0  1  0  0  0  0  0  0  0  0  0
    2.7556    5.3511   20.8171 O   0  0  0  0  0  0  0  0  0  0  0  0
    6.8478    9.0373   16.3449 C   0  0  0  0  0  0  0  0  0  0  0  0
    9.0479   11.9579   12.8809 C   0  0  2  0  0  0  0  0  0  0  0  0
   10.2136   11.1370   13.2245 N   0  0  0  0  0  0  0  0  0  0  0  0
    3.6930    8.0981   12.8758 C   0  0  2  0  0  0  0  0  0  0  0  0
    3.7108    8.0420   14.2797 O   0  0  0  0  0  0  0  0  0  0  0  0
    3.3098    5.6022   17.1326 C   0  0  1  0  0  0  0  0  0  0  0  0
    2.9442    4.4890   16.3104 O   0  0  0  0  0  0  0  0  0  0  0  0
    2.2343    7.1760   19.3490 C   0  0  1  0  0  0  0  0  0  0  0  0
    0.9359    6.5725   19.3536 O   0  0  0  0  0  0  0  0  0  0  0  0
    6.9346   10.3153   17.2309 C   0  0  2  0  0  0  0  0  0  0  0  0
    5.7685   10.4927   18.0151 O   0  0  0  0  0  0  0  0  0  0  0  0
    7.8337   11.0557   12.5391 C   0  0  2  0  0  0  0  0  0  0  0  0
    5.0696    7.5381   12.4622 C   0  0  2  0  0  0  0  0  0  0  0  0
    5.8852    8.6982   12.5068 O   0  0  0  0  0  0  0  0  0  0  0  0
    4.8301    5.3752   17.5152 C   0  0  2  0  0  0  0  0  0  0  0  0
    5.1494    6.4820   18.3599 O   0  0  0  0  0  0  0  0  0  0  0  0
    2.2545    8.3428   20.3381 C   0  0  2  0  0  0  0  0  0  0  0  0
    1.5000    9.4094   19.7399 O   0  0  0  0  0  0  0  0  0  0  0  0
    7.1920   11.5321   16.3079 C   0  0  2  0  0  0  0  0  0  0  0  0
    8.4674   11.3078   15.6417 O   0  0  0  0  0  0  0  0  0  0  0  0
    6.5695   11.8391   12.0606 C   0  0  2  0  0  0  0  0  0  0  0  0
    5.5226   10.8969   11.6965 O   0  0  0  0  0  0  0  0  0  0  0  0
    5.1595    6.9098   11.0720 C   0  0  0  0  0  0  0  0  0  0  0  0
    3.9793    6.1164   10.8790 O   0  0  0  0  0  0  0  0  0  0  0  0
    5.6129    5.5997   16.2357 C   0  0  1  0  0  0  0  0  0  0  0  0
    5.3437    6.4844   15.1269 O   0  0  0  0  0  0  0  0  0  0  0  0
    3.6792    8.7229   20.7255 C   0  0  2  0  0  0  0  0  0  0  0  0
    4.7228    7.7389   20.7909 O   0  0  0  0  0  0  0  0  0  0  0  0
    7.3415   12.8125   17.0567 C   0  0  0  0  0  0  0  0  0  0  0  0
    6.1075   13.0859   17.6754 O   0  0  0  0  0  0  0  0  0  0  0  0
    6.9305   12.8214   10.8956 C   0  0  1  0  0  0  0  0  0  0  0  0
    5.7578   13.6410   10.6458 O   0  0  0  0  0  0  0  0  0  0  0  0
    7.1484    5.3354   16.3065 C   0  0  0  0  0  0  0  0  0  0  0  0
    7.6401    5.0990   17.6802 N   0  0  0  0  0  0  0  0  0  0  0  0
    4.0039    9.8474   21.7063 C   0  0  0  0  0  0  0  0  0  0  0  0
    5.1778   10.5742   21.2562 O   0  0  0  0  0  0  0  0  0  0  0  0
  1  2  1  6  0  0  0
  1  8  1  0  0  0  0
  1 36  1  0  0  0  0
  3  4  1  6  0  0  0
  3 10  1  0  0  0  0
  3 47  1  0  0  0  0
  5 11  1  0  0  0  0
  5 30  1  0  0  0  0
  5 38  1  6  0  0  0
  6 21  1  1  0  0  0
  6 42  1  0  0  0  0
  7 15  1  0  0  0  0
  7 44  1  0  0  0  0
  7 32  1  6  0  0  0
  8  9  1  6  0  0  0
  8 17  1  0  0  0  0
 11 12  1  1  0  0  0
 11 20  1  0  0  0  0
 13  6  1  0  0  0  0
 13 14  1  1  0  0  0
 15 16  1  1  0  0  0
 15 24  1  0  0  0  0
 17 26  1  0  0  0  0
 18 10  1  0  0  0  0
 18 19  1  6  0  0  0
 20 21  1  1  0  0  0
 20 29  1  0  0  0  0
 22 13  1  0  0  0  0
 22 23  1  6  0  0  0
 24 25  1  1  0  0  0
 24 33  1  0  0  0  0
 26 27  1  6  0  0  0
 26 35  1  0  0  0  0
 28  2  1  1  0  0  0
 28 18  1  0  0  0  0
 29 30  1  0  0  0  0
 29 39  1  6  0  0  0
 31 22  1  0  0  0  0
 31 32  1  1  0  0  0
 31 41  1  0  0  0  0
 33 34  1  6  0  0  0
 33 43  1  0  0  0  0
 35 36  1  0  0  0  0
 35 45  1  1  0  0  0
 37 28  1  0  0  0  0
 37 38  1  6  0  0  0
 39 40  1  0  0  0  0
 41 42  1  0  0  0  0
 41 49  1  1  0  0  0
 43 44  1  0  0  0  0
 43 51  1  1  0  0  0
 45 46  1  0  0  0  0
 47 37  1  0  0  0  0
 47 48  1  1  0  0  0
 49 50  1  0  0  0  0
 51 52  1  0  0  0  0
M  END
>  <CHROM.1>
-157.14396778,151.59332103,-150.94889826,-43.97120046,-173.22041006,-18.19458956
-42.30032642,76.62115994,-64.87773113,53.45265333,-8.77644872,-141.34823014
5.45608298,9.00430050,15.66327885,-0.69057474,1.02025828,1.35128624

>  <Name>
2esj_lig

>  <RI>
224

>  <Rbt.Current_Directory>
/home/itssahil/PROJECTS/Mol_Feturizer/New_Systems/rnas/2esj

>  <Rbt.Executable>
rbdock ($Id: //depot/dev/client3/rdock/2013.1/src/exe/rbdock.cxx#4 $)

>  <Rbt.Library>
libRbt.so (2013.1, Build901 2013/11/27)

>  <Rbt.Parameter_File>
/export/apps/rDock/src/rDock_2013.1_src/data/scripts/dock_solv.prm

>  <Rbt.Receptor>
prm/blind_docking_100.prm

>  <SCORE>
20.9241

>  <SCORE.INTER>
-0.737955

>  <SCORE.INTER.CONST>
1

>  <SCORE.INTER.POLAR>
0

>  <SCORE.INTER.ROT>
12

>  <SCORE.INTER.SOLV>
22.361

>  <SCORE.INTER.VDW>
-19.5456

>  <SCORE.INTER.norm>
-0.0141914

>  <SCORE.INTRA>
13.2159

>  <SCORE.INTRA.DIHEDRAL>
-8.09236

>  <SCORE.INTRA.DIHEDRAL.0>
32.9766

>  <SCORE.INTRA.POLAR>
0

>  <SCORE.INTRA.POLAR.0>
0

>  <SCORE.INTRA.REPUL>
0.162698

>  <SCORE.INTRA.REPUL.0>
0

>  <SCORE.INTRA.SOLV>
9.52065

>  <SCORE.INTRA.SOLV.lig_0>
-114.358

>  <SCORE.INTRA.VDW>
11.6882

>  <SCORE.INTRA.VDW.0>
-8.24257

>  <SCORE.INTRA.norm>
0.254151

>  <SCORE.RESTR>
8.44617

>  <SCORE.RESTR.CAVITY>
8.44617

>  <SCORE.RESTR.norm>
0.162426

>  <SCORE.SYSTEM>
0

>  <SCORE.SYSTEM.CONST>
0

>  <SCORE.SYSTEM.DIHEDRAL>
0

>  <SCORE.SYSTEM.SOLV>
0

>  <SCORE.SYSTEM.norm>
0

>  <SCORE.heavy>
52

>  <SCORE.norm>
0.402386

>  <RMSD>
23.344

$$$$
2esj_lig
 OpenBabel11021811423D
libRbt.so/2013.1/901 2013/11/27
 52 56  0  0  0  0  0  0  0  0999 V2000
    8.1537    9.7545   13.0770 C   0  0  2  0  0  0  0  0  0  0  0  0
    6.8424   10.3273   13.2425 O   0  0  0  0  0  0  0  0  0  0  0  0
    6.5107   13.0519    9.9631 C   0  0  2  0  0  0  0  0  0  0  0  0
    6.1370   14.1567    9.0646 N   0  0  0  0  0  0  0  0  0  0  0  0
    7.4413   13.0314   14.5929 C   0  0  1  0  0  0  0  0  0  0  0  0
    6.7563   12.0729   18.0391 C   0  0  1  0  0  0  0  0  0  0  0  0
    4.0714    7.7382   17.6750 C   0  0  1  0  0  0  0  0  0  0  0  0
    8.0875    8.7737   11.8693 C   0  0  2  0  0  0  0  0  0  0  0  0
    7.6204    9.4298   10.6484 N   0  0  0  0  0  0  0  0  0  0  0  0
    5.2301   12.2230   10.3760 C   0  0  0  0  0  0  0  0  0  0  0  0
    8.3191   13.1614   15.8383 C   0  0  2  0  0  0  0  0  0  0  0  0
    8.6824   11.8782   16.3922 O   0  0  0  0  0  0  0  0  0  0  0  0
    6.5275   10.8199   17.0806 C   0  0  2  0  0  0  0  0  0  0  0  0
    5.1882   10.8767   16.4371 N   0  0  0  0  0  0  0  0  0  0  0  0
    3.1188    7.3040   18.7830 C   0  0  1  0  0  0  0  0  0  0  0  0
    2.0342    6.5494   18.2064 O   0  0  0  0  0  0  0  0  0  0  0  0
    7.1749    7.5490   12.1953 C   0  0  0  0  0  0  0  0  0  0  0  0
    5.6583   11.0069   11.2920 C   0  0  2  0  0  0  0  0  0  0  0  0
    4.4848   10.2280   11.7009 N   0  0  0  0  0  0  0  0  0  0  0  0
    7.4234   13.9823   16.7204 C   0  0  2  0  0  0  0  0  0  0  0  0
    6.4049   13.1835   17.2672 O   0  0  0  0  0  0  0  0  0  0  0  0
    6.8266    9.4847   17.8948 C   0  0  1  0  0  0  0  0  0  0  0  0
    8.1147    9.5961   18.5089 O   0  0  0  0  0  0  0  0  0  0  0  0
    3.7452    6.4596   19.8862 C   0  0  1  0  0  0  0  0  0  0  0  0
    2.6749    5.9550   20.6926 O   0  0  0  0  0  0  0  0  0  0  0  0
    7.6781    6.8825   13.5100 C   0  0  2  0  0  0  0  0  0  0  0  0
    6.9402    5.7151   13.8246 O   0  0  0  0  0  0  0  0  0  0  0  0
    6.4310   11.5135   12.5375 C   0  0  2  0  0  0  0  0  0  0  0  0
    6.6752   14.9494   15.7799 C   0  0  2  0  0  0  0  0  0  0  0  0
    6.6072   14.1983   14.5782 O   0  0  0  0  0  0  0  0  0  0  0  0
    5.7974    9.2890   19.0829 C   0  0  2  0  0  0  0  0  0  0  0  0
    4.5329    9.1478   18.4336 O   0  0  0  0  0  0  0  0  0  0  0  0
    4.5833    5.2900   19.3668 C   0  0  2  0  0  0  0  0  0  0  0  0
    5.3444    4.7956   20.4808 O   0  0  0  0  0  0  0  0  0  0  0  0
    7.6010    7.9300   14.6484 C   0  0  2  0  0  0  0  0  0  0  0  0
    8.4840    9.0296   14.2850 O   0  0  0  0  0  0  0  0  0  0  0  0
    7.6433   12.4410   12.2044 C   0  0  2  0  0  0  0  0  0  0  0  0
    8.2458   12.9166   13.4402 O   0  0  0  0  0  0  0  0  0  0  0  0
    7.3544   16.2898   15.5009 C   0  0  0  0  0  0  0  0  0  0  0  0
    8.6348   16.0120   14.9152 O   0  0  0  0  0  0  0  0  0  0  0  0
    5.7405   10.6240   19.8003 C   0  0  1  0  0  0  0  0  0  0  0  0
    5.8918   11.9629   19.2814 O   0  0  0  0  0  0  0  0  0  0  0  0
    5.4257    5.6969   18.1629 C   0  0  2  0  0  0  0  0  0  0  0  0
    4.9675    6.6901   17.2327 O   0  0  0  0  0  0  0  0  0  0  0  0
    8.1059    7.4140   15.9527 C   0  0  0  0  0  0  0  0  0  0  0  0
    9.1412    8.2696   16.3726 O   0  0  0  0  0  0  0  0  0  0  0  0
    7.2077   13.6085   11.2561 C   0  0  1  0  0  0  0  0  0  0  0  0
    8.4161   14.3002   10.8430 O   0  0  0  0  0  0  0  0  0  0  0  0
    4.8674   10.6811   21.0915 C   0  0  0  0  0  0  0  0  0  0  0  0
    4.3393    9.3627   21.5011 N   0  0  0  0  0  0  0  0  0  0  0  0
    6.3531    4.7301   17.4302 C   0  0  0  0  0  0  0  0  0  0  0  0
    7.6105    4.6103   18.1468 O   0  0  0  0  0  0  0  0  0  0  0  0
  1  2  1  1  0  0  0
  1  8  1  0  0  0  0
  1 36  1  0  0  0  0
  3  4  1  6  0  0  0
  3 10  1  0  0  0  0
  3 47  1  0  0  0  0
  5 11  1  0  0  0  0
  5 30  1  0  0  0  0
  5 38  1  6  0  0  0
  6 21  1  6  0  0  0
  6 42  1  0  0  0  0
  7 15  1  0  0  0  0
  7 44  1  0  0  0  0
  7 32  1  1  0  0  0
  8  9  1  6  0  0  0
  8 17  1  0  0  0  0
 11 12  1  1  0  0  0
 11 20  1  0  0  0  0
 13  6  1  0  0  0  0
 13 14  1  1  0  0  0
 15 16  1  6  0  0  0
 15 24  1  0  0  0  0
 17 26  1  0  0  0  0
 18 10  1  0  0  0  0
 18 19  1  1  0  0  0
 20 21  1  6  0  0  0
 20 29  1  0  0  0  0
 22 13  1  0  0  0  0
 22 23  1  1  0  0  0
 24 25  1  1  0  0  0
 24 33  1  0  0  0  0
 26 27  1  1  0  0  0
 26 35  1  0  0  0  0
 28  2  1  6  0  0  0
 28 18  1  0  0  0  0
 29 30  1  0  0  0  0
 29 39  1  6  0  0  0
 31 22  1  0  0  0  0
 31 32  1  6  0  0  0
 31 41  1  0  0  0  0
 33 34  1  1  0  0  0
 33 43  1  0  0  0  0
 35 36  1  0  0  0  0
 35 45  1  1  0  0  0
 37 28  1  0  0  0  0
 37 38  1  1  0  0  0
 39 40  1  0  0  0  0
 41 42  1  0  0  0  0
 41 49  1  6  0  0  0
 43 44  1  0  0  0  0
 43 51  1  6  0  0  0
 45 46  1  0  0  0  0
 47 37  1  0  0  0  0
 47 48  1  6  0  0  0
 49 50  1  0  0  0  0
 51 52  1  0  0  0  0
M  END
>  <CHROM.1>
-87.66686942,164.23560802,-103.16778397,104.19028456,58.36747511,96.31416225
59.01114053,76.64918395,122.87052934,-27.60007157,6.32222251,-81.27333402
6.43126717,10.03603838,15.75235486,-0.21264243,-1.31575163,-2.61510803

>  <Name>
2esj_lig

>  <RI>
224

>  <Rbt.Current_Directory>
/home/itssahil/PROJECTS/Mol_Feturizer/New_Systems/rnas/2esj

>  <Rbt.Executable>
rbdock ($Id: //depot/dev/client3/rdock/2013.1/src/exe/rbdock.cxx#4 $)

>  <Rbt.Library>
libRbt.so (2013.1, Build901 2013/11/27)

>  <Rbt.Parameter_File>
/export/apps/rDock/src/rDock_2013.1_src/data/scripts/dock_solv.prm

>  <Rbt.Receptor>
prm/blind_docking_100.prm

>  <SCORE>
9.46462

>  <SCORE.INTER>
-11.1221

>  <SCORE.INTER.CONST>
1

>  <SCORE.INTER.POLAR>
-0.738342

>  <SCORE.INTER.ROT>
12

>  <SCORE.INTER.SOLV>
20.8871

>  <SCORE.INTER.VDW>
-23.516

>  <SCORE.INTER.norm>
-0.213886

>  <SCORE.INTRA>
13.7127

>  <SCORE.INTRA.DIHEDRAL>
3.94087

>  <SCORE.INTRA.DIHEDRAL.0>
32.9766

>  <SCORE.INTRA.POLAR>
0

>  <SCORE.INTRA.POLAR.0>
0

>  <SCORE.INTRA.REPUL>
0.0237559

>  <SCORE.INTRA.REPUL.0>
0

>  <SCORE.INTRA.SOLV>
9.34711

>  <SCORE.INTRA.SOLV.lig_0>
-114.358

>  <SCORE.INTRA.VDW>
6.94989

>  <SCORE.INTRA.VDW.0>
-8.24257

>  <SCORE.INTRA.norm>
0.263705

>  <SCORE.RESTR>
6.87405

>  <SCORE.RESTR.CAVITY>
6.87405

>  <SCORE.RESTR.norm>
0.132193

>  <SCORE.SYSTEM>
0

>  <SCORE.SYSTEM.CONST>
0

>  <SCORE.SYSTEM.DIHEDRAL>
0

>  <SCORE.SYSTEM.SOLV>
0

>  <SCORE.SYSTEM.norm>
0

>  <SCORE.heavy>
52

>  <SCORE.norm>
0.182012

>  <RMSD>
23.392

$$$$
2esj_lig
 OpenBabel11021811423D
libRbt.so/2013.1/901 2013/11/27
 52 56  0  0  0  0  0  0  0  0999 V2000
    6.4677   13.1486   15.6115 C   0  0  2  0  0  0  0  0  0  0  0  0
    7.4061   12.0569   15.5624 O   0  0  0  0  0  0  0  0  0  0  0  0
    6.9385   10.6538   11.5499 C   0  0  2  0  0  0  0  0  0  0  0  0
    6.9586    9.8615   10.3092 N   0  0  0  0  0  0  0  0  0  0  0  0
    5.7081    8.9620   15.5740 C   0  0  1  0  0  0  0  0  0  0  0  0
    6.1128    6.4445   17.1659 C   0  0  1  0  0  0  0  0  0  0  0  0
    2.0366    3.1498   16.8432 C   0  0  1  0  0  0  0  0  0  0  0  0
    7.2245   14.4372   15.1734 C   0  0  2  0  0  0  0  0  0  0  0  0
    7.8325   14.2990   13.8504 N   0  0  0  0  0  0  0  0  0  0  0  0
    8.4051   10.8328   12.1107 C   0  0  0  0  0  0  0  0  0  0  0  0
    6.9191    8.4572   14.7884 C   0  0  2  0  0  0  0  0  0  0  0  0
    6.5431    7.6067   13.6836 O   0  0  0  0  0  0  0  0  0  0  0  0
    5.8347    4.8867   17.3591 C   0  0  2  0  0  0  0  0  0  0  0  0
    5.5982    4.2197   16.0514 N   0  0  0  0  0  0  0  0  0  0  0  0
    0.8218    3.8759   17.4093 C   0  0  1  0  0  0  0  0  0  0  0  0
   -0.3776    3.2171   16.9556 O   0  0  0  0  0  0  0  0  0  0  0  0
    8.3161   14.8255   16.2206 C   0  0  0  0  0  0  0  0  0  0  0  0
    8.3697   11.7352   13.4092 C   0  0  2  0  0  0  0  0  0  0  0  0
    9.7188   11.9060   13.9582 N   0  0  0  0  0  0  0  0  0  0  0  0
    7.6782    7.7547   15.8767 C   0  0  2  0  0  0  0  0  0  0  0  0
    7.0872    6.5134   16.1666 O   0  0  0  0  0  0  0  0  0  0  0  0
    4.6720    4.6981   18.4304 C   0  0  1  0  0  0  0  0  0  0  0  0
    5.0027    5.4418   19.6079 O   0  0  0  0  0  0  0  0  0  0  0  0
    0.7649    3.9619   18.9297 C   0  0  1  0  0  0  0  0  0  0  0  0
   -0.5342    4.4533   19.2777 O   0  0  0  0  0  0  0  0  0  0  0  0
    7.6488   14.9435   17.6228 C   0  0  2  0  0  0  0  0  0  0  0  0
    8.5702   15.3698   18.6105 O   0  0  0  0  0  0  0  0  0  0  0  0
    7.4278   11.1149   14.4737 C   0  0  2  0  0  0  0  0  0  0  0  0
    7.4487    8.5855   17.1561 C   0  0  2  0  0  0  0  0  0  0  0  0
    6.1613    9.1345   16.9239 O   0  0  0  0  0  0  0  0  0  0  0  0
    3.3025    5.3005   17.9099 C   0  0  2  0  0  0  0  0  0  0  0  0
    2.9874    4.5152   16.7591 O   0  0  0  0  0  0  0  0  0  0  0  0
    1.0059    2.6247   19.6324 C   0  0  2  0  0  0  0  0  0  0  0  0
    1.2323    2.9182   21.0207 O   0  0  0  0  0  0  0  0  0  0  0  0
    7.0216   13.5734   17.9814 C   0  0  2  0  0  0  0  0  0  0  0  0
    6.0075   13.2856   16.9766 O   0  0  0  0  0  0  0  0  0  0  0  0
    5.9902   10.7996   13.9496 C   0  0  2  0  0  0  0  0  0  0  0  0
    5.2196   10.1550   15.0018 O   0  0  0  0  0  0  0  0  0  0  0  0
    8.4412    9.7172   17.4203 C   0  0  0  0  0  0  0  0  0  0  0  0
    9.7622    9.1816   17.2538 O   0  0  0  0  0  0  0  0  0  0  0  0
    3.6369    6.6822   17.3815 C   0  0  1  0  0  0  0  0  0  0  0  0
    4.8438    7.1692   16.7564 O   0  0  0  0  0  0  0  0  0  0  0  0
    2.1291    1.8375   18.9665 C   0  0  2  0  0  0  0  0  0  0  0  0
    2.3733    1.9343   17.5548 O   0  0  0  0  0  0  0  0  0  0  0  0
    6.3090   13.5815   19.2908 C   0  0  0  0  0  0  0  0  0  0  0  0
    5.1141   14.3040   19.1165 O   0  0  0  0  0  0  0  0  0  0  0  0
    6.0498    9.9487   12.6364 C   0  0  1  0  0  0  0  0  0  0  0  0
    4.6967    9.8677   12.1151 O   0  0  0  0  0  0  0  0  0  0  0  0
    2.4344    7.5488   16.8956 C   0  0  0  0  0  0  0  0  0  0  0  0
    1.5088    7.9299   17.9831 N   0  0  0  0  0  0  0  0  0  0  0  0
    2.5809    0.4609   19.4487 C   0  0  0  0  0  0  0  0  0  0  0  0
    2.5636    0.4137   20.9000 O   0  0  0  0  0  0  0  0  0  0  0  0
  1  2  1  1  0  0  0
  1  8  1  0  0  0  0
  1 36  1  0  0  0  0
  3  4  1  6  0  0  0
  3 10  1  0  0  0  0
  3 47  1  0  0  0  0
  5 11  1  0  0  0  0
  5 30  1  0  0  0  0
  5 38  1  6  0  0  0
  6 21  1  6  0  0  0
  6 42  1  0  0  0  0
  7 15  1  0  0  0  0
  7 44  1  0  0  0  0
  7 32  1  1  0  0  0
  8  9  1  6  0  0  0
  8 17  1  0  0  0  0
 11 12  1  6  0  0  0
 11 20  1  0  0  0  0
 13  6  1  0  0  0  0
 13 14  1  6  0  0  0
 15 16  1  1  0  0  0
 15 24  1  0  0  0  0
 17 26  1  0  0  0  0
 18 10  1  0  0  0  0
 18 19  1  1  0  0  0
 20 21  1  1  0  0  0
 20 29  1  0  0  0  0
 22 13  1  0  0  0  0
 22 23  1  1  0  0  0
 24 25  1  6  0  0  0
 24 33  1  0  0  0  0
 26 27  1  1  0  0  0
 26 35  1  0  0  0  0
 28  2  1  1  0  0  0
 28 18  1  0  0  0  0
 29 30  1  0  0  0  0
 29 39  1  6  0  0  0
 31 22  1  0  0  0  0
 31 32  1  6  0  0  0
 31 41  1  0  0  0  0
 33 34  1  1  0  0  0
 33 43  1  0  0  0  0
 35 36  1  0  0  0  0
 35 45  1  1  0  0  0
 37 28  1  0  0  0  0
 37 38  1  1  0  0  0
 39 40  1  0  0  0  0
 41 42  1  0  0  0  0
 41 49  1  6  0  0  0
 43 44  1  0  0  0  0
 43 51  1  6  0  0  0
 45 46  1  0  0  0  0
 47 37  1  0  0  0  0
 47 48  1  6  0  0  0
 49 50  1  0  0  0  0
 51 52  1  0  0  0  0
M  END
>  <CHROM.1>
-101.52340630,-8.44709759,-172.04381589,59.27225827,-91.34167613,88.19271824
-48.25500242,92.32325015,73.00223175,-57.23159296,65.87843522,-38.70474798
5.24144744,8.24812928,16.57100418,0.35551087,1.03721276,0.83143101

>  <Name>
2esj_lig

>  <RI>
0

>  <Rbt.Current_Directory>
/home/itssahil/PROJECTS/Mol_Feturizer/New_Systems/rnas/2esj

>  <Rbt.Executable>
rbdock ($Id: //depot/dev/client3/rdock/2013.1/src/exe/rbdock.cxx#4 $)

>  <Rbt.Library>
libRbt.so (2013.1, Build901 2013/11/27)

>  <Rbt.Parameter_File>
/export/apps/rDock/src/rDock_2013.1_src/data/scripts/dock_solv.prm

>  <Rbt.Receptor>
prm/blind_docking_80.prm

>  <SCORE>
21.3544

>  <SCORE.INTER>
-10.1283

>  <SCORE.INTER.CONST>
1

>  <SCORE.INTER.POLAR>
-0.829456

>  <SCORE.INTER.ROT>
12

>  <SCORE.INTER.SOLV>
24.1623

>  <SCORE.INTER.VDW>
-23.6414

>  <SCORE.INTER.norm>
-0.194775

>  <SCORE.INTRA>
23.0611

>  <SCORE.INTRA.DIHEDRAL>
-2.90512

>  <SCORE.INTRA.DIHEDRAL.0>
32.9766

>  <SCORE.INTRA.POLAR>
0

>  <SCORE.INTRA.POLAR.0>
0

>  <SCORE.INTRA.REPUL>
0

>  <SCORE.INTRA.REPUL.0>
0

>  <SCORE.INTRA.SOLV>
4.20047

>  <SCORE.INTRA.SOLV.lig_0>
-114.358

>  <SCORE.INTRA.VDW>
22.4134

>  <SCORE.INTRA.VDW.0>
-8.24257

>  <SCORE.INTRA.norm>
0.443482

>  <SCORE.RESTR>
8.42162

>  <SCORE.RESTR.CAVITY>
8.42162

>  <SCORE.RESTR.norm>
0.161954

>  <SCORE.SYSTEM>
0

>  <SCORE.SYSTEM.CONST>
0

>  <SCORE.SYSTEM.DIHEDRAL>
0

>  <SCORE.SYSTEM.SOLV>
0

>  <SCORE.SYSTEM.norm>
0

>  <SCORE.heavy>
52

>  <SCORE.norm>
0.410662

>  <RMSD>
23.399

$$$$
2esj_lig
 OpenBabel11021811423D
libRbt.so/2013.1/901 2013/11/27
 52 56  0  0  0  0  0  0  0  0999 V2000
    5.0764    8.7835   11.4341 C   0  0  2  0  0  0  0  0  0  0  0  0
    4.6769    9.1196   12.7766 O   0  0  0  0  0  0  0  0  0  0  0  0
    3.9198   13.3036   12.3195 C   0  0  2  0  0  0  0  0  0  0  0  0
    3.6030   14.7239   12.5425 N   0  0  0  0  0  0  0  0  0  0  0  0
    6.7601   10.7504   14.8773 C   0  0  1  0  0  0  0  0  0  0  0  0
    6.8002    9.1048   16.9809 C   0  0  1  0  0  0  0  0  0  0  0  0
    3.6331    6.1670   19.4083 C   0  0  1  0  0  0  0  0  0  0  0  0
    4.8538    7.2536   11.2481 C   0  0  2  0  0  0  0  0  0  0  0  0
    3.4726    6.8580   11.5218 N   0  0  0  0  0  0  0  0  0  0  0  0
    2.7492   12.3889   12.8584 C   0  0  0  0  0  0  0  0  0  0  0  0
    8.1505   10.8568   15.5049 C   0  0  2  0  0  0  0  0  0  0  0  0
    8.8747    9.6085   15.4536 O   0  0  0  0  0  0  0  0  0  0  0  0
    5.3015    8.9587   17.5040 C   0  0  2  0  0  0  0  0  0  0  0  0
    5.2451    9.0203   18.9886 N   0  0  0  0  0  0  0  0  0  0  0  0
    3.6363    4.6427   19.4047 C   0  0  1  0  0  0  0  0  0  0  0  0
    2.8403    4.1648   20.5077 O   0  0  0  0  0  0  0  0  0  0  0  0
    5.8289    6.4346   12.1523 C   0  0  0  0  0  0  0  0  0  0  0  0
    3.0801   10.8719   12.5570 C   0  0  2  0  0  0  0  0  0  0  0  0
    2.0141    9.9993   13.0600 N   0  0  0  0  0  0  0  0  0  0  0  0
    7.7913   11.3046   16.8922 C   0  0  2  0  0  0  0  0  0  0  0  0
    7.3051   10.2242   17.6477 O   0  0  0  0  0  0  0  0  0  0  0  0
    4.6538    7.6546   16.8597 C   0  0  1  0  0  0  0  0  0  0  0  0
    4.8367    7.7000   15.4408 O   0  0  0  0  0  0  0  0  0  0  0  0
    3.1115    3.9936   18.1297 C   0  0  1  0  0  0  0  0  0  0  0  0
    2.9675    2.5940   18.3955 O   0  0  0  0  0  0  0  0  0  0  0  0
    7.2891    6.8900   11.8591 C   0  0  2  0  0  0  0  0  0  0  0  0
    8.2346    6.1314   12.5917 O   0  0  0  0  0  0  0  0  0  0  0  0
    4.4417   10.4795   13.1872 C   0  0  2  0  0  0  0  0  0  0  0  0
    6.5676   12.2304   16.7340 C   0  0  2  0  0  0  0  0  0  0  0  0
    5.9400   11.6946   15.5798 O   0  0  0  0  0  0  0  0  0  0  0  0
    5.3915    6.3407   17.3482 C   0  0  2  0  0  0  0  0  0  0  0  0
    5.1599    6.3104   18.7574 O   0  0  0  0  0  0  0  0  0  0  0  0
    1.7719    4.5600   17.6558 C   0  0  2  0  0  0  0  0  0  0  0  0
    1.5711    4.0878   16.3137 O   0  0  0  0  0  0  0  0  0  0  0  0
    7.4016    8.4018   12.1767 C   0  0  2  0  0  0  0  0  0  0  0  0
    6.4811    9.0998   11.2899 O   0  0  0  0  0  0  0  0  0  0  0  0
    5.6249   11.4192   12.7895 C   0  0  2  0  0  0  0  0  0  0  0  0
    6.8303   11.0073   13.4923 O   0  0  0  0  0  0  0  0  0  0  0  0
    6.8602   13.7133   16.5083 C   0  0  0  0  0  0  0  0  0  0  0  0
    8.0037   13.8020   15.6457 O   0  0  0  0  0  0  0  0  0  0  0  0
    6.8736    6.6175   17.1845 C   0  0  1  0  0  0  0  0  0  0  0  0
    7.6038    7.8577   17.3004 O   0  0  0  0  0  0  0  0  0  0  0  0
    1.7234    6.0770   17.8008 C   0  0  2  0  0  0  0  0  0  0  0  0
    2.4269    6.7487   18.8570 O   0  0  0  0  0  0  0  0  0  0  0  0
    8.7526    8.9612   11.8862 C   0  0  0  0  0  0  0  0  0  0  0  0
    8.8419   10.2066   12.5350 O   0  0  0  0  0  0  0  0  0  0  0  0
    5.2568   12.9190   13.0488 C   0  0  1  0  0  0  0  0  0  0  0  0
    6.3195   13.7272   12.4773 O   0  0  0  0  0  0  0  0  0  0  0  0
    7.8394    5.4342   17.5004 C   0  0  0  0  0  0  0  0  0  0  0  0
    7.3921    4.1447   16.9333 N   0  0  0  0  0  0  0  0  0  0  0  0
    0.5045    6.9121   17.4154 C   0  0  0  0  0  0  0  0  0  0  0  0
    0.6076    8.2381   17.9984 O   0  0  0  0  0  0  0  0  0  0  0  0
  1  2  1  1  0  0  0
  1  8  1  0  0  0  0
  1 36  1  0  0  0  0
  3  4  1  1  0  0  0
  3 10  1  0  0  0  0
  3 47  1  0  0  0  0
  5 11  1  0  0  0  0
  5 30  1  0  0  0  0
  5 38  1  6  0  0  0
  6 21  1  1  0  0  0
  6 42  1  0  0  0  0
  7 15  1  0  0  0  0
  7 44  1  0  0  0  0
  7 32  1  6  0  0  0
  8  9  1  1  0  0  0
  8 17  1  0  0  0  0
 11 12  1  1  0  0  0
 11 20  1  0  0  0  0
 13  6  1  0  0  0  0
 13 14  1  1  0  0  0
 15 16  1  1  0  0  0
 15 24  1  0  0  0  0
 17 26  1  0  0  0  0
 18 10  1  0  0  0  0
 18 19  1  1  0  0  0
 20 21  1  1  0  0  0
 20 29  1  0  0  0  0
 22 13  1  0  0  0  0
 22 23  1  6  0  0  0
 24 25  1  1  0  0  0
 24 33  1  0  0  0  0
 26 27  1  1  0  0  0
 26 35  1  0  0  0  0
 28  2  1  6  0  0  0
 28 18  1  0  0  0  0
 29 30  1  0  0  0  0
 29 39  1  6  0  0  0
 31 22  1  0  0  0  0
 31 32  1  1  0  0  0
 31 41  1  0  0  0  0
 33 34  1  6  0  0  0
 33 43  1  0  0  0  0
 35 36  1  0  0  0  0
 35 45  1  6  0  0  0
 37 28  1  0  0  0  0
 37 38  1  1  0  0  0
 39 40  1  0  0  0  0
 41 42  1  0  0  0  0
 41 49  1  1  0  0  0
 43 44  1  0  0  0  0
 43 51  1  1  0  0  0
 45 46  1  0  0  0  0
 47 37  1  0  0  0  0
 47 48  1  6  0  0  0
 49 50  1  0  0  0  0
 51 52  1  0  0  0  0
M  END
>  <CHROM.1>
-164.57198602,-158.65738888,-121.99172830,88.22529787,-21.36458870,74.52995252
38.54826082,63.35981958,-164.45094514,-47.28806901,44.13894120,164.26176669
5.26370120,8.65324540,15.35188202,0.96622547,-0.95564069,-1.18075317

>  <Name>
2esj_lig

>  <RI>
0

>  <Rbt.Current_Directory>
/home/itssahil/PROJECTS/Mol_Feturizer/New_Systems/rnas/2esj

>  <Rbt.Executable>
rbdock ($Id: //depot/dev/client3/rdock/2013.1/src/exe/rbdock.cxx#4 $)

>  <Rbt.Library>
libRbt.so (2013.1, Build901 2013/11/27)

>  <Rbt.Parameter_File>
/export/apps/rDock/src/rDock_2013.1_src/data/scripts/dock_solv.prm

>  <Rbt.Receptor>
prm/blind_docking_80.prm

>  <SCORE>
8.55085

>  <SCORE.INTER>
-4.20747

>  <SCORE.INTER.CONST>
1

>  <SCORE.INTER.POLAR>
0

>  <SCORE.INTER.ROT>
12

>  <SCORE.INTER.SOLV>
22.4537

>  <SCORE.INTER.VDW>
-21.8895

>  <SCORE.INTER.norm>
-0.0809129

>  <SCORE.INTRA>
10.1716

>  <SCORE.INTRA.DIHEDRAL>
-5.0396

>  <SCORE.INTRA.DIHEDRAL.0>
32.9766

>  <SCORE.INTRA.POLAR>
0

>  <SCORE.INTRA.POLAR.0>
0

>  <SCORE.INTRA.REPUL>
1

>  <SCORE.INTRA.REPUL.0>
0

>  <SCORE.INTRA.SOLV>
1.77993

>  <SCORE.INTRA.SOLV.lig_0>
-114.358

>  <SCORE.INTRA.VDW>
6.80142

>  <SCORE.INTRA.VDW.0>
-8.24257

>  <SCORE.INTRA.norm>
0.195607

>  <SCORE.RESTR>
2.58674

>  <SCORE.RESTR.CAVITY>
2.58674

>  <SCORE.RESTR.norm>
0.049745

>  <SCORE.SYSTEM>
0

>  <SCORE.SYSTEM.CONST>
0

>  <SCORE.SYSTEM.DIHEDRAL>
0

>  <SCORE.SYSTEM.SOLV>
0

>  <SCORE.SYSTEM.norm>
0

>  <SCORE.heavy>
52

>  <SCORE.norm>
0.164439

>  <RMSD>
23.413

$$$$
2esj_lig
 OpenBabel11021811423D
libRbt.so/2013.1/901 2013/11/27
 52 56  0  0  0  0  0  0  0  0999 V2000
    7.8581    8.2647   12.0458 C   0  0  2  0  0  0  0  0  0  0  0  0
    6.4354    8.1129   11.8792 O   0  0  0  0  0  0  0  0  0  0  0  0
    3.2252   10.6761   10.6908 C   0  0  2  0  0  0  0  0  0  0  0  0
    2.1794   11.7106   10.6304 N   0  0  0  0  0  0  0  0  0  0  0  0
    7.4016   11.6339   12.0229 C   0  0  1  0  0  0  0  0  0  0  0  0
    7.7961   14.3329   15.1135 C   0  0  1  0  0  0  0  0  0  0  0  0
    7.0436   11.2774   19.3425 C   0  0  1  0  0  0  0  0  0  0  0  0
    8.4761    6.8372   12.1206 C   0  0  2  0  0  0  0  0  0  0  0  0
    8.1470    6.0295   10.9465 N   0  0  0  0  0  0  0  0  0  0  0  0
    3.0138    9.7550   11.9575 C   0  0  0  0  0  0  0  0  0  0  0  0
    7.1700   13.1053   11.6768 C   0  0  2  0  0  0  0  0  0  0  0  0
    8.3366   13.7234   11.0916 O   0  0  0  0  0  0  0  0  0  0  0  0
    8.6824   13.3911   16.0455 C   0  0  2  0  0  0  0  0  0  0  0  0
    8.3754   11.9567   15.8024 N   0  0  0  0  0  0  0  0  0  0  0  0
    7.3162   10.0224   18.5215 C   0  0  1  0  0  0  0  0  0  0  0  0
    8.2227    9.1687   19.2481 O   0  0  0  0  0  0  0  0  0  0  0  0
    8.0171    6.0985   13.4178 C   0  0  0  0  0  0  0  0  0  0  0  0
    4.1100    8.6151   11.9730 C   0  0  2  0  0  0  0  0  0  0  0  0
    3.9442    7.7529   13.1478 N   0  0  0  0  0  0  0  0  0  0  0  0
    6.7956   13.6484   13.0255 C   0  0  2  0  0  0  0  0  0  0  0  0
    7.9382   13.8019   13.8288 O   0  0  0  0  0  0  0  0  0  0  0  0
    8.5266   13.8656   17.5574 C   0  0  1  0  0  0  0  0  0  0  0  0
    8.7886   15.2708   17.6306 O   0  0  0  0  0  0  0  0  0  0  0  0
    6.0847    9.2011   18.1594 C   0  0  1  0  0  0  0  0  0  0  0  0
    6.5481    7.9633   17.6086 O   0  0  0  0  0  0  0  0  0  0  0  0
    8.3570    6.9880   14.6503 C   0  0  2  0  0  0  0  0  0  0  0  0
    8.0364    6.3429   15.8698 O   0  0  0  0  0  0  0  0  0  0  0  0
    5.5326    9.2322   11.9524 C   0  0  2  0  0  0  0  0  0  0  0  0
    5.9954   12.5299   13.7242 C   0  0  2  0  0  0  0  0  0  0  0  0
    6.5634   11.3612   13.1545 O   0  0  0  0  0  0  0  0  0  0  0  0
    7.0408   13.6761   18.0728 C   0  0  2  0  0  0  0  0  0  0  0  0
    6.8267   12.2649   18.0185 O   0  0  0  0  0  0  0  0  0  0  0  0
    5.1639    8.9143   19.3468 C   0  0  2  0  0  0  0  0  0  0  0  0
    3.9269    8.4226   18.8057 O   0  0  0  0  0  0  0  0  0  0  0  0
    7.6054    8.3342   14.5024 C   0  0  2  0  0  0  0  0  0  0  0  0
    8.0932    8.9708   13.2868 O   0  0  0  0  0  0  0  0  0  0  0  0
    5.7721   10.2484   10.7901 C   0  0  2  0  0  0  0  0  0  0  0  0
    7.1047   10.8195   10.9104 O   0  0  0  0  0  0  0  0  0  0  0  0
    4.4853   12.5244   13.4895 C   0  0  0  0  0  0  0  0  0  0  0  0
    3.9740   13.7894   13.9343 O   0  0  0  0  0  0  0  0  0  0  0  0
    6.1538   14.2650   16.9927 C   0  0  1  0  0  0  0  0  0  0  0  0
    6.3467   14.3215   15.5629 O   0  0  0  0  0  0  0  0  0  0  0  0
    5.0135   10.1364   20.2458 C   0  0  2  0  0  0  0  0  0  0  0  0
    6.0840   11.0794   20.4089 O   0  0  0  0  0  0  0  0  0  0  0  0
    7.8952    9.2901   15.6091 C   0  0  0  0  0  0  0  0  0  0  0  0
    6.7895   10.1532   15.7215 O   0  0  0  0  0  0  0  0  0  0  0  0
    4.6478   11.3382   10.7622 C   0  0  1  0  0  0  0  0  0  0  0  0
    4.8338   12.1164    9.5501 O   0  0  0  0  0  0  0  0  0  0  0  0
    4.6242   14.3029   17.2954 C   0  0  0  0  0  0  0  0  0  0  0  0
    4.2272   13.4304   18.4205 N   0  0  0  0  0  0  0  0  0  0  0  0
    4.1612   10.1387   21.5128 C   0  0  0  0  0  0  0  0  0  0  0  0
    4.1608    8.8161   22.1124 O   0  0  0  0  0  0  0  0  0  0  0  0
  1  2  1  1  0  0  0
  1  8  1  0  0  0  0
  1 36  1  0  0  0  0
  3  4  1  1  0  0  0
  3 10  1  0  0  0  0
  3 47  1  0  0  0  0
  5 11  1  0  0  0  0
  5 30  1  0  0  0  0
  5 38  1  6  0  0  0
  6 21  1  6  0  0  0
  6 42  1  0  0  0  0
  7 15  1  0  0  0  0
  7 44  1  0  0  0  0
  7 32  1  6  0  0  0
  8  9  1  6  0  0  0
  8 17  1  0  0  0  0
 11 12  1  1  0  0  0
 11 20  1  0  0  0  0
 13  6  1  0  0  0  0
 13 14  1  1  0  0  0
 15 16  1  1  0  0  0
 15 24  1  0  0  0  0
 17 26  1  0  0  0  0
 18 10  1  0  0  0  0
 18 19  1  1  0  0  0
 20 21  1  1  0  0  0
 20 29  1  0  0  0  0
 22 13  1  0  0  0  0
 22 23  1  6  0  0  0
 24 25  1  1  0  0  0
 24 33  1  0  0  0  0
 26 27  1  1  0  0  0
 26 35  1  0  0  0  0
 28  2  1  6  0  0  0
 28 18  1  0  0  0  0
 29 30  1  0  0  0  0
 29 39  1  6  0  0  0
 31 22  1  0  0  0  0
 31 32  1  6  0  0  0
 31 41  1  0  0  0  0
 33 34  1  6  0  0  0
 33 43  1  0  0  0  0
 35 36  1  0  0  0  0
 35 45  1  1  0  0  0
 37 28  1  0  0  0  0
 37 38  1  1  0  0  0
 39 40  1  0  0  0  0
 41 42  1  0  0  0  0
 41 49  1  6  0  0  0
 43 44  1  0  0  0  0
 43 51  1  1  0  0  0
 45 46  1  0  0  0  0
 47 37  1  0  0  0  0
 47 48  1  6  0  0  0
 49 50  1  0  0  0  0
 51 52  1  0  0  0  0
M  END
>  <CHROM.1>
171.52988971,-93.70089929,134.96933353,-154.99917162,178.23436870,-170.30608685
-58.33324741,95.28328738,-154.05933936,-65.56635719,-15.89601844,31.34095452
6.34822960,10.77292989,15.03434137,-1.78804961,-1.53770207,1.26179503

>  <Name>
2esj_lig

>  <RI>
224

>  <Rbt.Current_Directory>
/home/itssahil/PROJECTS/Mol_Feturizer/New_Systems/rnas/2esj

>  <Rbt.Executable>
rbdock ($Id: //depot/dev/client3/rdock/2013.1/src/exe/rbdock.cxx#4 $)

>  <Rbt.Library>
libRbt.so (2013.1, Build901 2013/11/27)

>  <Rbt.Parameter_File>
/export/apps/rDock/src/rDock_2013.1_src/data/scripts/dock_solv.prm

>  <Rbt.Receptor>
prm/blind_docking_100.prm

>  <SCORE>
22.1362

>  <SCORE.INTER>
11

>  <SCORE.INTER.CONST>
1

>  <SCORE.INTER.POLAR>
-0.0124451

>  <SCORE.INTER.ROT>
12

>  <SCORE.INTER.SOLV>
30.1553

>  <SCORE.INTER.VDW>
-14.2769

>  <SCORE.INTER.norm>
0.211538

>  <SCORE.INTRA>
6.56527

>  <SCORE.INTRA.DIHEDRAL>
-6.86407

>  <SCORE.INTRA.DIHEDRAL.0>
32.9766

>  <SCORE.INTRA.POLAR>
0

>  <SCORE.INTRA.POLAR.0>
0

>  <SCORE.INTRA.REPUL>
0.318116

>  <SCORE.INTRA.REPUL.0>
0

>  <SCORE.INTRA.SOLV>
8.25636

>  <SCORE.INTRA.SOLV.lig_0>
-114.358

>  <SCORE.INTRA.VDW>
4.27854

>  <SCORE.INTRA.VDW.0>
-8.24257

>  <SCORE.INTRA.norm>
0.126255

>  <SCORE.RESTR>
4.57095

>  <SCORE.RESTR.CAVITY>
4.57095

>  <SCORE.RESTR.norm>
0.0879029

>  <SCORE.SYSTEM>
0

>  <SCORE.SYSTEM.CONST>
0

>  <SCORE.SYSTEM.DIHEDRAL>
0

>  <SCORE.SYSTEM.SOLV>
0

>  <SCORE.SYSTEM.norm>
0

>  <SCORE.heavy>
52

>  <SCORE.norm>
0.425696

>  <RMSD>
23.434

$$$$
2esj_lig
 OpenBabel11021811423D
libRbt.so/2013.1/901 2013/11/27
 52 56  0  0  0  0  0  0  0  0999 V2000
    3.4229   10.1719   11.3284 C   0  0  2  0  0  0  0  0  0  0  0  0
    3.8846   11.3781   11.9661 O   0  0  0  0  0  0  0  0  0  0  0  0
    6.4108   13.2938    9.0962 C   0  0  2  0  0  0  0  0  0  0  0  0
    7.0613   14.2581    8.1938 N   0  0  0  0  0  0  0  0  0  0  0  0
    6.9261   12.2932   13.8090 C   0  0  1  0  0  0  0  0  0  0  0  0
    8.7954   10.4950   16.3797 C   0  0  1  0  0  0  0  0  0  0  0  0
    5.1786    7.3987   16.6723 C   0  0  1  0  0  0  0  0  0  0  0  0
    2.6076    9.3668   12.3830 C   0  0  2  0  0  0  0  0  0  0  0  0
    1.5031   10.1463   12.9413 N   0  0  0  0  0  0  0  0  0  0  0  0
    4.8622   13.2148    8.7910 C   0  0  0  0  0  0  0  0  0  0  0  0
    8.3964   12.5403   13.4687 C   0  0  2  0  0  0  0  0  0  0  0  0
    8.8771   11.6583   12.4312 O   0  0  0  0  0  0  0  0  0  0  0  0
    8.2971    8.9939   16.1809 C   0  0  2  0  0  0  0  0  0  0  0  0
    7.2795    8.9072   15.1002 N   0  0  0  0  0  0  0  0  0  0  0  0
    3.8937    7.2908   17.4852 C   0  0  1  0  0  0  0  0  0  0  0  0
    2.9553    6.4545   16.7791 O   0  0  0  0  0  0  0  0  0  0  0  0
    3.5331    8.8592   13.5340 C   0  0  0  0  0  0  0  0  0  0  0  0
    4.1916   12.1320    9.7288 C   0  0  2  0  0  0  0  0  0  0  0  0
    2.7496   12.0484    9.4747 N   0  0  0  0  0  0  0  0  0  0  0  0
    9.0298   12.3156   14.8112 C   0  0  2  0  0  0  0  0  0  0  0  0
    9.1105   10.9415   15.0936 O   0  0  0  0  0  0  0  0  0  0  0  0
    7.8345    8.4119   17.5888 C   0  0  1  0  0  0  0  0  0  0  0  0
    8.8820    8.6194   18.5419 O   0  0  0  0  0  0  0  0  0  0  0  0
    4.0587    6.7287   18.8921 C   0  0  1  0  0  0  0  0  0  0  0  0
    2.7453    6.4812   19.4059 O   0  0  0  0  0  0  0  0  0  0  0  0
    4.7122    8.0531   12.9129 C   0  0  2  0  0  0  0  0  0  0  0  0
    5.5517    7.4963   13.9087 O   0  0  0  0  0  0  0  0  0  0  0  0
    4.4589   12.4669   11.2192 C   0  0  2  0  0  0  0  0  0  0  0  0
    8.0221   12.8515   15.8490 C   0  0  2  0  0  0  0  0  0  0  0  0
    6.7820   12.6354   15.1944 O   0  0  0  0  0  0  0  0  0  0  0  0
    6.5770    9.1929   18.1526 C   0  0  2  0  0  0  0  0  0  0  0  0
    5.5462    8.9363   17.1976 O   0  0  0  0  0  0  0  0  0  0  0  0
    4.8766    5.4373   18.9481 C   0  0  2  0  0  0  0  0  0  0  0  0
    5.2054    5.2117   20.3286 O   0  0  0  0  0  0  0  0  0  0  0  0
    5.4981    8.9915   11.9638 C   0  0  2  0  0  0  0  0  0  0  0  0
    4.5812    9.4106   10.9128 O   0  0  0  0  0  0  0  0  0  0  0  0
    5.9675   12.6777   11.5667 C   0  0  2  0  0  0  0  0  0  0  0  0
    6.0958   13.0593   12.9647 O   0  0  0  0  0  0  0  0  0  0  0  0
    8.1475   14.3287   16.2202 C   0  0  0  0  0  0  0  0  0  0  0  0
    7.7168   15.0972   15.0873 O   0  0  0  0  0  0  0  0  0  0  0  0
    6.9100   10.6654   18.0074 C   0  0  1  0  0  0  0  0  0  0  0  0
    7.7063   11.3424   17.0114 O   0  0  0  0  0  0  0  0  0  0  0  0
    6.0830    5.4985   18.0179 C   0  0  2  0  0  0  0  0  0  0  0  0
    6.0419    6.2420   16.7901 O   0  0  0  0  0  0  0  0  0  0  0  0
    6.6289    8.3095   11.2720 C   0  0  0  0  0  0  0  0  0  0  0  0
    6.1271    7.1173   10.7180 O   0  0  0  0  0  0  0  0  0  0  0  0
    6.6237   13.7151   10.5944 C   0  0  1  0  0  0  0  0  0  0  0  0
    8.0521   13.7060   10.8567 O   0  0  0  0  0  0  0  0  0  0  0  0
    5.8705   11.6723   18.5892 C   0  0  0  0  0  0  0  0  0  0  0  0
    5.1592   12.4467   17.5505 N   0  0  0  0  0  0  0  0  0  0  0  0
    7.0727    4.3465   17.8602 C   0  0  0  0  0  0  0  0  0  0  0  0
    8.2257    4.7848   17.0940 O   0  0  0  0  0  0  0  0  0  0  0  0
  1  2  1  1  0  0  0
  1  8  1  0  0  0  0
  1 36  1  0  0  0  0
  3  4  1  6  0  0  0
  3 10  1  0  0  0  0
  3 47  1  0  0  0  0
  5 11  1  0  0  0  0
  5 30  1  0  0  0  0
  5 38  1  6  0  0  0
  6 21  1  6  0  0  0
  6 42  1  0  0  0  0
  7 15  1  0  0  0  0
  7 44  1  0  0  0  0
  7 32  1  1  0  0  0
  8  9  1  1  0  0  0
  8 17  1  0  0  0  0
 11 12  1  6  0  0  0
 11 20  1  0  0  0  0
 13  6  1  0  0  0  0
 13 14  1  6  0  0  0
 15 16  1  6  0  0  0
 15 24  1  0  0  0  0
 17 26  1  0  0  0  0
 18 10  1  0  0  0  0
 18 19  1  1  0  0  0
 20 21  1  1  0  0  0
 20 29  1  0  0  0  0
 22 13  1  0  0  0  0
 22 23  1  1  0  0  0
 24 25  1  6  0  0  0
 24 33  1  0  0  0  0
 26 27  1  1  0  0  0
 26 35  1  0  0  0  0
 28  2  1  1  0  0  0
 28 18  1  0  0  0  0
 29 30  1  0  0  0  0
 29 39  1  6  0  0  0
 31 22  1  0  0  0  0
 31 32  1  6  0  0  0
 31 41  1  0  0  0  0
 33 34  1  1  0  0  0
 33 43  1  0  0  0  0
 35 36  1  0  0  0  0
 35 45  1  6  0  0  0
 37 28  1  0  0  0  0
 37 38  1  1  0  0  0
 39 40  1  0  0  0  0
 41 42  1  0  0  0  0
 41 49  1  6  0  0  0
 43 44  1  0  0  0  0
 43 51  1  6  0  0  0
 45 46  1  0  0  0  0
 47 37  1  0  0  0  0
 47 48  1  1  0  0  0
 49 50  1  0  0  0  0
 51 52  1  0  0  0  0
M  END
>  <CHROM.1>
-168.32673596,71.97993774,153.03082268,105.14713263,-137.69224479,10.34239564
70.62329314,50.16954209,49.44657502,124.45078102,-110.94150722,-170.14767161
6.02906056,9.97512846,14.58235319,1.54260168,-0.85104712,-0.91166457

>  <Name>
2esj_lig

>  <RI>
224

>  <Rbt.Current_Directory>
/home/itssahil/PROJECTS/Mol_Feturizer/New_Systems/rnas/2esj

>  <Rbt.Executable>
rbdock ($Id: //depot/dev/client3/rdock/2013.1/src/exe/rbdock.cxx#4 $)

>  <Rbt.Library>
libRbt.so (2013.1, Build901 2013/11/27)

>  <Rbt.Parameter_File>
/export/apps/rDock/src/rDock_2013.1_src/data/scripts/dock_solv.prm

>  <Rbt.Receptor>
prm/blind_docking_100.prm

>  <SCORE>
25.5502

>  <SCORE.INTER>
-13.4975

>  <SCORE.INTER.CONST>
1

>  <SCORE.INTER.POLAR>
-1.54379

>  <SCORE.INTER.ROT>
12

>  <SCORE.INTER.SOLV>
31.3234

>  <SCORE.INTER.VDW>
-25.8935

>  <SCORE.INTER.norm>
-0.259568

>  <SCORE.INTRA>
29.6949

>  <SCORE.INTRA.DIHEDRAL>
3.28433

>  <SCORE.INTRA.DIHEDRAL.0>
32.9766

>  <SCORE.INTRA.POLAR>
0

>  <SCORE.INTRA.POLAR.0>
0

>  <SCORE.INTRA.REPUL>
0.0340466

>  <SCORE.INTRA.REPUL.0>
0

>  <SCORE.INTRA.SOLV>
8.31489

>  <SCORE.INTRA.SOLV.lig_0>
-114.358

>  <SCORE.INTRA.VDW>
23.725

>  <SCORE.INTRA.VDW.0>
-8.24257

>  <SCORE.INTRA.norm>
0.571055

>  <SCORE.RESTR>
9.35288

>  <SCORE.RESTR.CAVITY>
9.35288

>  <SCORE.RESTR.norm>
0.179863

>  <SCORE.SYSTEM>
0

>  <SCORE.SYSTEM.CONST>
0

>  <SCORE.SYSTEM.DIHEDRAL>
0

>  <SCORE.SYSTEM.SOLV>
0

>  <SCORE.SYSTEM.norm>
0

>  <SCORE.heavy>
52

>  <SCORE.norm>
0.491351

>  <RMSD>
23.471

$$$$
2esj_lig
 OpenBabel11021811423D
libRbt.so/2013.1/901 2013/11/27
 52 56  0  0  0  0  0  0  0  0999 V2000
    6.0053    8.5358   13.0783 C   0  0  2  0  0  0  0  0  0  0  0  0
    5.8321    9.7151   12.2695 O   0  0  0  0  0  0  0  0  0  0  0  0
    3.3551   13.1846   11.9313 C   0  0  2  0  0  0  0  0  0  0  0  0
    2.4748   14.3345   12.1963 N   0  0  0  0  0  0  0  0  0  0  0  0
    7.1621   11.8486   14.2728 C   0  0  1  0  0  0  0  0  0  0  0  0
    7.2492   10.0829   16.2144 C   0  0  1  0  0  0  0  0  0  0  0  0
    4.3854    6.9920   19.0782 C   0  0  1  0  0  0  0  0  0  0  0  0
    7.4006    7.9343   12.7371 C   0  0  2  0  0  0  0  0  0  0  0  0
    8.4826    8.8977   12.9379 N   0  0  0  0  0  0  0  0  0  0  0  0
    2.7048   11.8558   12.4871 C   0  0  0  0  0  0  0  0  0  0  0  0
    8.6024   12.0521   14.7447 C   0  0  2  0  0  0  0  0  0  0  0  0
    9.4602   10.9467   14.3875 O   0  0  0  0  0  0  0  0  0  0  0  0
    5.9713   10.0772   17.1675 C   0  0  2  0  0  0  0  0  0  0  0  0
    6.3638    9.8683   18.5864 N   0  0  0  0  0  0  0  0  0  0  0  0
    4.5346    5.4762   19.0199 C   0  0  1  0  0  0  0  0  0  0  0  0
    4.1167    4.9104   20.2784 O   0  0  0  0  0  0  0  0  0  0  0  0
    7.4331    7.3988   11.2704 C   0  0  0  0  0  0  0  0  0  0  0  0
    3.6358   10.6249   12.1411 C   0  0  2  0  0  0  0  0  0  0  0  0
    3.0608    9.3790   12.6586 N   0  0  0  0  0  0  0  0  0  0  0  0
    8.3865   12.2127   16.2218 C   0  0  2  0  0  0  0  0  0  0  0  0
    8.1459   10.9654   16.8225 O   0  0  0  0  0  0  0  0  0  0  0  0
    4.9097    9.0337   16.6025 C   0  0  1  0  0  0  0  0  0  0  0  0
    4.6766    9.3143   15.2184 O   0  0  0  0  0  0  0  0  0  0  0  0
    3.7495    4.7869   17.9104 C   0  0  1  0  0  0  0  0  0  0  0  0
    3.8186    3.3778   18.1553 O   0  0  0  0  0  0  0  0  0  0  0  0
    6.2591    6.3941   11.0756 C   0  0  2  0  0  0  0  0  0  0  0  0
    6.2749    5.8093    9.7856 O   0  0  0  0  0  0  0  0  0  0  0  0
    5.0586   10.8437   12.7179 C   0  0  2  0  0  0  0  0  0  0  0  0
    7.0484   12.9648   16.3741 C   0  0  2  0  0  0  0  0  0  0  0  0
    6.3376   12.5378   15.2228 O   0  0  0  0  0  0  0  0  0  0  0  0
    5.4700    7.5530   16.6543 C   0  0  2  0  0  0  0  0  0  0  0  0
    5.6578    7.2963   18.0469 O   0  0  0  0  0  0  0  0  0  0  0  0
    2.2835    5.2168   17.8337 C   0  0  2  0  0  0  0  0  0  0  0  0
    1.7736    4.7373   16.5789 O   0  0  0  0  0  0  0  0  0  0  0  0
    4.9289    7.1396   11.3476 C   0  0  2  0  0  0  0  0  0  0  0  0
    4.9628    7.5944   12.7306 O   0  0  0  0  0  0  0  0  0  0  0  0
    5.7152   12.1994   12.3035 C   0  0  2  0  0  0  0  0  0  0  0  0
    7.0078   12.3337   12.9575 O   0  0  0  0  0  0  0  0  0  0  0  0
    7.1226   14.4913   16.3854 C   0  0  0  0  0  0  0  0  0  0  0  0
    7.2945   14.9259   15.0285 O   0  0  0  0  0  0  0  0  0  0  0  0
    6.8639    7.6210   16.0606 C   0  0  1  0  0  0  0  0  0  0  0  0
    7.8356    8.6883   16.0951 O   0  0  0  0  0  0  0  0  0  0  0  0
    2.1299    6.7196   18.0400 C   0  0  2  0  0  0  0  0  0  0  0  0
    3.0247    7.4515   18.8917 O   0  0  0  0  0  0  0  0  0  0  0  0
    3.7316    6.2583   11.2361 C   0  0  0  0  0  0  0  0  0  0  0  0
    2.6128    7.0893   11.0418 O   0  0  0  0  0  0  0  0  0  0  0  0
    4.7562   13.3993   12.6081 C   0  0  1  0  0  0  0  0  0  0  0  0
    5.3529   14.5860   12.0208 O   0  0  0  0  0  0  0  0  0  0  0  0
    7.6140    6.2636   15.8942 C   0  0  0  0  0  0  0  0  0  0  0  0
    8.6005    6.2698   14.7935 N   0  0  0  0  0  0  0  0  0  0  0  0
    0.7775    7.4285   18.0257 C   0  0  0  0  0  0  0  0  0  0  0  0
    0.9025    8.7469   18.6215 O   0  0  0  0  0  0  0  0  0  0  0  0
  1  2  1  6  0  0  0
  1  8  1  0  0  0  0
  1 36  1  0  0  0  0
  3  4  1  1  0  0  0
  3 10  1  0  0  0  0
  3 47  1  0  0  0  0
  5 11  1  0  0  0  0
  5 30  1  0  0  0  0
  5 38  1  6  0  0  0
  6 21  1  1  0  0  0
  6 42  1  0  0  0  0
  7 15  1  0  0  0  0
  7 44  1  0  0  0  0
  7 32  1  6  0  0  0
  8  9  1  6  0  0  0
  8 17  1  0  0  0  0
 11 12  1  1  0  0  0
 11 20  1  0  0  0  0
 13  6  1  0  0  0  0
 13 14  1  1  0  0  0
 15 16  1  1  0  0  0
 15 24  1  0  0  0  0
 17 26  1  0  0  0  0
 18 10  1  0  0  0  0
 18 19  1  1  0  0  0
 20 21  1  1  0  0  0
 20 29  1  0  0  0  0
 22 13  1  0  0  0  0
 22 23  1  6  0  0  0
 24 25  1  1  0  0  0
 24 33  1  0  0  0  0
 26 27  1  6  0  0  0
 26 35  1  0  0  0  0
 28  2  1  6  0  0  0
 28 18  1  0  0  0  0
 29 30  1  0  0  0  0
 29 39  1  6  0  0  0
 31 22  1  0  0  0  0
 31 32  1  1  0  0  0
 31 41  1  0  0  0  0
 33 34  1  6  0  0  0
 33 43  1  0  0  0  0
 35 36  1  0  0  0  0
 35 45  1  1  0  0  0
 37 28  1  0  0  0  0
 37 38  1  1  0  0  0
 39 40  1  0  0  0  0
 41 42  1  0  0  0  0
 41 49  1  1  0  0  0
 43 44  1  0  0  0  0
 43 51  1  1  0  0  0
 45 46  1  0  0  0  0
 47 37  1  0  0  0  0
 47 48  1  6  0  0  0
 49 50  1  0  0  0  0
 51 52  1  0  0  0  0
M  END
>  <CHROM.1>
-148.99448521,178.21648786,-108.75099343,97.48849208,-45.62194502,-94.35991408
77.56538696,75.04373511,-160.10897342,-36.59119510,152.41543635,163.54818399
5.36397521,9.14751418,14.94833838,0.57683625,-1.19810936,-1.57684633

>  <Name>
2esj_lig

>  <RI>
0

>  <Rbt.Current_Directory>
/home/itssahil/PROJECTS/Mol_Feturizer/New_Systems/rnas/2esj

>  <Rbt.Executable>
rbdock ($Id: //depot/dev/client3/rdock/2013.1/src/exe/rbdock.cxx#4 $)

>  <Rbt.Library>
libRbt.so (2013.1, Build901 2013/11/27)

>  <Rbt.Parameter_File>
/export/apps/rDock/src/rDock_2013.1_src/data/scripts/dock_solv.prm

>  <Rbt.Receptor>
prm/blind_docking_80.prm

>  <SCORE>
2.36539

>  <SCORE.INTER>
-9.72293

>  <SCORE.INTER.CONST>
1

>  <SCORE.INTER.POLAR>
-0.666883

>  <SCORE.INTER.ROT>
12

>  <SCORE.INTER.SOLV>
22.4312

>  <SCORE.INTER.VDW>
-23.3361

>  <SCORE.INTER.norm>
-0.18698

>  <SCORE.INTRA>
9.16024

>  <SCORE.INTRA.DIHEDRAL>
-1.33096

>  <SCORE.INTRA.DIHEDRAL.0>
32.9766

>  <SCORE.INTRA.POLAR>
0

>  <SCORE.INTRA.POLAR.0>
0

>  <SCORE.INTRA.REPUL>
0

>  <SCORE.INTRA.REPUL.0>
0

>  <SCORE.INTRA.SOLV>
11.7238

>  <SCORE.INTRA.SOLV.lig_0>
-114.358

>  <SCORE.INTRA.VDW>
3.96383

>  <SCORE.INTRA.VDW.0>
-8.24257

>  <SCORE.INTRA.norm>
0.176158

>  <SCORE.RESTR>
2.92809

>  <SCORE.RESTR.CAVITY>
2.92809

>  <SCORE.RESTR.norm>
0.0563093

>  <SCORE.SYSTEM>
0

>  <SCORE.SYSTEM.CONST>
0

>  <SCORE.SYSTEM.DIHEDRAL>
0

>  <SCORE.SYSTEM.SOLV>
0

>  <SCORE.SYSTEM.norm>
0

>  <SCORE.heavy>
52

>  <SCORE.norm>
0.0454883

>  <RMSD>
23.477

$$$$
2esj_lig
 OpenBabel11021811423D
libRbt.so/2013.1/901 2013/11/27
 52 56  0  0  0  0  0  0  0  0999 V2000
    6.2162   11.5812   11.9869 C   0  0  2  0  0  0  0  0  0  0  0  0
    6.4734   10.7743   13.1521 O   0  0  0  0  0  0  0  0  0  0  0  0
    8.1940    7.3318   11.2873 C   0  0  2  0  0  0  0  0  0  0  0  0
    8.8081    6.0230   11.0093 N   0  0  0  0  0  0  0  0  0  0  0  0
    4.6637    8.2352   14.1578 C   0  0  1  0  0  0  0  0  0  0  0  0
    5.1138    8.7244   16.6981 C   0  0  1  0  0  0  0  0  0  0  0  0
    7.1987   12.2093   20.0560 C   0  0  1  0  0  0  0  0  0  0  0  0
    6.0944   13.0602   12.4588 C   0  0  2  0  0  0  0  0  0  0  0  0
    7.2831   13.5098   13.1827 N   0  0  0  0  0  0  0  0  0  0  0  0
    9.0826    8.1499   12.3064 C   0  0  0  0  0  0  0  0  0  0  0  0
    3.2346    8.5120   14.6266 C   0  0  2  0  0  0  0  0  0  0  0  0
    3.0128    9.9080   14.9220 O   0  0  0  0  0  0  0  0  0  0  0  0
    5.9633    8.3023   17.9792 C   0  0  2  0  0  0  0  0  0  0  0  0
    5.2269    8.6097   19.2339 N   0  0  0  0  0  0  0  0  0  0  0  0
    5.8618   12.2932   20.7835 C   0  0  1  0  0  0  0  0  0  0  0  0
    6.0624   12.9039   22.0740 O   0  0  0  0  0  0  0  0  0  0  0  0
    4.8257   13.2588   13.3476 C   0  0  0  0  0  0  0  0  0  0  0  0
    8.4386    9.5744   12.5467 C   0  0  2  0  0  0  0  0  0  0  0  0
    9.2381   10.3500   13.5007 N   0  0  0  0  0  0  0  0  0  0  0  0
    3.1592    7.6090   15.8236 C   0  0  2  0  0  0  0  0  0  0  0  0
    3.8470    8.1742   16.9107 O   0  0  0  0  0  0  0  0  0  0  0  0
    7.4137    8.9505   17.8743 C   0  0  1  0  0  0  0  0  0  0  0  0
    7.9740    8.6267   16.5977 O   0  0  0  0  0  0  0  0  0  0  0  0
    4.7733   13.0743   20.0574 C   0  0  1  0  0  0  0  0  0  0  0  0
    3.6904   13.2473   20.9781 O   0  0  0  0  0  0  0  0  0  0  0  0
    3.5784   12.7518   12.5647 C   0  0  2  0  0  0  0  0  0  0  0  0
    2.3788   12.9737   13.2843 O   0  0  0  0  0  0  0  0  0  0  0  0
    6.9807    9.4302   13.0553 C   0  0  2  0  0  0  0  0  0  0  0  0
    3.9906    6.3603   15.4641 C   0  0  2  0  0  0  0  0  0  0  0  0
    4.9624    6.8976   14.5810 O   0  0  0  0  0  0  0  0  0  0  0  0
    7.3455   10.5322   17.9272 C   0  0  2  0  0  0  0  0  0  0  0  0
    6.8159   10.8186   19.2225 O   0  0  0  0  0  0  0  0  0  0  0  0
    5.2308   14.4430   19.5500 C   0  0  2  0  0  0  0  0  0  0  0  0
    4.2222   14.9079   18.6383 O   0  0  0  0  0  0  0  0  0  0  0  0
    3.7814   11.2503   12.2434 C   0  0  2  0  0  0  0  0  0  0  0  0
    4.9663   11.1439   11.4034 O   0  0  0  0  0  0  0  0  0  0  0  0
    6.0750    8.5311   12.1540 C   0  0  2  0  0  0  0  0  0  0  0  0
    4.7590    8.4036   12.7608 O   0  0  0  0  0  0  0  0  0  0  0  0
    3.2452    5.2239   14.7652 C   0  0  0  0  0  0  0  0  0  0  0  0
    2.9914    5.6393   13.4151 O   0  0  0  0  0  0  0  0  0  0  0  0
    6.2594   10.9288   16.9457 C   0  0  1  0  0  0  0  0  0  0  0  0
    5.0498   10.2354   16.5710 O   0  0  0  0  0  0  0  0  0  0  0  0
    6.6329   14.3786   18.9546 C   0  0  2  0  0  0  0  0  0  0  0  0
    7.6156   13.4599   19.4566 O   0  0  0  0  0  0  0  0  0  0  0  0
    2.6633   10.6661   11.4491 C   0  0  0  0  0  0  0  0  0  0  0  0
    2.5840    9.2993   11.7741 O   0  0  0  0  0  0  0  0  0  0  0  0
    6.7544    7.1456   11.8874 C   0  0  1  0  0  0  0  0  0  0  0  0
    5.9486    6.4557   10.8954 O   0  0  0  0  0  0  0  0  0  0  0  0
    6.0519   12.4584   16.7215 C   0  0  0  0  0  0  0  0  0  0  0  0
    7.2345   13.1325   16.1458 N   0  0  0  0  0  0  0  0  0  0  0  0
    7.3503   15.5976   18.3793 C   0  0  0  0  0  0  0  0  0  0  0  0
    7.0876   15.7010   16.9548 O   0  0  0  0  0  0  0  0  0  0  0  0
  1  2  1  1  0  0  0
  1  8  1  0  0  0  0
  1 36  1  0  0  0  0
  3  4  1  1  0  0  0
  3 10  1  0  0  0  0
  3 47  1  0  0  0  0
  5 11  1  0  0  0  0
  5 30  1  0  0  0  0
  5 38  1  6  0  0  0
  6 21  1  1  0  0  0
  6 42  1  0  0  0  0
  7 15  1  0  0  0  0
  7 44  1  0  0  0  0
  7 32  1  6  0  0  0
  8  9  1  1  0  0  0
  8 17  1  0  0  0  0
 11 12  1  1  0  0  0
 11 20  1  0  0  0  0
 13  6  1  0  0  0  0
 13 14  1  1  0  0  0
 15 16  1  1  0  0  0
 15 24  1  0  0  0  0
 17 26  1  0  0  0  0
 18 10  1  0  0  0  0
 18 19  1  1  0  0  0
 20 21  1  1  0  0  0
 20 29  1  0  0  0  0
 22 13  1  0  0  0  0
 22 23  1  6  0  0  0
 24 25  1  1  0  0  0
 24 33  1  0  0  0  0
 26 27  1  1  0  0  0
 26 35  1  0  0  0  0
 28  2  1  6  0  0  0
 28 18  1  0  0  0  0
 29 30  1  0  0  0  0
 29 39  1  6  0  0  0
 31 22  1  0  0  0  0
 31 32  1  1  0  0  0
 31 41  1  0  0  0  0
 33 34  1  6  0  0  0
 33 43  1  0  0  0  0
 35 36  1  0  0  0  0
 35 45  1  6  0  0  0
 37 28  1  0  0  0  0
 37 38  1  1  0  0  0
 39 40  1  0  0  0  0
 41 42  1  0  0  0  0
 41 49  1  1  0  0  0
 43 44  1  0  0  0  0
 43 51  1  1  0  0  0
 45 46  1  0  0  0  0
 47 37  1  0  0  0  0
 47 48  1  6  0  0  0
 49 50  1  0  0  0  0
 51 52  1  0  0  0  0
M  END
>  <CHROM.1>
-163.50848077,164.23873765,-140.43262102,149.43164014,-45.58938467,69.11319097
73.34426193,149.95546406,-151.16855023,-40.64184334,62.61546646,-92.00070997
5.62716400,10.42988710,15.41160210,-1.97165930,1.41839400,1.32264962

>  <Name>
2esj_lig

>  <RI>
224

>  <Rbt.Current_Directory>
/home/itssahil/PROJECTS/Mol_Feturizer/New_Systems/rnas/2esj

>  <Rbt.Executable>
rbdock ($Id: //depot/dev/client3/rdock/2013.1/src/exe/rbdock.cxx#4 $)

>  <Rbt.Library>
libRbt.so (2013.1, Build901 2013/11/27)

>  <Rbt.Parameter_File>
/export/apps/rDock/src/rDock_2013.1_src/data/scripts/dock_solv.prm

>  <Rbt.Receptor>
prm/blind_docking_100.prm

>  <SCORE>
32.018

>  <SCORE.INTER>
16.3384

>  <SCORE.INTER.CONST>
1

>  <SCORE.INTER.POLAR>
-0.0554937

>  <SCORE.INTER.ROT>
12

>  <SCORE.INTER.SOLV>
26.0237

>  <SCORE.INTER.VDW>
-9.1973

>  <SCORE.INTER.norm>
0.3142

>  <SCORE.INTRA>
4.75703

>  <SCORE.INTRA.DIHEDRAL>
-6.41356

>  <SCORE.INTRA.DIHEDRAL.0>
32.9766

>  <SCORE.INTRA.POLAR>
0

>  <SCORE.INTRA.POLAR.0>
0

>  <SCORE.INTRA.REPUL>
0.174934

>  <SCORE.INTRA.REPUL.0>
0

>  <SCORE.INTRA.SOLV>
8.68853

>  <SCORE.INTRA.SOLV.lig_0>
-114.358

>  <SCORE.INTRA.VDW>
2.74487

>  <SCORE.INTRA.VDW.0>
-8.24257

>  <SCORE.INTRA.norm>
0.0914813

>  <SCORE.RESTR>
10.9225

>  <SCORE.RESTR.CAVITY>
10.9225

>  <SCORE.RESTR.norm>
0.210049

>  <SCORE.SYSTEM>
0

>  <SCORE.SYSTEM.CONST>
0

>  <SCORE.SYSTEM.DIHEDRAL>
0

>  <SCORE.SYSTEM.SOLV>
0

>  <SCORE.SYSTEM.norm>
0

>  <SCORE.heavy>
52

>  <SCORE.norm>
0.61573

>  <RMSD>
23.492

$$$$
2esj_lig
 OpenBabel11021811423D
libRbt.so/2013.1/901 2013/11/27
 52 56  0  0  0  0  0  0  0  0999 V2000
    8.3700   10.3856   14.3363 C   0  0  2  0  0  0  0  0  0  0  0  0
    7.0190   10.8845   14.3088 O   0  0  0  0  0  0  0  0  0  0  0  0
    7.2407   15.0157   15.3911 C   0  0  2  0  0  0  0  0  0  0  0  0
    6.9730   16.3635   15.9196 N   0  0  0  0  0  0  0  0  0  0  0  0
    6.6140   10.9568   17.5532 C   0  0  1  0  0  0  0  0  0  0  0  0
    3.6728    8.6681   19.6051 C   0  0  1  0  0  0  0  0  0  0  0  0
    2.7671    5.3108   17.5773 C   0  0  1  0  0  0  0  0  0  0  0  0
    9.0168   10.7081   12.9570 C   0  0  2  0  0  0  0  0  0  0  0  0
    8.9684   12.1359   12.6434 N   0  0  0  0  0  0  0  0  0  0  0  0
    6.0672   14.5571   14.4371 C   0  0  0  0  0  0  0  0  0  0  0  0
    6.9465    9.8866   18.5937 C   0  0  2  0  0  0  0  0  0  0  0  0
    7.1910    8.5949   17.9961 O   0  0  0  0  0  0  0  0  0  0  0  0
    4.3941    7.3723   20.1898 C   0  0  2  0  0  0  0  0  0  0  0  0
    5.0755    6.6077   19.1119 N   0  0  0  0  0  0  0  0  0  0  0  0
    3.8165    4.2470   17.2763 C   0  0  1  0  0  0  0  0  0  0  0  0
    3.5337    3.6521   15.9939 O   0  0  0  0  0  0  0  0  0  0  0  0
    8.3320    9.8912   11.8157 C   0  0  0  0  0  0  0  0  0  0  0  0
    6.4005   13.1338   13.8332 C   0  0  2  0  0  0  0  0  0  0  0  0
    5.3191   12.6783   12.9533 N   0  0  0  0  0  0  0  0  0  0  0  0
    5.7154    9.9462   19.4509 C   0  0  2  0  0  0  0  0  0  0  0  0
    4.6432    9.2944   18.8185 O   0  0  0  0  0  0  0  0  0  0  0  0
    3.3427    6.5372   21.0455 C   0  0  1  0  0  0  0  0  0  0  0  0
    2.7222    7.4097   21.9954 O   0  0  0  0  0  0  0  0  0  0  0  0
    5.2580    4.7413   17.2580 C   0  0  1  0  0  0  0  0  0  0  0  0
    6.0630    3.6797   16.7334 O   0  0  0  0  0  0  0  0  0  0  0  0
    8.3757    8.3785   12.1837 C   0  0  2  0  0  0  0  0  0  0  0  0
    7.8384    7.5698   11.1525 O   0  0  0  0  0  0  0  0  0  0  0  0
    6.6409   12.1065   14.9698 C   0  0  2  0  0  0  0  0  0  0  0  0
    5.2890   11.4285   19.4757 C   0  0  2  0  0  0  0  0  0  0  0  0
    5.7439   11.8872   18.2125 O   0  0  0  0  0  0  0  0  0  0  0  0
    2.1690    5.9822   20.1380 C   0  0  2  0  0  0  0  0  0  0  0  0
    2.8181    5.0928   19.2281 O   0  0  0  0  0  0  0  0  0  0  0  0
    5.4673    6.0004   16.4148 C   0  0  2  0  0  0  0  0  0  0  0  0
    6.7693    6.5110   16.7445 O   0  0  0  0  0  0  0  0  0  0  0  0
    7.6165    8.1793   13.5190 C   0  0  2  0  0  0  0  0  0  0  0  0
    8.3170    8.9531   14.5346 O   0  0  0  0  0  0  0  0  0  0  0  0
    7.7080   12.5529   16.0200 C   0  0  2  0  0  0  0  0  0  0  0  0
    7.7982   11.5558   17.0755 O   0  0  0  0  0  0  0  0  0  0  0  0
    5.8986   12.2941   20.5778 C   0  0  0  0  0  0  0  0  0  0  0  0
    7.3232   12.2734   20.4055 O   0  0  0  0  0  0  0  0  0  0  0  0
    1.7078    7.1586   19.2993 C   0  0  1  0  0  0  0  0  0  0  0  0
    2.4565    8.2806   18.7844 O   0  0  0  0  0  0  0  0  0  0  0  0
    4.3332    7.0002   16.6117 C   0  0  2  0  0  0  0  0  0  0  0  0
    2.9933    6.5643   16.8882 O   0  0  0  0  0  0  0  0  0  0  0  0
    7.6344    6.7671   13.9965 C   0  0  0  0  0  0  0  0  0  0  0  0
    8.9515    6.4732   14.3953 O   0  0  0  0  0  0  0  0  0  0  0  0
    7.3866   13.9846   16.5670 C   0  0  1  0  0  0  0  0  0  0  0  0
    8.5176   14.3983   17.3788 O   0  0  0  0  0  0  0  0  0  0  0  0
    0.4742    6.9120   18.3773 C   0  0  0  0  0  0  0  0  0  0  0  0
   -0.5936    7.9203   18.5442 N   0  0  0  0  0  0  0  0  0  0  0  0
    4.2720    8.3435   15.8881 C   0  0  0  0  0  0  0  0  0  0  0  0
    5.6158    8.8211   15.6149 O   0  0  0  0  0  0  0  0  0  0  0  0
  1  2  1  6  0  0  0
  1  8  1  0  0  0  0
  1 36  1  0  0  0  0
  3  4  1  1  0  0  0
  3 10  1  0  0  0  0
  3 47  1  0  0  0  0
  5 11  1  0  0  0  0
  5 30  1  0  0  0  0
  5 38  1  1  0  0  0
  6 21  1  6  0  0  0
  6 42  1  0  0  0  0
  7 15  1  0  0  0  0
  7 44  1  0  0  0  0
  7 32  1  1  0  0  0
  8  9  1  6  0  0  0
  8 17  1  0  0  0  0
 11 12  1  6  0  0  0
 11 20  1  0  0  0  0
 13  6  1  0  0  0  0
 13 14  1  6  0  0  0
 15 16  1  6  0  0  0
 15 24  1  0  0  0  0
 17 26  1  0  0  0  0
 18 10  1  0  0  0  0
 18 19  1  6  0  0  0
 20 21  1  6  0  0  0
 20 29  1  0  0  0  0
 22 13  1  0  0  0  0
 22 23  1  1  0  0  0
 24 25  1  6  0  0  0
 24 33  1  0  0  0  0
 26 27  1  6  0  0  0
 26 35  1  0  0  0  0
 28  2  1  6  0  0  0
 28 18  1  0  0  0  0
 29 30  1  0  0  0  0
 29 39  1  1  0  0  0
 31 22  1  0  0  0  0
 31 32  1  6  0  0  0
 31 41  1  0  0  0  0
 33 34  1  1  0  0  0
 33 43  1  0  0  0  0
 35 36  1  0  0  0  0
 35 45  1  1  0  0  0
 37 28  1  0  0  0  0
 37 38  1  1  0  0  0
 39 40  1  0  0  0  0
 41 42  1  0  0  0  0
 41 49  1  6  0  0  0
 43 44  1  0  0  0  0
 43 51  1  6  0  0  0
 45 46  1  0  0  0  0
 47 37  1  0  0  0  0
 47 48  1  1  0  0  0
 49 50  1  0  0  0  0
 51 52  1  0  0  0  0
M  END
>  <CHROM.1>
-102.86902641,176.64197149,-72.26978182,169.98654809,149.14338849,107.62524566
60.18509061,-120.27513753,69.65506482,-40.25276481,128.33234077,-29.85523745
5.68434937,9.12140479,16.75204461,-0.45507410,-0.94809884,-2.69441379

>  <Name>
2esj_lig

>  <RI>
224

>  <Rbt.Current_Directory>
/home/itssahil/PROJECTS/Mol_Feturizer/New_Systems/rnas/2esj

>  <Rbt.Executable>
rbdock ($Id: //depot/dev/client3/rdock/2013.1/src/exe/rbdock.cxx#4 $)

>  <Rbt.Library>
libRbt.so (2013.1, Build901 2013/11/27)

>  <Rbt.Parameter_File>
/export/apps/rDock/src/rDock_2013.1_src/data/scripts/dock_solv.prm

>  <Rbt.Receptor>
prm/blind_docking_100.prm

>  <SCORE>
8.94236

>  <SCORE.INTER>
-8.3993

>  <SCORE.INTER.CONST>
1

>  <SCORE.INTER.POLAR>
-0.195342

>  <SCORE.INTER.ROT>
12

>  <SCORE.INTER.SOLV>
17.3056

>  <SCORE.INTER.VDW>
-22.3169

>  <SCORE.INTER.norm>
-0.161525

>  <SCORE.INTRA>
9.42332

>  <SCORE.INTRA.DIHEDRAL>
-0.967174

>  <SCORE.INTRA.DIHEDRAL.0>
32.9766

>  <SCORE.INTRA.POLAR>
0

>  <SCORE.INTRA.POLAR.0>
0

>  <SCORE.INTRA.REPUL>
0.161558

>  <SCORE.INTRA.REPUL.0>
0

>  <SCORE.INTRA.SOLV>
10.9346

>  <SCORE.INTRA.SOLV.lig_0>
-114.358

>  <SCORE.INTRA.VDW>
3.63181

>  <SCORE.INTRA.VDW.0>
-8.24257

>  <SCORE.INTRA.norm>
0.181218

>  <SCORE.RESTR>
7.91833

>  <SCORE.RESTR.CAVITY>
7.91833

>  <SCORE.RESTR.norm>
0.152276

>  <SCORE.SYSTEM>
0

>  <SCORE.SYSTEM.CONST>
0

>  <SCORE.SYSTEM.DIHEDRAL>
0

>  <SCORE.SYSTEM.SOLV>
0

>  <SCORE.SYSTEM.norm>
0

>  <SCORE.heavy>
52

>  <SCORE.norm>
0.171968

>  <RMSD>
23.506

$$$$
2esj_lig
 OpenBabel11021811423D
libRbt.so/2013.1/901 2013/11/27
 52 56  0  0  0  0  0  0  0  0999 V2000
    6.4764   12.4606   14.0738 C   0  0  2  0  0  0  0  0  0  0  0  0
    6.7163   12.9810   12.7523 O   0  0  0  0  0  0  0  0  0  0  0  0
    3.4546   11.4236   10.4667 C   0  0  2  0  0  0  0  0  0  0  0  0
    2.5732   10.9504    9.3866 N   0  0  0  0  0  0  0  0  0  0  0  0
    6.9402    9.2012   12.8996 C   0  0  1  0  0  0  0  0  0  0  0  0
    7.1721    8.1053   15.3497 C   0  0  1  0  0  0  0  0  0  0  0  0
    4.9539    9.0210   18.6736 C   0  0  1  0  0  0  0  0  0  0  0  0
    5.1031   13.0160   14.5540 C   0  0  2  0  0  0  0  0  0  0  0  0
    4.0183   12.6833   13.6311 N   0  0  0  0  0  0  0  0  0  0  0  0
    3.9220   12.9065   10.1839 C   0  0  0  0  0  0  0  0  0  0  0  0
    5.8249    8.1663   12.7454 C   0  0  2  0  0  0  0  0  0  0  0  0
    4.6089    8.5634   13.4154 O   0  0  0  0  0  0  0  0  0  0  0  0
    7.7840    7.4915   16.6876 C   0  0  2  0  0  0  0  0  0  0  0  0
    6.7539    6.7367   17.4493 N   0  0  0  0  0  0  0  0  0  0  0  0
    4.6920    8.1227   19.8769 C   0  0  1  0  0  0  0  0  0  0  0  0
    3.4061    8.4496   20.4409 O   0  0  0  0  0  0  0  0  0  0  0  0
    5.1687   14.5628   14.7596 C   0  0  0  0  0  0  0  0  0  0  0  0
    4.8186   13.4175   11.3825 C   0  0  2  0  0  0  0  0  0  0  0  0
    5.2773   14.7889   11.1381 N   0  0  0  0  0  0  0  0  0  0  0  0
    6.4890    6.9574   13.3384 C   0  0  2  0  0  0  0  0  0  0  0  0
    6.5015    7.0411   14.7410 O   0  0  0  0  0  0  0  0  0  0  0  0
    8.5093    8.6504   17.5037 C   0  0  1  0  0  0  0  0  0  0  0  0
    9.4211    9.3283   16.6332 O   0  0  0  0  0  0  0  0  0  0  0  0
    4.7130    6.6264   19.5891 C   0  0  1  0  0  0  0  0  0  0  0  0
    4.2202    5.9634   20.7586 O   0  0  0  0  0  0  0  0  0  0  0  0
    6.3444   14.8925   15.7263 C   0  0  2  0  0  0  0  0  0  0  0  0
    6.4137   16.2767   16.0184 O   0  0  0  0  0  0  0  0  0  0  0  0
    6.0299   12.4723   11.5933 C   0  0  2  0  0  0  0  0  0  0  0  0
    7.9773    7.0572   12.9451 C   0  0  2  0  0  0  0  0  0  0  0  0
    8.1684    8.4609   12.8683 O   0  0  0  0  0  0  0  0  0  0  0  0
    7.4769    9.7498   17.9884 C   0  0  2  0  0  0  0  0  0  0  0  0
    6.6071    9.0479   18.8778 O   0  0  0  0  0  0  0  0  0  0  0  0
    3.8673    6.2190   18.3813 C   0  0  2  0  0  0  0  0  0  0  0  0
    4.2318    4.8681   18.0539 O   0  0  0  0  0  0  0  0  0  0  0  0
    7.6589   14.3775   15.0890 C   0  0  2  0  0  0  0  0  0  0  0  0
    7.5323   12.9341   14.9427 O   0  0  0  0  0  0  0  0  0  0  0  0
    5.6451   10.9673   11.7602 C   0  0  2  0  0  0  0  0  0  0  0  0
    6.8540   10.1661   11.8746 O   0  0  0  0  0  0  0  0  0  0  0  0
    8.3742    6.4190   11.6144 C   0  0  0  0  0  0  0  0  0  0  0  0
    7.6242    7.0732   10.5804 O   0  0  0  0  0  0  0  0  0  0  0  0
    6.6337   10.0845   16.7730 C   0  0  1  0  0  0  0  0  0  0  0  0
    6.2271    9.2494   15.6677 O   0  0  0  0  0  0  0  0  0  0  0  0
    4.0231    7.2070   17.2306 C   0  0  2  0  0  0  0  0  0  0  0  0
    4.2628    8.6020   17.4719 O   0  0  0  0  0  0  0  0  0  0  0  0
    8.8531   14.5976   15.9538 C   0  0  0  0  0  0  0  0  0  0  0  0
    8.6303   13.9133   17.1630 O   0  0  0  0  0  0  0  0  0  0  0  0
    4.7166   10.4964   10.5904 C   0  0  1  0  0  0  0  0  0  0  0  0
    4.2521    9.1608   10.9215 O   0  0  0  0  0  0  0  0  0  0  0  0
    5.5905   11.2310   16.9470 C   0  0  0  0  0  0  0  0  0  0  0  0
    6.1379   12.4239   17.6268 N   0  0  0  0  0  0  0  0  0  0  0  0
    3.2884    7.0590   15.9002 C   0  0  0  0  0  0  0  0  0  0  0  0
    2.9474    8.3687   15.3738 O   0  0  0  0  0  0  0  0  0  0  0  0
  1  2  1  6  0  0  0
  1  8  1  0  0  0  0
  1 36  1  0  0  0  0
  3  4  1  6  0  0  0
  3 10  1  0  0  0  0
  3 47  1  0  0  0  0
  5 11  1  0  0  0  0
  5 30  1  0  0  0  0
  5 38  1  6  0  0  0
  6 21  1  1  0  0  0
  6 42  1  0  0  0  0
  7 15  1  0  0  0  0
  7 44  1  0  0  0  0
  7 32  1  6  0  0  0
  8  9  1  6  0  0  0
  8 17  1  0  0  0  0
 11 12  1  1  0  0  0
 11 20  1  0  0  0  0
 13  6  1  0  0  0  0
 13 14  1  1  0  0  0
 15 16  1  6  0  0  0
 15 24  1  0  0  0  0
 17 26  1  0  0  0  0
 18 10  1  0  0  0  0
 18 19  1  6  0  0  0
 20 21  1  1  0  0  0
 20 29  1  0  0  0  0
 22 13  1  0  0  0  0
 22 23  1  6  0  0  0
 24 25  1  1  0  0  0
 24 33  1  0  0  0  0
 26 27  1  6  0  0  0
 26 35  1  0  0  0  0
 28  2  1  1  0  0  0
 28 18  1  0  0  0  0
 29 30  1  0  0  0  0
 29 39  1  6  0  0  0
 31 22  1  0  0  0  0
 31 32  1  1  0  0  0
 31 41  1  0  0  0  0
 33 34  1  6  0  0  0
 33 43  1  0  0  0  0
 35 36  1  0  0  0  0
 35 45  1  1  0  0  0
 37 28  1  0  0  0  0
 37 38  1  6  0  0  0
 39 40  1  0  0  0  0
 41 42  1  0  0  0  0
 41 49  1  1  0  0  0
 43 44  1  0  0  0  0
 43 51  1  1  0  0  0
 45 46  1  0  0  0  0
 47 37  1  0  0  0  0
 47 48  1  1  0  0  0
 49 50  1  0  0  0  0
 51 52  1  0  0  0  0
M  END
>  <CHROM.1>
-75.21523679,60.15101032,-145.15912242,178.71120795,-60.89570325,95.14700533
60.11561883,-124.70972749,59.62179604,132.75270552,45.83564553,145.32819970
5.88713211,9.99830348,14.99170254,-1.22538364,1.41350439,1.95592264

>  <Name>
2esj_lig

>  <RI>
0

>  <Rbt.Current_Directory>
/home/itssahil/PROJECTS/Mol_Feturizer/New_Systems/rnas/2esj

>  <Rbt.Executable>
rbdock ($Id: //depot/dev/client3/rdock/2013.1/src/exe/rbdock.cxx#4 $)

>  <Rbt.Library>
libRbt.so (2013.1, Build901 2013/11/27)

>  <Rbt.Parameter_File>
/export/apps/rDock/src/rDock_2013.1_src/data/scripts/dock_solv.prm

>  <Rbt.Receptor>
prm/blind_docking_80.prm

>  <SCORE>
12.2161

>  <SCORE.INTER>
-6.64312

>  <SCORE.INTER.CONST>
1

>  <SCORE.INTER.POLAR>
-0.988824

>  <SCORE.INTER.ROT>
12

>  <SCORE.INTER.SOLV>
23.6755

>  <SCORE.INTER.VDW>
-20.6245

>  <SCORE.INTER.norm>
-0.127752

>  <SCORE.INTRA>
16.5717

>  <SCORE.INTRA.DIHEDRAL>
-3.98101

>  <SCORE.INTRA.DIHEDRAL.0>
32.9766

>  <SCORE.INTRA.POLAR>
0

>  <SCORE.INTRA.POLAR.0>
0

>  <SCORE.INTRA.REPUL>
0.0221267

>  <SCORE.INTRA.REPUL.0>
0

>  <SCORE.INTRA.SOLV>
18.0862

>  <SCORE.INTRA.SOLV.lig_0>
-114.358

>  <SCORE.INTRA.VDW>
9.40844

>  <SCORE.INTRA.VDW.0>
-8.24257

>  <SCORE.INTRA.norm>
0.318686

>  <SCORE.RESTR>
2.28751

>  <SCORE.RESTR.CAVITY>
2.28751

>  <SCORE.RESTR.norm>
0.0439907

>  <SCORE.SYSTEM>
0

>  <SCORE.SYSTEM.CONST>
0

>  <SCORE.SYSTEM.DIHEDRAL>
0

>  <SCORE.SYSTEM.SOLV>
0

>  <SCORE.SYSTEM.norm>
0

>  <SCORE.heavy>
52

>  <SCORE.norm>
0.234924

>  <RMSD>
23.548

$$$$
2esj_lig
 OpenBabel11021811423D
libRbt.so/2013.1/901 2013/11/27
 52 56  0  0  0  0  0  0  0  0999 V2000
    6.1739    8.8689   12.5833 C   0  0  2  0  0  0  0  0  0  0  0  0
    6.0102    9.7780   11.4780 O   0  0  0  0  0  0  0  0  0  0  0  0
    3.3892   12.8554   10.0824 C   0  0  2  0  0  0  0  0  0  0  0  0
    2.4419   13.9775    9.9791 N   0  0  0  0  0  0  0  0  0  0  0  0
    7.3921   11.9364   12.6521 C   0  0  1  0  0  0  0  0  0  0  0  0
    8.5638   10.6721   16.3739 C   0  0  1  0  0  0  0  0  0  0  0  0
    5.1673    7.2448   17.3973 C   0  0  1  0  0  0  0  0  0  0  0  0
    7.5507    8.1625   12.4092 C   0  0  2  0  0  0  0  0  0  0  0  0
    8.6551    9.1173   12.3196 N   0  0  0  0  0  0  0  0  0  0  0  0
    2.7761   11.6990   10.9679 C   0  0  0  0  0  0  0  0  0  0  0  0
    8.6636   12.5826   13.2036 C   0  0  2  0  0  0  0  0  0  0  0  0
    9.8630   11.9654   12.6880 O   0  0  0  0  0  0  0  0  0  0  0  0
    8.2170    9.1173   16.3135 C   0  0  2  0  0  0  0  0  0  0  0  0
    7.1308    8.8496   15.3341 N   0  0  0  0  0  0  0  0  0  0  0  0
    3.8960    7.5253   16.6045 C   0  0  1  0  0  0  0  0  0  0  0  0
    3.6592    6.4372   15.6887 O   0  0  0  0  0  0  0  0  0  0  0  0
    7.5470    7.2367   11.1515 C   0  0  0  0  0  0  0  0  0  0  0  0
    3.7821   10.4795   11.0184 C   0  0  2  0  0  0  0  0  0  0  0  0
    3.2419    9.3963   11.8465 N   0  0  0  0  0  0  0  0  0  0  0  0
    8.4538   12.3863   14.6772 C   0  0  2  0  0  0  0  0  0  0  0  0
    8.7235   11.0558   15.0397 O   0  0  0  0  0  0  0  0  0  0  0  0
    7.9358    8.5926   17.7902 C   0  0  1  0  0  0  0  0  0  0  0  0
    9.0282    8.9741   18.6327 O   0  0  0  0  0  0  0  0  0  0  0  0
    2.6367    7.7190   17.4405 C   0  0  1  0  0  0  0  0  0  0  0  0
    1.5262    7.7319   16.5367 O   0  0  0  0  0  0  0  0  0  0  0  0
    6.3500    6.2462   11.2595 C   0  0  2  0  0  0  0  0  0  0  0  0
    6.3317    5.3230   10.1854 O   0  0  0  0  0  0  0  0  0  0  0  0
    5.1609   10.9377   11.5604 C   0  0  2  0  0  0  0  0  0  0  0  0
    6.9366   12.5370   14.9118 C   0  0  2  0  0  0  0  0  0  0  0  0
    6.4012   12.0834   13.6787 O   0  0  0  0  0  0  0  0  0  0  0  0
    6.6506    9.2782   18.4127 C   0  0  2  0  0  0  0  0  0  0  0  0
    5.5799    8.8496   17.5699 O   0  0  0  0  0  0  0  0  0  0  0  0
    2.4214    6.6295   18.4925 C   0  0  2  0  0  0  0  0  0  0  0  0
    1.4010    7.1071   19.3844 O   0  0  0  0  0  0  0  0  0  0  0  0
    5.0399    7.0698   11.3260 C   0  0  2  0  0  0  0  0  0  0  0  0
    5.1069    7.8931   12.5254 O   0  0  0  0  0  0  0  0  0  0  0  0
    5.7718   12.1600   10.8029 C   0  0  2  0  0  0  0  0  0  0  0  0
    7.0208   12.5510   11.4382 O   0  0  0  0  0  0  0  0  0  0  0  0
    6.4284   13.9503   15.1946 C   0  0  0  0  0  0  0  0  0  0  0  0
    5.0198   13.8594   15.4538 O   0  0  0  0  0  0  0  0  0  0  0  0
    6.8089   10.7631   18.1474 C   0  0  1  0  0  0  0  0  0  0  0  0
    7.4438   11.4457   17.0449 O   0  0  0  0  0  0  0  0  0  0  0  0
    3.7281    6.2501   19.1803 C   0  0  2  0  0  0  0  0  0  0  0  0
    4.9819    6.3038   18.4824 O   0  0  0  0  0  0  0  0  0  0  0  0
    3.8235    6.2217   11.4796 C   0  0  0  0  0  0  0  0  0  0  0  0
    3.4391    5.7986   10.1938 O   0  0  0  0  0  0  0  0  0  0  0  0
    4.7415   13.3364   10.7207 C   0  0  1  0  0  0  0  0  0  0  0  0
    5.3096   14.3446    9.8433 O   0  0  0  0  0  0  0  0  0  0  0  0
    5.7167   11.6965   18.7546 C   0  0  0  0  0  0  0  0  0  0  0  0
    6.0648   12.2115   20.0956 N   0  0  0  0  0  0  0  0  0  0  0  0
    3.8177    5.1815   20.2673 C   0  0  0  0  0  0  0  0  0  0  0  0
    2.9277    4.0781   19.9523 O   0  0  0  0  0  0  0  0  0  0  0  0
  1  2  1  6  0  0  0
  1  8  1  0  0  0  0
  1 36  1  0  0  0  0
  3  4  1  1  0  0  0
  3 10  1  0  0  0  0
  3 47  1  0  0  0  0
  5 11  1  0  0  0  0
  5 30  1  0  0  0  0
  5 38  1  6  0  0  0
  6 21  1  6  0  0  0
  6 42  1  0  0  0  0
  7 15  1  0  0  0  0
  7 44  1  0  0  0  0
  7 32  1  1  0  0  0
  8  9  1  6  0  0  0
  8 17  1  0  0  0  0
 11 12  1  6  0  0  0
 11 20  1  0  0  0  0
 13  6  1  0  0  0  0
 13 14  1  6  0  0  0
 15 16  1  6  0  0  0
 15 24  1  0  0  0  0
 17 26  1  0  0  0  0
 18 10  1  0  0  0  0
 18 19  1  1  0  0  0
 20 21  1  6  0  0  0
 20 29  1  0  0  0  0
 22 13  1  0  0  0  0
 22 23  1  1  0  0  0
 24 25  1  6  0  0  0
 24 33  1  0  0  0  0
 26 27  1  6  0  0  0
 26 35  1  0  0  0  0
 28  2  1  6  0  0  0
 28 18  1  0  0  0  0
 29 30  1  0  0  0  0
 29 39  1  6  0  0  0
 31 22  1  0  0  0  0
 31 32  1  6  0  0  0
 31 41  1  0  0  0  0
 33 34  1  1  0  0  0
 33 43  1  0  0  0  0
 35 36  1  0  0  0  0
 35 45  1  1  0  0  0
 37 28  1  0  0  0  0
 37 38  1  1  0  0  0
 39 40  1  0  0  0  0
 41 42  1  0  0  0  0
 41 49  1  6  0  0  0
 43 44  1  0  0  0  0
 43 51  1  6  0  0  0
 45 46  1  0  0  0  0
 47 37  1  0  0  0  0
 47 48  1  6  0  0  0
 49 50  1  0  0  0  0
 51 52  1  0  0  0  0
M  END
>  <CHROM.1>
-155.20602879,-174.86059808,152.16388351,171.54126045,-179.04103332,-92.88748978
-176.88325372,61.63574820,-84.40392318,-7.50095115,92.12588484,38.05138072
5.61946432,9.56334040,14.56163664,1.24056407,-1.02992966,-1.30839864

>  <Name>
2esj_lig

>  <RI>
224

>  <Rbt.Current_Directory>
/home/itssahil/PROJECTS/Mol_Feturizer/New_Systems/rnas/2esj

>  <Rbt.Executable>
rbdock ($Id: //depot/dev/client3/rdock/2013.1/src/exe/rbdock.cxx#4 $)

>  <Rbt.Library>
libRbt.so (2013.1, Build901 2013/11/27)

>  <Rbt.Parameter_File>
/export/apps/rDock/src/rDock_2013.1_src/data/scripts/dock_solv.prm

>  <Rbt.Receptor>
prm/blind_docking_100.prm

>  <SCORE>
-1.75953

>  <SCORE.INTER>
-18.4929

>  <SCORE.INTER.CONST>
1

>  <SCORE.INTER.POLAR>
-1.53894

>  <SCORE.INTER.ROT>
12

>  <SCORE.INTER.SOLV>
22.9056

>  <SCORE.INTER.VDW>
-26.434

>  <SCORE.INTER.norm>
-0.355634

>  <SCORE.INTRA>
5.95516

>  <SCORE.INTRA.DIHEDRAL>
-8.42503

>  <SCORE.INTRA.DIHEDRAL.0>
32.9766

>  <SCORE.INTRA.POLAR>
0

>  <SCORE.INTRA.POLAR.0>
0

>  <SCORE.INTRA.REPUL>
0

>  <SCORE.INTRA.REPUL.0>
0

>  <SCORE.INTRA.SOLV>
7.66485

>  <SCORE.INTRA.SOLV.lig_0>
-114.358

>  <SCORE.INTRA.VDW>
6.33525

>  <SCORE.INTRA.VDW.0>
-8.24257

>  <SCORE.INTRA.norm>
0.114522

>  <SCORE.RESTR>
10.7783

>  <SCORE.RESTR.CAVITY>
10.7783

>  <SCORE.RESTR.norm>
0.207274

>  <SCORE.SYSTEM>
0

>  <SCORE.SYSTEM.CONST>
0

>  <SCORE.SYSTEM.DIHEDRAL>
0

>  <SCORE.SYSTEM.SOLV>
0

>  <SCORE.SYSTEM.norm>
0

>  <SCORE.heavy>
52

>  <SCORE.norm>
-0.0338371

>  <RMSD>
23.563

$$$$
2esj_lig
 OpenBabel11021811423D
libRbt.so/2013.1/901 2013/11/27
 52 56  0  0  0  0  0  0  0  0999 V2000
    6.2534   10.2195   12.7831 C   0  0  2  0  0  0  0  0  0  0  0  0
    6.5772   10.8389   11.5236 O   0  0  0  0  0  0  0  0  0  0  0  0
    8.1413   14.4282    9.8035 C   0  0  2  0  0  0  0  0  0  0  0  0
    8.4637   15.8287    9.4841 N   0  0  0  0  0  0  0  0  0  0  0  0
    7.9218   12.3292   13.9829 C   0  0  1  0  0  0  0  0  0  0  0  0
    6.8762   11.5323   17.5212 C   0  0  1  0  0  0  0  0  0  0  0  0
    4.4056    7.4191   16.9571 C   0  0  1  0  0  0  0  0  0  0  0  0
    6.4347    8.6826   12.6098 C   0  0  2  0  0  0  0  0  0  0  0  0
    7.7811    8.3315   12.1590 N   0  0  0  0  0  0  0  0  0  0  0  0
    6.5779   14.2015    9.7620 C   0  0  0  0  0  0  0  0  0  0  0  0
    8.6942   12.4157   15.2999 C   0  0  2  0  0  0  0  0  0  0  0  0
    8.9488   11.1158   15.8752 O   0  0  0  0  0  0  0  0  0  0  0  0
    6.7491   10.1570   16.7252 C   0  0  2  0  0  0  0  0  0  0  0  0
    5.5152   10.1315   15.8959 N   0  0  0  0  0  0  0  0  0  0  0  0
    3.8563    6.4620   18.0086 C   0  0  1  0  0  0  0  0  0  0  0  0
    2.9721    5.5171   17.3732 O   0  0  0  0  0  0  0  0  0  0  0  0
    5.3760    8.1050   11.6175 C   0  0  0  0  0  0  0  0  0  0  0  0
    6.2549   12.6800   10.0489 C   0  0  2  0  0  0  0  0  0  0  0  0
    4.8074   12.4452   10.0296 N   0  0  0  0  0  0  0  0  0  0  0  0
    7.7648   13.2756   16.1066 C   0  0  2  0  0  0  0  0  0  0  0  0
    6.6671   12.5240   16.5591 O   0  0  0  0  0  0  0  0  0  0  0  0
    6.8942    8.9496   17.7528 C   0  0  1  0  0  0  0  0  0  0  0  0
    8.0863    9.1377   18.5224 O   0  0  0  0  0  0  0  0  0  0  0  0
    4.9058    5.6757   18.7849 C   0  0  1  0  0  0  0  0  0  0  0  0
    4.2128    4.6764   19.5409 O   0  0  0  0  0  0  0  0  0  0  0  0
    3.9541    8.5116   12.1061 C   0  0  2  0  0  0  0  0  0  0  0  0
    2.9380    7.9539   11.2920 O   0  0  0  0  0  0  0  0  0  0  0  0
    6.8540   12.2475   11.4124 C   0  0  2  0  0  0  0  0  0  0  0  0
    7.1458   14.2783   15.1112 C   0  0  2  0  0  0  0  0  0  0  0  0
    7.1469   13.5336   13.9036 O   0  0  0  0  0  0  0  0  0  0  0  0
    5.7039    8.9332   18.7978 C   0  0  2  0  0  0  0  0  0  0  0  0
    4.5393    8.7103   18.0012 O   0  0  0  0  0  0  0  0  0  0  0  0
    5.9541    5.0031   17.8968 C   0  0  2  0  0  0  0  0  0  0  0  0
    7.0228    4.5813   18.7598 O   0  0  0  0  0  0  0  0  0  0  0  0
    3.8736   10.0580   12.1396 C   0  0  2  0  0  0  0  0  0  0  0  0
    4.8726   10.5227   13.0920 O   0  0  0  0  0  0  0  0  0  0  0  0
    8.3782   12.5539   11.5672 C   0  0  2  0  0  0  0  0  0  0  0  0
    8.8163   12.1793   12.9029 O   0  0  0  0  0  0  0  0  0  0  0  0
    7.9076   15.5862   14.8996 C   0  0  0  0  0  0  0  0  0  0  0  0
    8.2277   16.1145   16.1950 O   0  0  0  0  0  0  0  0  0  0  0  0
    5.5842   10.3573   19.3054 C   0  0  1  0  0  0  0  0  0  0  0  0
    5.8436   11.6072   18.6308 O   0  0  0  0  0  0  0  0  0  0  0  0
    6.3914    5.9170   16.7576 C   0  0  2  0  0  0  0  0  0  0  0  0
    5.4846    6.8616   16.1683 O   0  0  0  0  0  0  0  0  0  0  0  0
    2.5641   10.5644   12.6409 C   0  0  0  0  0  0  0  0  0  0  0  0
    2.5795   11.9662   12.5196 O   0  0  0  0  0  0  0  0  0  0  0  0
    8.6825   14.0525   11.2294 C   0  0  1  0  0  0  0  0  0  0  0  0
   10.1269   14.2031   11.2070 O   0  0  0  0  0  0  0  0  0  0  0  0
    4.5409   10.6047   20.4382 C   0  0  0  0  0  0  0  0  0  0  0  0
    4.4485    9.4897   21.4040 N   0  0  0  0  0  0  0  0  0  0  0  0
    7.4208    5.5053   15.7076 C   0  0  0  0  0  0  0  0  0  0  0  0
    8.1729    6.6673   15.2684 O   0  0  0  0  0  0  0  0  0  0  0  0
  1  2  1  6  0  0  0
  1  8  1  0  0  0  0
  1 36  1  0  0  0  0
  3  4  1  1  0  0  0
  3 10  1  0  0  0  0
  3 47  1  0  0  0  0
  5 11  1  0  0  0  0
  5 30  1  0  0  0  0
  5 38  1  6  0  0  0
  6 21  1  6  0  0  0
  6 42  1  0  0  0  0
  7 15  1  0  0  0  0
  7 44  1  0  0  0  0
  7 32  1  1  0  0  0
  8  9  1  6  0  0  0
  8 17  1  0  0  0  0
 11 12  1  1  0  0  0
 11 20  1  0  0  0  0
 13  6  1  0  0  0  0
 13 14  1  1  0  0  0
 15 16  1  6  0  0  0
 15 24  1  0  0  0  0
 17 26  1  0  0  0  0
 18 10  1  0  0  0  0
 18 19  1  1  0  0  0
 20 21  1  6  0  0  0
 20 29  1  0  0  0  0
 22 13  1  0  0  0  0
 22 23  1  1  0  0  0
 24 25  1  6  0  0  0
 24 33  1  0  0  0  0
 26 27  1  6  0  0  0
 26 35  1  0  0  0  0
 28  2  1  6  0  0  0
 28 18  1  0  0  0  0
 29 30  1  0  0  0  0
 29 39  1  6  0  0  0
 31 22  1  0  0  0  0
 31 32  1  6  0  0  0
 31 41  1  0  0  0  0
 33 34  1  1  0  0  0
 33 43  1  0  0  0  0
 35 36  1  0  0  0  0
 35 45  1  1  0  0  0
 37 28  1  0  0  0  0
 37 38  1  1  0  0  0
 39 40  1  0  0  0  0
 41 42  1  0  0  0  0
 41 49  1  6  0  0  0
 43 44  1  0  0  0  0
 43 51  1  6  0  0  0
 45 46  1  0  0  0  0
 47 37  1  0  0  0  0
 47 48  1  6  0  0  0
 49 50  1  0  0  0  0
 51 52  1  0  0  0  0
M  END
>  <CHROM.1>
-163.51732695,-157.96717512,-106.39483400,87.44477942,68.61410404,-143.95818870
-48.38940700,54.32710072,-175.28869944,-33.91775365,36.46154250,-147.99856725
6.27145956,10.28393197,14.91084542,1.03536106,-1.12240820,-1.27667756

>  <Name>
2esj_lig

>  <RI>
224

>  <Rbt.Current_Directory>
/home/itssahil/PROJECTS/Mol_Feturizer/New_Systems/rnas/2esj

>  <Rbt.Executable>
rbdock ($Id: //depot/dev/client3/rdock/2013.1/src/exe/rbdock.cxx#4 $)

>  <Rbt.Library>
libRbt.so (2013.1, Build901 2013/11/27)

>  <Rbt.Parameter_File>
/export/apps/rDock/src/rDock_2013.1_src/data/scripts/dock_solv.prm

>  <Rbt.Receptor>
prm/blind_docking_100.prm

>  <SCORE>
-3.33942

>  <SCORE.INTER>
-12.5682

>  <SCORE.INTER.CONST>
1

>  <SCORE.INTER.POLAR>
-0.0342741

>  <SCORE.INTER.ROT>
12

>  <SCORE.INTER.SOLV>
18.6922

>  <SCORE.INTER.VDW>
-26.0953

>  <SCORE.INTER.norm>
-0.241696

>  <SCORE.INTRA>
3.3919

>  <SCORE.INTRA.DIHEDRAL>
-5.50462

>  <SCORE.INTRA.DIHEDRAL.0>
32.9766

>  <SCORE.INTRA.POLAR>
0

>  <SCORE.INTRA.POLAR.0>
0

>  <SCORE.INTRA.REPUL>
0.224847

>  <SCORE.INTRA.REPUL.0>
0

>  <SCORE.INTRA.SOLV>
4.55578

>  <SCORE.INTRA.SOLV.lig_0>
-114.358

>  <SCORE.INTRA.VDW>
2.74209

>  <SCORE.INTRA.VDW.0>
-8.24257

>  <SCORE.INTRA.norm>
0.0652288

>  <SCORE.RESTR>
5.8369

>  <SCORE.RESTR.CAVITY>
5.8369

>  <SCORE.RESTR.norm>
0.112248

>  <SCORE.SYSTEM>
0

>  <SCORE.SYSTEM.CONST>
0

>  <SCORE.SYSTEM.DIHEDRAL>
0

>  <SCORE.SYSTEM.SOLV>
0

>  <SCORE.SYSTEM.norm>
0

>  <SCORE.heavy>
52

>  <SCORE.norm>
-0.0642195

>  <RMSD>
23.583

$$$$
2esj_lig
 OpenBabel11021811423D
libRbt.so/2013.1/901 2013/11/27
 52 56  0  0  0  0  0  0  0  0999 V2000
    6.3239    8.7374   13.0308 C   0  0  2  0  0  0  0  0  0  0  0  0
    6.0024    9.8677   12.1977 O   0  0  0  0  0  0  0  0  0  0  0  0
    3.4508   13.2847   11.8794 C   0  0  2  0  0  0  0  0  0  0  0  0
    2.5080   14.3845   12.1416 N   0  0  0  0  0  0  0  0  0  0  0  0
    7.0319   11.9010   14.5069 C   0  0  1  0  0  0  0  0  0  0  0  0
    7.0032   10.0644   16.4100 C   0  0  1  0  0  0  0  0  0  0  0  0
    3.8011    7.4061   18.8685 C   0  0  1  0  0  0  0  0  0  0  0  0
    7.7043    8.1886   12.5637 C   0  0  2  0  0  0  0  0  0  0  0  0
    8.7490    9.2114   12.6044 N   0  0  0  0  0  0  0  0  0  0  0  0
    2.7951   11.8975   12.2579 C   0  0  0  0  0  0  0  0  0  0  0  0
    8.3169   12.3072   15.2296 C   0  0  2  0  0  0  0  0  0  0  0  0
    9.4046   11.3921   14.9750 O   0  0  0  0  0  0  0  0  0  0  0  0
    5.5709   10.0203   17.1085 C   0  0  2  0  0  0  0  0  0  0  0  0
    5.6992    9.8662   18.5818 N   0  0  0  0  0  0  0  0  0  0  0  0
    4.3015    6.6257   20.0785 C   0  0  1  0  0  0  0  0  0  0  0  0
    3.6684    7.1387   21.2678 O   0  0  0  0  0  0  0  0  0  0  0  0
    7.6072    7.5869   11.1258 C   0  0  0  0  0  0  0  0  0  0  0  0
    3.7995   10.7250   11.9142 C   0  0  2  0  0  0  0  0  0  0  0  0
    3.2196    9.4255   12.2692 N   0  0  0  0  0  0  0  0  0  0  0  0
    7.8394   12.3164   16.6530 C   0  0  2  0  0  0  0  0  0  0  0  0
    7.7313   11.0044   17.1443 O   0  0  0  0  0  0  0  0  0  0  0  0
    4.6799    8.9127   16.3912 C   0  0  1  0  0  0  0  0  0  0  0  0
    4.6984    9.1470   14.9793 O   0  0  0  0  0  0  0  0  0  0  0  0
    4.0603    5.1218   20.0284 C   0  0  1  0  0  0  0  0  0  0  0  0
    4.3719    4.5996   21.3247 O   0  0  0  0  0  0  0  0  0  0  0  0
    6.4740    6.5187   11.1029 C   0  0  2  0  0  0  0  0  0  0  0  0
    6.3821    5.8753    9.8444 O   0  0  0  0  0  0  0  0  0  0  0  0
    5.1479   10.9341   12.6512 C   0  0  2  0  0  0  0  0  0  0  0  0
    6.3818   12.8191   16.6066 C   0  0  2  0  0  0  0  0  0  0  0  0
    5.9548   12.3675   15.3312 O   0  0  0  0  0  0  0  0  0  0  0  0
    5.2840    7.4627   16.5961 C   0  0  2  0  0  0  0  0  0  0  0  0
    5.2185    7.2503   18.0071 O   0  0  0  0  0  0  0  0  0  0  0  0
    2.6258    4.7394   19.6593 C   0  0  2  0  0  0  0  0  0  0  0  0
    2.6352    3.3365   19.3490 O   0  0  0  0  0  0  0  0  0  0  0  0
    5.1432    7.2111   11.4881 C   0  0  2  0  0  0  0  0  0  0  0  0
    5.3014    7.7315   12.8390 O   0  0  0  0  0  0  0  0  0  0  0  0
    5.7946   12.3367   12.4155 C   0  0  2  0  0  0  0  0  0  0  0  0
    7.0087   12.4518   13.2088 O   0  0  0  0  0  0  0  0  0  0  0  0
    6.1795   14.3309   16.7017 C   0  0  0  0  0  0  0  0  0  0  0  0
    6.5828   14.7392   18.0171 O   0  0  0  0  0  0  0  0  0  0  0  0
    6.7602    7.5836   16.2700 C   0  0  1  0  0  0  0  0  0  0  0  0
    7.6613    8.6975   16.4488 O   0  0  0  0  0  0  0  0  0  0  0  0
    2.0803    5.6248   18.5445 C   0  0  2  0  0  0  0  0  0  0  0  0
    2.4903    6.9944   18.4107 O   0  0  0  0  0  0  0  0  0  0  0  0
    3.9893    6.2689   11.5455 C   0  0  0  0  0  0  0  0  0  0  0  0
    2.8133    7.0416   11.5443 O   0  0  0  0  0  0  0  0  0  0  0  0
    4.7677   13.4809   12.7129 C   0  0  1  0  0  0  0  0  0  0  0  0
    5.3782   14.7277   12.2863 O   0  0  0  0  0  0  0  0  0  0  0  0
    7.5860    6.2606   16.2917 C   0  0  0  0  0  0  0  0  0  0  0  0
    8.2039    5.9335   14.9894 N   0  0  0  0  0  0  0  0  0  0  0  0
    0.6693    5.4783   17.9794 C   0  0  0  0  0  0  0  0  0  0  0  0
    0.2235    6.7442   17.4247 O   0  0  0  0  0  0  0  0  0  0  0  0
  1  2  1  6  0  0  0
  1  8  1  0  0  0  0
  1 36  1  0  0  0  0
  3  4  1  1  0  0  0
  3 10  1  0  0  0  0
  3 47  1  0  0  0  0
  5 11  1  0  0  0  0
  5 30  1  0  0  0  0
  5 38  1  6  0  0  0
  6 21  1  1  0  0  0
  6 42  1  0  0  0  0
  7 15  1  0  0  0  0
  7 44  1  0  0  0  0
  7 32  1  6  0  0  0
  8  9  1  6  0  0  0
  8 17  1  0  0  0  0
 11 12  1  1  0  0  0
 11 20  1  0  0  0  0
 13  6  1  0  0  0  0
 13 14  1  1  0  0  0
 15 16  1  1  0  0  0
 15 24  1  0  0  0  0
 17 26  1  0  0  0  0
 18 10  1  0  0  0  0
 18 19  1  1  0  0  0
 20 21  1  6  0  0  0
 20 29  1  0  0  0  0
 22 13  1  0  0  0  0
 22 23  1  6  0  0  0
 24 25  1  1  0  0  0
 24 33  1  0  0  0  0
 26 27  1  6  0  0  0
 26 35  1  0  0  0  0
 28  2  1  6  0  0  0
 28 18  1  0  0  0  0
 29 30  1  0  0  0  0
 29 39  1  6  0  0  0
 31 22  1  0  0  0  0
 31 32  1  1  0  0  0
 31 41  1  0  0  0  0
 33 34  1  6  0  0  0
 33 43  1  0  0  0  0
 35 36  1  0  0  0  0
 35 45  1  1  0  0  0
 37 28  1  0  0  0  0
 37 38  1  1  0  0  0
 39 40  1  0  0  0  0
 41 42  1  0  0  0  0
 41 49  1  1  0  0  0
 43 44  1  0  0  0  0
 43 51  1  1  0  0  0
 45 46  1  0  0  0  0
 47 37  1  0  0  0  0
 47 48  1  6  0  0  0
 49 50  1  0  0  0  0
 51 52  1  0  0  0  0
M  END
>  <CHROM.1>
-153.29906150,-171.86405109,-98.43104476,162.08781682,-51.83818196,-105.73725273
-66.92056341,54.49768442,-164.53471930,-38.55917120,119.28830652,154.18911594
5.28174334,9.14027088,15.28946474,0.54118281,-1.24282821,-1.79658015

>  <Name>
2esj_lig

>  <RI>
0

>  <Rbt.Current_Directory>
/home/itssahil/PROJECTS/Mol_Feturizer/New_Systems/rnas/2esj

>  <Rbt.Executable>
rbdock ($Id: //depot/dev/client3/rdock/2013.1/src/exe/rbdock.cxx#4 $)

>  <Rbt.Library>
libRbt.so (2013.1, Build901 2013/11/27)

>  <Rbt.Parameter_File>
/export/apps/rDock/src/rDock_2013.1_src/data/scripts/dock_solv.prm

>  <Rbt.Receptor>
prm/blind_docking_80.prm

>  <SCORE>
1.41444

>  <SCORE.INTER>
-8.81933

>  <SCORE.INTER.CONST>
1

>  <SCORE.INTER.POLAR>
-0.567392

>  <SCORE.INTER.ROT>
12

>  <SCORE.INTER.SOLV>
22.0227

>  <SCORE.INTER.VDW>
-22.9291

>  <SCORE.INTER.norm>
-0.169603

>  <SCORE.INTRA>
6.66569

>  <SCORE.INTRA.DIHEDRAL>
-7.7466

>  <SCORE.INTRA.DIHEDRAL.0>
32.9766

>  <SCORE.INTRA.POLAR>
0

>  <SCORE.INTRA.POLAR.0>
0

>  <SCORE.INTRA.REPUL>
0.0901078

>  <SCORE.INTRA.REPUL.0>
0

>  <SCORE.INTRA.SOLV>
8.13224

>  <SCORE.INTRA.SOLV.lig_0>
-114.358

>  <SCORE.INTRA.VDW>
6.02233

>  <SCORE.INTRA.VDW.0>
-8.24257

>  <SCORE.INTRA.norm>
0.128186

>  <SCORE.RESTR>
3.56809

>  <SCORE.RESTR.CAVITY>
3.56809

>  <SCORE.RESTR.norm>
0.0686171

>  <SCORE.SYSTEM>
0

>  <SCORE.SYSTEM.CONST>
0

>  <SCORE.SYSTEM.DIHEDRAL>
0

>  <SCORE.SYSTEM.SOLV>
0

>  <SCORE.SYSTEM.norm>
0

>  <SCORE.heavy>
52

>  <SCORE.norm>
0.0272009

>  <RMSD>
23.589

$$$$
2esj_lig
 OpenBabel11021811423D
libRbt.so/2013.1/901 2013/11/27
 52 56  0  0  0  0  0  0  0  0999 V2000
    5.0928   11.3381   11.5277 C   0  0  2  0  0  0  0  0  0  0  0  0
    5.2600   11.6786   12.9173 O   0  0  0  0  0  0  0  0  0  0  0  0
    6.9080   15.6167   12.6661 C   0  0  2  0  0  0  0  0  0  0  0  0
    7.5627   16.9048   12.9485 N   0  0  0  0  0  0  0  0  0  0  0  0
    7.6612   10.6812   12.9367 C   0  0  1  0  0  0  0  0  0  0  0  0
    6.8555    6.7092   14.0644 C   0  0  1  0  0  0  0  0  0  0  0  0
    3.4896    6.8378   17.9182 C   0  0  1  0  0  0  0  0  0  0  0  0
    3.8202   12.0745   11.0147 C   0  0  2  0  0  0  0  0  0  0  0  0
    3.8986   13.5209   11.2167 N   0  0  0  0  0  0  0  0  0  0  0  0
    5.7254   15.3672   13.6842 C   0  0  0  0  0  0  0  0  0  0  0  0
    8.7325    9.6031   12.7676 C   0  0  2  0  0  0  0  0  0  0  0  0
    8.7594    9.0586   11.4304 O   0  0  0  0  0  0  0  0  0  0  0  0
    5.2934    6.8408   14.3538 C   0  0  2  0  0  0  0  0  0  0  0  0
    4.9710    8.1606   14.9581 N   0  0  0  0  0  0  0  0  0  0  0  0
    3.9022    7.7416   19.0742 C   0  0  1  0  0  0  0  0  0  0  0  0
    2.8003    8.6060   19.4162 O   0  0  0  0  0  0  0  0  0  0  0  0
    2.5356   11.5121   11.7023 C   0  0  0  0  0  0  0  0  0  0  0  0
    4.9973   14.0089   13.3286 C   0  0  2  0  0  0  0  0  0  0  0  0
    3.9024   13.7465   14.2683 N   0  0  0  0  0  0  0  0  0  0  0  0
    8.3055    8.6246   13.8232 C   0  0  2  0  0  0  0  0  0  0  0  0
    7.1946    7.8832   13.3866 O   0  0  0  0  0  0  0  0  0  0  0  0
    4.8162    5.5791   15.1995 C   0  0  1  0  0  0  0  0  0  0  0  0
    5.2475    4.3868   14.5353 O   0  0  0  0  0  0  0  0  0  0  0  0
    4.3434    7.0181   20.3408 C   0  0  1  0  0  0  0  0  0  0  0  0
    4.4600    8.0039   21.3727 O   0  0  0  0  0  0  0  0  0  0  0  0
    2.4874    9.9695   11.4931 C   0  0  2  0  0  0  0  0  0  0  0  0
    1.3044    9.4023   12.0270 O   0  0  0  0  0  0  0  0  0  0  0  0
    6.0096   12.8340   13.3371 C   0  0  2  0  0  0  0  0  0  0  0  0
    7.7539    9.4730   14.9876 C   0  0  2  0  0  0  0  0  0  0  0  0
    7.2493   10.6122   14.3089 O   0  0  0  0  0  0  0  0  0  0  0  0
    5.4995    5.5484   16.6283 C   0  0  2  0  0  0  0  0  0  0  0  0
    5.0215    6.7304   17.2724 O   0  0  0  0  0  0  0  0  0  0  0  0
    3.3766    5.9225   20.7935 C   0  0  2  0  0  0  0  0  0  0  0  0
    4.0654    5.1421   21.7841 O   0  0  0  0  0  0  0  0  0  0  0  0
    3.7554    9.3508   12.1323 C   0  0  2  0  0  0  0  0  0  0  0  0
    4.9067    9.9061   11.4344 O   0  0  0  0  0  0  0  0  0  0  0  0
    7.2677   13.0674   12.4406 C   0  0  2  0  0  0  0  0  0  0  0  0
    8.1806   11.9435   12.5818 O   0  0  0  0  0  0  0  0  0  0  0  0
    8.7647    9.9195   16.0433 C   0  0  0  0  0  0  0  0  0  0  0  0
    8.1819    9.6729   17.3314 O   0  0  0  0  0  0  0  0  0  0  0  0
    6.9767    5.7876   16.3815 C   0  0  1  0  0  0  0  0  0  0  0  0
    7.6315    6.5718   15.3613 O   0  0  0  0  0  0  0  0  0  0  0  0
    2.8536    5.1146   19.6110 C   0  0  2  0  0  0  0  0  0  0  0  0
    2.6670    5.7158   18.3204 O   0  0  0  0  0  0  0  0  0  0  0  0
    3.8403    7.8736   11.9502 C   0  0  0  0  0  0  0  0  0  0  0  0
    4.2839    7.6353   10.6362 O   0  0  0  0  0  0  0  0  0  0  0  0
    7.9431   14.4402   12.7745 C   0  0  1  0  0  0  0  0  0  0  0  0
    8.9739   14.6659   11.7766 O   0  0  0  0  0  0  0  0  0  0  0  0
    7.9107    5.7039   17.6279 C   0  0  0  0  0  0  0  0  0  0  0  0
    7.4757    4.6986   18.6203 N   0  0  0  0  0  0  0  0  0  0  0  0
    1.8637    3.9619   19.7623 C   0  0  0  0  0  0  0  0  0  0  0  0
    1.5109    3.4365   18.4553 O   0  0  0  0  0  0  0  0  0  0  0  0
  1  2  1  1  0  0  0
  1  8  1  0  0  0  0
  1 36  1  0  0  0  0
  3  4  1  1  0  0  0
  3 10  1  0  0  0  0
  3 47  1  0  0  0  0
  5 11  1  0  0  0  0
  5 30  1  0  0  0  0
  5 38  1  1  0  0  0
  6 21  1  1  0  0  0
  6 42  1  0  0  0  0
  7 15  1  0  0  0  0
  7 44  1  0  0  0  0
  7 32  1  1  0  0  0
  8  9  1  1  0  0  0
  8 17  1  0  0  0  0
 11 12  1  6  0  0  0
 11 20  1  0  0  0  0
 13  6  1  0  0  0  0
 13 14  1  1  0  0  0
 15 16  1  1  0  0  0
 15 24  1  0  0  0  0
 17 26  1  0  0  0  0
 18 10  1  0  0  0  0
 18 19  1  1  0  0  0
 20 21  1  6  0  0  0
 20 29  1  0  0  0  0
 22 13  1  0  0  0  0
 22 23  1  6  0  0  0
 24 25  1  1  0  0  0
 24 33  1  0  0  0  0
 26 27  1  1  0  0  0
 26 35  1  0  0  0  0
 28  2  1  6  0  0  0
 28 18  1  0  0  0  0
 29 30  1  0  0  0  0
 29 39  1  1  0  0  0
 31 22  1  0  0  0  0
 31 32  1  1  0  0  0
 31 41  1  0  0  0  0
 33 34  1  1  0  0  0
 33 43  1  0  0  0  0
 35 36  1  0  0  0  0
 35 45  1  6  0  0  0
 37 28  1  0  0  0  0
 37 38  1  1  0  0  0
 39 40  1  0  0  0  0
 41 42  1  0  0  0  0
 41 49  1  1  0  0  0
 43 44  1  0  0  0  0
 43 51  1  1  0  0  0
 45 46  1  0  0  0  0
 47 37  1  0  0  0  0
 47 48  1  6  0  0  0
 49 50  1  0  0  0  0
 51 52  1  0  0  0  0
M  END
>  <CHROM.1>
-88.73116184,169.13526893,130.61632412,145.98373988,164.07002885,86.93451077
-134.08940781,77.26850544,78.35211870,26.66981836,34.24780696,177.31797701
5.46197467,9.12350709,14.95706520,1.29261454,-0.66492150,-0.90404579

>  <Name>
2esj_lig

>  <RI>
224

>  <Rbt.Current_Directory>
/home/itssahil/PROJECTS/Mol_Feturizer/New_Systems/rnas/2esj

>  <Rbt.Executable>
rbdock ($Id: //depot/dev/client3/rdock/2013.1/src/exe/rbdock.cxx#4 $)

>  <Rbt.Library>
libRbt.so (2013.1, Build901 2013/11/27)

>  <Rbt.Parameter_File>
/export/apps/rDock/src/rDock_2013.1_src/data/scripts/dock_solv.prm

>  <Rbt.Receptor>
prm/blind_docking_100.prm

>  <SCORE>
19.8181

>  <SCORE.INTER>
-5.68995

>  <SCORE.INTER.CONST>
1

>  <SCORE.INTER.POLAR>
-0.942587

>  <SCORE.INTER.ROT>
12

>  <SCORE.INTER.SOLV>
20.15

>  <SCORE.INTER.VDW>
-18.968

>  <SCORE.INTER.norm>
-0.109422

>  <SCORE.INTRA>
12.865

>  <SCORE.INTRA.DIHEDRAL>
2.28987

>  <SCORE.INTRA.DIHEDRAL.0>
32.9766

>  <SCORE.INTRA.POLAR>
0

>  <SCORE.INTRA.POLAR.0>
0

>  <SCORE.INTRA.REPUL>
0.0462585

>  <SCORE.INTRA.REPUL.0>
0

>  <SCORE.INTRA.SOLV>
6.54127

>  <SCORE.INTRA.SOLV.lig_0>
-114.358

>  <SCORE.INTRA.VDW>
8.21813

>  <SCORE.INTRA.VDW.0>
-8.24257

>  <SCORE.INTRA.norm>
0.247404

>  <SCORE.RESTR>
12.643

>  <SCORE.RESTR.CAVITY>
12.643

>  <SCORE.RESTR.norm>
0.243135

>  <SCORE.SYSTEM>
0

>  <SCORE.SYSTEM.CONST>
0

>  <SCORE.SYSTEM.DIHEDRAL>
0

>  <SCORE.SYSTEM.SOLV>
0

>  <SCORE.SYSTEM.norm>
0

>  <SCORE.heavy>
52

>  <SCORE.norm>
0.381117

>  <RMSD>
23.603

$$$$
2esj_lig
 OpenBabel11021811423D
libRbt.so/2013.1/901 2013/11/27
 52 56  0  0  0  0  0  0  0  0999 V2000
    7.0654    9.8231   13.4540 C   0  0  2  0  0  0  0  0  0  0  0  0
    6.0812   10.1091   12.4419 O   0  0  0  0  0  0  0  0  0  0  0  0
    3.3676   13.1715   11.1984 C   0  0  2  0  0  0  0  0  0  0  0  0
    2.3365   14.2208   11.1429 N   0  0  0  0  0  0  0  0  0  0  0  0
    6.7234   12.6849   14.3634 C   0  0  1  0  0  0  0  0  0  0  0  0
    6.7137   11.1748   16.5179 C   0  0  1  0  0  0  0  0  0  0  0  0
    4.5171    7.1947   19.1585 C   0  0  1  0  0  0  0  0  0  0  0  0
    8.4695    9.9689   12.7967 C   0  0  2  0  0  0  0  0  0  0  0  0
    8.6671   11.2899   12.2008 N   0  0  0  0  0  0  0  0  0  0  0  0
    2.7644   11.8402   11.7995 C   0  0  0  0  0  0  0  0  0  0  0  0
    8.0561   13.0030   15.0426 C   0  0  2  0  0  0  0  0  0  0  0  0
    8.9513   11.8700   15.0563 O   0  0  0  0  0  0  0  0  0  0  0  0
    5.3292   10.8668   17.2456 C   0  0  2  0  0  0  0  0  0  0  0  0
    5.4928   10.8565   18.7234 N   0  0  0  0  0  0  0  0  0  0  0  0
    5.1739    5.8859   18.7353 C   0  0  1  0  0  0  0  0  0  0  0  0
    4.9794    4.9019   19.7709 O   0  0  0  0  0  0  0  0  0  0  0  0
    8.6981    8.8617   11.7192 C   0  0  0  0  0  0  0  0  0  0  0  0
    3.8694   10.7086   11.7961 C   0  0  2  0  0  0  0  0  0  0  0  0
    3.3384    9.4644   12.3625 N   0  0  0  0  0  0  0  0  0  0  0  0
    7.5770   13.4266   16.4010 C   0  0  2  0  0  0  0  0  0  0  0  0
    7.2162   12.3055   17.1674 O   0  0  0  0  0  0  0  0  0  0  0  0
    4.7052    9.5383   16.6285 C   0  0  1  0  0  0  0  0  0  0  0  0
    4.6670    9.6637   15.2032 O   0  0  0  0  0  0  0  0  0  0  0  0
    4.6662    5.2965   17.4249 C   0  0  1  0  0  0  0  0  0  0  0  0
    5.2126    3.9777   17.3140 O   0  0  0  0  0  0  0  0  0  0  0  0
    8.4593    7.4678   12.3717 C   0  0  2  0  0  0  0  0  0  0  0  0
    8.7255    6.4105   11.4676 O   0  0  0  0  0  0  0  0  0  0  0  0
    5.1203   11.1715   12.5873 C   0  0  2  0  0  0  0  0  0  0  0  0
    6.2426   14.1644   16.1674 C   0  0  2  0  0  0  0  0  0  0  0  0
    5.7481   13.5182   15.0051 O   0  0  0  0  0  0  0  0  0  0  0  0
    5.6176    8.2781   16.9267 C   0  0  2  0  0  0  0  0  0  0  0  0
    5.6051    8.1635   18.3504 O   0  0  0  0  0  0  0  0  0  0  0  0
    3.1411    5.2228   17.3320 C   0  0  2  0  0  0  0  0  0  0  0  0
    2.8198    4.9527   15.9577 O   0  0  0  0  0  0  0  0  0  0  0  0
    7.0025    7.4175   12.8952 C   0  0  2  0  0  0  0  0  0  0  0  0
    6.8681    8.4613   13.9018 O   0  0  0  0  0  0  0  0  0  0  0  0
    5.6992   12.5459   12.1215 C   0  0  2  0  0  0  0  0  0  0  0  0
    6.8168   12.9174   12.9755 O   0  0  0  0  0  0  0  0  0  0  0  0
    6.3317   15.6683   15.9109 C   0  0  0  0  0  0  0  0  0  0  0  0
    7.1505   16.2354   16.9442 O   0  0  0  0  0  0  0  0  0  0  0  0
    7.0289    8.6986   16.5638 C   0  0  1  0  0  0  0  0  0  0  0  0
    7.6598    9.9948   16.6433 O   0  0  0  0  0  0  0  0  0  0  0  0
    2.4851    6.4790   17.8942 C   0  0  2  0  0  0  0  0  0  0  0  0
    3.0805    7.2116   18.9762 O   0  0  0  0  0  0  0  0  0  0  0  0
    6.6736    6.1382   13.5864 C   0  0  0  0  0  0  0  0  0  0  0  0
    7.6902    5.8942   14.5284 O   0  0  0  0  0  0  0  0  0  0  0  0
    4.5782   13.6387   12.0836 C   0  0  1  0  0  0  0  0  0  0  0  0
    5.1503   14.8196   11.4611 O   0  0  0  0  0  0  0  0  0  0  0  0
    8.1287    7.5973   16.6657 C   0  0  0  0  0  0  0  0  0  0  0  0
    9.0715    7.6029   15.5274 N   0  0  0  0  0  0  0  0  0  0  0  0
    0.9720    6.6790   17.9410 C   0  0  0  0  0  0  0  0  0  0  0  0
    0.5837    7.7398   17.0285 O   0  0  0  0  0  0  0  0  0  0  0  0
  1  2  1  6  0  0  0
  1  8  1  0  0  0  0
  1 36  1  0  0  0  0
  3  4  1  1  0  0  0
  3 10  1  0  0  0  0
  3 47  1  0  0  0  0
  5 11  1  0  0  0  0
  5 30  1  0  0  0  0
  5 38  1  6  0  0  0
  6 21  1  1  0  0  0
  6 42  1  0  0  0  0
  7 15  1  0  0  0  0
  7 44  1  0  0  0  0
  7 32  1  6  0  0  0
  8  9  1  6  0  0  0
  8 17  1  0  0  0  0
 11 12  1  1  0  0  0
 11 20  1  0  0  0  0
 13  6  1  0  0  0  0
 13 14  1  1  0  0  0
 15 16  1  1  0  0  0
 15 24  1  0  0  0  0
 17 26  1  0  0  0  0
 18 10  1  0  0  0  0
 18 19  1  1  0  0  0
 20 21  1  1  0  0  0
 20 29  1  0  0  0  0
 22 13  1  0  0  0  0
 22 23  1  6  0  0  0
 24 25  1  1  0  0  0
 24 33  1  0  0  0  0
 26 27  1  6  0  0  0
 26 35  1  0  0  0  0
 28  2  1  6  0  0  0
 28 18  1  0  0  0  0
 29 30  1  0  0  0  0
 29 39  1  6  0  0  0
 31 22  1  0  0  0  0
 31 32  1  1  0  0  0
 31 41  1  0  0  0  0
 33 34  1  6  0  0  0
 33 43  1  0  0  0  0
 35 36  1  0  0  0  0
 35 45  1  1  0  0  0
 37 28  1  0  0  0  0
 37 38  1  1  0  0  0
 39 40  1  0  0  0  0
 41 42  1  0  0  0  0
 41 49  1  1  0  0  0
 43 44  1  0  0  0  0
 43 51  1  1  0  0  0
 45 46  1  0  0  0  0
 47 37  1  0  0  0  0
 47 48  1  6  0  0  0
 49 50  1  0  0  0  0
 51 52  1  0  0  0  0
M  END
>  <CHROM.1>
-120.94128024,173.75884826,-126.40894669,72.27279664,-30.81592530,-150.23554850
-50.08019749,93.20465952,49.91188526,-40.70176457,137.11228694,-112.30535244
5.75656378,9.73177699,15.12721656,-1.19310318,-1.02327290,2.94659976

>  <Name>
2esj_lig

>  <RI>
0

>  <Rbt.Current_Directory>
/home/itssahil/PROJECTS/Mol_Feturizer/New_Systems/rnas/2esj

>  <Rbt.Executable>
rbdock ($Id: //depot/dev/client3/rdock/2013.1/src/exe/rbdock.cxx#4 $)

>  <Rbt.Library>
libRbt.so (2013.1, Build901 2013/11/27)

>  <Rbt.Parameter_File>
/export/apps/rDock/src/rDock_2013.1_src/data/scripts/dock_solv.prm

>  <Rbt.Receptor>
prm/blind_docking_80.prm

>  <SCORE>
15.2188

>  <SCORE.INTER>
0.0573086

>  <SCORE.INTER.CONST>
1

>  <SCORE.INTER.POLAR>
-0.748842

>  <SCORE.INTER.ROT>
12

>  <SCORE.INTER.SOLV>
23.1794

>  <SCORE.INTER.VDW>
-16.7921

>  <SCORE.INTER.norm>
0.00110209

>  <SCORE.INTRA>
11.2578

>  <SCORE.INTRA.DIHEDRAL>
1.89129

>  <SCORE.INTRA.DIHEDRAL.0>
32.9766

>  <SCORE.INTRA.POLAR>
0

>  <SCORE.INTRA.POLAR.0>
0

>  <SCORE.INTRA.REPUL>
0

>  <SCORE.INTRA.REPUL.0>
0

>  <SCORE.INTRA.SOLV>
10.7713

>  <SCORE.INTRA.SOLV.lig_0>
-114.358

>  <SCORE.INTRA.VDW>
4.92652

>  <SCORE.INTRA.VDW.0>
-8.24257

>  <SCORE.INTRA.norm>
0.216497

>  <SCORE.RESTR>
3.90364

>  <SCORE.RESTR.CAVITY>
3.90364

>  <SCORE.RESTR.norm>
0.07507

>  <SCORE.SYSTEM>
0

>  <SCORE.SYSTEM.CONST>
0

>  <SCORE.SYSTEM.DIHEDRAL>
0

>  <SCORE.SYSTEM.SOLV>
0

>  <SCORE.SYSTEM.norm>
0

>  <SCORE.heavy>
52

>  <SCORE.norm>
0.292669

>  <RMSD>
23.604

$$$$
2esj_lig
 OpenBabel11021811423D
libRbt.so/2013.1/901 2013/11/27
 52 56  0  0  0  0  0  0  0  0999 V2000
    6.3566    8.8098   13.1161 C   0  0  2  0  0  0  0  0  0  0  0  0
    6.0319    9.9288   12.2692 O   0  0  0  0  0  0  0  0  0  0  0  0
    3.4255   13.2953   11.8682 C   0  0  2  0  0  0  0  0  0  0  0  0
    2.4528   14.3760   12.0995 N   0  0  0  0  0  0  0  0  0  0  0  0
    6.9430   11.9772   14.6133 C   0  0  1  0  0  0  0  0  0  0  0  0
    6.8920   10.1325   16.5041 C   0  0  1  0  0  0  0  0  0  0  0  0
    3.6980    7.3197   18.8377 C   0  0  1  0  0  0  0  0  0  0  0  0
    7.7364    8.2562   12.6527 C   0  0  2  0  0  0  0  0  0  0  0  0
    8.7802    9.2805   12.6772 N   0  0  0  0  0  0  0  0  0  0  0  0
    2.7849   11.8949   12.2231 C   0  0  0  0  0  0  0  0  0  0  0  0
    8.2009   12.3968   15.3750 C   0  0  2  0  0  0  0  0  0  0  0  0
    9.3064   11.4949   15.1515 O   0  0  0  0  0  0  0  0  0  0  0  0
    5.4437   10.0390   17.1634 C   0  0  2  0  0  0  0  0  0  0  0  0
    5.5375    9.8696   18.6377 N   0  0  0  0  0  0  0  0  0  0  0  0
    4.2185    6.6035   20.0785 C   0  0  1  0  0  0  0  0  0  0  0  0
    3.5166    7.0943   21.2382 O   0  0  0  0  0  0  0  0  0  0  0  0
    7.6361    7.6357   11.2230 C   0  0  0  0  0  0  0  0  0  0  0  0
    3.8232   10.7429   11.9124 C   0  0  2  0  0  0  0  0  0  0  0  0
    3.2575    9.4318   12.2463 N   0  0  0  0  0  0  0  0  0  0  0  0
    7.6809   12.3973   16.7835 C   0  0  2  0  0  0  0  0  0  0  0  0
    7.5734   11.0831   17.2689 O   0  0  0  0  0  0  0  0  0  0  0  0
    4.6039    8.9161   16.4093 C   0  0  1  0  0  0  0  0  0  0  0  0
    4.6528    9.1691   15.0013 O   0  0  0  0  0  0  0  0  0  0  0  0
    4.0875    5.0853   20.0569 C   0  0  1  0  0  0  0  0  0  0  0  0
    4.3988    4.6147   21.3729 O   0  0  0  0  0  0  0  0  0  0  0  0
    6.5039    6.5662   11.2170 C   0  0  2  0  0  0  0  0  0  0  0  0
    6.4093    5.9064    9.9673 O   0  0  0  0  0  0  0  0  0  0  0  0
    5.1416   10.9774   12.6946 C   0  0  2  0  0  0  0  0  0  0  0  0
    6.2195   12.8832   16.6943 C   0  0  2  0  0  0  0  0  0  0  0  0
    5.8363   12.4294   15.4058 O   0  0  0  0  0  0  0  0  0  0  0  0
    5.2434    7.4812   16.6125 C   0  0  2  0  0  0  0  0  0  0  0  0
    5.1469    7.2488   18.0186 O   0  0  0  0  0  0  0  0  0  0  0  0
    2.6953    4.5923   19.6584 C   0  0  2  0  0  0  0  0  0  0  0  0
    2.8144    3.1874   19.3810 O   0  0  0  0  0  0  0  0  0  0  0  0
    5.1734    7.2623   11.5967 C   0  0  2  0  0  0  0  0  0  0  0  0
    5.3347    7.8005   12.9403 O   0  0  0  0  0  0  0  0  0  0  0  0
    5.7681   12.3929   12.4823 C   0  0  2  0  0  0  0  0  0  0  0  0
    6.9522   12.5306   13.3161 O   0  0  0  0  0  0  0  0  0  0  0  0
    5.9968   14.3923   16.7860 C   0  0  0  0  0  0  0  0  0  0  0  0
    6.6470   14.9947   15.6573 O   0  0  0  0  0  0  0  0  0  0  0  0
    6.7236    7.6479   16.3274 C   0  0  1  0  0  0  0  0  0  0  0  0
    7.5876    8.7843   16.5437 O   0  0  0  0  0  0  0  0  0  0  0  0
    2.1195    5.4119   18.5090 C   0  0  2  0  0  0  0  0  0  0  0  0
    2.4338    6.8045   18.3545 O   0  0  0  0  0  0  0  0  0  0  0  0
    4.0206    6.3199   11.6694 C   0  0  0  0  0  0  0  0  0  0  0  0
    2.8612    7.0451   11.3377 O   0  0  0  0  0  0  0  0  0  0  0  0
    4.7094   13.5162   12.7458 C   0  0  1  0  0  0  0  0  0  0  0  0
    5.3092   14.7754   12.3413 O   0  0  0  0  0  0  0  0  0  0  0  0
    7.5860    6.3485   16.3550 C   0  0  0  0  0  0  0  0  0  0  0  0
    7.3298    5.4995   17.5375 N   0  0  0  0  0  0  0  0  0  0  0  0
    0.7394    5.1516   17.9098 C   0  0  0  0  0  0  0  0  0  0  0  0
   -0.2665    5.1660   18.9571 O   0  0  0  0  0  0  0  0  0  0  0  0
  1  2  1  6  0  0  0
  1  8  1  0  0  0  0
  1 36  1  0  0  0  0
  3  4  1  1  0  0  0
  3 10  1  0  0  0  0
  3 47  1  0  0  0  0
  5 11  1  0  0  0  0
  5 30  1  0  0  0  0
  5 38  1  6  0  0  0
  6 21  1  1  0  0  0
  6 42  1  0  0  0  0
  7 15  1  0  0  0  0
  7 44  1  0  0  0  0
  7 32  1  6  0  0  0
  8  9  1  6  0  0  0
  8 17  1  0  0  0  0
 11 12  1  1  0  0  0
 11 20  1  0  0  0  0
 13  6  1  0  0  0  0
 13 14  1  1  0  0  0
 15 16  1  1  0  0  0
 15 24  1  0  0  0  0
 17 26  1  0  0  0  0
 18 10  1  0  0  0  0
 18 19  1  1  0  0  0
 20 21  1  6  0  0  0
 20 29  1  0  0  0  0
 22 13  1  0  0  0  0
 22 23  1  6  0  0  0
 24 25  1  1  0  0  0
 24 33  1  0  0  0  0
 26 27  1  6  0  0  0
 26 35  1  0  0  0  0
 28  2  1  6  0  0  0
 28 18  1  0  0  0  0
 29 30  1  0  0  0  0
 29 39  1  6  0  0  0
 31 22  1  0  0  0  0
 31 32  1  1  0  0  0
 31 41  1  0  0  0  0
 33 34  1  6  0  0  0
 33 43  1  0  0  0  0
 35 36  1  0  0  0  0
 35 45  1  1  0  0  0
 37 28  1  0  0  0  0
 37 38  1  1  0  0  0
 39 40  1  0  0  0  0
 41 42  1  0  0  0  0
 41 49  1  1  0  0  0
 43 44  1  0  0  0  0
 43 51  1  1  0  0  0
 45 46  1  0  0  0  0
 47 37  1  0  0  0  0
 47 48  1  6  0  0  0
 49 50  1  0  0  0  0
 51 52  1  0  0  0  0
M  END
>  <CHROM.1>
-155.43799744,-172.39982015,-99.74077083,164.31002935,-51.10326707,-106.30148791
63.13783260,55.90928237,-150.53330311,-38.50529288,-47.14167522,54.00496197
5.22366821,9.11593090,15.36316365,0.59977440,-1.23599282,-1.69893117

>  <Name>
2esj_lig

>  <RI>
0

>  <Rbt.Current_Directory>
/home/itssahil/PROJECTS/Mol_Feturizer/New_Systems/rnas/2esj

>  <Rbt.Executable>
rbdock ($Id: //depot/dev/client3/rdock/2013.1/src/exe/rbdock.cxx#4 $)

>  <Rbt.Library>
libRbt.so (2013.1, Build901 2013/11/27)

>  <Rbt.Parameter_File>
/export/apps/rDock/src/rDock_2013.1_src/data/scripts/dock_solv.prm

>  <Rbt.Receptor>
prm/blind_docking_80.prm

>  <SCORE>
3.1263

>  <SCORE.INTER>
-6.82476

>  <SCORE.INTER.CONST>
1

>  <SCORE.INTER.POLAR>
-0.248451

>  <SCORE.INTER.ROT>
12

>  <SCORE.INTER.SOLV>
21.102

>  <SCORE.INTER.VDW>
-22.3557

>  <SCORE.INTER.norm>
-0.131245

>  <SCORE.INTRA>
6.41878

>  <SCORE.INTRA.DIHEDRAL>
-7.35251

>  <SCORE.INTRA.DIHEDRAL.0>
32.9766

>  <SCORE.INTRA.POLAR>
0

>  <SCORE.INTRA.POLAR.0>
0

>  <SCORE.INTRA.REPUL>
0.113228

>  <SCORE.INTRA.REPUL.0>
0

>  <SCORE.INTRA.SOLV>
8.60371

>  <SCORE.INTRA.SOLV.lig_0>
-114.358

>  <SCORE.INTRA.VDW>
5.22704

>  <SCORE.INTRA.VDW.0>
-8.24257

>  <SCORE.INTRA.norm>
0.123438

>  <SCORE.RESTR>
3.53228

>  <SCORE.RESTR.CAVITY>
3.53228

>  <SCORE.RESTR.norm>
0.0679285

>  <SCORE.SYSTEM>
0

>  <SCORE.SYSTEM.CONST>
0

>  <SCORE.SYSTEM.DIHEDRAL>
0

>  <SCORE.SYSTEM.SOLV>
0

>  <SCORE.SYSTEM.norm>
0

>  <SCORE.heavy>
52

>  <SCORE.norm>
0.0601212

>  <RMSD>
23.642

$$$$
2esj_lig
 OpenBabel11021811423D
libRbt.so/2013.1/901 2013/11/27
 52 56  0  0  0  0  0  0  0  0999 V2000
    5.6609    8.4168   11.4689 C   0  0  2  0  0  0  0  0  0  0  0  0
    4.8358    9.0971   12.4340 O   0  0  0  0  0  0  0  0  0  0  0  0
    3.4765   12.4252   10.1179 C   0  0  2  0  0  0  0  0  0  0  0  0
    2.8733   13.6882    9.6615 N   0  0  0  0  0  0  0  0  0  0  0  0
    6.0857   12.0575   13.8234 C   0  0  1  0  0  0  0  0  0  0  0  0
    6.8451   12.1251   17.2675 C   0  0  1  0  0  0  0  0  0  0  0  0
    4.6729    8.0298   18.0064 C   0  0  1  0  0  0  0  0  0  0  0  0
    5.8466    6.9512   11.9613 C   0  0  2  0  0  0  0  0  0  0  0  0
    4.5686    6.2694   12.1641 N   0  0  0  0  0  0  0  0  0  0  0  0
    2.3947   11.5313   10.8447 C   0  0  0  0  0  0  0  0  0  0  0  0
    7.3334   12.6114   14.5126 C   0  0  2  0  0  0  0  0  0  0  0  0
    8.0714   11.5905   15.2186 O   0  0  0  0  0  0  0  0  0  0  0  0
    6.4133   10.7014   16.6948 C   0  0  2  0  0  0  0  0  0  0  0  0
    4.9331   10.5821   16.6194 N   0  0  0  0  0  0  0  0  0  0  0  0
    3.5222    7.6742   18.9407 C   0  0  1  0  0  0  0  0  0  0  0  0
    2.4116    7.1881   18.1605 O   0  0  0  0  0  0  0  0  0  0  0  0
    6.6854    6.9078   13.2780 C   0  0  0  0  0  0  0  0  0  0  0  0
    3.0458   10.1555   11.2748 C   0  0  2  0  0  0  0  0  0  0  0  0
    2.0648    9.3114   11.9646 N   0  0  0  0  0  0  0  0  0  0  0  0
    6.7161   13.6520   15.4016 C   0  0  2  0  0  0  0  0  0  0  0  0
    6.1125   13.0498   16.5185 O   0  0  0  0  0  0  0  0  0  0  0  0
    7.1379    9.5629   17.5397 C   0  0  1  0  0  0  0  0  0  0  0  0
    8.5417    9.8394   17.5803 O   0  0  0  0  0  0  0  0  0  0  0  0
    3.8445    6.6294   20.0023 C   0  0  1  0  0  0  0  0  0  0  0  0
    2.6069    6.2550   20.6174 O   0  0  0  0  0  0  0  0  0  0  0  0
    8.0292    7.6593   13.0434 C   0  0  2  0  0  0  0  0  0  0  0  0
    8.8751    7.5922   14.1775 O   0  0  0  0  0  0  0  0  0  0  0  0
    4.2797   10.4010   12.1815 C   0  0  2  0  0  0  0  0  0  0  0  0
    5.5307   14.2375   14.6069 C   0  0  2  0  0  0  0  0  0  0  0  0
    5.1364   13.1327   13.8090 O   0  0  0  0  0  0  0  0  0  0  0  0
    6.6537    9.5652   19.0480 C   0  0  2  0  0  0  0  0  0  0  0  0
    5.2618    9.2535   18.9713 O   0  0  0  0  0  0  0  0  0  0  0  0
    4.5338    5.3808   19.4492 C   0  0  2  0  0  0  0  0  0  0  0  0
    5.0456    4.6530   20.5774 O   0  0  0  0  0  0  0  0  0  0  0  0
    7.7078    9.1245   12.6575 C   0  0  2  0  0  0  0  0  0  0  0  0
    6.9420    9.0878   11.4193 O   0  0  0  0  0  0  0  0  0  0  0  0
    5.3377   11.3756   11.5717 C   0  0  2  0  0  0  0  0  0  0  0  0
    6.4090   11.5927   12.5317 O   0  0  0  0  0  0  0  0  0  0  0  0
    5.8399   15.4300   13.7024 C   0  0  0  0  0  0  0  0  0  0  0  0
    6.8115   16.2433   14.3763 O   0  0  0  0  0  0  0  0  0  0  0  0
    6.7234   11.0117   19.4987 C   0  0  1  0  0  0  0  0  0  0  0  0
    6.5235   12.2280   18.7470 O   0  0  0  0  0  0  0  0  0  0  0  0
    5.5850    5.7388   18.4045 C   0  0  2  0  0  0  0  0  0  0  0  0
    5.4292    6.8822   17.5501 O   0  0  0  0  0  0  0  0  0  0  0  0
    8.9257    9.9316   12.3613 C   0  0  0  0  0  0  0  0  0  0  0  0
    9.4133   10.4245   13.5858 O   0  0  0  0  0  0  0  0  0  0  0  0
    4.6633   12.7101   11.1066 C   0  0  1  0  0  0  0  0  0  0  0  0
    5.6677   13.4697   10.3831 O   0  0  0  0  0  0  0  0  0  0  0  0
    6.3940   11.2876   20.9981 C   0  0  0  0  0  0  0  0  0  0  0  0
    5.1472   10.6376   21.4539 N   0  0  0  0  0  0  0  0  0  0  0  0
    6.4242    4.6924   17.6747 C   0  0  0  0  0  0  0  0  0  0  0  0
    5.6108    4.0053   16.6873 O   0  0  0  0  0  0  0  0  0  0  0  0
  1  2  1  1  0  0  0
  1  8  1  0  0  0  0
  1 36  1  0  0  0  0
  3  4  1  1  0  0  0
  3 10  1  0  0  0  0
  3 47  1  0  0  0  0
  5 11  1  0  0  0  0
  5 30  1  0  0  0  0
  5 38  1  6  0  0  0
  6 21  1  6  0  0  0
  6 42  1  0  0  0  0
  7 15  1  0  0  0  0
  7 44  1  0  0  0  0
  7 32  1  1  0  0  0
  8  9  1  1  0  0  0
  8 17  1  0  0  0  0
 11 12  1  1  0  0  0
 11 20  1  0  0  0  0
 13  6  1  0  0  0  0
 13 14  1  1  0  0  0
 15 16  1  6  0  0  0
 15 24  1  0  0  0  0
 17 26  1  0  0  0  0
 18 10  1  0  0  0  0
 18 19  1  1  0  0  0
 20 21  1  1  0  0  0
 20 29  1  0  0  0  0
 22 13  1  0  0  0  0
 22 23  1  1  0  0  0
 24 25  1  6  0  0  0
 24 33  1  0  0  0  0
 26 27  1  1  0  0  0
 26 35  1  0  0  0  0
 28  2  1  6  0  0  0
 28 18  1  0  0  0  0
 29 30  1  0  0  0  0
 29 39  1  6  0  0  0
 31 22  1  0  0  0  0
 31 32  1  6  0  0  0
 31 41  1  0  0  0  0
 33 34  1  1  0  0  0
 33 43  1  0  0  0  0
 35 36  1  0  0  0  0
 35 45  1  6  0  0  0
 37 28  1  0  0  0  0
 37 38  1  1  0  0  0
 39 40  1  0  0  0  0
 41 42  1  0  0  0  0
 41 49  1  1  0  0  0
 43 44  1  0  0  0  0
 43 51  1  6  0  0  0
 45 46  1  0  0  0  0
 47 37  1  0  0  0  0
 47 48  1  6  0  0  0
 49 50  1  0  0  0  0
 51 52  1  0  0  0  0
M  END
>  <CHROM.1>
-169.33796773,-162.98686997,-96.06019557,147.42225499,50.01851290,79.24468663
-37.05685731,45.20589853,-85.10474673,-55.31216970,-48.66521467,73.96267198
5.70603480,9.87817188,15.26993987,1.40247936,-1.38568389,-1.12485697

>  <Name>
2esj_lig

>  <RI>
224

>  <Rbt.Current_Directory>
/home/itssahil/PROJECTS/Mol_Feturizer/New_Systems/rnas/2esj

>  <Rbt.Executable>
rbdock ($Id: //depot/dev/client3/rdock/2013.1/src/exe/rbdock.cxx#4 $)

>  <Rbt.Library>
libRbt.so (2013.1, Build901 2013/11/27)

>  <Rbt.Parameter_File>
/export/apps/rDock/src/rDock_2013.1_src/data/scripts/dock_solv.prm

>  <Rbt.Receptor>
prm/blind_docking_100.prm

>  <SCORE>
6.67725

>  <SCORE.INTER>
-8.14597

>  <SCORE.INTER.CONST>
1

>  <SCORE.INTER.POLAR>
-0.662096

>  <SCORE.INTER.ROT>
12

>  <SCORE.INTER.SOLV>
20.8031

>  <SCORE.INTER.VDW>
-21.758

>  <SCORE.INTER.norm>
-0.156653

>  <SCORE.INTRA>
6.87649

>  <SCORE.INTRA.DIHEDRAL>
-10.2634

>  <SCORE.INTRA.DIHEDRAL.0>
32.9766

>  <SCORE.INTRA.POLAR>
0

>  <SCORE.INTRA.POLAR.0>
0

>  <SCORE.INTRA.REPUL>
0

>  <SCORE.INTRA.REPUL.0>
0

>  <SCORE.INTRA.SOLV>
3.42889

>  <SCORE.INTRA.SOLV.lig_0>
-114.358

>  <SCORE.INTRA.VDW>
10.2937

>  <SCORE.INTRA.VDW.0>
-8.24257

>  <SCORE.INTRA.norm>
0.13224

>  <SCORE.RESTR>
7.94672

>  <SCORE.RESTR.CAVITY>
7.94672

>  <SCORE.RESTR.norm>
0.152822

>  <SCORE.SYSTEM>
0

>  <SCORE.SYSTEM.CONST>
0

>  <SCORE.SYSTEM.DIHEDRAL>
0

>  <SCORE.SYSTEM.SOLV>
0

>  <SCORE.SYSTEM.norm>
0

>  <SCORE.heavy>
52

>  <SCORE.norm>
0.128409

>  <RMSD>
23.647

$$$$
2esj_lig
 OpenBabel11021811423D
libRbt.so/2013.1/901 2013/11/27
 52 56  0  0  0  0  0  0  0  0999 V2000
    5.2009    8.1683   17.4391 C   0  0  2  0  0  0  0  0  0  0  0  0
    5.9139    8.5316   18.6368 O   0  0  0  0  0  0  0  0  0  0  0  0
    3.2915   11.5240   20.2041 C   0  0  2  0  0  0  0  0  0  0  0  0
    2.6686   12.5902   21.0056 N   0  0  0  0  0  0  0  0  0  0  0  0
    6.4808   12.2555   16.9500 C   0  0  1  0  0  0  0  0  0  0  0  0
    6.7802   14.5886   13.7234 C   0  0  1  0  0  0  0  0  0  0  0  0
    4.7226   10.9003   10.7822 C   0  0  1  0  0  0  0  0  0  0  0  0
    4.4239    6.8522   17.7372 C   0  0  2  0  0  0  0  0  0  0  0  0
    3.5286    6.9862   18.8860 N   0  0  0  0  0  0  0  0  0  0  0  0
    3.6312   10.2788   21.1160 C   0  0  0  0  0  0  0  0  0  0  0  0
    7.6139   13.2754   17.0700 C   0  0  2  0  0  0  0  0  0  0  0  0
    7.2355   14.4294   17.8514 O   0  0  0  0  0  0  0  0  0  0  0  0
    5.3675   13.9596   13.3366 C   0  0  2  0  0  0  0  0  0  0  0  0
    5.2045   12.6060   13.9301 N   0  0  0  0  0  0  0  0  0  0  0  0
    3.6238   11.5879   11.5842 C   0  0  1  0  0  0  0  0  0  0  0  0
    2.4098   11.6045   10.8068 O   0  0  0  0  0  0  0  0  0  0  0  0
    5.4097    5.6633   17.9693 C   0  0  0  0  0  0  0  0  0  0  0  0
    4.2444    9.1226   20.2278 C   0  0  2  0  0  0  0  0  0  0  0  0
    4.5815    7.9585   21.0536 N   0  0  0  0  0  0  0  0  0  0  0  0
    7.8721   13.5700   15.6207 C   0  0  2  0  0  0  0  0  0  0  0  0
    6.8798   14.4222   15.1073 O   0  0  0  0  0  0  0  0  0  0  0  0
    5.1867   14.0273   11.7561 C   0  0  1  0  0  0  0  0  0  0  0  0
    5.4335   15.3679   11.3193 O   0  0  0  0  0  0  0  0  0  0  0  0
    3.3094   10.9544   12.9341 C   0  0  1  0  0  0  0  0  0  0  0  0
    2.1164   11.5752   13.4256 O   0  0  0  0  0  0  0  0  0  0  0  0
    6.3659    5.5563   16.7446 C   0  0  2  0  0  0  0  0  0  0  0  0
    7.2396    4.4469   16.8539 O   0  0  0  0  0  0  0  0  0  0  0  0
    5.4994    9.6296   19.4708 C   0  0  2  0  0  0  0  0  0  0  0  0
    7.6460   12.2402   14.8723 C   0  0  2  0  0  0  0  0  0  0  0  0
    6.6700   11.6072   15.6845 O   0  0  0  0  0  0  0  0  0  0  0  0
    6.2570   13.1270   11.0124 C   0  0  2  0  0  0  0  0  0  0  0  0
    5.9599   11.7982   11.4440 O   0  0  0  0  0  0  0  0  0  0  0  0
    3.1039    9.4399   12.8714 C   0  0  2  0  0  0  0  0  0  0  0  0
    3.1323    8.9591   14.2253 O   0  0  0  0  0  0  0  0  0  0  0  0
    7.1476    6.8876   16.6183 C   0  0  2  0  0  0  0  0  0  0  0  0
    6.1705    7.9428   16.3888 O   0  0  0  0  0  0  0  0  0  0  0  0
    5.2630   10.9322   18.6412 C   0  0  2  0  0  0  0  0  0  0  0  0
    6.5162   11.3584   18.0376 O   0  0  0  0  0  0  0  0  0  0  0  0
    8.8601   11.3225   14.7324 C   0  0  0  0  0  0  0  0  0  0  0  0
    9.1793   10.8255   16.0404 O   0  0  0  0  0  0  0  0  0  0  0  0
    7.5923   13.4718   11.6435 C   0  0  1  0  0  0  0  0  0  0  0  0
    7.9033   13.8738   12.9949 O   0  0  0  0  0  0  0  0  0  0  0  0
    4.1194    8.7754   11.9486 C   0  0  2  0  0  0  0  0  0  0  0  0
    4.6347    9.4548   10.7933 O   0  0  0  0  0  0  0  0  0  0  0  0
    8.0651    6.9174   15.4437 C   0  0  0  0  0  0  0  0  0  0  0  0
    8.7432    8.1502   15.4693 O   0  0  0  0  0  0  0  0  0  0  0  0
    4.6092   12.0460   19.5267 C   0  0  1  0  0  0  0  0  0  0  0  0
    4.2474   13.1403   18.6430 O   0  0  0  0  0  0  0  0  0  0  0  0
    8.8505   12.7938   11.0187 C   0  0  0  0  0  0  0  0  0  0  0  0
    9.9990   13.7124   10.8708 N   0  0  0  0  0  0  0  0  0  0  0  0
    4.1470    7.2715   11.6855 C   0  0  0  0  0  0  0  0  0  0  0  0
    4.9701    6.9865   10.5236 O   0  0  0  0  0  0  0  0  0  0  0  0
  1  2  1  1  0  0  0
  1  8  1  0  0  0  0
  1 36  1  0  0  0  0
  3  4  1  1  0  0  0
  3 10  1  0  0  0  0
  3 47  1  0  0  0  0
  5 11  1  0  0  0  0
  5 30  1  0  0  0  0
  5 38  1  1  0  0  0
  6 21  1  1  0  0  0
  6 42  1  0  0  0  0
  7 15  1  0  0  0  0
  7 44  1  0  0  0  0
  7 32  1  1  0  0  0
  8  9  1  1  0  0  0
  8 17  1  0  0  0  0
 11 12  1  1  0  0  0
 11 20  1  0  0  0  0
 13  6  1  0  0  0  0
 13 14  1  6  0  0  0
 15 16  1  6  0  0  0
 15 24  1  0  0  0  0
 17 26  1  0  0  0  0
 18 10  1  0  0  0  0
 18 19  1  1  0  0  0
 20 21  1  6  0  0  0
 20 29  1  0  0  0  0
 22 13  1  0  0  0  0
 22 23  1  6  0  0  0
 24 25  1  6  0  0  0
 24 33  1  0  0  0  0
 26 27  1  1  0  0  0
 26 35  1  0  0  0  0
 28  2  1  6  0  0  0
 28 18  1  0  0  0  0
 29 30  1  0  0  0  0
 29 39  1  1  0  0  0
 31 22  1  0  0  0  0
 31 32  1  1  0  0  0
 31 41  1  0  0  0  0
 33 34  1  1  0  0  0
 33 43  1  0  0  0  0
 35 36  1  0  0  0  0
 35 45  1  6  0  0  0
 37 28  1  0  0  0  0
 37 38  1  1  0  0  0
 39 40  1  0  0  0  0
 41 42  1  0  0  0  0
 41 49  1  1  0  0  0
 43 44  1  0  0  0  0
 43 51  1  6  0  0  0
 45 46  1  0  0  0  0
 47 37  1  0  0  0  0
 47 48  1  6  0  0  0
 49 50  1  0  0  0  0
 51 52  1  0  0  0  0
M  END
>  <CHROM.1>
-106.54343067,140.53945181,114.52067891,-79.35518580,-166.70491299,74.45876822
68.67377567,80.07584499,-177.99980229,161.47427528,137.61821631,165.08073315
5.70757083,10.67810243,15.25142083,2.24212750,1.38061071,1.42104610

>  <Name>
2esj_lig

>  <RI>
224

>  <Rbt.Current_Directory>
/home/itssahil/PROJECTS/Mol_Feturizer/New_Systems/rnas/2esj

>  <Rbt.Executable>
rbdock ($Id: //depot/dev/client3/rdock/2013.1/src/exe/rbdock.cxx#4 $)

>  <Rbt.Library>
libRbt.so (2013.1, Build901 2013/11/27)

>  <Rbt.Parameter_File>
/export/apps/rDock/src/rDock_2013.1_src/data/scripts/dock_solv.prm

>  <Rbt.Receptor>
prm/blind_docking_100.prm

>  <SCORE>
5.71815

>  <SCORE.INTER>
-16.9763

>  <SCORE.INTER.CONST>
1

>  <SCORE.INTER.POLAR>
-1.53902

>  <SCORE.INTER.ROT>
12

>  <SCORE.INTER.SOLV>
23.2796

>  <SCORE.INTER.VDW>
-25.5473

>  <SCORE.INTER.norm>
-0.326467

>  <SCORE.INTRA>
13.0422

>  <SCORE.INTRA.DIHEDRAL>
-1.86905

>  <SCORE.INTRA.DIHEDRAL.0>
32.9766

>  <SCORE.INTRA.POLAR>
0

>  <SCORE.INTRA.POLAR.0>
0

>  <SCORE.INTRA.REPUL>
0.313818

>  <SCORE.INTRA.REPUL.0>
0

>  <SCORE.INTRA.SOLV>
7.99144

>  <SCORE.INTRA.SOLV.lig_0>
-114.358

>  <SCORE.INTRA.VDW>
8.4119

>  <SCORE.INTRA.VDW.0>
-8.24257

>  <SCORE.INTRA.norm>
0.250811

>  <SCORE.RESTR>
9.65226

>  <SCORE.RESTR.CAVITY>
9.65226

>  <SCORE.RESTR.norm>
0.18562

>  <SCORE.SYSTEM>
0

>  <SCORE.SYSTEM.CONST>
0

>  <SCORE.SYSTEM.DIHEDRAL>
0

>  <SCORE.SYSTEM.SOLV>
0

>  <SCORE.SYSTEM.norm>
0

>  <SCORE.heavy>
52

>  <SCORE.norm>
0.109964

>  <RMSD>
23.647

$$$$
2esj_lig
 OpenBabel11021811423D
libRbt.so/2013.1/901 2013/11/27
 52 56  0  0  0  0  0  0  0  0999 V2000
    5.6117   14.1459   15.1806 C   0  0  2  0  0  0  0  0  0  0  0  0
    6.8774   13.8032   14.5842 O   0  0  0  0  0  0  0  0  0  0  0  0
    8.9341   10.6058   12.6260 C   0  0  2  0  0  0  0  0  0  0  0  0
    9.4786    9.2963   12.2310 N   0  0  0  0  0  0  0  0  0  0  0  0
    4.6302   10.8712   12.4682 C   0  0  1  0  0  0  0  0  0  0  0  0
    4.1339    8.2933   12.3930 C   0  0  1  0  0  0  0  0  0  0  0  0
    5.3098    6.0755   16.3598 C   0  0  1  0  0  0  0  0  0  0  0  0
    5.7829   15.5250   15.8833 C   0  0  2  0  0  0  0  0  0  0  0  0
    6.2509   16.5607   14.9628 N   0  0  0  0  0  0  0  0  0  0  0  0
    9.3139   10.9286   14.1257 C   0  0  0  0  0  0  0  0  0  0  0  0
    3.2875   10.8448   13.1997 C   0  0  2  0  0  0  0  0  0  0  0  0
    3.3915   10.2712   14.5208 O   0  0  0  0  0  0  0  0  0  0  0  0
    4.1172    6.7033   12.2796 C   0  0  2  0  0  0  0  0  0  0  0  0
    3.1508    6.1090   13.2407 N   0  0  0  0  0  0  0  0  0  0  0  0
    5.1072    4.6274   16.7906 C   0  0  1  0  0  0  0  0  0  0  0  0
    5.6945    4.4341   18.0929 O   0  0  0  0  0  0  0  0  0  0  0  0
    6.7589   15.4144   17.0975 C   0  0  0  0  0  0  0  0  0  0  0  0
    8.7719   12.3631   14.5129 C   0  0  2  0  0  0  0  0  0  0  0  0
    9.0999   12.6820   15.9063 N   0  0  0  0  0  0  0  0  0  0  0  0
    2.4677   10.0338   12.2383 C   0  0  2  0  0  0  0  0  0  0  0  0
    2.7891    8.6702   12.3459 O   0  0  0  0  0  0  0  0  0  0  0  0
    5.6089    6.1606   12.4031 C   0  0  1  0  0  0  0  0  0  0  0  0
    6.4353    6.8619   11.4683 O   0  0  0  0  0  0  0  0  0  0  0  0
    3.6568    4.1642   16.8551 C   0  0  1  0  0  0  0  0  0  0  0  0
    3.6495    2.8832   17.4949 O   0  0  0  0  0  0  0  0  0  0  0  0
    6.2522   14.2907   18.0495 C   0  0  2  0  0  0  0  0  0  0  0  0
    7.0507   14.1880   19.2148 O   0  0  0  0  0  0  0  0  0  0  0  0
    7.2397   12.4417   14.2871 C   0  0  2  0  0  0  0  0  0  0  0  0
    2.9603   10.4235   10.8294 C   0  0  2  0  0  0  0  0  0  0  0  0
    4.3184   10.7540   11.0730 O   0  0  0  0  0  0  0  0  0  0  0  0
    6.2191    6.4661   13.8326 C   0  0  2  0  0  0  0  0  0  0  0  0
    5.3936    5.7258   14.7332 O   0  0  0  0  0  0  0  0  0  0  0  0
    2.7383    5.1184   17.6205 C   0  0  2  0  0  0  0  0  0  0  0  0
    1.3886    4.7206   17.3296 O   0  0  0  0  0  0  0  0  0  0  0  0
    6.2222   12.9588   17.2594 C   0  0  2  0  0  0  0  0  0  0  0  0
    5.2849   13.1302   16.1580 O   0  0  0  0  0  0  0  0  0  0  0  0
    6.7818   12.0182   12.8546 C   0  0  2  0  0  0  0  0  0  0  0  0
    5.3296   12.0563   12.7772 O   0  0  0  0  0  0  0  0  0  0  0  0
    2.2616   11.6109   10.1679 C   0  0  0  0  0  0  0  0  0  0  0  0
    2.5076   12.7662   10.9830 O   0  0  0  0  0  0  0  0  0  0  0  0
    5.9130    7.9262   14.1056 C   0  0  1  0  0  0  0  0  0  0  0  0
    4.7894    8.7318   13.6896 O   0  0  0  0  0  0  0  0  0  0  0  0
    3.0474    6.5750   17.2932 C   0  0  2  0  0  0  0  0  0  0  0  0
    4.3806    7.0015   16.9731 O   0  0  0  0  0  0  0  0  0  0  0  0
    5.7047   11.8144   18.0625 C   0  0  0  0  0  0  0  0  0  0  0  0
    6.5745   11.6377   19.1545 O   0  0  0  0  0  0  0  0  0  0  0  0
    7.3709   10.6185   12.4723 C   0  0  1  0  0  0  0  0  0  0  0  0
    7.0634   10.3911   11.0713 O   0  0  0  0  0  0  0  0  0  0  0  0
    6.5002    8.5239   15.4211 C   0  0  0  0  0  0  0  0  0  0  0  0
    7.9779    8.5440   15.4478 N   0  0  0  0  0  0  0  0  0  0  0  0
    2.2947    7.7472   17.9187 C   0  0  0  0  0  0  0  0  0  0  0  0
    0.9167    7.7526   17.4606 O   0  0  0  0  0  0  0  0  0  0  0  0
  1  2  1  1  0  0  0
  1  8  1  0  0  0  0
  1 36  1  0  0  0  0
  3  4  1  1  0  0  0
  3 10  1  0  0  0  0
  3 47  1  0  0  0  0
  5 11  1  0  0  0  0
  5 30  1  0  0  0  0
  5 38  1  6  0  0  0
  6 21  1  1  0  0  0
  6 42  1  0  0  0  0
  7 15  1  0  0  0  0
  7 44  1  0  0  0  0
  7 32  1  6  0  0  0
  8  9  1  6  0  0  0
  8 17  1  0  0  0  0
 11 12  1  1  0  0  0
 11 20  1  0  0  0  0
 13  6  1  0  0  0  0
 13 14  1  1  0  0  0
 15 16  1  1  0  0  0
 15 24  1  0  0  0  0
 17 26  1  0  0  0  0
 18 10  1  0  0  0  0
 18 19  1  1  0  0  0
 20 21  1  1  0  0  0
 20 29  1  0  0  0  0
 22 13  1  0  0  0  0
 22 23  1  6  0  0  0
 24 25  1  1  0  0  0
 24 33  1  0  0  0  0
 26 27  1  1  0  0  0
 26 35  1  0  0  0  0
 28  2  1  6  0  0  0
 28 18  1  0  0  0  0
 29 30  1  0  0  0  0
 29 39  1  1  0  0  0
 31 22  1  0  0  0  0
 31 32  1  1  0  0  0
 31 41  1  0  0  0  0
 33 34  1  6  0  0  0
 33 43  1  0  0  0  0
 35 36  1  0  0  0  0
 35 45  1  1  0  0  0
 37 28  1  0  0  0  0
 37 38  1  1  0  0  0
 39 40  1  0  0  0  0
 41 42  1  0  0  0  0
 41 49  1  1  0  0  0
 43 44  1  0  0  0  0
 43 51  1  1  0  0  0
 45 46  1  0  0  0  0
 47 37  1  0  0  0  0
 47 48  1  6  0  0  0
 49 50  1  0  0  0  0
 51 52  1  0  0  0  0
M  END
>  <CHROM.1>
156.87722286,146.33622978,-171.31204926,-146.63106980,-45.81687989,-146.17739600
62.44584800,-160.27917605,-61.60209917,-119.98238666,63.88085192,-67.04308949
5.25333935,9.67903779,14.74148394,-0.38278839,1.21343524,1.85128441

>  <Name>
2esj_lig

>  <RI>
0

>  <Rbt.Current_Directory>
/home/itssahil/PROJECTS/Mol_Feturizer/New_Systems/rnas/2esj

>  <Rbt.Executable>
rbdock ($Id: //depot/dev/client3/rdock/2013.1/src/exe/rbdock.cxx#4 $)

>  <Rbt.Library>
libRbt.so (2013.1, Build901 2013/11/27)

>  <Rbt.Parameter_File>
/export/apps/rDock/src/rDock_2013.1_src/data/scripts/dock_solv.prm

>  <Rbt.Receptor>
prm/blind_docking_80.prm

>  <SCORE>
29.2434

>  <SCORE.INTER>
8.08598

>  <SCORE.INTER.CONST>
1

>  <SCORE.INTER.POLAR>
0

>  <SCORE.INTER.ROT>
12

>  <SCORE.INTER.SOLV>
27.9663

>  <SCORE.INTER.VDW>
-15.5315

>  <SCORE.INTER.norm>
0.1555

>  <SCORE.INTRA>
14.9741

>  <SCORE.INTRA.DIHEDRAL>
-2.84856

>  <SCORE.INTRA.DIHEDRAL.0>
32.9766

>  <SCORE.INTRA.POLAR>
0

>  <SCORE.INTRA.POLAR.0>
0

>  <SCORE.INTRA.REPUL>
0.0224854

>  <SCORE.INTRA.REPUL.0>
0

>  <SCORE.INTRA.SOLV>
7.06637

>  <SCORE.INTRA.SOLV.lig_0>
-114.358

>  <SCORE.INTRA.VDW>
12.7528

>  <SCORE.INTRA.VDW.0>
-8.24257

>  <SCORE.INTRA.norm>
0.287964

>  <SCORE.RESTR>
6.18331

>  <SCORE.RESTR.CAVITY>
6.18331

>  <SCORE.RESTR.norm>
0.11891

>  <SCORE.SYSTEM>
0

>  <SCORE.SYSTEM.CONST>
0

>  <SCORE.SYSTEM.DIHEDRAL>
0

>  <SCORE.SYSTEM.SOLV>
0

>  <SCORE.SYSTEM.norm>
0

>  <SCORE.heavy>
52

>  <SCORE.norm>
0.562373

>  <RMSD>
23.647

$$$$
2esj_lig
 OpenBabel11021811423D
libRbt.so/2013.1/901 2013/11/27
 52 56  0  0  0  0  0  0  0  0999 V2000
    4.6837    7.2293   14.2519 C   0  0  2  0  0  0  0  0  0  0  0  0
    4.7440    8.6292   14.5858 O   0  0  0  0  0  0  0  0  0  0  0  0
    3.9225   10.3405   10.7538 C   0  0  2  0  0  0  0  0  0  0  0  0
    3.6926   11.2591    9.6266 N   0  0  0  0  0  0  0  0  0  0  0  0
    7.3996   10.7255   13.6529 C   0  0  1  0  0  0  0  0  0  0  0  0
    7.9893   14.0327   15.3365 C   0  0  1  0  0  0  0  0  0  0  0  0
    4.4278   12.8204   18.9151 C   0  0  1  0  0  0  0  0  0  0  0  0
    4.2201    6.4632   15.5260 C   0  0  2  0  0  0  0  0  0  0  0  0
    2.9416    6.9586   16.0351 N   0  0  0  0  0  0  0  0  0  0  0  0
    2.9433   10.6795   11.9469 C   0  0  0  0  0  0  0  0  0  0  0  0
    8.6857   11.3028   13.0603 C   0  0  2  0  0  0  0  0  0  0  0  0
    9.8709   10.7386   13.6623 O   0  0  0  0  0  0  0  0  0  0  0  0
    7.9056   13.5649   16.8581 C   0  0  2  0  0  0  0  0  0  0  0  0
    7.4843   12.1423   16.9576 N   0  0  0  0  0  0  0  0  0  0  0  0
    5.5576   13.4606   19.7134 C   0  0  1  0  0  0  0  0  0  0  0  0
    5.0426   13.9179   20.9799 O   0  0  0  0  0  0  0  0  0  0  0  0
    5.3036    6.5411   16.6481 C   0  0  0  0  0  0  0  0  0  0  0  0
    3.1640    9.6463   13.1239 C   0  0  2  0  0  0  0  0  0  0  0  0
    2.2752    9.9475   14.2510 N   0  0  0  0  0  0  0  0  0  0  0  0
    8.4863   12.7636   13.3435 C   0  0  2  0  0  0  0  0  0  0  0  0
    8.7390   13.0415   14.6975 O   0  0  0  0  0  0  0  0  0  0  0  0
    6.9977   14.5935   17.6660 C   0  0  1  0  0  0  0  0  0  0  0  0
    7.4783   15.9206   17.4282 O   0  0  0  0  0  0  0  0  0  0  0  0
    6.7527   12.5564   19.9903 C   0  0  1  0  0  0  0  0  0  0  0  0
    7.5877   13.2356   20.9346 O   0  0  0  0  0  0  0  0  0  0  0  0
    6.6589    6.0308   16.0751 C   0  0  2  0  0  0  0  0  0  0  0  0
    7.6717    6.0017   17.0649 O   0  0  0  0  0  0  0  0  0  0  0  0
    4.6446    9.6596   13.5850 C   0  0  2  0  0  0  0  0  0  0  0  0
    6.9737   13.0221   13.1852 C   0  0  2  0  0  0  0  0  0  0  0  0
    6.4204   11.7690   13.5546 O   0  0  0  0  0  0  0  0  0  0  0  0
    5.5015   14.5766   17.1461 C   0  0  2  0  0  0  0  0  0  0  0  0
    5.0454   13.2529   17.4295 O   0  0  0  0  0  0  0  0  0  0  0  0
    6.3712   11.1834   20.5464 C   0  0  2  0  0  0  0  0  0  0  0  0
    7.5434   10.3572   20.4570 O   0  0  0  0  0  0  0  0  0  0  0  0
    7.0545    6.9341   14.8807 C   0  0  2  0  0  0  0  0  0  0  0  0
    6.0123    6.7993   13.8725 O   0  0  0  0  0  0  0  0  0  0  0  0
    5.6759    9.4493   12.4304 C   0  0  2  0  0  0  0  0  0  0  0  0
    7.0268    9.5552   12.9597 O   0  0  0  0  0  0  0  0  0  0  0  0
    6.4896   13.3958   11.7846 C   0  0  0  0  0  0  0  0  0  0  0  0
    7.2390   12.6119   10.8447 O   0  0  0  0  0  0  0  0  0  0  0  0
    5.5917   14.6618   15.6345 C   0  0  1  0  0  0  0  0  0  0  0  0
    6.6010   14.1543   14.7356 O   0  0  0  0  0  0  0  0  0  0  0  0
    5.1469   10.6138   19.8386 C   0  0  2  0  0  0  0  0  0  0  0  0
    4.1115   11.4702   19.3324 O   0  0  0  0  0  0  0  0  0  0  0  0
    8.3207    6.5074   14.2194 C   0  0  0  0  0  0  0  0  0  0  0  0
    8.6126    7.4518   13.2179 O   0  0  0  0  0  0  0  0  0  0  0  0
    5.4075   10.4481   11.2546 C   0  0  1  0  0  0  0  0  0  0  0  0
    6.2733   10.0600   10.1550 O   0  0  0  0  0  0  0  0  0  0  0  0
    4.2398   14.7681   14.8638 C   0  0  0  0  0  0  0  0  0  0  0  0
    4.4082   14.9742   13.4099 N   0  0  0  0  0  0  0  0  0  0  0  0
    4.5340    9.2609   20.1932 C   0  0  0  0  0  0  0  0  0  0  0  0
    4.2668    8.5050   18.9824 O   0  0  0  0  0  0  0  0  0  0  0  0
  1  2  1  1  0  0  0
  1  8  1  0  0  0  0
  1 36  1  0  0  0  0
  3  4  1  6  0  0  0
  3 10  1  0  0  0  0
  3 47  1  0  0  0  0
  5 11  1  0  0  0  0
  5 30  1  0  0  0  0
  5 38  1  6  0  0  0
  6 21  1  6  0  0  0
  6 42  1  0  0  0  0
  7 15  1  0  0  0  0
  7 44  1  0  0  0  0
  7 32  1  6  0  0  0
  8  9  1  1  0  0  0
  8 17  1  0  0  0  0
 11 12  1  1  0  0  0
 11 20  1  0  0  0  0
 13  6  1  0  0  0  0
 13 14  1  6  0  0  0
 15 16  1  1  0  0  0
 15 24  1  0  0  0  0
 17 26  1  0  0  0  0
 18 10  1  0  0  0  0
 18 19  1  1  0  0  0
 20 21  1  1  0  0  0
 20 29  1  0  0  0  0
 22 13  1  0  0  0  0
 22 23  1  6  0  0  0
 24 25  1  1  0  0  0
 24 33  1  0  0  0  0
 26 27  1  1  0  0  0
 26 35  1  0  0  0  0
 28  2  1  1  0  0  0
 28 18  1  0  0  0  0
 29 30  1  0  0  0  0
 29 39  1  6  0  0  0
 31 22  1  0  0  0  0
 31 32  1  6  0  0  0
 31 41  1  0  0  0  0
 33 34  1  6  0  0  0
 33 43  1  0  0  0  0
 35 36  1  0  0  0  0
 35 45  1  6  0  0  0
 37 28  1  0  0  0  0
 37 38  1  1  0  0  0
 39 40  1  0  0  0  0
 41 42  1  0  0  0  0
 41 49  1  6  0  0  0
 43 44  1  0  0  0  0
 43 51  1  1  0  0  0
 45 46  1  0  0  0  0
 47 37  1  0  0  0  0
 47 48  1  6  0  0  0
 49 50  1  0  0  0  0
 51 52  1  0  0  0  0
M  END
>  <CHROM.1>
-156.39765900,-127.53925565,149.43193743,-47.67530372,-145.83246931,71.51523066
38.22449533,84.96393142,-176.18182094,-55.87657382,174.61100368,-133.58373543
6.03388818,10.95629899,15.43226587,1.83693004,-1.43613934,-1.77826079

>  <Name>
2esj_lig

>  <RI>
224

>  <Rbt.Current_Directory>
/home/itssahil/PROJECTS/Mol_Feturizer/New_Systems/rnas/2esj

>  <Rbt.Executable>
rbdock ($Id: //depot/dev/client3/rdock/2013.1/src/exe/rbdock.cxx#4 $)

>  <Rbt.Library>
libRbt.so (2013.1, Build901 2013/11/27)

>  <Rbt.Parameter_File>
/export/apps/rDock/src/rDock_2013.1_src/data/scripts/dock_solv.prm

>  <Rbt.Receptor>
prm/blind_docking_100.prm

>  <SCORE>
25.2751

>  <SCORE.INTER>
-2.64113

>  <SCORE.INTER.CONST>
1

>  <SCORE.INTER.POLAR>
-0.587994

>  <SCORE.INTER.ROT>
12

>  <SCORE.INTER.SOLV>
27.3817

>  <SCORE.INTER.VDW>
-20.528

>  <SCORE.INTER.norm>
-0.050791

>  <SCORE.INTRA>
24.066

>  <SCORE.INTRA.DIHEDRAL>
-3.78132

>  <SCORE.INTRA.DIHEDRAL.0>
32.9766

>  <SCORE.INTRA.POLAR>
0

>  <SCORE.INTRA.POLAR.0>
0

>  <SCORE.INTRA.REPUL>
0

>  <SCORE.INTRA.REPUL.0>
0

>  <SCORE.INTRA.SOLV>
8.00131

>  <SCORE.INTRA.SOLV.lig_0>
-114.358

>  <SCORE.INTRA.VDW>
21.956

>  <SCORE.INTRA.VDW.0>
-8.24257

>  <SCORE.INTRA.norm>
0.462808

>  <SCORE.RESTR>
3.8502

>  <SCORE.RESTR.CAVITY>
3.8502

>  <SCORE.RESTR.norm>
0.0740424

>  <SCORE.SYSTEM>
0

>  <SCORE.SYSTEM.CONST>
0

>  <SCORE.SYSTEM.DIHEDRAL>
0

>  <SCORE.SYSTEM.SOLV>
0

>  <SCORE.SYSTEM.norm>
0

>  <SCORE.heavy>
52

>  <SCORE.norm>
0.486059

>  <RMSD>
23.651

$$$$
2esj_lig
 OpenBabel11021811423D
libRbt.so/2013.1/901 2013/11/27
 52 56  0  0  0  0  0  0  0  0999 V2000
    8.0283   13.2749   16.5105 C   0  0  2  0  0  0  0  0  0  0  0  0
    7.1569   12.1447   16.3156 O   0  0  0  0  0  0  0  0  0  0  0  0
    8.1992   10.9488   12.3443 C   0  0  2  0  0  0  0  0  0  0  0  0
    8.4768   10.1871   11.1154 N   0  0  0  0  0  0  0  0  0  0  0  0
    4.4796   10.3273   14.8469 C   0  0  1  0  0  0  0  0  0  0  0  0
    3.3159    6.4256   15.6015 C   0  0  1  0  0  0  0  0  0  0  0  0
    4.5437    6.6407   19.8036 C   0  0  1  0  0  0  0  0  0  0  0  0
    7.2614   14.3132   17.3817 C   0  0  2  0  0  0  0  0  0  0  0  0
    6.8118   13.7450   18.6522 N   0  0  0  0  0  0  0  0  0  0  0  0
    9.0685   10.3944   13.5420 C   0  0  0  0  0  0  0  0  0  0  0  0
    4.0959    9.4675   13.6420 C   0  0  2  0  0  0  0  0  0  0  0  0
    2.7353    9.6945   13.2145 O   0  0  0  0  0  0  0  0  0  0  0  0
    2.0777    6.3967   16.6051 C   0  0  2  0  0  0  0  0  0  0  0  0
    2.0947    7.5771   17.5091 N   0  0  0  0  0  0  0  0  0  0  0  0
    3.8697    7.1006   21.0912 C   0  0  1  0  0  0  0  0  0  0  0  0
    4.8632    7.2214   22.1288 O   0  0  0  0  0  0  0  0  0  0  0  0
    6.0422   14.9017   16.6031 C   0  0  0  0  0  0  0  0  0  0  0  0
    8.8010   11.2619   14.8372 C   0  0  2  0  0  0  0  0  0  0  0  0
    9.5867   10.7589   15.9688 N   0  0  0  0  0  0  0  0  0  0  0  0
    4.3476    8.0942   14.1941 C   0  0  2  0  0  0  0  0  0  0  0  0
    3.3082    7.7136   15.0596 O   0  0  0  0  0  0  0  0  0  0  0  0
    2.0421    4.9856   17.3417 C   0  0  1  0  0  0  0  0  0  0  0  0
    2.0943    3.9482   16.3570 O   0  0  0  0  0  0  0  0  0  0  0  0
    3.1233    8.4260   20.9978 C   0  0  1  0  0  0  0  0  0  0  0  0
    2.7676    8.8065   22.3316 O   0  0  0  0  0  0  0  0  0  0  0  0
    6.5429   15.4787   15.2459 C   0  0  2  0  0  0  0  0  0  0  0  0
    5.4973   16.0996   14.5197 O   0  0  0  0  0  0  0  0  0  0  0  0
    7.2900   11.2616   15.1862 C   0  0  2  0  0  0  0  0  0  0  0  0
    5.5740    8.2292   15.1200 C   0  0  2  0  0  0  0  0  0  0  0  0
    5.4527    9.5670   15.5766 O   0  0  0  0  0  0  0  0  0  0  0  0
    3.3191    4.7779   18.2557 C   0  0  2  0  0  0  0  0  0  0  0  0
    3.2161    5.8050   19.2430 O   0  0  0  0  0  0  0  0  0  0  0  0
    3.9375    9.5478   20.3507 C   0  0  2  0  0  0  0  0  0  0  0  0
    3.0182   10.6110   20.0521 O   0  0  0  0  0  0  0  0  0  0  0  0
    7.1941   14.3290   14.4377 C   0  0  2  0  0  0  0  0  0  0  0  0
    8.3266   13.8424   15.2132 O   0  0  0  0  0  0  0  0  0  0  0  0
    6.3606   11.6861   14.0042 C   0  0  2  0  0  0  0  0  0  0  0  0
    4.9696   11.5778   14.4163 O   0  0  0  0  0  0  0  0  0  0  0  0
    6.9434    8.0392   14.4686 C   0  0  0  0  0  0  0  0  0  0  0  0
    7.0014    6.6954   13.9681 O   0  0  0  0  0  0  0  0  0  0  0  0
    4.5070    5.1590   17.3932 C   0  0  1  0  0  0  0  0  0  0  0  0
    4.6111    6.1402   16.3393 O   0  0  0  0  0  0  0  0  0  0  0  0
    4.7260    9.0439   19.1471 C   0  0  2  0  0  0  0  0  0  0  0  0
    5.2302    7.7004   19.0943 O   0  0  0  0  0  0  0  0  0  0  0  0
    7.7554   14.7777   13.1315 C   0  0  0  0  0  0  0  0  0  0  0  0
    6.6786   15.2115   12.3363 O   0  0  0  0  0  0  0  0  0  0  0  0
    6.6769   10.8499   12.7185 C   0  0  1  0  0  0  0  0  0  0  0  0
    5.9156   11.4337   11.6282 O   0  0  0  0  0  0  0  0  0  0  0  0
    5.9181    4.9460   18.0228 C   0  0  0  0  0  0  0  0  0  0  0  0
    7.0266    5.2267   17.0862 N   0  0  0  0  0  0  0  0  0  0  0  0
    5.6360    9.9419   18.3121 C   0  0  0  0  0  0  0  0  0  0  0  0
    6.7958   10.3352   19.0924 O   0  0  0  0  0  0  0  0  0  0  0  0
  1  2  1  6  0  0  0
  1  8  1  0  0  0  0
  1 36  1  0  0  0  0
  3  4  1  6  0  0  0
  3 10  1  0  0  0  0
  3 47  1  0  0  0  0
  5 11  1  0  0  0  0
  5 30  1  0  0  0  0
  5 38  1  6  0  0  0
  6 21  1  1  0  0  0
  6 42  1  0  0  0  0
  7 15  1  0  0  0  0
  7 44  1  0  0  0  0
  7 32  1  6  0  0  0
  8  9  1  1  0  0  0
  8 17  1  0  0  0  0
 11 12  1  1  0  0  0
 11 20  1  0  0  0  0
 13  6  1  0  0  0  0
 13 14  1  1  0  0  0
 15 16  1  1  0  0  0
 15 24  1  0  0  0  0
 17 26  1  0  0  0  0
 18 10  1  0  0  0  0
 18 19  1  1  0  0  0
 20 21  1  1  0  0  0
 20 29  1  0  0  0  0
 22 13  1  0  0  0  0
 22 23  1  6  0  0  0
 24 25  1  1  0  0  0
 24 33  1  0  0  0  0
 26 27  1  6  0  0  0
 26 35  1  0  0  0  0
 28  2  1  1  0  0  0
 28 18  1  0  0  0  0
 29 30  1  0  0  0  0
 29 39  1  6  0  0  0
 31 22  1  0  0  0  0
 31 32  1  1  0  0  0
 31 41  1  0  0  0  0
 33 34  1  6  0  0  0
 33 43  1  0  0  0  0
 35 36  1  0  0  0  0
 35 45  1  6  0  0  0
 37 28  1  0  0  0  0
 37 38  1  1  0  0  0
 39 40  1  0  0  0  0
 41 42  1  0  0  0  0
 41 49  1  1  0  0  0
 43 44  1  0  0  0  0
 43 51  1  1  0  0  0
 45 46  1  0  0  0  0
 47 37  1  0  0  0  0
 47 48  1  6  0  0  0
 49 50  1  0  0  0  0
 51 52  1  0  0  0  0
M  END
>  <CHROM.1>
155.20445609,-82.38869299,175.55827382,-159.49113893,175.56423363,30.86953688
-62.56306051,-141.32413521,-64.83570651,-58.78813621,174.98288961,68.63889386
5.47032262,9.68162274,16.32066141,0.00874514,1.16576247,0.96887412

>  <Name>
2esj_lig

>  <RI>
224

>  <Rbt.Current_Directory>
/home/itssahil/PROJECTS/Mol_Feturizer/New_Systems/rnas/2esj

>  <Rbt.Executable>
rbdock ($Id: //depot/dev/client3/rdock/2013.1/src/exe/rbdock.cxx#4 $)

>  <Rbt.Library>
libRbt.so (2013.1, Build901 2013/11/27)

>  <Rbt.Parameter_File>
/export/apps/rDock/src/rDock_2013.1_src/data/scripts/dock_solv.prm

>  <Rbt.Receptor>
prm/blind_docking_100.prm

>  <SCORE>
17.3826

>  <SCORE.INTER>
4.49565

>  <SCORE.INTER.CONST>
1

>  <SCORE.INTER.POLAR>
0

>  <SCORE.INTER.ROT>
12

>  <SCORE.INTER.SOLV>
25.6109

>  <SCORE.INTER.VDW>
-17.1399

>  <SCORE.INTER.norm>
0.0864548

>  <SCORE.INTRA>
4.16636

>  <SCORE.INTRA.DIHEDRAL>
-12.5421

>  <SCORE.INTRA.DIHEDRAL.0>
32.9766

>  <SCORE.INTRA.POLAR>
0

>  <SCORE.INTRA.POLAR.0>
0

>  <SCORE.INTRA.REPUL>
0

>  <SCORE.INTRA.REPUL.0>
0

>  <SCORE.INTRA.SOLV>
6.49746

>  <SCORE.INTRA.SOLV.lig_0>
-114.358

>  <SCORE.INTRA.VDW>
7.18867

>  <SCORE.INTRA.VDW.0>
-8.24257

>  <SCORE.INTRA.norm>
0.0801222

>  <SCORE.RESTR>
8.72062

>  <SCORE.RESTR.CAVITY>
8.72062

>  <SCORE.RESTR.norm>
0.167704

>  <SCORE.SYSTEM>
0

>  <SCORE.SYSTEM.CONST>
0

>  <SCORE.SYSTEM.DIHEDRAL>
0

>  <SCORE.SYSTEM.SOLV>
0

>  <SCORE.SYSTEM.norm>
0

>  <SCORE.heavy>
52

>  <SCORE.norm>
0.334281

>  <RMSD>
23.654

$$$$
2esj_lig
 OpenBabel11021811423D
libRbt.so/2013.1/901 2013/11/27
 52 56  0  0  0  0  0  0  0  0999 V2000
    7.9416   12.6324   15.4634 C   0  0  2  0  0  0  0  0  0  0  0  0
    6.7236   12.9551   14.7654 O   0  0  0  0  0  0  0  0  0  0  0  0
    4.8661   12.6291   10.9272 C   0  0  2  0  0  0  0  0  0  0  0  0
    4.4623   12.2141    9.5737 N   0  0  0  0  0  0  0  0  0  0  0  0
    5.2726    9.7214   14.3650 C   0  0  1  0  0  0  0  0  0  0  0  0
    6.5769    7.2676   15.0335 C   0  0  1  0  0  0  0  0  0  0  0  0
    3.2941    5.3744   17.6393 C   0  0  1  0  0  0  0  0  0  0  0  0
    7.5476   12.1100   16.8765 C   0  0  2  0  0  0  0  0  0  0  0  0
    6.6373   10.9671   16.8100 N   0  0  0  0  0  0  0  0  0  0  0  0
    6.4251   12.8822   10.9818 C   0  0  0  0  0  0  0  0  0  0  0  0
    5.0316    9.0451   13.0148 C   0  0  2  0  0  0  0  0  0  0  0  0
    3.8468    8.2195   13.0163 O   0  0  0  0  0  0  0  0  0  0  0  0
    6.9287    5.7931   15.5269 C   0  0  2  0  0  0  0  0  0  0  0  0
    5.9036    4.8177   15.0701 N   0  0  0  0  0  0  0  0  0  0  0  0
    3.2444    5.6603   19.1357 C   0  0  1  0  0  0  0  0  0  0  0  0
    2.1572    6.5669   19.4088 O   0  0  0  0  0  0  0  0  0  0  0  0
    6.9076   13.2483   17.7330 C   0  0  0  0  0  0  0  0  0  0  0  0
    6.8307   13.3836   12.4259 C   0  0  2  0  0  0  0  0  0  0  0  0
    8.2769   13.6133   12.5073 N   0  0  0  0  0  0  0  0  0  0  0  0
    6.3148    8.2815   12.8580 C   0  0  2  0  0  0  0  0  0  0  0  0
    6.3069    7.1340   13.6689 O   0  0  0  0  0  0  0  0  0  0  0  0
    7.1784    5.8199   17.0992 C   0  0  1  0  0  0  0  0  0  0  0  0
    8.1347    6.8420   17.3984 O   0  0  0  0  0  0  0  0  0  0  0  0
    3.0715    4.4363   20.0270 C   0  0  1  0  0  0  0  0  0  0  0  0
    2.8101    4.9111   21.3523 O   0  0  0  0  0  0  0  0  0  0  0  0
    7.8846   14.4607   17.7691 C   0  0  2  0  0  0  0  0  0  0  0  0
    7.3993   15.5037   18.5954 O   0  0  0  0  0  0  0  0  0  0  0  0
    6.3854   12.3573   13.4999 C   0  0  2  0  0  0  0  0  0  0  0  0
    7.4134    9.1694   13.4780 C   0  0  2  0  0  0  0  0  0  0  0  0
    6.6944    9.8716   14.4796 O   0  0  0  0  0  0  0  0  0  0  0  0
    5.8625    6.2159   17.8871 C   0  0  2  0  0  0  0  0  0  0  0  0
    4.9456    5.1606   17.5937 O   0  0  0  0  0  0  0  0  0  0  0  0
    1.9368    3.5092   19.5877 C   0  0  2  0  0  0  0  0  0  0  0  0
    2.0998    2.2789   20.3120 O   0  0  0  0  0  0  0  0  0  0  0  0
    8.1152   14.9447   16.3159 C   0  0  2  0  0  0  0  0  0  0  0  0
    8.7252   13.8428   15.5846 O   0  0  0  0  0  0  0  0  0  0  0  0
    4.8738   11.9696   13.4261 C   0  0  2  0  0  0  0  0  0  0  0  0
    4.5838   10.9508   14.4234 O   0  0  0  0  0  0  0  0  0  0  0  0
    8.0873   10.1722   12.5422 C   0  0  0  0  0  0  0  0  0  0  0  0
    8.6295    9.4350   11.4366 O   0  0  0  0  0  0  0  0  0  0  0  0
    5.3142    7.4406   17.1803 C   0  0  1  0  0  0  0  0  0  0  0  0
    5.3781    7.8136   15.7869 O   0  0  0  0  0  0  0  0  0  0  0  0
    1.9035    3.3451   18.0723 C   0  0  2  0  0  0  0  0  0  0  0  0
    2.3096    4.4087   17.1973 O   0  0  0  0  0  0  0  0  0  0  0  0
    9.0777   16.0793   16.2236 C   0  0  0  0  0  0  0  0  0  0  0  0
    9.0067   16.5871   14.9131 O   0  0  0  0  0  0  0  0  0  0  0  0
    4.4826   11.5248   11.9765 C   0  0  1  0  0  0  0  0  0  0  0  0
    3.0385   11.3723   11.9488 O   0  0  0  0  0  0  0  0  0  0  0  0
    4.0593    8.1084   17.8223 C   0  0  0  0  0  0  0  0  0  0  0  0
    4.3727    8.9154   19.0203 N   0  0  0  0  0  0  0  0  0  0  0  0
    0.8697    2.4841   17.3501 C   0  0  0  0  0  0  0  0  0  0  0  0
    0.8351    1.1556   17.9354 O   0  0  0  0  0  0  0  0  0  0  0  0
  1  2  1  6  0  0  0
  1  8  1  0  0  0  0
  1 36  1  0  0  0  0
  3  4  1  6  0  0  0
  3 10  1  0  0  0  0
  3 47  1  0  0  0  0
  5 11  1  0  0  0  0
  5 30  1  0  0  0  0
  5 38  1  6  0  0  0
  6 21  1  6  0  0  0
  6 42  1  0  0  0  0
  7 15  1  0  0  0  0
  7 44  1  0  0  0  0
  7 32  1  1  0  0  0
  8  9  1  6  0  0  0
  8 17  1  0  0  0  0
 11 12  1  1  0  0  0
 11 20  1  0  0  0  0
 13  6  1  0  0  0  0
 13 14  1  1  0  0  0
 15 16  1  6  0  0  0
 15 24  1  0  0  0  0
 17 26  1  0  0  0  0
 18 10  1  0  0  0  0
 18 19  1  6  0  0  0
 20 21  1  1  0  0  0
 20 29  1  0  0  0  0
 22 13  1  0  0  0  0
 22 23  1  6  0  0  0
 24 25  1  1  0  0  0
 24 33  1  0  0  0  0
 26 27  1  1  0  0  0
 26 35  1  0  0  0  0
 28  2  1  1  0  0  0
 28 18  1  0  0  0  0
 29 30  1  0  0  0  0
 29 39  1  6  0  0  0
 31 22  1  0  0  0  0
 31 32  1  6  0  0  0
 31 41  1  0  0  0  0
 33 34  1  1  0  0  0
 33 43  1  0  0  0  0
 35 36  1  0  0  0  0
 35 45  1  1  0  0  0
 37 28  1  0  0  0  0
 37 38  1  1  0  0  0
 39 40  1  0  0  0  0
 41 42  1  0  0  0  0
 41 49  1  6  0  0  0
 43 44  1  0  0  0  0
 43 51  1  6  0  0  0
 45 46  1  0  0  0  0
 47 37  1  0  0  0  0
 47 48  1  1  0  0  0
 49 50  1  0  0  0  0
 51 52  1  0  0  0  0
M  END
>  <CHROM.1>
-122.91047537,-58.29743425,-162.96825919,-64.37608086,-79.08732556,-96.99741229
-56.55808793,-154.27924567,-168.96559192,-59.67488792,76.63790393,-51.73171245
5.50167827,9.12494296,15.69561859,-0.49019742,1.11305168,1.66599028

>  <Name>
2esj_lig

>  <RI>
0

>  <Rbt.Current_Directory>
/home/itssahil/PROJECTS/Mol_Feturizer/New_Systems/rnas/2esj

>  <Rbt.Executable>
rbdock ($Id: //depot/dev/client3/rdock/2013.1/src/exe/rbdock.cxx#4 $)

>  <Rbt.Library>
libRbt.so (2013.1, Build901 2013/11/27)

>  <Rbt.Parameter_File>
/export/apps/rDock/src/rDock_2013.1_src/data/scripts/dock_solv.prm

>  <Rbt.Receptor>
prm/blind_docking_80.prm

>  <SCORE>
19.4333

>  <SCORE.INTER>
-0.219454

>  <SCORE.INTER.CONST>
1

>  <SCORE.INTER.POLAR>
0

>  <SCORE.INTER.ROT>
12

>  <SCORE.INTER.SOLV>
12.3164

>  <SCORE.INTER.VDW>
-15.8518

>  <SCORE.INTER.norm>
-0.00422028

>  <SCORE.INTRA>
14.141

>  <SCORE.INTRA.DIHEDRAL>
-9.77614

>  <SCORE.INTRA.DIHEDRAL.0>
32.9766

>  <SCORE.INTRA.POLAR>
0

>  <SCORE.INTRA.POLAR.0>
0

>  <SCORE.INTRA.REPUL>
0

>  <SCORE.INTRA.REPUL.0>
0

>  <SCORE.INTRA.SOLV>
7.67479

>  <SCORE.INTRA.SOLV.lig_0>
-114.358

>  <SCORE.INTRA.VDW>
15.1917

>  <SCORE.INTRA.VDW.0>
-8.24257

>  <SCORE.INTRA.norm>
0.271943

>  <SCORE.RESTR>
5.51175

>  <SCORE.RESTR.CAVITY>
5.51175

>  <SCORE.RESTR.norm>
0.105995

>  <SCORE.SYSTEM>
0

>  <SCORE.SYSTEM.CONST>
0

>  <SCORE.SYSTEM.DIHEDRAL>
0

>  <SCORE.SYSTEM.SOLV>
0

>  <SCORE.SYSTEM.norm>
0

>  <SCORE.heavy>
52

>  <SCORE.norm>
0.373717

>  <RMSD>
23.655

$$$$
2esj_lig
 OpenBabel11021811423D
libRbt.so/2013.1/901 2013/11/27
 52 56  0  0  0  0  0  0  0  0999 V2000
    4.9443    8.7257   11.1773 C   0  0  2  0  0  0  0  0  0  0  0  0
    4.3791    9.1851   12.4200 O   0  0  0  0  0  0  0  0  0  0  0  0
    4.2558   13.3866   11.6326 C   0  0  2  0  0  0  0  0  0  0  0  0
    4.0418   14.8413   11.7061 N   0  0  0  0  0  0  0  0  0  0  0  0
    5.8432   10.2107   14.8110 C   0  0  1  0  0  0  0  0  0  0  0  0
    5.9130    7.4626   17.6492 C   0  0  1  0  0  0  0  0  0  0  0  0
    2.8173    3.5114   18.4717 C   0  0  1  0  0  0  0  0  0  0  0  0
    4.8873    7.1695   11.1835 C   0  0  2  0  0  0  0  0  0  0  0  0
    3.5288    6.6663   11.3845 N   0  0  0  0  0  0  0  0  0  0  0  0
    2.8847   12.6204   11.8071 C   0  0  0  0  0  0  0  0  0  0  0  0
    6.9456    9.7738   15.7767 C   0  0  2  0  0  0  0  0  0  0  0  0
    7.5022    8.4869   15.4308 O   0  0  0  0  0  0  0  0  0  0  0  0
    5.6752    6.4167   16.4699 C   0  0  2  0  0  0  0  0  0  0  0  0
    4.2641    6.4503   16.0021 N   0  0  0  0  0  0  0  0  0  0  0  0
    2.1017    3.0035   17.2253 C   0  0  1  0  0  0  0  0  0  0  0  0
    1.4584    1.7489   17.5267 O   0  0  0  0  0  0  0  0  0  0  0  0
    5.8374    6.5815   12.2747 C   0  0  0  0  0  0  0  0  0  0  0  0
    3.1256   11.0636   11.6662 C   0  0  2  0  0  0  0  0  0  0  0  0
    1.8689   10.3274   11.8379 N   0  0  0  0  0  0  0  0  0  0  0  0
    6.1941    9.7912   17.0763 C   0  0  2  0  0  0  0  0  0  0  0  0
    5.3664    8.6606   17.1815 O   0  0  0  0  0  0  0  0  0  0  0  0
    6.1957    4.9857   16.9352 C   0  0  1  0  0  0  0  0  0  0  0  0
    7.5373    5.1156   17.4168 O   0  0  0  0  0  0  0  0  0  0  0  0
    1.0508    3.9446   16.6489 C   0  0  1  0  0  0  0  0  0  0  0  0
    0.3320    3.2147   15.6485 O   0  0  0  0  0  0  0  0  0  0  0  0
    7.2704    7.1498   12.0533 C   0  0  2  0  0  0  0  0  0  0  0  0
    8.2031    6.5963   12.9644 O   0  0  0  0  0  0  0  0  0  0  0  0
    4.1784   10.5834   12.6988 C   0  0  2  0  0  0  0  0  0  0  0  0
    5.2046   10.9704   16.9765 C   0  0  2  0  0  0  0  0  0  0  0  0
    4.9450   11.0201   15.5826 O   0  0  0  0  0  0  0  0  0  0  0  0
    5.3509    4.4315   18.1552 C   0  0  2  0  0  0  0  0  0  0  0  0
    4.0308    4.2827   17.6303 O   0  0  0  0  0  0  0  0  0  0  0  0
    0.0668    4.4816   17.6897 C   0  0  2  0  0  0  0  0  0  0  0  0
   -0.6410    5.5689   17.0720 O   0  0  0  0  0  0  0  0  0  0  0  0
    7.2065    8.6930   12.1696 C   0  0  2  0  0  0  0  0  0  0  0  0
    6.3202    9.1698   11.1170 O   0  0  0  0  0  0  0  0  0  0  0  0
    5.5209   11.3817   12.6617 C   0  0  2  0  0  0  0  0  0  0  0  0
    6.4015   10.9012   13.7153 O   0  0  0  0  0  0  0  0  0  0  0  0
    5.7180   12.3317   17.4443 C   0  0  0  0  0  0  0  0  0  0  0  0
    6.8549   12.6664   16.6349 O   0  0  0  0  0  0  0  0  0  0  0  0
    5.2681    5.5740   19.1492 C   0  0  1  0  0  0  0  0  0  0  0  0
    5.2302    6.9994   18.9228 O   0  0  0  0  0  0  0  0  0  0  0  0
    0.7735    4.8510   18.9892 C   0  0  2  0  0  0  0  0  0  0  0  0
    1.9358    4.1361   19.4361 O   0  0  0  0  0  0  0  0  0  0  0  0
    8.5213    9.3524   11.9269 C   0  0  0  0  0  0  0  0  0  0  0  0
    8.3589   10.7258   12.1868 O   0  0  0  0  0  0  0  0  0  0  0  0
    5.2558   12.9224   12.7515 C   0  0  1  0  0  0  0  0  0  0  0  0
    6.5234   13.5909   12.5155 O   0  0  0  0  0  0  0  0  0  0  0  0
    4.5681    5.2621   20.5077 C   0  0  0  0  0  0  0  0  0  0  0  0
    5.0220    6.1305   21.6144 N   0  0  0  0  0  0  0  0  0  0  0  0
    0.0393    5.4040   20.2086 C   0  0  0  0  0  0  0  0  0  0  0  0
    0.9934    5.9603   21.1515 O   0  0  0  0  0  0  0  0  0  0  0  0
  1  2  1  1  0  0  0
  1  8  1  0  0  0  0
  1 36  1  0  0  0  0
  3  4  1  1  0  0  0
  3 10  1  0  0  0  0
  3 47  1  0  0  0  0
  5 11  1  0  0  0  0
  5 30  1  0  0  0  0
  5 38  1  6  0  0  0
  6 21  1  6  0  0  0
  6 42  1  0  0  0  0
  7 15  1  0  0  0  0
  7 44  1  0  0  0  0
  7 32  1  6  0  0  0
  8  9  1  1  0  0  0
  8 17  1  0  0  0  0
 11 12  1  6  0  0  0
 11 20  1  0  0  0  0
 13  6  1  0  0  0  0
 13 14  1  1  0  0  0
 15 16  1  1  0  0  0
 15 24  1  0  0  0  0
 17 26  1  0  0  0  0
 18 10  1  0  0  0  0
 18 19  1  1  0  0  0
 20 21  1  6  0  0  0
 20 29  1  0  0  0  0
 22 13  1  0  0  0  0
 22 23  1  1  0  0  0
 24 25  1  6  0  0  0
 24 33  1  0  0  0  0
 26 27  1  1  0  0  0
 26 35  1  0  0  0  0
 28  2  1  6  0  0  0
 28 18  1  0  0  0  0
 29 30  1  0  0  0  0
 29 39  1  6  0  0  0
 31 22  1  0  0  0  0
 31 32  1  6  0  0  0
 31 41  1  0  0  0  0
 33 34  1  6  0  0  0
 33 43  1  0  0  0  0
 35 36  1  0  0  0  0
 35 45  1  6  0  0  0
 37 28  1  0  0  0  0
 37 38  1  1  0  0  0
 39 40  1  0  0  0  0
 41 42  1  0  0  0  0
 41 49  1  6  0  0  0
 43 44  1  0  0  0  0
 43 51  1  1  0  0  0
 45 46  1  0  0  0  0
 47 37  1  0  0  0  0
 47 48  1  6  0  0  0
 49 50  1  0  0  0  0
 51 52  1  0  0  0  0
M  END
>  <CHROM.1>
-174.93326088,178.80015244,-121.05723023,-149.42562519,83.99638839,64.54235043
59.93851760,170.65251785,-174.43790840,-20.77942958,154.17500023,-166.05659773
4.58623137,7.96006902,15.43456529,1.06182321,-0.79297721,-1.10998323

>  <Name>
2esj_lig

>  <RI>
0

>  <Rbt.Current_Directory>
/home/itssahil/PROJECTS/Mol_Feturizer/New_Systems/rnas/2esj

>  <Rbt.Executable>
rbdock ($Id: //depot/dev/client3/rdock/2013.1/src/exe/rbdock.cxx#4 $)

>  <Rbt.Library>
libRbt.so (2013.1, Build901 2013/11/27)

>  <Rbt.Parameter_File>
/export/apps/rDock/src/rDock_2013.1_src/data/scripts/dock_solv.prm

>  <Rbt.Receptor>
prm/blind_docking_80.prm

>  <SCORE>
13.216

>  <SCORE.INTER>
6.87258

>  <SCORE.INTER.CONST>
1

>  <SCORE.INTER.POLAR>
-0.0103974

>  <SCORE.INTER.ROT>
12

>  <SCORE.INTER.SOLV>
20.6191

>  <SCORE.INTER.VDW>
-13.8567

>  <SCORE.INTER.norm>
0.132165

>  <SCORE.INTRA>
-1.64992

>  <SCORE.INTRA.DIHEDRAL>
-8.24547

>  <SCORE.INTRA.DIHEDRAL.0>
32.9766

>  <SCORE.INTRA.POLAR>
0

>  <SCORE.INTRA.POLAR.0>
0

>  <SCORE.INTRA.REPUL>
0

>  <SCORE.INTRA.REPUL.0>
0

>  <SCORE.INTRA.SOLV>
0.105463

>  <SCORE.INTRA.SOLV.lig_0>
-114.358

>  <SCORE.INTRA.VDW>
2.42008

>  <SCORE.INTRA.VDW.0>
-8.24257

>  <SCORE.INTRA.norm>
-0.0317292

>  <SCORE.RESTR>
7.9933

>  <SCORE.RESTR.CAVITY>
7.9933

>  <SCORE.RESTR.norm>
0.153717

>  <SCORE.SYSTEM>
0

>  <SCORE.SYSTEM.CONST>
0

>  <SCORE.SYSTEM.DIHEDRAL>
0

>  <SCORE.SYSTEM.SOLV>
0

>  <SCORE.SYSTEM.norm>
0

>  <SCORE.heavy>
52

>  <SCORE.norm>
0.254153

>  <RMSD>
23.692

$$$$
2esj_lig
 OpenBabel11021811423D
libRbt.so/2013.1/901 2013/11/27
 52 56  0  0  0  0  0  0  0  0999 V2000
    6.1228   12.0385   11.7342 C   0  0  2  0  0  0  0  0  0  0  0  0
    5.6385   13.1559   12.5035 O   0  0  0  0  0  0  0  0  0  0  0  0
    6.6244   14.9905   16.2385 C   0  0  2  0  0  0  0  0  0  0  0  0
    6.8159   15.2960   17.6658 N   0  0  0  0  0  0  0  0  0  0  0  0
    7.6161   10.9979   14.1864 C   0  0  1  0  0  0  0  0  0  0  0  0
    7.0694    6.7937   14.6158 C   0  0  1  0  0  0  0  0  0  0  0  0
    4.0719    5.2907   18.1640 C   0  0  1  0  0  0  0  0  0  0  0  0
    6.0149   12.4238   10.2292 C   0  0  2  0  0  0  0  0  0  0  0  0
    6.7410   13.6551    9.9198 N   0  0  0  0  0  0  0  0  0  0  0  0
    5.1058   14.6658   15.9454 C   0  0  0  0  0  0  0  0  0  0  0  0
    8.5897    9.9279   13.6907 C   0  0  2  0  0  0  0  0  0  0  0  0
    8.3300    9.5376   12.3248 O   0  0  0  0  0  0  0  0  0  0  0  0
    5.5977    6.3880   14.1566 C   0  0  2  0  0  0  0  0  0  0  0  0
    4.5797    7.2742   14.7806 N   0  0  0  0  0  0  0  0  0  0  0  0
    2.6037    4.8897   18.0800 C   0  0  1  0  0  0  0  0  0  0  0  0
    2.2370    4.1804   19.2803 O   0  0  0  0  0  0  0  0  0  0  0  0
    4.5212   12.5660    9.7961 C   0  0  0  0  0  0  0  0  0  0  0  0
    4.9096   14.3986   14.3989 C   0  0  2  0  0  0  0  0  0  0  0  0
    3.5090   14.0810   14.1017 N   0  0  0  0  0  0  0  0  0  0  0  0
    8.3420    8.8438   14.6993 C   0  0  2  0  0  0  0  0  0  0  0  0
    7.1386    8.1753   14.4179 O   0  0  0  0  0  0  0  0  0  0  0  0
    5.3854    4.8317   14.4173 C   0  0  1  0  0  0  0  0  0  0  0  0
    6.4664    4.1104   13.8175 O   0  0  0  0  0  0  0  0  0  0  0  0
    1.6236    6.0422   17.8966 C   0  0  1  0  0  0  0  0  0  0  0  0
    0.3064    5.5105   18.0769 O   0  0  0  0  0  0  0  0  0  0  0  0
    3.7655   11.2528   10.1568 C   0  0  2  0  0  0  0  0  0  0  0  0
    2.4184   11.2835    9.7204 O   0  0  0  0  0  0  0  0  0  0  0  0
    5.8363   13.2483   13.9267 C   0  0  2  0  0  0  0  0  0  0  0  0
    8.0654    9.5643   16.0350 C   0  0  2  0  0  0  0  0  0  0  0  0
    7.4816   10.7813   15.5979 O   0  0  0  0  0  0  0  0  0  0  0  0
    5.4441    4.4909   15.9632 C   0  0  2  0  0  0  0  0  0  0  0  0
    4.3353    5.1974   16.5217 O   0  0  0  0  0  0  0  0  0  0  0  0
    1.8417    7.1985   18.8740 C   0  0  2  0  0  0  0  0  0  0  0  0
    1.0733    8.3093   18.3837 O   0  0  0  0  0  0  0  0  0  0  0  0
    3.8644   11.0380   11.6876 C   0  0  2  0  0  0  0  0  0  0  0  0
    5.2767   10.8985   12.0145 O   0  0  0  0  0  0  0  0  0  0  0  0
    7.3420   13.4491   14.2920 C   0  0  2  0  0  0  0  0  0  0  0  0
    8.1040   12.2833   13.8719 O   0  0  0  0  0  0  0  0  0  0  0  0
    9.2819    9.8716   16.9076 C   0  0  0  0  0  0  0  0  0  0  0  0
    9.3678    8.8448   17.9066 O   0  0  0  0  0  0  0  0  0  0  0  0
    6.6815    5.1914   16.4907 C   0  0  1  0  0  0  0  0  0  0  0  0
    7.2971    6.4281   16.0710 O   0  0  0  0  0  0  0  0  0  0  0  0
    3.3245    7.4972   19.0650 C   0  0  2  0  0  0  0  0  0  0  0  0
    4.3115    6.4571   18.9882 O   0  0  0  0  0  0  0  0  0  0  0  0
    3.2126    9.7774   12.1442 C   0  0  0  0  0  0  0  0  0  0  0  0
    1.8467    9.8666   11.8179 O   0  0  0  0  0  0  0  0  0  0  0  0
    7.5084   13.7623   15.8173 C   0  0  1  0  0  0  0  0  0  0  0  0
    8.8983   14.1245   16.0324 O   0  0  0  0  0  0  0  0  0  0  0  0
    7.0392    4.9345   17.9870 C   0  0  0  0  0  0  0  0  0  0  0  0
    8.4254    5.3141   18.3322 N   0  0  0  0  0  0  0  0  0  0  0  0
    3.8405    8.5947   19.9929 C   0  0  0  0  0  0  0  0  0  0  0  0
    5.1820    8.9869   19.5989 O   0  0  0  0  0  0  0  0  0  0  0  0
  1  2  1  1  0  0  0
  1  8  1  0  0  0  0
  1 36  1  0  0  0  0
  3  4  1  1  0  0  0
  3 10  1  0  0  0  0
  3 47  1  0  0  0  0
  5 11  1  0  0  0  0
  5 30  1  0  0  0  0
  5 38  1  1  0  0  0
  6 21  1  1  0  0  0
  6 42  1  0  0  0  0
  7 15  1  0  0  0  0
  7 44  1  0  0  0  0
  7 32  1  6  0  0  0
  8  9  1  1  0  0  0
  8 17  1  0  0  0  0
 11 12  1  6  0  0  0
 11 20  1  0  0  0  0
 13  6  1  0  0  0  0
 13 14  1  1  0  0  0
 15 16  1  1  0  0  0
 15 24  1  0  0  0  0
 17 26  1  0  0  0  0
 18 10  1  0  0  0  0
 18 19  1  1  0  0  0
 20 21  1  6  0  0  0
 20 29  1  0  0  0  0
 22 13  1  0  0  0  0
 22 23  1  6  0  0  0
 24 25  1  1  0  0  0
 24 33  1  0  0  0  0
 26 27  1  1  0  0  0
 26 35  1  0  0  0  0
 28  2  1  6  0  0  0
 28 18  1  0  0  0  0
 29 30  1  0  0  0  0
 29 39  1  6  0  0  0
 31 22  1  0  0  0  0
 31 32  1  1  0  0  0
 31 41  1  0  0  0  0
 33 34  1  6  0  0  0
 33 43  1  0  0  0  0
 35 36  1  0  0  0  0
 35 45  1  6  0  0  0
 37 28  1  0  0  0  0
 37 38  1  1  0  0  0
 39 40  1  0  0  0  0
 41 42  1  0  0  0  0
 41 49  1  1  0  0  0
 43 44  1  0  0  0  0
 43 51  1  1  0  0  0
 45 46  1  0  0  0  0
 47 37  1  0  0  0  0
 47 48  1  6  0  0  0
 49 50  1  0  0  0  0
 51 52  1  0  0  0  0
M  END
>  <CHROM.1>
-167.60161698,-178.25992343,-178.26986554,-130.94878827,142.21241706,-167.56389933
-98.32016721,-172.96943616,-61.60157738,-47.16735545,163.56638651,-158.16200042
5.50822386,9.37089887,15.19528979,1.28754626,-0.74431275,-0.79560815

>  <Name>
2esj_lig

>  <RI>
0

>  <Rbt.Current_Directory>
/home/itssahil/PROJECTS/Mol_Feturizer/New_Systems/rnas/2esj

>  <Rbt.Executable>
rbdock ($Id: //depot/dev/client3/rdock/2013.1/src/exe/rbdock.cxx#4 $)

>  <Rbt.Library>
libRbt.so (2013.1, Build901 2013/11/27)

>  <Rbt.Parameter_File>
/export/apps/rDock/src/rDock_2013.1_src/data/scripts/dock_solv.prm

>  <Rbt.Receptor>
prm/blind_docking_80.prm

>  <SCORE>
-2.90284

>  <SCORE.INTER>
-10.1785

>  <SCORE.INTER.CONST>
1

>  <SCORE.INTER.POLAR>
-0.446741

>  <SCORE.INTER.ROT>
12

>  <SCORE.INTER.SOLV>
26.3655

>  <SCORE.INTER.VDW>
-25.6851

>  <SCORE.INTER.norm>
-0.195741

>  <SCORE.INTRA>
-2.04416

>  <SCORE.INTRA.DIHEDRAL>
-9.67455

>  <SCORE.INTRA.DIHEDRAL.0>
32.9766

>  <SCORE.INTRA.POLAR>
0

>  <SCORE.INTRA.POLAR.0>
0

>  <SCORE.INTRA.REPUL>
0.374657

>  <SCORE.INTRA.REPUL.0>
0

>  <SCORE.INTRA.SOLV>
-2.78057

>  <SCORE.INTRA.SOLV.lig_0>
-114.358

>  <SCORE.INTRA.VDW>
2.31011

>  <SCORE.INTRA.VDW.0>
-8.24257

>  <SCORE.INTRA.norm>
-0.0393108

>  <SCORE.RESTR>
9.31986

>  <SCORE.RESTR.CAVITY>
9.31986

>  <SCORE.RESTR.norm>
0.179228

>  <SCORE.SYSTEM>
0

>  <SCORE.SYSTEM.CONST>
0

>  <SCORE.SYSTEM.DIHEDRAL>
0

>  <SCORE.SYSTEM.SOLV>
0

>  <SCORE.SYSTEM.norm>
0

>  <SCORE.heavy>
52

>  <SCORE.norm>
-0.0558239

>  <RMSD>
23.697

$$$$
2esj_lig
 OpenBabel11021811423D
libRbt.so/2013.1/901 2013/11/27
 52 56  0  0  0  0  0  0  0  0999 V2000
    6.3178    9.5492   11.8997 C   0  0  2  0  0  0  0  0  0  0  0  0
    5.7068    9.6102   13.2027 O   0  0  0  0  0  0  0  0  0  0  0  0
    3.2138   13.0409   12.6525 C   0  0  2  0  0  0  0  0  0  0  0  0
    2.2336   14.1272   12.8157 N   0  0  0  0  0  0  0  0  0  0  0  0
    6.4309   11.3626   15.6597 C   0  0  1  0  0  0  0  0  0  0  0  0
    6.3499    9.2147   17.2161 C   0  0  1  0  0  0  0  0  0  0  0  0
    4.1080    4.7126   18.5595 C   0  0  1  0  0  0  0  0  0  0  0  0
    7.4353    8.4662   11.9564 C   0  0  2  0  0  0  0  0  0  0  0  0
    6.9227    7.1637   12.3806 N   0  0  0  0  0  0  0  0  0  0  0  0
    2.5163   11.6372   12.8536 C   0  0  0  0  0  0  0  0  0  0  0  0
    7.5166   11.7777   16.6534 C   0  0  2  0  0  0  0  0  0  0  0  0
    8.7548   11.0639   16.4460 O   0  0  0  0  0  0  0  0  0  0  0  0
    4.7860    9.1240   17.5114 C   0  0  2  0  0  0  0  0  0  0  0  0
    4.5289    8.8389   18.9479 N   0  0  0  0  0  0  0  0  0  0  0  0
    3.5012    4.2033   17.2573 C   0  0  1  0  0  0  0  0  0  0  0  0
    3.8969    2.8318   17.0549 O   0  0  0  0  0  0  0  0  0  0  0  0
    8.5962    8.9122   12.9012 C   0  0  0  0  0  0  0  0  0  0  0  0
    3.5706   10.4824   12.6162 C   0  0  2  0  0  0  0  0  0  0  0  0
    2.9510    9.1674   12.8103 N   0  0  0  0  0  0  0  0  0  0  0  0
    6.8337   11.4626   17.9528 C   0  0  2  0  0  0  0  0  0  0  0  0
    6.8498   10.0784   18.1943 O   0  0  0  0  0  0  0  0  0  0  0  0
    4.1265    8.0934   16.4925 C   0  0  1  0  0  0  0  0  0  0  0  0
    4.5083    8.4514   15.1603 O   0  0  0  0  0  0  0  0  0  0  0  0
    1.9808    4.2710   17.1772 C   0  0  1  0  0  0  0  0  0  0  0  0
    1.5856    3.5445   16.0084 O   0  0  0  0  0  0  0  0  0  0  0  0
    9.1084   10.3100   12.4435 C   0  0  2  0  0  0  0  0  0  0  0  0
   10.2167   10.7424   13.2121 O   0  0  0  0  0  0  0  0  0  0  0  0
    4.7838   10.6535   13.5669 C   0  0  2  0  0  0  0  0  0  0  0  0
    5.3412   11.7862   17.7351 C   0  0  2  0  0  0  0  0  0  0  0  0
    5.1841   11.5336   16.3479 O   0  0  0  0  0  0  0  0  0  0  0  0
    4.6752    6.6248   16.7189 C   0  0  2  0  0  0  0  0  0  0  0  0
    4.2480    6.2892   18.0400 O   0  0  0  0  0  0  0  0  0  0  0  0
    1.2724    3.6869   18.4008 C   0  0  2  0  0  0  0  0  0  0  0  0
   -0.1016    4.1001   18.3235 O   0  0  0  0  0  0  0  0  0  0  0  0
    7.9305   11.3124   12.5269 C   0  0  2  0  0  0  0  0  0  0  0  0
    6.8979   10.8435   11.6133 O   0  0  0  0  0  0  0  0  0  0  0  0
    5.4497   12.0655   13.5061 C   0  0  2  0  0  0  0  0  0  0  0  0
    6.5220   12.1401   14.4864 O   0  0  0  0  0  0  0  0  0  0  0  0
    4.9032   13.2181   18.0413 C   0  0  0  0  0  0  0  0  0  0  0  0
    5.5856   13.6333   19.2335 O   0  0  0  0  0  0  0  0  0  0  0  0
    6.1838    6.7586   16.7999 C   0  0  1  0  0  0  0  0  0  0  0  0
    6.9929    7.8429   17.3042 O   0  0  0  0  0  0  0  0  0  0  0  0
    1.9744    4.0823   19.6952 C   0  0  2  0  0  0  0  0  0  0  0  0
    3.3960    4.2784   19.7435 O   0  0  0  0  0  0  0  0  0  0  0  0
    8.2947   12.6820   12.0642 C   0  0  0  0  0  0  0  0  0  0  0  0
    8.8305   12.5610   10.7686 O   0  0  0  0  0  0  0  0  0  0  0  0
    4.3806   13.1944   13.6928 C   0  0  1  0  0  0  0  0  0  0  0  0
    5.0422   14.4604   13.4303 O   0  0  0  0  0  0  0  0  0  0  0  0
    6.9926    5.4304   16.9190 C   0  0  0  0  0  0  0  0  0  0  0  0
    7.9309    5.4155   18.0610 N   0  0  0  0  0  0  0  0  0  0  0  0
    1.4944    3.6338   21.0736 C   0  0  0  0  0  0  0  0  0  0  0  0
    1.8950    2.2590   21.3150 O   0  0  0  0  0  0  0  0  0  0  0  0
  1  2  1  1  0  0  0
  1  8  1  0  0  0  0
  1 36  1  0  0  0  0
  3  4  1  1  0  0  0
  3 10  1  0  0  0  0
  3 47  1  0  0  0  0
  5 11  1  0  0  0  0
  5 30  1  0  0  0  0
  5 38  1  6  0  0  0
  6 21  1  1  0  0  0
  6 42  1  0  0  0  0
  7 15  1  0  0  0  0
  7 44  1  0  0  0  0
  7 32  1  6  0  0  0
  8  9  1  1  0  0  0
  8 17  1  0  0  0  0
 11 12  1  6  0  0  0
 11 20  1  0  0  0  0
 13  6  1  0  0  0  0
 13 14  1  1  0  0  0
 15 16  1  1  0  0  0
 15 24  1  0  0  0  0
 17 26  1  0  0  0  0
 18 10  1  0  0  0  0
 18 19  1  1  0  0  0
 20 21  1  6  0  0  0
 20 29  1  0  0  0  0
 22 13  1  0  0  0  0
 22 23  1  6  0  0  0
 24 25  1  6  0  0  0
 24 33  1  0  0  0  0
 26 27  1  1  0  0  0
 26 35  1  0  0  0  0
 28  2  1  6  0  0  0
 28 18  1  0  0  0  0
 29 30  1  0  0  0  0
 29 39  1  6  0  0  0
 31 22  1  0  0  0  0
 31 32  1  1  0  0  0
 31 41  1  0  0  0  0
 33 34  1  1  0  0  0
 33 43  1  0  0  0  0
 35 36  1  0  0  0  0
 35 45  1  6  0  0  0
 37 28  1  0  0  0  0
 37 38  1  1  0  0  0
 39 40  1  0  0  0  0
 41 42  1  0  0  0  0
 41 49  1  1  0  0  0
 43 44  1  0  0  0  0
 43 51  1  1  0  0  0
 45 46  1  0  0  0  0
 47 37  1  0  0  0  0
 47 48  1  6  0  0  0
 49 50  1  0  0  0  0
 51 52  1  0  0  0  0
M  END
>  <CHROM.1>
169.71775482,-169.74892117,-86.77252128,-40.77536550,-53.87911856,63.12481056
-40.32718989,158.41581619,54.28432764,-29.12816065,-127.04709833,78.01264767
5.21429263,8.88603385,15.74250109,-0.72671562,-1.04896266,-2.97613836

>  <Name>
2esj_lig

>  <RI>
0

>  <Rbt.Current_Directory>
/home/itssahil/PROJECTS/Mol_Feturizer/New_Systems/rnas/2esj

>  <Rbt.Executable>
rbdock ($Id: //depot/dev/client3/rdock/2013.1/src/exe/rbdock.cxx#4 $)

>  <Rbt.Library>
libRbt.so (2013.1, Build901 2013/11/27)

>  <Rbt.Parameter_File>
/export/apps/rDock/src/rDock_2013.1_src/data/scripts/dock_solv.prm

>  <Rbt.Receptor>
prm/blind_docking_80.prm

>  <SCORE>
17.3433

>  <SCORE.INTER>
1.67634

>  <SCORE.INTER.CONST>
1

>  <SCORE.INTER.POLAR>
0

>  <SCORE.INTER.ROT>
12

>  <SCORE.INTER.SOLV>
23.0438

>  <SCORE.INTER.VDW>
-18.1637

>  <SCORE.INTER.norm>
0.0322373

>  <SCORE.INTRA>
10.3925

>  <SCORE.INTRA.DIHEDRAL>
-14.4362

>  <SCORE.INTRA.DIHEDRAL.0>
32.9766

>  <SCORE.INTRA.POLAR>
0

>  <SCORE.INTRA.POLAR.0>
0

>  <SCORE.INTRA.REPUL>
0.551312

>  <SCORE.INTRA.REPUL.0>
0

>  <SCORE.INTRA.SOLV>
2.07211

>  <SCORE.INTRA.SOLV.lig_0>
-114.358

>  <SCORE.INTRA.VDW>
13.818

>  <SCORE.INTRA.VDW.0>
-8.24257

>  <SCORE.INTRA.norm>
0.199857

>  <SCORE.RESTR>
5.27446

>  <SCORE.RESTR.CAVITY>
5.27446

>  <SCORE.RESTR.norm>
0.101432

>  <SCORE.SYSTEM>
0

>  <SCORE.SYSTEM.CONST>
0

>  <SCORE.SYSTEM.DIHEDRAL>
0

>  <SCORE.SYSTEM.SOLV>
0

>  <SCORE.SYSTEM.norm>
0

>  <SCORE.heavy>
52

>  <SCORE.norm>
0.333526

>  <RMSD>
23.731

$$$$
2esj_lig
 OpenBabel11021811423D
libRbt.so/2013.1/901 2013/11/27
 52 56  0  0  0  0  0  0  0  0999 V2000
    5.3647    9.6958   11.4909 C   0  0  2  0  0  0  0  0  0  0  0  0
    4.9771    9.7636   12.8765 O   0  0  0  0  0  0  0  0  0  0  0  0
    3.5867   13.8052   13.0169 C   0  0  2  0  0  0  0  0  0  0  0  0
    2.9930   15.0915   13.4172 N   0  0  0  0  0  0  0  0  0  0  0  0
    6.3612   11.0792   15.5424 C   0  0  1  0  0  0  0  0  0  0  0  0
    6.5655    8.8248   17.1194 C   0  0  1  0  0  0  0  0  0  0  0  0
    2.9856    5.3522   17.0448 C   0  0  1  0  0  0  0  0  0  0  0  0
    5.9869    8.2893   11.2465 C   0  0  2  0  0  0  0  0  0  0  0  0
    5.0714    7.2084   11.6109 N   0  0  0  0  0  0  0  0  0  0  0  0
    2.5207   12.6455   13.1433 C   0  0  0  0  0  0  0  0  0  0  0  0
    7.5938   11.1420   16.4452 C   0  0  2  0  0  0  0  0  0  0  0  0
    8.5104   10.0529   16.2021 O   0  0  0  0  0  0  0  0  0  0  0  0
    5.0390    8.5506   16.7508 C   0  0  2  0  0  0  0  0  0  0  0  0
    4.2252    8.3274   17.9751 N   0  0  0  0  0  0  0  0  0  0  0  0
    2.4780    6.0435   18.3049 C   0  0  1  0  0  0  0  0  0  0  0  0
    1.1559    6.5636   18.0598 O   0  0  0  0  0  0  0  0  0  0  0  0
    7.3307    8.1313   12.0264 C   0  0  0  0  0  0  0  0  0  0  0  0
    3.1583   11.2835   12.6532 C   0  0  2  0  0  0  0  0  0  0  0  0
    2.1923   10.1866   12.7733 N   0  0  0  0  0  0  0  0  0  0  0  0
    6.9442   11.1106   17.7984 C   0  0  2  0  0  0  0  0  0  0  0  0
    6.5236    9.8071   18.1123 O   0  0  0  0  0  0  0  0  0  0  0  0
    4.9694    7.3798   15.6740 C   0  0  1  0  0  0  0  0  0  0  0  0
    5.8447    7.6981   14.5872 O   0  0  0  0  0  0  0  0  0  0  0  0
    2.4151    5.1655   19.5488 C   0  0  1  0  0  0  0  0  0  0  0  0
    1.7045    5.9011   20.5508 O   0  0  0  0  0  0  0  0  0  0  0  0
    8.2780    9.3054   11.6393 C   0  0  2  0  0  0  0  0  0  0  0  0
    9.5482    9.1819   12.2539 O   0  0  0  0  0  0  0  0  0  0  0  0
    4.4415   10.9643   13.4635 C   0  0  2  0  0  0  0  0  0  0  0  0
    5.6285   11.9029   17.6540 C   0  0  2  0  0  0  0  0  0  0  0  0
    5.2943   11.6740   16.2943 O   0  0  0  0  0  0  0  0  0  0  0  0
    5.5018    6.0126   16.2710 C   0  0  2  0  0  0  0  0  0  0  0  0
    4.5882    5.7098   17.3264 O   0  0  0  0  0  0  0  0  0  0  0  0
    1.7222    3.8210   19.3201 C   0  0  2  0  0  0  0  0  0  0  0  0
    2.0160    3.0010   20.4629 O   0  0  0  0  0  0  0  0  0  0  0  0
    7.5861   10.6371   12.0227 C   0  0  2  0  0  0  0  0  0  0  0  0
    6.3548   10.7231   11.2496 O   0  0  0  0  0  0  0  0  0  0  0  0
    5.4915   12.1211   13.4801 C   0  0  2  0  0  0  0  0  0  0  0  0
    6.6144   11.7463   14.3258 O   0  0  0  0  0  0  0  0  0  0  0  0
    5.7082   13.4077   17.9089 C   0  0  0  0  0  0  0  0  0  0  0  0
    4.3680   13.8865   18.0938 O   0  0  0  0  0  0  0  0  0  0  0  0
    6.8153    6.3463   16.9519 C   0  0  1  0  0  0  0  0  0  0  0  0
    7.2326    7.5567   17.6193 O   0  0  0  0  0  0  0  0  0  0  0  0
    2.1251    3.2041   17.9853 C   0  0  2  0  0  0  0  0  0  0  0  0
    2.4432    4.0236   16.8500 O   0  0  0  0  0  0  0  0  0  0  0  0
    8.3862   11.8393   11.6523 C   0  0  0  0  0  0  0  0  0  0  0  0
    9.3669   12.0158   12.6459 O   0  0  0  0  0  0  0  0  0  0  0  0
    4.8280   13.4698   13.9192 C   0  0  1  0  0  0  0  0  0  0  0  0
    5.8136   14.5180   13.7211 O   0  0  0  0  0  0  0  0  0  0  0  0
    7.6149    5.1449   17.5434 C   0  0  0  0  0  0  0  0  0  0  0  0
    7.7230    3.9989   16.6162 N   0  0  0  0  0  0  0  0  0  0  0  0
    1.5810    1.8670   17.4875 C   0  0  0  0  0  0  0  0  0  0  0  0
    1.9971    0.7995   18.3797 O   0  0  0  0  0  0  0  0  0  0  0  0
  1  2  1  1  0  0  0
  1  8  1  0  0  0  0
  1 36  1  0  0  0  0
  3  4  1  1  0  0  0
  3 10  1  0  0  0  0
  3 47  1  0  0  0  0
  5 11  1  0  0  0  0
  5 30  1  0  0  0  0
  5 38  1  6  0  0  0
  6 21  1  1  0  0  0
  6 42  1  0  0  0  0
  7 15  1  0  0  0  0
  7 44  1  0  0  0  0
  7 32  1  1  0  0  0
  8  9  1  1  0  0  0
  8 17  1  0  0  0  0
 11 12  1  1  0  0  0
 11 20  1  0  0  0  0
 13  6  1  0  0  0  0
 13 14  1  1  0  0  0
 15 16  1  6  0  0  0
 15 24  1  0  0  0  0
 17 26  1  0  0  0  0
 18 10  1  0  0  0  0
 18 19  1  1  0  0  0
 20 21  1  6  0  0  0
 20 29  1  0  0  0  0
 22 13  1  0  0  0  0
 22 23  1  6  0  0  0
 24 25  1  1  0  0  0
 24 33  1  0  0  0  0
 26 27  1  1  0  0  0
 26 35  1  0  0  0  0
 28  2  1  6  0  0  0
 28 18  1  0  0  0  0
 29 30  1  0  0  0  0
 29 39  1  6  0  0  0
 31 22  1  0  0  0  0
 31 32  1  1  0  0  0
 31 41  1  0  0  0  0
 33 34  1  1  0  0  0
 33 43  1  0  0  0  0
 35 36  1  0  0  0  0
 35 45  1  6  0  0  0
 37 28  1  0  0  0  0
 37 38  1  1  0  0  0
 39 40  1  0  0  0  0
 41 42  1  0  0  0  0
 41 49  1  1  0  0  0
 43 44  1  0  0  0  0
 43 51  1  6  0  0  0
 45 46  1  0  0  0  0
 47 37  1  0  0  0  0
 47 48  1  6  0  0  0
 49 50  1  0  0  0  0
 51 52  1  0  0  0  0
M  END
>  <CHROM.1>
176.00588088,-163.59045941,-108.63753773,-144.28192815,-9.42349072,59.70260977
-164.24058742,65.92672521,-80.40314739,-40.83622432,46.55046445,-63.54659781
5.11575961,8.79285277,15.55092741,-1.01526054,-0.90258833,3.02537209

>  <Name>
2esj_lig

>  <RI>
0

>  <Rbt.Current_Directory>
/home/itssahil/PROJECTS/Mol_Feturizer/New_Systems/rnas/2esj

>  <Rbt.Executable>
rbdock ($Id: //depot/dev/client3/rdock/2013.1/src/exe/rbdock.cxx#4 $)

>  <Rbt.Library>
libRbt.so (2013.1, Build901 2013/11/27)

>  <Rbt.Parameter_File>
/export/apps/rDock/src/rDock_2013.1_src/data/scripts/dock_solv.prm

>  <Rbt.Receptor>
prm/blind_docking_80.prm

>  <SCORE>
5.97673

>  <SCORE.INTER>
-3.61952

>  <SCORE.INTER.CONST>
1

>  <SCORE.INTER.POLAR>
0

>  <SCORE.INTER.ROT>
12

>  <SCORE.INTER.SOLV>
22.1555

>  <SCORE.INTER.VDW>
-21.3982

>  <SCORE.INTER.norm>
-0.0696061

>  <SCORE.INTRA>
6.7483

>  <SCORE.INTRA.DIHEDRAL>
-4.81024

>  <SCORE.INTRA.DIHEDRAL.0>
32.9766

>  <SCORE.INTRA.POLAR>
0

>  <SCORE.INTRA.POLAR.0>
0

>  <SCORE.INTRA.REPUL>
0

>  <SCORE.INTRA.REPUL.0>
0

>  <SCORE.INTRA.SOLV>
2.16332

>  <SCORE.INTRA.SOLV.lig_0>
-114.358

>  <SCORE.INTRA.VDW>
8.07176

>  <SCORE.INTRA.VDW.0>
-8.24257

>  <SCORE.INTRA.norm>
0.129775

>  <SCORE.RESTR>
2.84795

>  <SCORE.RESTR.CAVITY>
2.84795

>  <SCORE.RESTR.norm>
0.0547682

>  <SCORE.SYSTEM>
0

>  <SCORE.SYSTEM.CONST>
0

>  <SCORE.SYSTEM.DIHEDRAL>
0

>  <SCORE.SYSTEM.SOLV>
0

>  <SCORE.SYSTEM.norm>
0

>  <SCORE.heavy>
52

>  <SCORE.norm>
0.114937

>  <RMSD>
23.747

$$$$
2esj_lig
 OpenBabel11021811423D
libRbt.so/2013.1/901 2013/11/27
 52 56  0  0  0  0  0  0  0  0999 V2000
    5.1980   10.0205   11.5946 C   0  0  2  0  0  0  0  0  0  0  0  0
    4.8929   10.1657   12.9948 O   0  0  0  0  0  0  0  0  0  0  0  0
    3.7095   14.2750   13.0326 C   0  0  2  0  0  0  0  0  0  0  0  0
    3.1688   15.5956   13.3943 N   0  0  0  0  0  0  0  0  0  0  0  0
    6.4829   10.8267   15.1158 C   0  0  1  0  0  0  0  0  0  0  0  0
    6.8004    7.3125   17.3817 C   0  0  1  0  0  0  0  0  0  0  0  0
    3.2557    3.4737   16.7271 C   0  0  1  0  0  0  0  0  0  0  0  0
    5.6847    8.5583   11.3703 C   0  0  2  0  0  0  0  0  0  0  0  0
    4.7019    7.5729   11.8199 N   0  0  0  0  0  0  0  0  0  0  0  0
    2.5809   13.1734   13.1329 C   0  0  0  0  0  0  0  0  0  0  0  0
    7.8389   10.4297   15.7007 C   0  0  2  0  0  0  0  0  0  0  0  0
    8.6656    9.7277   14.7472 O   0  0  0  0  0  0  0  0  0  0  0  0
    6.6690    5.9730   16.5275 C   0  0  2  0  0  0  0  0  0  0  0  0
    5.6843    6.1364   15.4254 N   0  0  0  0  0  0  0  0  0  0  0  0
    1.8826    4.1207   16.5868 C   0  0  1  0  0  0  0  0  0  0  0  0
    1.1387    3.4350   15.5598 O   0  0  0  0  0  0  0  0  0  0  0  0
    7.0504    8.3096   12.0858 C   0  0  0  0  0  0  0  0  0  0  0  0
    3.1648   11.7736   12.6842 C   0  0  2  0  0  0  0  0  0  0  0  0
    2.1395   10.7295   12.7812 N   0  0  0  0  0  0  0  0  0  0  0  0
    7.3996    9.5944   16.8684 C   0  0  2  0  0  0  0  0  0  0  0  0
    6.9809    8.3248   16.4355 O   0  0  0  0  0  0  0  0  0  0  0  0
    6.3792    4.7572   17.5138 C   0  0  1  0  0  0  0  0  0  0  0  0
    7.3624    4.7610   18.5541 O   0  0  0  0  0  0  0  0  0  0  0  0
    1.0356    4.1316   17.8536 C   0  0  1  0  0  0  0  0  0  0  0  0
   -0.2811    4.5513   17.4790 O   0  0  0  0  0  0  0  0  0  0  0  0
    8.0716    9.3843   11.6084 C   0  0  2  0  0  0  0  0  0  0  0  0
    9.3579    9.1709   12.1615 O   0  0  0  0  0  0  0  0  0  0  0  0
    4.3988   11.4006   13.5462 C   0  0  2  0  0  0  0  0  0  0  0  0
    6.1088   10.2530   17.3973 C   0  0  2  0  0  0  0  0  0  0  0  0
    5.5652   10.8248   16.2181 O   0  0  0  0  0  0  0  0  0  0  0  0
    4.9813    4.9222   18.2404 C   0  0  2  0  0  0  0  0  0  0  0  0
    4.0261    4.8799   17.1792 O   0  0  0  0  0  0  0  0  0  0  0  0
    0.9549    2.7735   18.5531 C   0  0  2  0  0  0  0  0  0  0  0  0
    0.4054    3.0096   19.8596 O   0  0  0  0  0  0  0  0  0  0  0  0
    7.5167   10.7824   11.9777 C   0  0  2  0  0  0  0  0  0  0  0  0
    6.2573   10.9499   11.2659 O   0  0  0  0  0  0  0  0  0  0  0  0
    5.5060   12.5021   13.5882 C   0  0  2  0  0  0  0  0  0  0  0  0
    6.5758   12.0824   14.4803 O   0  0  0  0  0  0  0  0  0  0  0  0
    6.2842   11.3433   18.4538 C   0  0  0  0  0  0  0  0  0  0  0  0
    7.0086   12.4225   17.8452 O   0  0  0  0  0  0  0  0  0  0  0  0
    4.9537    6.3478   18.7573 C   0  0  1  0  0  0  0  0  0  0  0  0
    5.5515    7.5437   18.2123 O   0  0  0  0  0  0  0  0  0  0  0  0
    2.3057    2.0665   18.5592 C   0  0  2  0  0  0  0  0  0  0  0  0
    3.2443    2.2407   17.4866 O   0  0  0  0  0  0  0  0  0  0  0  0
    8.3946   11.8984   11.5236 C   0  0  0  0  0  0  0  0  0  0  0  0
    7.8006   13.1017   11.9470 O   0  0  0  0  0  0  0  0  0  0  0  0
    4.8974   13.8893   13.9852 C   0  0  1  0  0  0  0  0  0  0  0  0
    5.9427   14.8826   13.8116 O   0  0  0  0  0  0  0  0  0  0  0  0
    3.7144    6.7510   19.6142 C   0  0  0  0  0  0  0  0  0  0  0  0
    2.9031    7.8249   19.0031 N   0  0  0  0  0  0  0  0  0  0  0  0
    2.5218    0.6885   19.1805 C   0  0  0  0  0  0  0  0  0  0  0  0
    2.1700    0.7191   20.5890 O   0  0  0  0  0  0  0  0  0  0  0  0
  1  2  1  1  0  0  0
  1  8  1  0  0  0  0
  1 36  1  0  0  0  0
  3  4  1  1  0  0  0
  3 10  1  0  0  0  0
  3 47  1  0  0  0  0
  5 11  1  0  0  0  0
  5 30  1  0  0  0  0
  5 38  1  1  0  0  0
  6 21  1  6  0  0  0
  6 42  1  0  0  0  0
  7 15  1  0  0  0  0
  7 44  1  0  0  0  0
  7 32  1  1  0  0  0
  8  9  1  1  0  0  0
  8 17  1  0  0  0  0
 11 12  1  6  0  0  0
 11 20  1  0  0  0  0
 13  6  1  0  0  0  0
 13 14  1  6  0  0  0
 15 16  1  6  0  0  0
 15 24  1  0  0  0  0
 17 26  1  0  0  0  0
 18 10  1  0  0  0  0
 18 19  1  1  0  0  0
 20 21  1  6  0  0  0
 20 29  1  0  0  0  0
 22 13  1  0  0  0  0
 22 23  1  1  0  0  0
 24 25  1  6  0  0  0
 24 33  1  0  0  0  0
 26 27  1  1  0  0  0
 26 35  1  0  0  0  0
 28  2  1  6  0  0  0
 28 18  1  0  0  0  0
 29 30  1  0  0  0  0
 29 39  1  1  0  0  0
 31 22  1  0  0  0  0
 31 32  1  6  0  0  0
 31 41  1  0  0  0  0
 33 34  1  1  0  0  0
 33 43  1  0  0  0  0
 35 36  1  0  0  0  0
 35 45  1  6  0  0  0
 37 28  1  0  0  0  0
 37 38  1  1  0  0  0
 39 40  1  0  0  0  0
 41 42  1  0  0  0  0
 41 49  1  6  0  0  0
 43 44  1  0  0  0  0
 43 51  1  6  0  0  0
 45 46  1  0  0  0  0
 47 37  1  0  0  0  0
 47 48  1  6  0  0  0
 49 50  1  0  0  0  0
 51 52  1  0  0  0  0
M  END
>  <CHROM.1>
-179.30862141,165.34700308,-167.20396327,136.82459505,166.80575407,53.19462182
63.49937217,94.45975218,-178.53139029,1.01920222,-117.17660801,-58.91114234
4.95033648,8.29891645,15.56837769,1.24631935,-0.09654765,-0.56944093

>  <Name>
2esj_lig

>  <RI>
0

>  <Rbt.Current_Directory>
/home/itssahil/PROJECTS/Mol_Feturizer/New_Systems/rnas/2esj

>  <Rbt.Executable>
rbdock ($Id: //depot/dev/client3/rdock/2013.1/src/exe/rbdock.cxx#4 $)

>  <Rbt.Library>
libRbt.so (2013.1, Build901 2013/11/27)

>  <Rbt.Parameter_File>
/export/apps/rDock/src/rDock_2013.1_src/data/scripts/dock_solv.prm

>  <Rbt.Receptor>
prm/blind_docking_80.prm

>  <SCORE>
-0.922638

>  <SCORE.INTER>
-6.86099

>  <SCORE.INTER.CONST>
1

>  <SCORE.INTER.POLAR>
0

>  <SCORE.INTER.ROT>
12

>  <SCORE.INTER.SOLV>
18.2982

>  <SCORE.INTER.VDW>
-22.2734

>  <SCORE.INTER.norm>
-0.131942

>  <SCORE.INTRA>
-1.22172

>  <SCORE.INTRA.DIHEDRAL>
-7.75084

>  <SCORE.INTRA.DIHEDRAL.0>
32.9766

>  <SCORE.INTRA.POLAR>
0

>  <SCORE.INTRA.POLAR.0>
0

>  <SCORE.INTRA.REPUL>
0

>  <SCORE.INTRA.REPUL.0>
0

>  <SCORE.INTRA.SOLV>
0.26922

>  <SCORE.INTRA.SOLV.lig_0>
-114.358

>  <SCORE.INTRA.VDW>
2.51909

>  <SCORE.INTRA.VDW.0>
-8.24257

>  <SCORE.INTRA.norm>
-0.0234946

>  <SCORE.RESTR>
7.16008

>  <SCORE.RESTR.CAVITY>
7.16008

>  <SCORE.RESTR.norm>
0.137694

>  <SCORE.SYSTEM>
0

>  <SCORE.SYSTEM.CONST>
0

>  <SCORE.SYSTEM.DIHEDRAL>
0

>  <SCORE.SYSTEM.SOLV>
0

>  <SCORE.SYSTEM.norm>
0

>  <SCORE.heavy>
52

>  <SCORE.norm>
-0.017743

>  <RMSD>
23.749

$$$$
2esj_lig
 OpenBabel11021811423D
libRbt.so/2013.1/901 2013/11/27
 52 56  0  0  0  0  0  0  0  0999 V2000
    4.7328    6.4598   16.6250 C   0  0  2  0  0  0  0  0  0  0  0  0
    4.9448    7.6917   15.9093 O   0  0  0  0  0  0  0  0  0  0  0  0
    8.8698    8.6478   17.3121 C   0  0  2  0  0  0  0  0  0  0  0  0
   10.1984    9.2466   17.5212 N   0  0  0  0  0  0  0  0  0  0  0  0
    5.1656   11.1671   16.9587 C   0  0  1  0  0  0  0  0  0  0  0  0
    5.4045   14.5196   14.8203 C   0  0  1  0  0  0  0  0  0  0  0  0
    4.0062   12.4956   10.4341 C   0  0  1  0  0  0  0  0  0  0  0  0
    3.2856    5.9783   16.3109 C   0  0  2  0  0  0  0  0  0  0  0  0
    3.0536    5.8224   14.8753 N   0  0  0  0  0  0  0  0  0  0  0  0
    8.7079    8.1813   15.8109 C   0  0  0  0  0  0  0  0  0  0  0  0
    5.4047   12.3962   17.8365 C   0  0  2  0  0  0  0  0  0  0  0  0
    4.1888   12.8837   18.4442 O   0  0  0  0  0  0  0  0  0  0  0  0
    4.0411   15.0274   14.1687 C   0  0  2  0  0  0  0  0  0  0  0  0
    3.0363   13.9329   14.1104 N   0  0  0  0  0  0  0  0  0  0  0  0
    2.5702   12.0249   10.6339 C   0  0  1  0  0  0  0  0  0  0  0  0
    2.0779   11.4688    9.3983 O   0  0  0  0  0  0  0  0  0  0  0  0
    2.2292    6.9570   16.9154 C   0  0  0  0  0  0  0  0  0  0  0  0
    7.2992    7.4880   15.6202 C   0  0  2  0  0  0  0  0  0  0  0  0
    7.1179    7.0571   14.2301 N   0  0  0  0  0  0  0  0  0  0  0  0
    6.0122   13.3346   16.8343 C   0  0  2  0  0  0  0  0  0  0  0  0
    5.0195   13.8689   15.9956 O   0  0  0  0  0  0  0  0  0  0  0  0
    4.3625   15.7207   12.7719 C   0  0  1  0  0  0  0  0  0  0  0  0
    5.3852   16.7029   12.9673 O   0  0  0  0  0  0  0  0  0  0  0  0
    2.3726   10.9846   11.7298 C   0  0  1  0  0  0  0  0  0  0  0  0
    1.0319   10.4958   11.6128 O   0  0  0  0  0  0  0  0  0  0  0  0
    2.5115    7.1241   18.4379 C   0  0  2  0  0  0  0  0  0  0  0  0
    1.5407    7.9414   19.0669 O   0  0  0  0  0  0  0  0  0  0  0  0
    6.1599    8.4530   16.0395 C   0  0  2  0  0  0  0  0  0  0  0  0
    6.8624   12.4560   15.8938 C   0  0  2  0  0  0  0  0  0  0  0  0
    6.1597   11.2239   15.9263 O   0  0  0  0  0  0  0  0  0  0  0  0
    4.9547   14.6817   11.7331 C   0  0  2  0  0  0  0  0  0  0  0  0
    3.8991   13.7397   11.5369 O   0  0  0  0  0  0  0  0  0  0  0  0
    3.3493    9.8101   11.6483 C   0  0  2  0  0  0  0  0  0  0  0  0
    3.2513    9.0994   12.8933 O   0  0  0  0  0  0  0  0  0  0  0  0
    3.9392    7.6999   18.6089 C   0  0  2  0  0  0  0  0  0  0  0  0
    4.8670    6.7323   18.0398 O   0  0  0  0  0  0  0  0  0  0  0  0
    6.3217    9.0478   17.4752 C   0  0  2  0  0  0  0  0  0  0  0  0
    5.2457    9.9919   17.7344 O   0  0  0  0  0  0  0  0  0  0  0  0
    8.3144   12.2212   16.3088 C   0  0  0  0  0  0  0  0  0  0  0  0
    9.0155   11.7164   15.1628 O   0  0  0  0  0  0  0  0  0  0  0  0
    6.0395   13.9290   12.4792 C   0  0  1  0  0  0  0  0  0  0  0  0
    6.1325   13.5797   13.8770 O   0  0  0  0  0  0  0  0  0  0  0  0
    4.7586   10.2777   11.3023 C   0  0  2  0  0  0  0  0  0  0  0  0
    4.9807   11.4249   10.4678 O   0  0  0  0  0  0  0  0  0  0  0  0
    4.3384    7.8585   20.0365 C   0  0  0  0  0  0  0  0  0  0  0  0
    3.8795    9.1177   20.4654 O   0  0  0  0  0  0  0  0  0  0  0  0
    7.7409    9.6838   17.6583 C   0  0  1  0  0  0  0  0  0  0  0  0
    7.8775   10.0329   19.0614 O   0  0  0  0  0  0  0  0  0  0  0  0
    6.8675   12.9009   11.6482 C   0  0  0  0  0  0  0  0  0  0  0  0
    8.3221   12.9807   11.8980 N   0  0  0  0  0  0  0  0  0  0  0  0
    5.9384    9.3212   11.1445 C   0  0  0  0  0  0  0  0  0  0  0  0
    7.1537    9.9482   11.6332 O   0  0  0  0  0  0  0  0  0  0  0  0
  1  2  1  6  0  0  0
  1  8  1  0  0  0  0
  1 36  1  0  0  0  0
  3  4  1  6  0  0  0
  3 10  1  0  0  0  0
  3 47  1  0  0  0  0
  5 11  1  0  0  0  0
  5 30  1  0  0  0  0
  5 38  1  1  0  0  0
  6 21  1  1  0  0  0
  6 42  1  0  0  0  0
  7 15  1  0  0  0  0
  7 44  1  0  0  0  0
  7 32  1  1  0  0  0
  8  9  1  6  0  0  0
  8 17  1  0  0  0  0
 11 12  1  6  0  0  0
 11 20  1  0  0  0  0
 13  6  1  0  0  0  0
 13 14  1  6  0  0  0
 15 16  1  6  0  0  0
 15 24  1  0  0  0  0
 17 26  1  0  0  0  0
 18 10  1  0  0  0  0
 18 19  1  6  0  0  0
 20 21  1  6  0  0  0
 20 29  1  0  0  0  0
 22 13  1  0  0  0  0
 22 23  1  1  0  0  0
 24 25  1  6  0  0  0
 24 33  1  0  0  0  0
 26 27  1  6  0  0  0
 26 35  1  0  0  0  0
 28  2  1  1  0  0  0
 28 18  1  0  0  0  0
 29 30  1  0  0  0  0
 29 39  1  1  0  0  0
 31 22  1  0  0  0  0
 31 32  1  1  0  0  0
 31 41  1  0  0  0  0
 33 34  1  1  0  0  0
 33 43  1  0  0  0  0
 35 36  1  0  0  0  0
 35 45  1  1  0  0  0
 37 28  1  0  0  0  0
 37 38  1  6  0  0  0
 39 40  1  0  0  0  0
 41 42  1  0  0  0  0
 41 49  1  6  0  0  0
 43 44  1  0  0  0  0
 43 51  1  6  0  0  0
 45 46  1  0  0  0  0
 47 37  1  0  0  0  0
 47 48  1  1  0  0  0
 49 50  1  0  0  0  0
 51 52  1  0  0  0  0
M  END
>  <CHROM.1>
176.28166926,-114.54395694,-178.06358172,-174.34064098,-165.75882242,58.10547412
-164.40777705,175.66609038,-86.61383046,-64.40727443,135.24198463,-144.75847119
5.19623891,10.65514410,14.96548398,1.46639689,0.83635413,2.35247405

>  <Name>
2esj_lig

>  <RI>
0

>  <Rbt.Current_Directory>
/home/itssahil/PROJECTS/Mol_Feturizer/New_Systems/rnas/2esj

>  <Rbt.Executable>
rbdock ($Id: //depot/dev/client3/rdock/2013.1/src/exe/rbdock.cxx#4 $)

>  <Rbt.Library>
libRbt.so (2013.1, Build901 2013/11/27)

>  <Rbt.Parameter_File>
/export/apps/rDock/src/rDock_2013.1_src/data/scripts/dock_solv.prm

>  <Rbt.Receptor>
prm/blind_docking_80.prm

>  <SCORE>
3.78408

>  <SCORE.INTER>
-8.7601

>  <SCORE.INTER.CONST>
1

>  <SCORE.INTER.POLAR>
-0.973233

>  <SCORE.INTER.ROT>
12

>  <SCORE.INTER.SOLV>
30.3746

>  <SCORE.INTER.VDW>
-24.3208

>  <SCORE.INTER.norm>
-0.168463

>  <SCORE.INTRA>
5.1594

>  <SCORE.INTRA.DIHEDRAL>
-15.204

>  <SCORE.INTRA.DIHEDRAL.0>
32.9766

>  <SCORE.INTRA.POLAR>
0

>  <SCORE.INTRA.POLAR.0>
0

>  <SCORE.INTRA.REPUL>
0.757312

>  <SCORE.INTRA.REPUL.0>
0

>  <SCORE.INTRA.SOLV>
3.00447

>  <SCORE.INTRA.SOLV.lig_0>
-114.358

>  <SCORE.INTRA.VDW>
7.4726

>  <SCORE.INTRA.VDW.0>
-8.24257

>  <SCORE.INTRA.norm>
0.0992193

>  <SCORE.RESTR>
7.38477

>  <SCORE.RESTR.CAVITY>
7.38477

>  <SCORE.RESTR.norm>
0.142015

>  <SCORE.SYSTEM>
0

>  <SCORE.SYSTEM.CONST>
0

>  <SCORE.SYSTEM.DIHEDRAL>
0

>  <SCORE.SYSTEM.SOLV>
0

>  <SCORE.SYSTEM.norm>
0

>  <SCORE.heavy>
52

>  <SCORE.norm>
0.0727707

>  <RMSD>
23.766

$$$$
2esj_lig
 OpenBabel11021811423D
libRbt.so/2013.1/901 2013/11/27
 52 56  0  0  0  0  0  0  0  0999 V2000
    7.9491   11.8762   13.4570 C   0  0  2  0  0  0  0  0  0  0  0  0
    7.3586   11.9285   14.7698 O   0  0  0  0  0  0  0  0  0  0  0  0
    8.1446   14.8525   17.7897 C   0  0  2  0  0  0  0  0  0  0  0  0
    8.1845   16.0748   18.6092 N   0  0  0  0  0  0  0  0  0  0  0  0
    5.1394   10.9743   16.9337 C   0  0  1  0  0  0  0  0  0  0  0  0
    5.1184    7.0795   17.3091 C   0  0  1  0  0  0  0  0  0  0  0  0
    1.2017    4.7169   18.6163 C   0  0  1  0  0  0  0  0  0  0  0  0
    6.8400   12.2480   12.4291 C   0  0  2  0  0  0  0  0  0  0  0  0
    6.2428   13.5538   12.7075 N   0  0  0  0  0  0  0  0  0  0  0  0
    8.5996   15.1686   16.3097 C   0  0  0  0  0  0  0  0  0  0  0  0
    5.5235   10.3099   15.6110 C   0  0  2  0  0  0  0  0  0  0  0  0
    4.4147   10.2378   14.6887 O   0  0  0  0  0  0  0  0  0  0  0  0
    3.9986    6.0155   16.9151 C   0  0  2  0  0  0  0  0  0  0  0  0
    2.6584    6.6546   16.8357 N   0  0  0  0  0  0  0  0  0  0  0  0
    1.3392    3.5391   19.5741 C   0  0  1  0  0  0  0  0  0  0  0  0
    0.0556    2.9007   19.7270 O   0  0  0  0  0  0  0  0  0  0  0  0
    5.7267   11.1534   12.3901 C   0  0  0  0  0  0  0  0  0  0  0  0
    8.6072   13.8341   15.4608 C   0  0  2  0  0  0  0  0  0  0  0  0
    9.0136   14.1025   14.0775 N   0  0  0  0  0  0  0  0  0  0  0  0
    6.0031    8.9753   16.1039 C   0  0  2  0  0  0  0  0  0  0  0  0
    4.9135    8.1541   16.4396 O   0  0  0  0  0  0  0  0  0  0  0  0
    4.0939    4.7734   17.9067 C   0  0  1  0  0  0  0  0  0  0  0  0
    5.4456    4.3033   17.9308 O   0  0  0  0  0  0  0  0  0  0  0  0
    2.3472    2.4751   19.1571 C   0  0  1  0  0  0  0  0  0  0  0  0
    2.1692    1.3566   20.0332 O   0  0  0  0  0  0  0  0  0  0  0  0
    6.3897    9.7711   12.1158 C   0  0  2  0  0  0  0  0  0  0  0  0
    5.4263    8.7404   11.9907 O   0  0  0  0  0  0  0  0  0  0  0  0
    7.2088   13.1646   15.4928 C   0  0  2  0  0  0  0  0  0  0  0  0
    6.6956    9.2478   17.4551 C   0  0  2  0  0  0  0  0  0  0  0  0
    5.9800   10.3769   17.9306 O   0  0  0  0  0  0  0  0  0  0  0  0
    3.7570    5.1951   19.3960 C   0  0  2  0  0  0  0  0  0  0  0  0
    2.3959    5.6249   19.3407 O   0  0  0  0  0  0  0  0  0  0  0  0
    2.1918    2.0130   17.7072 C   0  0  2  0  0  0  0  0  0  0  0  0
    3.3758    1.2685   17.3778 O   0  0  0  0  0  0  0  0  0  0  0  0
    7.3946    9.4770   13.2571 C   0  0  2  0  0  0  0  0  0  0  0  0
    8.4068   10.5236   13.2227 O   0  0  0  0  0  0  0  0  0  0  0  0
    6.6440   12.9316   16.9307 C   0  0  2  0  0  0  0  0  0  0  0  0
    5.3040   12.3721   16.8421 O   0  0  0  0  0  0  0  0  0  0  0  0
    8.1865    9.5796   17.4016 C   0  0  0  0  0  0  0  0  0  0  0  0
    8.8425    8.5108   16.7039 O   0  0  0  0  0  0  0  0  0  0  0  0
    4.5697    6.4478   19.6613 C   0  0  1  0  0  0  0  0  0  0  0  0
    4.9709    7.5014   18.7593 O   0  0  0  0  0  0  0  0  0  0  0  0
    1.9079    3.1849   16.7741 C   0  0  2  0  0  0  0  0  0  0  0  0
    1.1691    4.3324   17.2205 O   0  0  0  0  0  0  0  0  0  0  0  0
    8.1284    8.1924   13.0733 C   0  0  0  0  0  0  0  0  0  0  0  0
    8.7454    8.2361   11.8094 O   0  0  0  0  0  0  0  0  0  0  0  0
    6.6928   14.2531   17.7695 C   0  0  1  0  0  0  0  0  0  0  0  0
    6.3386   13.9085   19.1352 O   0  0  0  0  0  0  0  0  0  0  0  0
    4.5036    7.0239   21.1093 C   0  0  0  0  0  0  0  0  0  0  0  0
    4.6446    8.4942   21.1625 N   0  0  0  0  0  0  0  0  0  0  0  0
    1.6968    3.0205   15.2708 C   0  0  0  0  0  0  0  0  0  0  0  0
    0.2808    2.8780   14.9816 O   0  0  0  0  0  0  0  0  0  0  0  0
  1  2  1  1  0  0  0
  1  8  1  0  0  0  0
  1 36  1  0  0  0  0
  3  4  1  1  0  0  0
  3 10  1  0  0  0  0
  3 47  1  0  0  0  0
  5 11  1  0  0  0  0
  5 30  1  0  0  0  0
  5 38  1  6  0  0  0
  6 21  1  6  0  0  0
  6 42  1  0  0  0  0
  7 15  1  0  0  0  0
  7 44  1  0  0  0  0
  7 32  1  6  0  0  0
  8  9  1  1  0  0  0
  8 17  1  0  0  0  0
 11 12  1  6  0  0  0
 11 20  1  0  0  0  0
 13  6  1  0  0  0  0
 13 14  1  1  0  0  0
 15 16  1  6  0  0  0
 15 24  1  0  0  0  0
 17 26  1  0  0  0  0
 18 10  1  0  0  0  0
 18 19  1  6  0  0  0
 20 21  1  1  0  0  0
 20 29  1  0  0  0  0
 22 13  1  0  0  0  0
 22 23  1  1  0  0  0
 24 25  1  1  0  0  0
 24 33  1  0  0  0  0
 26 27  1  1  0  0  0
 26 35  1  0  0  0  0
 28  2  1  1  0  0  0
 28 18  1  0  0  0  0
 29 30  1  0  0  0  0
 29 39  1  6  0  0  0
 31 22  1  0  0  0  0
 31 32  1  6  0  0  0
 31 41  1  0  0  0  0
 33 34  1  6  0  0  0
 33 43  1  0  0  0  0
 35 36  1  0  0  0  0
 35 45  1  6  0  0  0
 37 28  1  0  0  0  0
 37 38  1  6  0  0  0
 39 40  1  0  0  0  0
 41 42  1  0  0  0  0
 41 49  1  1  0  0  0
 43 44  1  0  0  0  0
 43 51  1  6  0  0  0
 45 46  1  0  0  0  0
 47 37  1  0  0  0  0
 47 48  1  1  0  0  0
 49 50  1  0  0  0  0
 51 52  1  0  0  0  0
M  END
>  <CHROM.1>
-82.34714479,-77.41705934,-152.72105218,62.58811109,-159.00421914,-50.94545328
-55.25988643,49.31100682,55.20479778,96.10643400,-148.72010135,93.03711996
5.22633265,8.47314799,16.56865593,-0.11166494,-1.07141858,-2.00973296

>  <Name>
2esj_lig

>  <RI>
0

>  <Rbt.Current_Directory>
/home/itssahil/PROJECTS/Mol_Feturizer/New_Systems/rnas/2esj

>  <Rbt.Executable>
rbdock ($Id: //depot/dev/client3/rdock/2013.1/src/exe/rbdock.cxx#4 $)

>  <Rbt.Library>
libRbt.so (2013.1, Build901 2013/11/27)

>  <Rbt.Parameter_File>
/export/apps/rDock/src/rDock_2013.1_src/data/scripts/dock_solv.prm

>  <Rbt.Receptor>
prm/blind_docking_80.prm

>  <SCORE>
30.3442

>  <SCORE.INTER>
20.7161

>  <SCORE.INTER.CONST>
1

>  <SCORE.INTER.POLAR>
0

>  <SCORE.INTER.ROT>
12

>  <SCORE.INTER.SOLV>
17.3399

>  <SCORE.INTER.VDW>
-3.56928

>  <SCORE.INTER.norm>
0.398386

>  <SCORE.INTRA>
2.79662

>  <SCORE.INTRA.DIHEDRAL>
-12.5822

>  <SCORE.INTRA.DIHEDRAL.0>
32.9766

>  <SCORE.INTRA.POLAR>
0

>  <SCORE.INTRA.POLAR.0>
0

>  <SCORE.INTRA.REPUL>
0

>  <SCORE.INTRA.REPUL.0>
0

>  <SCORE.INTRA.SOLV>
6.37231

>  <SCORE.INTRA.SOLV.lig_0>
-114.358

>  <SCORE.INTRA.VDW>
5.90155

>  <SCORE.INTRA.VDW.0>
-8.24257

>  <SCORE.INTRA.norm>
0.0537811

>  <SCORE.RESTR>
6.83155

>  <SCORE.RESTR.CAVITY>
6.83155

>  <SCORE.RESTR.norm>
0.131376

>  <SCORE.SYSTEM>
0

>  <SCORE.SYSTEM.CONST>
0

>  <SCORE.SYSTEM.DIHEDRAL>
0

>  <SCORE.SYSTEM.SOLV>
0

>  <SCORE.SYSTEM.norm>
0

>  <SCORE.heavy>
52

>  <SCORE.norm>
0.583543

>  <RMSD>
23.780

$$$$
2esj_lig
 OpenBabel11021811423D
libRbt.so/2013.1/901 2013/11/27
 52 56  0  0  0  0  0  0  0  0999 V2000
    5.6413    7.7159   13.3694 C   0  0  2  0  0  0  0  0  0  0  0  0
    5.7879    8.9221   12.5958 O   0  0  0  0  0  0  0  0  0  0  0  0
    2.8898   11.1060   10.3331 C   0  0  2  0  0  0  0  0  0  0  0  0
    1.7480   11.9301    9.9037 N   0  0  0  0  0  0  0  0  0  0  0  0
    6.0388   11.6841   13.8317 C   0  0  1  0  0  0  0  0  0  0  0  0
    6.5205   11.6672   18.0096 C   0  0  1  0  0  0  0  0  0  0  0  0
    3.8014    8.3815   20.5577 C   0  0  1  0  0  0  0  0  0  0  0  0
    5.3418    8.1350   14.8389 C   0  0  2  0  0  0  0  0  0  0  0  0
    4.1629    8.9948   14.9398 N   0  0  0  0  0  0  0  0  0  0  0  0
    2.3898    9.8871   11.2059 C   0  0  0  0  0  0  0  0  0  0  0  0
    7.3722   12.1055   14.4505 C   0  0  2  0  0  0  0  0  0  0  0  0
    8.3290   11.0244   14.4858 O   0  0  0  0  0  0  0  0  0  0  0  0
    7.3003   10.4440   18.6707 C   0  0  2  0  0  0  0  0  0  0  0  0
    6.8700    9.1512   18.0753 N   0  0  0  0  0  0  0  0  0  0  0  0
    4.3145    6.9696   20.8161 C   0  0  1  0  0  0  0  0  0  0  0  0
    3.4319    6.3074   21.7440 O   0  0  0  0  0  0  0  0  0  0  0  0
    6.5752    8.8495   15.4770 C   0  0  0  0  0  0  0  0  0  0  0  0
    3.6226    8.9815   11.6077 C   0  0  2  0  0  0  0  0  0  0  0  0
    3.1868    7.8487   12.4309 N   0  0  0  0  0  0  0  0  0  0  0  0
    6.9128   12.5665   15.8035 C   0  0  2  0  0  0  0  0  0  0  0  0
    6.6389   11.4651   16.6319 O   0  0  0  0  0  0  0  0  0  0  0  0
    7.1589   10.5358   20.2539 C   0  0  1  0  0  0  0  0  0  0  0  0
    7.5450   11.8473   20.6777 O   0  0  0  0  0  0  0  0  0  0  0  0
    4.4450    6.0879   19.5800 C   0  0  1  0  0  0  0  0  0  0  0  0
    4.7041    4.7555   20.0357 O   0  0  0  0  0  0  0  0  0  0  0  0
    7.8206    7.9250   15.3363 C   0  0  2  0  0  0  0  0  0  0  0  0
    8.9623    8.4800   15.9646 O   0  0  0  0  0  0  0  0  0  0  0  0
    4.6867    9.8200   12.3624 C   0  0  2  0  0  0  0  0  0  0  0  0
    5.5328   13.2192   15.5815 C   0  0  2  0  0  0  0  0  0  0  0  0
    5.0392   12.4929   14.4672 O   0  0  0  0  0  0  0  0  0  0  0  0
    5.6524   10.3605   20.7112 C   0  0  2  0  0  0  0  0  0  0  0  0
    5.3131    9.0341   20.3040 O   0  0  0  0  0  0  0  0  0  0  0  0
    3.2011    6.0863   18.6897 C   0  0  2  0  0  0  0  0  0  0  0  0
    3.5822    5.4836   17.4422 O   0  0  0  0  0  0  0  0  0  0  0  0
    8.0681    7.6660   13.8294 C   0  0  2  0  0  0  0  0  0  0  0  0
    6.8900    6.9871   13.3079 O   0  0  0  0  0  0  0  0  0  0  0  0
    5.1393   11.1097   11.6056 C   0  0  2  0  0  0  0  0  0  0  0  0
    6.0759   11.8552   12.4323 O   0  0  0  0  0  0  0  0  0  0  0  0
    5.5303   14.7119   15.2537 C   0  0  0  0  0  0  0  0  0  0  0  0
    6.2855   14.8908   14.0465 O   0  0  0  0  0  0  0  0  0  0  0  0
    4.8430   11.2809   19.8178 C   0  0  1  0  0  0  0  0  0  0  0  0
    5.0676   11.6767   18.4476 O   0  0  0  0  0  0  0  0  0  0  0  0
    2.6075    7.4842   18.5555 C   0  0  2  0  0  0  0  0  0  0  0  0
    2.6949    8.4381   19.6252 O   0  0  0  0  0  0  0  0  0  0  0  0
    9.2151    6.7484   13.5747 C   0  0  0  0  0  0  0  0  0  0  0  0
    8.9239    5.5242   14.2045 O   0  0  0  0  0  0  0  0  0  0  0  0
    3.9012   11.9655   11.1731 C   0  0  1  0  0  0  0  0  0  0  0  0
    4.3930   13.0303   10.3167 O   0  0  0  0  0  0  0  0  0  0  0  0
    3.3175   11.3822   20.1267 C   0  0  0  0  0  0  0  0  0  0  0  0
    2.9571   12.5786   20.9161 N   0  0  0  0  0  0  0  0  0  0  0  0
    1.3552    7.7822   17.7343 C   0  0  0  0  0  0  0  0  0  0  0  0
    0.8657    6.5625   17.1164 O   0  0  0  0  0  0  0  0  0  0  0  0
  1  2  1  6  0  0  0
  1  8  1  0  0  0  0
  1 36  1  0  0  0  0
  3  4  1  1  0  0  0
  3 10  1  0  0  0  0
  3 47  1  0  0  0  0
  5 11  1  0  0  0  0
  5 30  1  0  0  0  0
  5 38  1  6  0  0  0
  6 21  1  6  0  0  0
  6 42  1  0  0  0  0
  7 15  1  0  0  0  0
  7 44  1  0  0  0  0
  7 32  1  6  0  0  0
  8  9  1  6  0  0  0
  8 17  1  0  0  0  0
 11 12  1  1  0  0  0
 11 20  1  0  0  0  0
 13  6  1  0  0  0  0
 13 14  1  6  0  0  0
 15 16  1  1  0  0  0
 15 24  1  0  0  0  0
 17 26  1  0  0  0  0
 18 10  1  0  0  0  0
 18 19  1  1  0  0  0
 20 21  1  1  0  0  0
 20 29  1  0  0  0  0
 22 13  1  0  0  0  0
 22 23  1  6  0  0  0
 24 25  1  1  0  0  0
 24 33  1  0  0  0  0
 26 27  1  6  0  0  0
 26 35  1  0  0  0  0
 28  2  1  6  0  0  0
 28 18  1  0  0  0  0
 29 30  1  0  0  0  0
 29 39  1  6  0  0  0
 31 22  1  0  0  0  0
 31 32  1  6  0  0  0
 31 41  1  0  0  0  0
 33 34  1  6  0  0  0
 33 43  1  0  0  0  0
 35 36  1  0  0  0  0
 35 45  1  1  0  0  0
 37 28  1  0  0  0  0
 37 38  1  1  0  0  0
 39 40  1  0  0  0  0
 41 42  1  0  0  0  0
 41 49  1  6  0  0  0
 43 44  1  0  0  0  0
 43 51  1  1  0  0  0
 45 46  1  0  0  0  0
 47 37  1  0  0  0  0
 47 48  1  6  0  0  0
 49 50  1  0  0  0  0
 51 52  1  0  0  0  0
M  END
>  <CHROM.1>
-66.51598032,158.78022979,-137.78998571,-144.76920460,164.35194350,-60.43626984
59.66049518,-179.41918281,59.86692094,-24.44588657,99.11566602,-0.87482068
5.21899853,9.63765863,16.03724244,1.20961631,-1.34601974,-1.57317725

>  <Name>
2esj_lig

>  <RI>
224

>  <Rbt.Current_Directory>
/home/itssahil/PROJECTS/Mol_Feturizer/New_Systems/rnas/2esj

>  <Rbt.Executable>
rbdock ($Id: //depot/dev/client3/rdock/2013.1/src/exe/rbdock.cxx#4 $)

>  <Rbt.Library>
libRbt.so (2013.1, Build901 2013/11/27)

>  <Rbt.Parameter_File>
/export/apps/rDock/src/rDock_2013.1_src/data/scripts/dock_solv.prm

>  <Rbt.Receptor>
prm/blind_docking_100.prm

>  <SCORE>
12.1897

>  <SCORE.INTER>
1.49116

>  <SCORE.INTER.CONST>
1

>  <SCORE.INTER.POLAR>
-0.69928

>  <SCORE.INTER.ROT>
12

>  <SCORE.INTER.SOLV>
25.6858

>  <SCORE.INTER.VDW>
-16.8369

>  <SCORE.INTER.norm>
0.0286762

>  <SCORE.INTRA>
4.26254

>  <SCORE.INTRA.DIHEDRAL>
-8.19794

>  <SCORE.INTRA.DIHEDRAL.0>
32.9766

>  <SCORE.INTRA.POLAR>
0

>  <SCORE.INTRA.POLAR.0>
0

>  <SCORE.INTRA.REPUL>
0

>  <SCORE.INTRA.REPUL.0>
0

>  <SCORE.INTRA.SOLV>
7.60475

>  <SCORE.INTRA.SOLV.lig_0>
-114.358

>  <SCORE.INTRA.VDW>
4.55914

>  <SCORE.INTRA.VDW.0>
-8.24257

>  <SCORE.INTRA.norm>
0.0819719

>  <SCORE.RESTR>
6.43601

>  <SCORE.RESTR.CAVITY>
6.43601

>  <SCORE.RESTR.norm>
0.123769

>  <SCORE.SYSTEM>
0

>  <SCORE.SYSTEM.CONST>
0

>  <SCORE.SYSTEM.DIHEDRAL>
0

>  <SCORE.SYSTEM.SOLV>
0

>  <SCORE.SYSTEM.norm>
0

>  <SCORE.heavy>
52

>  <SCORE.norm>
0.234417

>  <RMSD>
23.786

$$$$
2esj_lig
 OpenBabel11021811423D
libRbt.so/2013.1/901 2013/11/27
 52 56  0  0  0  0  0  0  0  0999 V2000
    5.9424    9.2169   11.9326 C   0  0  2  0  0  0  0  0  0  0  0  0
    5.4534    9.4305   13.2705 O   0  0  0  0  0  0  0  0  0  0  0  0
    3.4806   13.1819   12.7019 C   0  0  2  0  0  0  0  0  0  0  0  0
    2.6663   14.3983   12.8588 N   0  0  0  0  0  0  0  0  0  0  0  0
    6.3434   11.2734   15.8184 C   0  0  1  0  0  0  0  0  0  0  0  0
    6.0473    9.3599   17.5829 C   0  0  1  0  0  0  0  0  0  0  0  0
    3.5949    5.8657   19.3688 C   0  0  1  0  0  0  0  0  0  0  0  0
    7.0153    8.0902   12.0002 C   0  0  2  0  0  0  0  0  0  0  0  0
    6.4897    6.8604   12.5922 N   0  0  0  0  0  0  0  0  0  0  0  0
    2.5881   11.8937   12.9053 C   0  0  0  0  0  0  0  0  0  0  0  0
    7.5032   11.5485   16.7764 C   0  0  2  0  0  0  0  0  0  0  0  0
    8.5225   10.5274   16.7145 O   0  0  0  0  0  0  0  0  0  0  0  0
    4.6477    8.8128   18.1150 C   0  0  2  0  0  0  0  0  0  0  0  0
    4.7307    8.4410   19.5523 N   0  0  0  0  0  0  0  0  0  0  0  0
    3.5482    4.3428   19.4137 C   0  0  1  0  0  0  0  0  0  0  0  0
    2.8765    3.9249   20.6189 O   0  0  0  0  0  0  0  0  0  0  0  0
    8.2732    8.5654   12.7945 C   0  0  0  0  0  0  0  0  0  0  0  0
    3.4662   10.5985   12.6747 C   0  0  2  0  0  0  0  0  0  0  0  0
    2.6635    9.3869   12.8711 N   0  0  0  0  0  0  0  0  0  0  0  0
    6.7694   11.6084   18.0849 C   0  0  2  0  0  0  0  0  0  0  0  0
    6.4401   10.3150   18.5242 O   0  0  0  0  0  0  0  0  0  0  0  0
    4.1448    7.6523   17.1479 C   0  0  1  0  0  0  0  0  0  0  0  0
    4.1764    8.1285   15.7984 O   0  0  0  0  0  0  0  0  0  0  0  0
    2.8521    3.6777   18.2324 C   0  0  1  0  0  0  0  0  0  0  0  0
    2.6960    2.2921   18.5582 O   0  0  0  0  0  0  0  0  0  0  0  0
    8.7993    9.8869   12.1599 C   0  0  2  0  0  0  0  0  0  0  0  0
    9.9886   10.3345   12.7854 O   0  0  0  0  0  0  0  0  0  0  0  0
    4.6889   10.5969   13.6286 C   0  0  2  0  0  0  0  0  0  0  0  0
    5.4042   12.2562   17.7746 C   0  0  2  0  0  0  0  0  0  0  0  0
    5.1823   11.8481   16.4340 O   0  0  0  0  0  0  0  0  0  0  0  0
    5.1183    6.4034   17.1879 C   0  0  2  0  0  0  0  0  0  0  0  0
    5.0355    5.9357   18.5350 O   0  0  0  0  0  0  0  0  0  0  0  0
    1.4841    4.2786   17.9048 C   0  0  2  0  0  0  0  0  0  0  0  0
    1.1070    3.7766   16.6123 O   0  0  0  0  0  0  0  0  0  0  0  0
    7.6756   10.9496   12.2443 C   0  0  2  0  0  0  0  0  0  0  0  0
    6.5471   10.4483   11.4723 O   0  0  0  0  0  0  0  0  0  0  0  0
    5.5510   11.8984   13.5654 C   0  0  2  0  0  0  0  0  0  0  0  0
    6.6203   11.8215   14.5488 O   0  0  0  0  0  0  0  0  0  0  0  0
    5.3396   13.7810   17.8563 C   0  0  0  0  0  0  0  0  0  0  0  0
    5.9467   14.1735   19.0961 O   0  0  0  0  0  0  0  0  0  0  0  0
    6.5175    6.9692   17.0380 C   0  0  1  0  0  0  0  0  0  0  0  0
    7.0587    8.2334   17.4781 O   0  0  0  0  0  0  0  0  0  0  0  0
    1.5027    5.7998   18.0058 C   0  0  2  0  0  0  0  0  0  0  0  0
    2.3504    6.4749   18.9478 O   0  0  0  0  0  0  0  0  0  0  0  0
    8.0528   12.2498   11.6201 C   0  0  0  0  0  0  0  0  0  0  0  0
    9.1994   12.7207   12.2863 O   0  0  0  0  0  0  0  0  0  0  0  0
    4.6547   13.1698   13.7454 C   0  0  1  0  0  0  0  0  0  0  0  0
    5.4921   14.3266   13.4809 O   0  0  0  0  0  0  0  0  0  0  0  0
    7.6784    5.9322   16.9404 C   0  0  0  0  0  0  0  0  0  0  0  0
    7.4473    4.7155   17.7473 N   0  0  0  0  0  0  0  0  0  0  0  0
    0.2739    6.6673   17.7429 C   0  0  0  0  0  0  0  0  0  0  0  0
    0.6556    7.8558   17.0010 O   0  0  0  0  0  0  0  0  0  0  0  0
  1  2  1  1  0  0  0
  1  8  1  0  0  0  0
  1 36  1  0  0  0  0
  3  4  1  1  0  0  0
  3 10  1  0  0  0  0
  3 47  1  0  0  0  0
  5 11  1  0  0  0  0
  5 30  1  0  0  0  0
  5 38  1  6  0  0  0
  6 21  1  1  0  0  0
  6 42  1  0  0  0  0
  7 15  1  0  0  0  0
  7 44  1  0  0  0  0
  7 32  1  6  0  0  0
  8  9  1  1  0  0  0
  8 17  1  0  0  0  0
 11 12  1  1  0  0  0
 11 20  1  0  0  0  0
 13  6  1  0  0  0  0
 13 14  1  1  0  0  0
 15 16  1  1  0  0  0
 15 24  1  0  0  0  0
 17 26  1  0  0  0  0
 18 10  1  0  0  0  0
 18 19  1  1  0  0  0
 20 21  1  6  0  0  0
 20 29  1  0  0  0  0
 22 13  1  0  0  0  0
 22 23  1  6  0  0  0
 24 25  1  1  0  0  0
 24 33  1  0  0  0  0
 26 27  1  1  0  0  0
 26 35  1  0  0  0  0
 28  2  1  6  0  0  0
 28 18  1  0  0  0  0
 29 30  1  0  0  0  0
 29 39  1  6  0  0  0
 31 22  1  0  0  0  0
 31 32  1  1  0  0  0
 31 41  1  0  0  0  0
 33 34  1  6  0  0  0
 33 43  1  0  0  0  0
 35 36  1  0  0  0  0
 35 45  1  6  0  0  0
 37 28  1  0  0  0  0
 37 38  1  1  0  0  0
 39 40  1  0  0  0  0
 41 42  1  0  0  0  0
 41 49  1  1  0  0  0
 43 44  1  0  0  0  0
 43 51  1  1  0  0  0
 45 46  1  0  0  0  0
 47 37  1  0  0  0  0
 47 48  1  6  0  0  0
 49 50  1  0  0  0  0
 51 52  1  0  0  0  0
M  END
>  <CHROM.1>
165.24329862,-168.38987881,-126.40019055,111.77456081,-37.89070244,56.96511068
-48.33342621,40.98079814,-58.90854725,-40.10582487,-33.97817354,-139.58028710
5.16893568,9.09356724,15.80503861,-0.86961425,-0.94956887,3.11126402

>  <Name>
2esj_lig

>  <RI>
0

>  <Rbt.Current_Directory>
/home/itssahil/PROJECTS/Mol_Feturizer/New_Systems/rnas/2esj

>  <Rbt.Executable>
rbdock ($Id: //depot/dev/client3/rdock/2013.1/src/exe/rbdock.cxx#4 $)

>  <Rbt.Library>
libRbt.so (2013.1, Build901 2013/11/27)

>  <Rbt.Parameter_File>
/export/apps/rDock/src/rDock_2013.1_src/data/scripts/dock_solv.prm

>  <Rbt.Receptor>
prm/blind_docking_80.prm

>  <SCORE>
13.9809

>  <SCORE.INTER>
0.610471

>  <SCORE.INTER.CONST>
1

>  <SCORE.INTER.POLAR>
0

>  <SCORE.INTER.ROT>
12

>  <SCORE.INTER.SOLV>
23.9026

>  <SCORE.INTER.VDW>
-19.1606

>  <SCORE.INTER.norm>
0.0117398

>  <SCORE.INTRA>
11.8326

>  <SCORE.INTRA.DIHEDRAL>
-5.38221

>  <SCORE.INTRA.DIHEDRAL.0>
32.9766

>  <SCORE.INTRA.POLAR>
0

>  <SCORE.INTRA.POLAR.0>
0

>  <SCORE.INTRA.REPUL>
0.691958

>  <SCORE.INTRA.REPUL.0>
0

>  <SCORE.INTRA.SOLV>
2.16696

>  <SCORE.INTRA.SOLV.lig_0>
-114.358

>  <SCORE.INTRA.VDW>
9.98044

>  <SCORE.INTRA.VDW.0>
-8.24257

>  <SCORE.INTRA.norm>
0.22755

>  <SCORE.RESTR>
1.53783

>  <SCORE.RESTR.CAVITY>
1.53783

>  <SCORE.RESTR.norm>
0.0295737

>  <SCORE.SYSTEM>
0

>  <SCORE.SYSTEM.CONST>
0

>  <SCORE.SYSTEM.DIHEDRAL>
0

>  <SCORE.SYSTEM.SOLV>
0

>  <SCORE.SYSTEM.norm>
0

>  <SCORE.heavy>
52

>  <SCORE.norm>
0.268864

>  <RMSD>
23.803

$$$$
2esj_lig
 OpenBabel11021811423D
libRbt.so/2013.1/901 2013/11/27
 52 56  0  0  0  0  0  0  0  0999 V2000
    5.3822   11.6587   11.6457 C   0  0  2  0  0  0  0  0  0  0  0  0
    5.0849   12.8700   12.3664 O   0  0  0  0  0  0  0  0  0  0  0  0
    7.0968   14.7216   15.6545 C   0  0  2  0  0  0  0  0  0  0  0  0
    7.5670   15.1207   16.9913 N   0  0  0  0  0  0  0  0  0  0  0  0
    6.7812   10.4060   14.4765 C   0  0  1  0  0  0  0  0  0  0  0  0
    6.6793    7.3829   17.3767 C   0  0  1  0  0  0  0  0  0  0  0  0
    3.5554    4.0506   17.4890 C   0  0  1  0  0  0  0  0  0  0  0  0
    4.5716   11.6934   10.3165 C   0  0  2  0  0  0  0  0  0  0  0  0
    4.8622   12.8866    9.5221 N   0  0  0  0  0  0  0  0  0  0  0  0
    5.5283   14.8852   15.5527 C   0  0  0  0  0  0  0  0  0  0  0  0
    7.7478   10.1153   15.6253 C   0  0  2  0  0  0  0  0  0  0  0  0
    8.7245    9.1087   15.2816 O   0  0  0  0  0  0  0  0  0  0  0  0
    7.0629    6.1274   16.4724 C   0  0  2  0  0  0  0  0  0  0  0  0
    6.0158    5.8654   15.4498 N   0  0  0  0  0  0  0  0  0  0  0  0
    3.2184    4.1414   16.0052 C   0  0  1  0  0  0  0  0  0  0  0  0
    1.9494    3.4999   15.7676 O   0  0  0  0  0  0  0  0  0  0  0  0
    3.0378   11.6036   10.5966 C   0  0  0  0  0  0  0  0  0  0  0  0
    5.0495   14.5088   14.0930 C   0  0  2  0  0  0  0  0  0  0  0  0
    3.5935   14.6394   13.9757 N   0  0  0  0  0  0  0  0  0  0  0  0
    6.7824    9.6972   16.6965 C   0  0  2  0  0  0  0  0  0  0  0  0
    6.3316    8.3861   16.4683 O   0  0  0  0  0  0  0  0  0  0  0  0
    7.4026    4.8930   17.4190 C   0  0  1  0  0  0  0  0  0  0  0  0
    8.3718    5.3060   18.3879 O   0  0  0  0  0  0  0  0  0  0  0  0
    3.1445    5.5545   15.4395 C   0  0  1  0  0  0  0  0  0  0  0  0
    2.5932    5.4548   14.1218 O   0  0  0  0  0  0  0  0  0  0  0  0
    2.7577   10.3395   11.4623 C   0  0  2  0  0  0  0  0  0  0  0  0
    1.3721   10.1536   11.6900 O   0  0  0  0  0  0  0  0  0  0  0  0
    5.4933   13.0671   13.7330 C   0  0  2  0  0  0  0  0  0  0  0  0
    5.5237   10.5656   16.4934 C   0  0  2  0  0  0  0  0  0  0  0  0
    5.5452   10.7928   15.0931 O   0  0  0  0  0  0  0  0  0  0  0  0
    6.1332    4.4327   18.2473 C   0  0  2  0  0  0  0  0  0  0  0  0
    5.2038    3.9972   17.2538 O   0  0  0  0  0  0  0  0  0  0  0  0
    2.2903    6.5092   16.2755 C   0  0  2  0  0  0  0  0  0  0  0  0
    2.5692    7.8381   15.8054 O   0  0  0  0  0  0  0  0  0  0  0  0
    3.5410   10.4752   12.7916 C   0  0  2  0  0  0  0  0  0  0  0  0
    4.9566   10.5373   12.4551 O   0  0  0  0  0  0  0  0  0  0  0  0
    7.0205   12.8009   13.9270 C   0  0  2  0  0  0  0  0  0  0  0  0
    7.3118   11.4057   13.6350 O   0  0  0  0  0  0  0  0  0  0  0  0
    5.4976   11.9081   17.2233 C   0  0  0  0  0  0  0  0  0  0  0  0
    5.5343   11.6352   18.6318 O   0  0  0  0  0  0  0  0  0  0  0  0
    5.5419    5.7018   18.8304 C   0  0  1  0  0  0  0  0  0  0  0  0
    5.5244    7.0451   18.3015 O   0  0  0  0  0  0  0  0  0  0  0  0
    2.5266    6.3096   17.7684 C   0  0  2  0  0  0  0  0  0  0  0  0
    2.8545    5.0192   18.3062 O   0  0  0  0  0  0  0  0  0  0  0  0
    3.3846    9.2925   13.6855 C   0  0  0  0  0  0  0  0  0  0  0  0
    3.9488    8.1861   13.0240 O   0  0  0  0  0  0  0  0  0  0  0  0
    7.4829   13.2275   15.3610 C   0  0  1  0  0  0  0  0  0  0  0  0
    8.9318   13.1320   15.3914 O   0  0  0  0  0  0  0  0  0  0  0  0
    4.3243    5.5231   19.7887 C   0  0  0  0  0  0  0  0  0  0  0  0
    4.6534    5.7725   21.2079 N   0  0  0  0  0  0  0  0  0  0  0  0
    1.8018    7.1181   18.8420 C   0  0  0  0  0  0  0  0  0  0  0  0
    1.0433    8.1923   18.2259 O   0  0  0  0  0  0  0  0  0  0  0  0
  1  2  1  1  0  0  0
  1  8  1  0  0  0  0
  1 36  1  0  0  0  0
  3  4  1  1  0  0  0
  3 10  1  0  0  0  0
  3 47  1  0  0  0  0
  5 11  1  0  0  0  0
  5 30  1  0  0  0  0
  5 38  1  6  0  0  0
  6 21  1  6  0  0  0
  6 42  1  0  0  0  0
  7 15  1  0  0  0  0
  7 44  1  0  0  0  0
  7 32  1  6  0  0  0
  8  9  1  1  0  0  0
  8 17  1  0  0  0  0
 11 12  1  6  0  0  0
 11 20  1  0  0  0  0
 13  6  1  0  0  0  0
 13 14  1  6  0  0  0
 15 16  1  1  0  0  0
 15 24  1  0  0  0  0
 17 26  1  0  0  0  0
 18 10  1  0  0  0  0
 18 19  1  1  0  0  0
 20 21  1  6  0  0  0
 20 29  1  0  0  0  0
 22 13  1  0  0  0  0
 22 23  1  1  0  0  0
 24 25  1  6  0  0  0
 24 33  1  0  0  0  0
 26 27  1  1  0  0  0
 26 35  1  0  0  0  0
 28  2  1  6  0  0  0
 28 18  1  0  0  0  0
 29 30  1  0  0  0  0
 29 39  1  1  0  0  0
 31 22  1  0  0  0  0
 31 32  1  6  0  0  0
 31 41  1  0  0  0  0
 33 34  1  6  0  0  0
 33 43  1  0  0  0  0
 35 36  1  0  0  0  0
 35 45  1  1  0  0  0
 37 28  1  0  0  0  0
 37 38  1  1  0  0  0
 39 40  1  0  0  0  0
 41 42  1  0  0  0  0
 41 49  1  6  0  0  0
 43 44  1  0  0  0  0
 43 51  1  1  0  0  0
 45 46  1  0  0  0  0
 47 37  1  0  0  0  0
 47 48  1  6  0  0  0
 49 50  1  0  0  0  0
 51 52  1  0  0  0  0
M  END
>  <CHROM.1>
169.69361473,-89.36053748,-137.71592331,154.29037900,114.05883770,176.95807364
-62.71360899,-152.43332128,63.82321660,-66.02806873,107.48909097,-8.31406823
5.00073688,9.11566214,15.51930784,1.36332166,-0.77923457,-0.65917536

>  <Name>
2esj_lig

>  <RI>
0

>  <Rbt.Current_Directory>
/home/itssahil/PROJECTS/Mol_Feturizer/New_Systems/rnas/2esj

>  <Rbt.Executable>
rbdock ($Id: //depot/dev/client3/rdock/2013.1/src/exe/rbdock.cxx#4 $)

>  <Rbt.Library>
libRbt.so (2013.1, Build901 2013/11/27)

>  <Rbt.Parameter_File>
/export/apps/rDock/src/rDock_2013.1_src/data/scripts/dock_solv.prm

>  <Rbt.Receptor>
prm/blind_docking_80.prm

>  <SCORE>
21.1552

>  <SCORE.INTER>
-3.79605

>  <SCORE.INTER.CONST>
1

>  <SCORE.INTER.POLAR>
0

>  <SCORE.INTER.ROT>
12

>  <SCORE.INTER.SOLV>
21.7574

>  <SCORE.INTER.VDW>
-21.3832

>  <SCORE.INTER.norm>
-0.0730009

>  <SCORE.INTRA>
19.2234

>  <SCORE.INTRA.DIHEDRAL>
-3.8268

>  <SCORE.INTRA.DIHEDRAL.0>
32.9766

>  <SCORE.INTRA.POLAR>
0

>  <SCORE.INTRA.POLAR.0>
0

>  <SCORE.INTRA.REPUL>
0

>  <SCORE.INTRA.REPUL.0>
0

>  <SCORE.INTRA.SOLV>
4.05481

>  <SCORE.INTRA.SOLV.lig_0>
-114.358

>  <SCORE.INTRA.VDW>
19.1094

>  <SCORE.INTRA.VDW.0>
-8.24257

>  <SCORE.INTRA.norm>
0.369681

>  <SCORE.RESTR>
5.72782

>  <SCORE.RESTR.CAVITY>
5.72782

>  <SCORE.RESTR.norm>
0.11015

>  <SCORE.SYSTEM>
0

>  <SCORE.SYSTEM.CONST>
0

>  <SCORE.SYSTEM.DIHEDRAL>
0

>  <SCORE.SYSTEM.SOLV>
0

>  <SCORE.SYSTEM.norm>
0

>  <SCORE.heavy>
52

>  <SCORE.norm>
0.406831

>  <RMSD>
23.838

$$$$
2esj_lig
 OpenBabel11021811423D
libRbt.so/2013.1/901 2013/11/27
 52 56  0  0  0  0  0  0  0  0999 V2000
    7.2781   12.5672   17.0937 C   0  0  2  0  0  0  0  0  0  0  0  0
    5.9627   12.3504   17.6392 O   0  0  0  0  0  0  0  0  0  0  0  0
    6.5487   12.9268   21.8360 C   0  0  2  0  0  0  0  0  0  0  0  0
    6.4257   12.9195   23.3030 N   0  0  0  0  0  0  0  0  0  0  0  0
    6.5173    9.8103   17.9660 C   0  0  1  0  0  0  0  0  0  0  0  0
    6.8899    8.9244   14.5706 C   0  0  1  0  0  0  0  0  0  0  0  0
    5.4633    9.9429   10.5092 C   0  0  1  0  0  0  0  0  0  0  0  0
    7.8225   13.8957   17.6968 C   0  0  2  0  0  0  0  0  0  0  0  0
    7.8345   13.8755   19.1592 N   0  0  0  0  0  0  0  0  0  0  0  0
    5.2390   13.5179   21.1781 C   0  0  0  0  0  0  0  0  0  0  0  0
    7.1519    8.5511   17.3743 C   0  0  2  0  0  0  0  0  0  0  0  0
    8.3096    8.8469   16.5633 O   0  0  0  0  0  0  0  0  0  0  0  0
    6.8886   10.4942   14.2934 C   0  0  2  0  0  0  0  0  0  0  0  0
    5.5382   10.9637   13.8847 N   0  0  0  0  0  0  0  0  0  0  0  0
    4.4606   11.0906   10.4771 C   0  0  1  0  0  0  0  0  0  0  0  0
    3.6991   11.0202    9.2550 O   0  0  0  0  0  0  0  0  0  0  0  0
    6.9935   15.1185   17.1904 C   0  0  0  0  0  0  0  0  0  0  0  0
    5.4131   13.5727   19.6070 C   0  0  2  0  0  0  0  0  0  0  0  0
    4.2043   14.1058   18.9702 N   0  0  0  0  0  0  0  0  0  0  0  0
    5.9884    7.9924   16.6073 C   0  0  2  0  0  0  0  0  0  0  0  0
    5.7965    8.7083   15.4135 O   0  0  0  0  0  0  0  0  0  0  0  0
    8.0590   10.8396   13.2707 C   0  0  1  0  0  0  0  0  0  0  0  0
    9.2807   10.2751   13.7580 O   0  0  0  0  0  0  0  0  0  0  0  0
    3.4786   11.1298   11.6418 C   0  0  1  0  0  0  0  0  0  0  0  0
    2.4840   12.1097   11.3241 O   0  0  0  0  0  0  0  0  0  0  0  0
    6.9763   15.1044   15.6331 C   0  0  2  0  0  0  0  0  0  0  0  0
    6.3039   16.2330   15.1036 O   0  0  0  0  0  0  0  0  0  0  0  0
    5.7405   12.1631   19.0495 C   0  0  2  0  0  0  0  0  0  0  0  0
    4.7345    8.3191   17.4443 C   0  0  2  0  0  0  0  0  0  0  0  0
    5.1182    9.5210   18.0933 O   0  0  0  0  0  0  0  0  0  0  0  0
    7.8080   10.1706   11.8570 C   0  0  2  0  0  0  0  0  0  0  0  0
    6.6044   10.7802   11.3879 O   0  0  0  0  0  0  0  0  0  0  0  0
    2.7979    9.7884   11.9198 C   0  0  2  0  0  0  0  0  0  0  0  0
    2.1637    9.9011   13.2042 O   0  0  0  0  0  0  0  0  0  0  0  0
    6.3239   13.7801   15.1645 C   0  0  2  0  0  0  0  0  0  0  0  0
    7.1550   12.6904   15.6572 O   0  0  0  0  0  0  0  0  0  0  0  0
    6.9565   11.4681   19.7418 C   0  0  2  0  0  0  0  0  0  0  0  0
    7.1264   10.1298   19.1973 O   0  0  0  0  0  0  0  0  0  0  0  0
    4.3278    7.2852   18.4937 C   0  0  0  0  0  0  0  0  0  0  0  0
    3.1128    7.7439   19.1045 O   0  0  0  0  0  0  0  0  0  0  0  0
    7.4478    8.7258   12.1452 C   0  0  1  0  0  0  0  0  0  0  0  0
    6.7530    8.1504   13.2724 O   0  0  0  0  0  0  0  0  0  0  0  0
    3.7805    8.6283   11.8051 C   0  0  2  0  0  0  0  0  0  0  0  0
    4.8816    8.6709   10.8844 O   0  0  0  0  0  0  0  0  0  0  0  0
    6.2965   13.6349   13.6810 C   0  0  0  0  0  0  0  0  0  0  0  0
    5.0056   13.9881   13.2463 O   0  0  0  0  0  0  0  0  0  0  0  0
    6.7874   11.4702   21.2986 C   0  0  1  0  0  0  0  0  0  0  0  0
    8.0343   10.9890   21.8669 O   0  0  0  0  0  0  0  0  0  0  0  0
    7.2481    7.8002   10.9058 C   0  0  0  0  0  0  0  0  0  0  0  0
    7.1555    6.3665   11.2534 N   0  0  0  0  0  0  0  0  0  0  0  0
    3.3779    7.1712   12.0204 C   0  0  0  0  0  0  0  0  0  0  0  0
    3.9732    6.3354   10.9929 O   0  0  0  0  0  0  0  0  0  0  0  0
  1  2  1  1  0  0  0
  1  8  1  0  0  0  0
  1 36  1  0  0  0  0
  3  4  1  1  0  0  0
  3 10  1  0  0  0  0
  3 47  1  0  0  0  0
  5 11  1  0  0  0  0
  5 30  1  0  0  0  0
  5 38  1  1  0  0  0
  6 21  1  1  0  0  0
  6 42  1  0  0  0  0
  7 15  1  0  0  0  0
  7 44  1  0  0  0  0
  7 32  1  1  0  0  0
  8  9  1  1  0  0  0
  8 17  1  0  0  0  0
 11 12  1  6  0  0  0
 11 20  1  0  0  0  0
 13  6  1  0  0  0  0
 13 14  1  6  0  0  0
 15 16  1  6  0  0  0
 15 24  1  0  0  0  0
 17 26  1  0  0  0  0
 18 10  1  0  0  0  0
 18 19  1  6  0  0  0
 20 21  1  6  0  0  0
 20 29  1  0  0  0  0
 22 13  1  0  0  0  0
 22 23  1  1  0  0  0
 24 25  1  6  0  0  0
 24 33  1  0  0  0  0
 26 27  1  1  0  0  0
 26 35  1  0  0  0  0
 28  2  1  6  0  0  0
 28 18  1  0  0  0  0
 29 30  1  0  0  0  0
 29 39  1  1  0  0  0
 31 22  1  0  0  0  0
 31 32  1  1  0  0  0
 31 41  1  0  0  0  0
 33 34  1  1  0  0  0
 33 43  1  0  0  0  0
 35 36  1  0  0  0  0
 35 45  1  6  0  0  0
 37 28  1  0  0  0  0
 37 38  1  6  0  0  0
 39 40  1  0  0  0  0
 41 42  1  0  0  0  0
 41 49  1  6  0  0  0
 43 44  1  0  0  0  0
 43 51  1  6  0  0  0
 45 46  1  0  0  0  0
 47 37  1  0  0  0  0
 47 48  1  1  0  0  0
 49 50  1  0  0  0  0
 51 52  1  0  0  0  0
M  END
>  <CHROM.1>
-62.39334896,162.63771140,-128.40691726,174.79306863,50.11885030,93.54995669
-177.07559961,-143.70560029,-99.68560661,17.94727073,169.01621446,136.26269681
5.89790307,10.79814576,15.44288928,-0.26294905,-1.40760084,-0.61496958

>  <Name>
2esj_lig

>  <RI>
224

>  <Rbt.Current_Directory>
/home/itssahil/PROJECTS/Mol_Feturizer/New_Systems/rnas/2esj

>  <Rbt.Executable>
rbdock ($Id: //depot/dev/client3/rdock/2013.1/src/exe/rbdock.cxx#4 $)

>  <Rbt.Library>
libRbt.so (2013.1, Build901 2013/11/27)

>  <Rbt.Parameter_File>
/export/apps/rDock/src/rDock_2013.1_src/data/scripts/dock_solv.prm

>  <Rbt.Receptor>
prm/blind_docking_100.prm

>  <SCORE>
23.398

>  <SCORE.INTER>
-6.31525

>  <SCORE.INTER.CONST>
1

>  <SCORE.INTER.POLAR>
-0.162818

>  <SCORE.INTER.ROT>
12

>  <SCORE.INTER.SOLV>
21.6288

>  <SCORE.INTER.VDW>
-22.477

>  <SCORE.INTER.norm>
-0.121447

>  <SCORE.INTRA>
23.2473

>  <SCORE.INTRA.DIHEDRAL>
0.37189

>  <SCORE.INTRA.DIHEDRAL.0>
32.9766

>  <SCORE.INTRA.POLAR>
0

>  <SCORE.INTRA.POLAR.0>
0

>  <SCORE.INTRA.REPUL>
0

>  <SCORE.INTRA.REPUL.0>
0

>  <SCORE.INTRA.SOLV>
14.3342

>  <SCORE.INTRA.SOLV.lig_0>
-114.358

>  <SCORE.INTRA.VDW>
15.8943

>  <SCORE.INTRA.VDW.0>
-8.24257

>  <SCORE.INTRA.norm>
0.447064

>  <SCORE.RESTR>
6.4659

>  <SCORE.RESTR.CAVITY>
6.4659

>  <SCORE.RESTR.norm>
0.124344

>  <SCORE.SYSTEM>
0

>  <SCORE.SYSTEM.CONST>
0

>  <SCORE.SYSTEM.DIHEDRAL>
0

>  <SCORE.SYSTEM.SOLV>
0

>  <SCORE.SYSTEM.norm>
0

>  <SCORE.heavy>
52

>  <SCORE.norm>
0.449961

>  <RMSD>
23.868

$$$$
2esj_lig
 OpenBabel11021811423D
libRbt.so/2013.1/901 2013/11/27
 52 56  0  0  0  0  0  0  0  0999 V2000
    5.1989    9.5274   17.3162 C   0  0  2  0  0  0  0  0  0  0  0  0
    5.7424    9.9263   18.5892 O   0  0  0  0  0  0  0  0  0  0  0  0
    6.3147   13.6992   20.5193 C   0  0  2  0  0  0  0  0  0  0  0  0
    6.8092   15.0204   20.9403 N   0  0  0  0  0  0  0  0  0  0  0  0
    5.7092   12.7579   16.1951 C   0  0  1  0  0  0  0  0  0  0  0  0
    7.5818   12.8592   13.9286 C   0  0  1  0  0  0  0  0  0  0  0  0
    5.1508   10.1459   10.1835 C   0  0  1  0  0  0  0  0  0  0  0  0
    4.5185    8.1403   17.5111 C   0  0  2  0  0  0  0  0  0  0  0  0
    3.4962    8.1674   18.5568 N   0  0  0  0  0  0  0  0  0  0  0  0
    7.4633   12.6202   20.6366 C   0  0  0  0  0  0  0  0  0  0  0  0
    5.6231   14.2700   15.9832 C   0  0  2  0  0  0  0  0  0  0  0  0
    4.6119   14.6341   15.0187 O   0  0  0  0  0  0  0  0  0  0  0  0
    8.0810   12.8832   12.4148 C   0  0  2  0  0  0  0  0  0  0  0  0
    7.1001   13.5778   11.5395 N   0  0  0  0  0  0  0  0  0  0  0  0
    4.0791   11.2251   10.2856 C   0  0  1  0  0  0  0  0  0  0  0  0
    3.2073   11.1365    9.1408 O   0  0  0  0  0  0  0  0  0  0  0  0
    5.5787    7.0401   17.8345 C   0  0  0  0  0  0  0  0  0  0  0  0
    6.8977   11.1981   20.2372 C   0  0  2  0  0  0  0  0  0  0  0  0
    7.9489   10.1793   20.3247 N   0  0  0  0  0  0  0  0  0  0  0  0
    7.0282   14.5656   15.5445 C   0  0  2  0  0  0  0  0  0  0  0  0
    7.2178   14.1794   14.2069 O   0  0  0  0  0  0  0  0  0  0  0  0
    8.4490   11.3999   11.9682 C   0  0  1  0  0  0  0  0  0  0  0  0
    9.3457   10.8359   12.9308 O   0  0  0  0  0  0  0  0  0  0  0  0
    3.2157   11.1686   11.5400 C   0  0  1  0  0  0  0  0  0  0  0  0
    2.1347   12.0885   11.3517 O   0  0  0  0  0  0  0  0  0  0  0  0
    6.6670    7.0471   16.7204 C   0  0  2  0  0  0  0  0  0  0  0  0
    7.6220    6.0186   16.9106 O   0  0  0  0  0  0  0  0  0  0  0  0
    6.2998   11.2359   18.8067 C   0  0  2  0  0  0  0  0  0  0  0  0
    7.9315   13.6030   16.3428 C   0  0  2  0  0  0  0  0  0  0  0  0
    7.0762   12.4873   16.5346 O   0  0  0  0  0  0  0  0  0  0  0  0
    7.1719   10.4626   11.9670 C   0  0  2  0  0  0  0  0  0  0  0  0
    6.3173   11.0336   10.9750 O   0  0  0  0  0  0  0  0  0  0  0  0
    2.6520    9.7782   11.8385 C   0  0  2  0  0  0  0  0  0  0  0  0
    2.1412    9.8150   13.1810 O   0  0  0  0  0  0  0  0  0  0  0  0
    7.3320    8.4458   16.6970 C   0  0  2  0  0  0  0  0  0  0  0  0
    6.2926    9.4138   16.3755 O   0  0  0  0  0  0  0  0  0  0  0  0
    5.2398   12.3623   18.5862 C   0  0  2  0  0  0  0  0  0  0  0  0
    4.8037   12.3547   17.1984 O   0  0  0  0  0  0  0  0  0  0  0  0
    8.4255   14.1011   17.7005 C   0  0  0  0  0  0  0  0  0  0  0  0
    8.2629   15.5268   17.7233 O   0  0  0  0  0  0  0  0  0  0  0  0
    6.4798   10.7110   13.2934 C   0  0  1  0  0  0  0  0  0  0  0  0
    6.4072   11.9122   14.0911 O   0  0  0  0  0  0  0  0  0  0  0  0
    3.6901    8.6892   11.5920 C   0  0  2  0  0  0  0  0  0  0  0  0
    4.6905    8.8287   10.5714 O   0  0  0  0  0  0  0  0  0  0  0  0
    8.3641    8.5845   15.6302 C   0  0  0  0  0  0  0  0  0  0  0  0
    8.9974    9.8275   15.8150 O   0  0  0  0  0  0  0  0  0  0  0  0
    5.8026   13.7529   19.0353 C   0  0  1  0  0  0  0  0  0  0  0  0
    4.7022   14.6993   18.9821 O   0  0  0  0  0  0  0  0  0  0  0  0
    5.2316    9.8275   13.6006 C   0  0  0  0  0  0  0  0  0  0  0  0
    5.5723    8.4325   13.9509 N   0  0  0  0  0  0  0  0  0  0  0  0
    3.4037    7.2034   11.7975 C   0  0  0  0  0  0  0  0  0  0  0  0
    2.1346    6.8538   11.1845 O   0  0  0  0  0  0  0  0  0  0  0  0
  1  2  1  1  0  0  0
  1  8  1  0  0  0  0
  1 36  1  0  0  0  0
  3  4  1  6  0  0  0
  3 10  1  0  0  0  0
  3 47  1  0  0  0  0
  5 11  1  0  0  0  0
  5 30  1  0  0  0  0
  5 38  1  1  0  0  0
  6 21  1  6  0  0  0
  6 42  1  0  0  0  0
  7 15  1  0  0  0  0
  7 44  1  0  0  0  0
  7 32  1  1  0  0  0
  8  9  1  1  0  0  0
  8 17  1  0  0  0  0
 11 12  1  6  0  0  0
 11 20  1  0  0  0  0
 13  6  1  0  0  0  0
 13 14  1  6  0  0  0
 15 16  1  6  0  0  0
 15 24  1  0  0  0  0
 17 26  1  0  0  0  0
 18 10  1  0  0  0  0
 18 19  1  6  0  0  0
 20 21  1  6  0  0  0
 20 29  1  0  0  0  0
 22 13  1  0  0  0  0
 22 23  1  1  0  0  0
 24 25  1  6  0  0  0
 24 33  1  0  0  0  0
 26 27  1  1  0  0  0
 26 35  1  0  0  0  0
 28  2  1  1  0  0  0
 28 18  1  0  0  0  0
 29 30  1  0  0  0  0
 29 39  1  1  0  0  0
 31 22  1  0  0  0  0
 31 32  1  6  0  0  0
 31 41  1  0  0  0  0
 33 34  1  1  0  0  0
 33 43  1  0  0  0  0
 35 36  1  0  0  0  0
 35 45  1  6  0  0  0
 37 28  1  0  0  0  0
 37 38  1  6  0  0  0
 39 40  1  0  0  0  0
 41 42  1  0  0  0  0
 41 49  1  6  0  0  0
 43 44  1  0  0  0  0
 43 51  1  6  0  0  0
 45 46  1  0  0  0  0
 47 37  1  0  0  0  0
 47 48  1  1  0  0  0
 49 50  1  0  0  0  0
 51 52  1  0  0  0  0
M  END
>  <CHROM.1>
-172.28178940,-88.36642795,-165.28654199,136.72173899,-86.24391928,-174.16133398
-17.90809519,156.10726463,-173.13696565,-69.32345128,73.82934881,46.61598121
5.91286097,11.08054821,15.19359408,0.45872975,1.24042926,2.30865550

>  <Name>
2esj_lig

>  <RI>
224

>  <Rbt.Current_Directory>
/home/itssahil/PROJECTS/Mol_Feturizer/New_Systems/rnas/2esj

>  <Rbt.Executable>
rbdock ($Id: //depot/dev/client3/rdock/2013.1/src/exe/rbdock.cxx#4 $)

>  <Rbt.Library>
libRbt.so (2013.1, Build901 2013/11/27)

>  <Rbt.Parameter_File>
/export/apps/rDock/src/rDock_2013.1_src/data/scripts/dock_solv.prm

>  <Rbt.Receptor>
prm/blind_docking_100.prm

>  <SCORE>
2.83792

>  <SCORE.INTER>
-11.1877

>  <SCORE.INTER.CONST>
1

>  <SCORE.INTER.POLAR>
-1.29787

>  <SCORE.INTER.ROT>
12

>  <SCORE.INTER.SOLV>
23.9648

>  <SCORE.INTER.VDW>
-22.7205

>  <SCORE.INTER.norm>
-0.215147

>  <SCORE.INTRA>
11.3472

>  <SCORE.INTRA.DIHEDRAL>
-7.52369

>  <SCORE.INTRA.DIHEDRAL.0>
32.9766

>  <SCORE.INTRA.POLAR>
0

>  <SCORE.INTRA.POLAR.0>
0

>  <SCORE.INTRA.REPUL>
0.01332

>  <SCORE.INTRA.REPUL.0>
0

>  <SCORE.INTRA.SOLV>
8.7082

>  <SCORE.INTRA.SOLV.lig_0>
-114.358

>  <SCORE.INTRA.VDW>
10.6883

>  <SCORE.INTRA.VDW.0>
-8.24257

>  <SCORE.INTRA.norm>
0.218215

>  <SCORE.RESTR>
2.67838

>  <SCORE.RESTR.CAVITY>
2.67838

>  <SCORE.RESTR.norm>
0.0515073

>  <SCORE.SYSTEM>
0

>  <SCORE.SYSTEM.CONST>
0

>  <SCORE.SYSTEM.DIHEDRAL>
0

>  <SCORE.SYSTEM.SOLV>
0

>  <SCORE.SYSTEM.norm>
0

>  <SCORE.heavy>
52

>  <SCORE.norm>
0.0545753

>  <RMSD>
23.920

$$$$
2esj_lig
 OpenBabel11021811423D
libRbt.so/2013.1/901 2013/11/27
 52 56  0  0  0  0  0  0  0  0999 V2000
    6.1249   11.3721   11.7369 C   0  0  2  0  0  0  0  0  0  0  0  0
    5.4076   11.3711   12.9860 O   0  0  0  0  0  0  0  0  0  0  0  0
    6.3329   15.3219   14.3362 C   0  0  2  0  0  0  0  0  0  0  0  0
    6.4118   16.5860   15.0867 N   0  0  0  0  0  0  0  0  0  0  0  0
    6.4914   10.9268   15.9391 C   0  0  1  0  0  0  0  0  0  0  0  0
    5.7188    7.9652   18.1697 C   0  0  1  0  0  0  0  0  0  0  0  0
    3.1151    3.4912   16.7982 C   0  0  1  0  0  0  0  0  0  0  0  0
    5.8408   10.0127   11.0324 C   0  0  2  0  0  0  0  0  0  0  0  0
    4.4101    9.7773   10.8402 N   0  0  0  0  0  0  0  0  0  0  0  0
    4.8303   14.9901   13.9761 C   0  0  0  0  0  0  0  0  0  0  0  0
    7.1948   10.4029   17.1918 C   0  0  2  0  0  0  0  0  0  0  0  0
    7.8337    9.1267   16.9714 O   0  0  0  0  0  0  0  0  0  0  0  0
    5.7189    7.2142   16.7636 C   0  0  2  0  0  0  0  0  0  0  0  0
    4.4099    7.3681   16.0753 N   0  0  0  0  0  0  0  0  0  0  0  0
    1.7728    4.1905   16.6170 C   0  0  1  0  0  0  0  0  0  0  0  0
    0.9792    3.4530   15.6659 O   0  0  0  0  0  0  0  0  0  0  0  0
    6.4701    8.8282   11.8324 C   0  0  0  0  0  0  0  0  0  0  0  0
    4.7713   13.6614   13.1201 C   0  0  2  0  0  0  0  0  0  0  0  0
    3.3845   13.3232   12.7836 N   0  0  0  0  0  0  0  0  0  0  0  0
    6.0431   10.3577   18.1540 C   0  0  2  0  0  0  0  0  0  0  0  0
    5.2273    9.2437   17.8932 O   0  0  0  0  0  0  0  0  0  0  0  0
    6.1919    5.7095   16.9811 C   0  0  1  0  0  0  0  0  0  0  0  0
    7.4255    5.7126   17.7070 O   0  0  0  0  0  0  0  0  0  0  0  0
    0.9490    4.3577   17.8881 C   0  0  1  0  0  0  0  0  0  0  0  0
   -0.3520    4.8070   17.4933 O   0  0  0  0  0  0  0  0  0  0  0  0
    7.9866    9.1133   12.0438 C   0  0  2  0  0  0  0  0  0  0  0  0
    8.6382    8.0393   12.6980 O   0  0  0  0  0  0  0  0  0  0  0  0
    5.4411   12.4926   13.8884 C   0  0  2  0  0  0  0  0  0  0  0  0
    5.1502   11.5651   17.8014 C   0  0  2  0  0  0  0  0  0  0  0  0
    5.3846   11.7085   16.4095 O   0  0  0  0  0  0  0  0  0  0  0  0
    5.1647    4.9044   17.8789 C   0  0  2  0  0  0  0  0  0  0  0  0
    3.9603    4.8923   17.1111 O   0  0  0  0  0  0  0  0  0  0  0  0
    0.8144    3.0739   18.7089 C   0  0  2  0  0  0  0  0  0  0  0  0
    0.2992    3.4538   19.9953 O   0  0  0  0  0  0  0  0  0  0  0  0
    8.1282   10.4354   12.8382 C   0  0  2  0  0  0  0  0  0  0  0  0
    7.5371   11.4919   12.0287 O   0  0  0  0  0  0  0  0  0  0  0  0
    6.8919   12.7990   14.3806 C   0  0  2  0  0  0  0  0  0  0  0  0
    7.3930   11.6704   15.1496 O   0  0  0  0  0  0  0  0  0  0  0  0
    5.4748   12.8812   18.5073 C   0  0  0  0  0  0  0  0  0  0  0  0
    6.8001   13.2671   18.1144 O   0  0  0  0  0  0  0  0  0  0  0  0
    4.8782    5.7947   19.0729 C   0  0  1  0  0  0  0  0  0  0  0  0
    4.8392    7.2349   19.1677 O   0  0  0  0  0  0  0  0  0  0  0  0
    2.1292    2.3039   18.7623 C   0  0  2  0  0  0  0  0  0  0  0  0
    3.0568    2.3338   17.6666 O   0  0  0  0  0  0  0  0  0  0  0  0
    9.5472   10.8352   13.0595 C   0  0  0  0  0  0  0  0  0  0  0  0
    9.5518   11.8563   14.0277 O   0  0  0  0  0  0  0  0  0  0  0  0
    6.9362   14.1437   15.1819 C   0  0  1  0  0  0  0  0  0  0  0  0
    8.3340   14.4497   15.4307 O   0  0  0  0  0  0  0  0  0  0  0  0
    3.9627    5.1930   20.1831 C   0  0  0  0  0  0  0  0  0  0  0  0
    2.5306    5.5078   19.9968 N   0  0  0  0  0  0  0  0  0  0  0  0
    2.2888    0.9784   19.5034 C   0  0  0  0  0  0  0  0  0  0  0  0
    3.4416    0.2594   18.9907 O   0  0  0  0  0  0  0  0  0  0  0  0
  1  2  1  1  0  0  0
  1  8  1  0  0  0  0
  1 36  1  0  0  0  0
  3  4  1  1  0  0  0
  3 10  1  0  0  0  0
  3 47  1  0  0  0  0
  5 11  1  0  0  0  0
  5 30  1  0  0  0  0
  5 38  1  1  0  0  0
  6 21  1  6  0  0  0
  6 42  1  0  0  0  0
  7 15  1  0  0  0  0
  7 44  1  0  0  0  0
  7 32  1  1  0  0  0
  8  9  1  1  0  0  0
  8 17  1  0  0  0  0
 11 12  1  6  0  0  0
 11 20  1  0  0  0  0
 13  6  1  0  0  0  0
 13 14  1  1  0  0  0
 15 16  1  6  0  0  0
 15 24  1  0  0  0  0
 17 26  1  0  0  0  0
 18 10  1  0  0  0  0
 18 19  1  1  0  0  0
 20 21  1  6  0  0  0
 20 29  1  0  0  0  0
 22 13  1  0  0  0  0
 22 23  1  1  0  0  0
 24 25  1  6  0  0  0
 24 33  1  0  0  0  0
 26 27  1  1  0  0  0
 26 35  1  0  0  0  0
 28  2  1  6  0  0  0
 28 18  1  0  0  0  0
 29 30  1  0  0  0  0
 29 39  1  1  0  0  0
 31 22  1  0  0  0  0
 31 32  1  6  0  0  0
 31 41  1  0  0  0  0
 33 34  1  1  0  0  0
 33 43  1  0  0  0  0
 35 36  1  0  0  0  0
 35 45  1  6  0  0  0
 37 28  1  0  0  0  0
 37 38  1  1  0  0  0
 39 40  1  0  0  0  0
 41 42  1  0  0  0  0
 41 49  1  6  0  0  0
 43 44  1  0  0  0  0
 43 51  1  6  0  0  0
 45 46  1  0  0  0  0
 47 37  1  0  0  0  0
 47 48  1  6  0  0  0
 49 50  1  0  0  0  0
 51 52  1  0  0  0  0
M  END
>  <CHROM.1>
-179.38085546,-147.19470633,-119.22847903,154.26402294,69.63823348,64.09664352
62.38091908,129.26782844,-166.97454746,-34.08527028,-92.25804976,159.13106802
5.18413885,8.66233692,16.03584316,-0.19621969,-1.16913472,-2.21907465

>  <Name>
2esj_lig

>  <RI>
0

>  <Rbt.Current_Directory>
/home/itssahil/PROJECTS/Mol_Feturizer/New_Systems/rnas/2esj

>  <Rbt.Executable>
rbdock ($Id: //depot/dev/client3/rdock/2013.1/src/exe/rbdock.cxx#4 $)

>  <Rbt.Library>
libRbt.so (2013.1, Build901 2013/11/27)

>  <Rbt.Parameter_File>
/export/apps/rDock/src/rDock_2013.1_src/data/scripts/dock_solv.prm

>  <Rbt.Receptor>
prm/blind_docking_80.prm

>  <SCORE>
2.9087

>  <SCORE.INTER>
-8.14177

>  <SCORE.INTER.CONST>
1

>  <SCORE.INTER.POLAR>
-0.653685

>  <SCORE.INTER.ROT>
12

>  <SCORE.INTER.SOLV>
18.2254

>  <SCORE.INTER.VDW>
-20.924

>  <SCORE.INTER.norm>
-0.156572

>  <SCORE.INTRA>
5.24963

>  <SCORE.INTRA.DIHEDRAL>
-3.06568

>  <SCORE.INTRA.DIHEDRAL.0>
32.9766

>  <SCORE.INTRA.POLAR>
0

>  <SCORE.INTRA.POLAR.0>
0

>  <SCORE.INTRA.REPUL>
0

>  <SCORE.INTRA.REPUL.0>
0

>  <SCORE.INTRA.SOLV>
5.26385

>  <SCORE.INTRA.SOLV.lig_0>
-114.358

>  <SCORE.INTRA.VDW>
4.15054

>  <SCORE.INTRA.VDW.0>
-8.24257

>  <SCORE.INTRA.norm>
0.100954

>  <SCORE.RESTR>
5.80083

>  <SCORE.RESTR.CAVITY>
5.80083

>  <SCORE.RESTR.norm>
0.111554

>  <SCORE.SYSTEM>
0

>  <SCORE.SYSTEM.CONST>
0

>  <SCORE.SYSTEM.DIHEDRAL>
0

>  <SCORE.SYSTEM.SOLV>
0

>  <SCORE.SYSTEM.norm>
0

>  <SCORE.heavy>
52

>  <SCORE.norm>
0.0559364

>  <RMSD>
23.922

$$$$
2esj_lig
 OpenBabel11021811423D
libRbt.so/2013.1/901 2013/11/27
 52 56  0  0  0  0  0  0  0  0999 V2000
    5.3896    6.6426   16.3501 C   0  0  2  0  0  0  0  0  0  0  0  0
    4.6455    7.2445   15.2736 O   0  0  0  0  0  0  0  0  0  0  0  0
    7.2010    6.6882   11.8901 C   0  0  2  0  0  0  0  0  0  0  0  0
    7.8736    6.7890   10.5844 N   0  0  0  0  0  0  0  0  0  0  0  0
    6.8864   10.3412   14.2929 C   0  0  1  0  0  0  0  0  0  0  0  0
    6.0298   12.3053   12.7233 C   0  0  1  0  0  0  0  0  0  0  0  0
    2.3927   13.9431   12.5032 C   0  0  1  0  0  0  0  0  0  0  0  0
    4.3704    6.2409   17.4569 C   0  0  2  0  0  0  0  0  0  0  0  0
    3.3260    5.3509   16.9508 N   0  0  0  0  0  0  0  0  0  0  0  0
    5.6469    6.4803   11.6926 C   0  0  0  0  0  0  0  0  0  0  0  0
    6.9197   11.4676   15.3266 C   0  0  2  0  0  0  0  0  0  0  0  0
    5.6010   11.8245   15.7945 O   0  0  0  0  0  0  0  0  0  0  0  0
    5.8232   13.2033   11.4224 C   0  0  2  0  0  0  0  0  0  0  0  0
    5.2632   14.5347   11.7754 N   0  0  0  0  0  0  0  0  0  0  0  0
    2.1770   15.3696   12.0110 C   0  0  1  0  0  0  0  0  0  0  0  0
    1.0912   15.9660   12.7484 O   0  0  0  0  0  0  0  0  0  0  0  0
    3.7216    7.5062   18.1028 C   0  0  0  0  0  0  0  0  0  0  0  0
    4.9506    6.3150   13.1030 C   0  0  2  0  0  0  0  0  0  0  0  0
    3.5035    6.1340   12.9482 N   0  0  0  0  0  0  0  0  0  0  0  0
    7.6059   12.5442   14.5367 C   0  0  2  0  0  0  0  0  0  0  0  0
    6.7133   13.1285   13.6222 O   0  0  0  0  0  0  0  0  0  0  0  0
    4.9773   12.3793   10.3545 C   0  0  1  0  0  0  0  0  0  0  0  0
    5.5942   11.1022   10.1614 O   0  0  0  0  0  0  0  0  0  0  0  0
    3.3867   16.2888   12.1289 C   0  0  1  0  0  0  0  0  0  0  0  0
    2.9364   17.6191   11.8499 O   0  0  0  0  0  0  0  0  0  0  0  0
    4.8531    8.4474   18.6122 C   0  0  2  0  0  0  0  0  0  0  0  0
    4.3328    9.5826   19.2806 O   0  0  0  0  0  0  0  0  0  0  0  0
    5.2482    7.5441   14.0007 C   0  0  2  0  0  0  0  0  0  0  0  0
    8.6358   11.8220   13.6437 C   0  0  2  0  0  0  0  0  0  0  0  0
    8.0135   10.5642   13.4343 O   0  0  0  0  0  0  0  0  0  0  0  0
    3.5152   12.0768   10.8837 C   0  0  2  0  0  0  0  0  0  0  0  0
    2.9206   13.3671   11.0319 O   0  0  0  0  0  0  0  0  0  0  0  0
    4.0531   16.2575   13.5055 C   0  0  2  0  0  0  0  0  0  0  0  0
    5.3259   16.9099   13.3674 O   0  0  0  0  0  0  0  0  0  0  0  0
    5.7332    8.8509   17.4033 C   0  0  2  0  0  0  0  0  0  0  0  0
    6.3148    7.6292   16.8646 O   0  0  0  0  0  0  0  0  0  0  0  0
    6.7674    7.8799   14.1421 C   0  0  2  0  0  0  0  0  0  0  0  0
    6.9266    9.0874   14.9376 O   0  0  0  0  0  0  0  0  0  0  0  0
   10.0245   11.6056   14.2440 C   0  0  0  0  0  0  0  0  0  0  0  0
   10.9851   11.8186   13.1992 O   0  0  0  0  0  0  0  0  0  0  0  0
    3.6911   11.5446   12.2930 C   0  0  1  0  0  0  0  0  0  0  0  0
    4.6924   11.8586   13.2846 O   0  0  0  0  0  0  0  0  0  0  0  0
    4.1323   14.8381   14.0563 C   0  0  2  0  0  0  0  0  0  0  0  0
    3.1258   13.8610   13.7494 O   0  0  0  0  0  0  0  0  0  0  0  0
    6.8843    9.7191   17.7822 C   0  0  0  0  0  0  0  0  0  0  0  0
    7.7333    8.9580   18.6068 O   0  0  0  0  0  0  0  0  0  0  0  0
    7.4473    7.9889   12.7356 C   0  0  1  0  0  0  0  0  0  0  0  0
    8.8777    8.1065   12.9578 O   0  0  0  0  0  0  0  0  0  0  0  0
    2.3973   11.0645   13.0197 C   0  0  0  0  0  0  0  0  0  0  0  0
    1.5405   10.1995   12.1816 N   0  0  0  0  0  0  0  0  0  0  0  0
    4.7393   14.5053   15.4173 C   0  0  0  0  0  0  0  0  0  0  0  0
    6.1475   14.8600   15.4321 O   0  0  0  0  0  0  0  0  0  0  0  0
  1  2  1  6  0  0  0
  1  8  1  0  0  0  0
  1 36  1  0  0  0  0
  3  4  1  6  0  0  0
  3 10  1  0  0  0  0
  3 47  1  0  0  0  0
  5 11  1  0  0  0  0
  5 30  1  0  0  0  0
  5 38  1  1  0  0  0
  6 21  1  1  0  0  0
  6 42  1  0  0  0  0
  7 15  1  0  0  0  0
  7 44  1  0  0  0  0
  7 32  1  6  0  0  0
  8  9  1  6  0  0  0
  8 17  1  0  0  0  0
 11 12  1  6  0  0  0
 11 20  1  0  0  0  0
 13  6  1  0  0  0  0
 13 14  1  1  0  0  0
 15 16  1  1  0  0  0
 15 24  1  0  0  0  0
 17 26  1  0  0  0  0
 18 10  1  0  0  0  0
 18 19  1  6  0  0  0
 20 21  1  6  0  0  0
 20 29  1  0  0  0  0
 22 13  1  0  0  0  0
 22 23  1  1  0  0  0
 24 25  1  1  0  0  0
 24 33  1  0  0  0  0
 26 27  1  6  0  0  0
 26 35  1  0  0  0  0
 28  2  1  1  0  0  0
 28 18  1  0  0  0  0
 29 30  1  0  0  0  0
 29 39  1  1  0  0  0
 31 22  1  0  0  0  0
 31 32  1  1  0  0  0
 31 41  1  0  0  0  0
 33 34  1  6  0  0  0
 33 43  1  0  0  0  0
 35 36  1  0  0  0  0
 35 45  1  1  0  0  0
 37 28  1  0  0  0  0
 37 38  1  6  0  0  0
 39 40  1  0  0  0  0
 41 42  1  0  0  0  0
 41 49  1  1  0  0  0
 43 44  1  0  0  0  0
 43 51  1  1  0  0  0
 45 46  1  0  0  0  0
 47 37  1  0  0  0  0
 47 48  1  1  0  0  0
 49 50  1  0  0  0  0
 51 52  1  0  0  0  0
M  END
>  <CHROM.1>
-170.18212471,173.82903425,-148.81430416,169.06873984,-54.38058745,94.14186697
-141.11987533,-118.42275238,64.84933599,-87.21873766,46.55994432,-62.84349328
5.38316136,10.97535319,13.97466863,1.10855362,-0.98664061,2.36693689

>  <Name>
2esj_lig

>  <RI>
0

>  <Rbt.Current_Directory>
/home/itssahil/PROJECTS/Mol_Feturizer/New_Systems/rnas/2esj

>  <Rbt.Executable>
rbdock ($Id: //depot/dev/client3/rdock/2013.1/src/exe/rbdock.cxx#4 $)

>  <Rbt.Library>
libRbt.so (2013.1, Build901 2013/11/27)

>  <Rbt.Parameter_File>
/export/apps/rDock/src/rDock_2013.1_src/data/scripts/dock_solv.prm

>  <Rbt.Receptor>
prm/blind_docking_80.prm

>  <SCORE>
33.4857

>  <SCORE.INTER>
11.3704

>  <SCORE.INTER.CONST>
1

>  <SCORE.INTER.POLAR>
-0.122575

>  <SCORE.INTER.ROT>
12

>  <SCORE.INTER.SOLV>
25.8236

>  <SCORE.INTER.VDW>
-12.219

>  <SCORE.INTER.norm>
0.218662

>  <SCORE.INTRA>
13.7843

>  <SCORE.INTRA.DIHEDRAL>
-4.81572

>  <SCORE.INTRA.DIHEDRAL.0>
32.9766

>  <SCORE.INTRA.POLAR>
0

>  <SCORE.INTRA.POLAR.0>
0

>  <SCORE.INTRA.REPUL>
0.0231369

>  <SCORE.INTRA.REPUL.0>
0

>  <SCORE.INTRA.SOLV>
7.11808

>  <SCORE.INTRA.SOLV.lig_0>
-114.358

>  <SCORE.INTRA.VDW>
12.5174

>  <SCORE.INTRA.VDW.0>
-8.24257

>  <SCORE.INTRA.norm>
0.265082

>  <SCORE.RESTR>
8.33103

>  <SCORE.RESTR.CAVITY>
8.33103

>  <SCORE.RESTR.norm>
0.160212

>  <SCORE.SYSTEM>
0

>  <SCORE.SYSTEM.CONST>
0

>  <SCORE.SYSTEM.DIHEDRAL>
0

>  <SCORE.SYSTEM.SOLV>
0

>  <SCORE.SYSTEM.norm>
0

>  <SCORE.heavy>
52

>  <SCORE.norm>
0.643956

>  <RMSD>
23.929

$$$$
2esj_lig
 OpenBabel11021811423D
libRbt.so/2013.1/901 2013/11/27
 52 56  0  0  0  0  0  0  0  0999 V2000
    7.0514   12.8206   14.7085 C   0  0  2  0  0  0  0  0  0  0  0  0
    5.6170   12.9207   14.6229 O   0  0  0  0  0  0  0  0  0  0  0  0
    2.3644   15.0236   12.8100 C   0  0  2  0  0  0  0  0  0  0  0  0
    1.5228   15.9986   12.0970 N   0  0  0  0  0  0  0  0  0  0  0  0
    5.6890   11.3773   11.9347 C   0  0  1  0  0  0  0  0  0  0  0  0
    7.3029    7.7442   12.5308 C   0  0  1  0  0  0  0  0  0  0  0  0
    5.6216    6.3039   17.4078 C   0  0  1  0  0  0  0  0  0  0  0  0
    7.3837   11.8196   15.8542 C   0  0  2  0  0  0  0  0  0  0  0  0
    6.7567   10.5144   15.6479 N   0  0  0  0  0  0  0  0  0  0  0  0
    3.1437   15.7300   13.9896 C   0  0  0  0  0  0  0  0  0  0  0  0
    6.3331   10.7906   10.6779 C   0  0  2  0  0  0  0  0  0  0  0  0
    5.3643   10.1874    9.7931 O   0  0  0  0  0  0  0  0  0  0  0  0
    6.2092    6.6513   12.9191 C   0  0  2  0  0  0  0  0  0  0  0  0
    4.9704    7.2937   13.4326 N   0  0  0  0  0  0  0  0  0  0  0  0
    4.4539    5.4165   16.9924 C   0  0  1  0  0  0  0  0  0  0  0  0
    4.2824    4.3709   17.9700 O   0  0  0  0  0  0  0  0  0  0  0  0
    6.9586   12.3988   17.2409 C   0  0  0  0  0  0  0  0  0  0  0  0
    3.9954   14.6569   14.7798 C   0  0  2  0  0  0  0  0  0  0  0  0
    4.7402   15.2898   15.8733 N   0  0  0  0  0  0  0  0  0  0  0  0
    7.2965    9.8171   11.2928 C   0  0  2  0  0  0  0  0  0  0  0  0
    6.6199    8.6676   11.7348 O   0  0  0  0  0  0  0  0  0  0  0  0
    6.8698    5.5844   13.8992 C   0  0  1  0  0  0  0  0  0  0  0  0
    8.0796    5.0996   13.3076 O   0  0  0  0  0  0  0  0  0  0  0  0
    3.1183    6.1320   16.8294 C   0  0  1  0  0  0  0  0  0  0  0  0
    2.1136    5.1234   16.6757 O   0  0  0  0  0  0  0  0  0  0  0  0
    7.6195   13.7968   17.4263 C   0  0  2  0  0  0  0  0  0  0  0  0
    7.3373   14.3481   18.7001 O   0  0  0  0  0  0  0  0  0  0  0  0
    4.9664   13.9226   13.8190 C   0  0  2  0  0  0  0  0  0  0  0  0
    7.7951   10.4801   12.5934 C   0  0  2  0  0  0  0  0  0  0  0  0
    6.6782   11.2710   12.9678 O   0  0  0  0  0  0  0  0  0  0  0  0
    7.2965    6.2476   15.2730 C   0  0  2  0  0  0  0  0  0  0  0  0
    6.0656    6.6878   15.8487 O   0  0  0  0  0  0  0  0  0  0  0  0
    2.7542    7.0343   18.0098 C   0  0  2  0  0  0  0  0  0  0  0  0
    1.6592    7.8600   17.5810 O   0  0  0  0  0  0  0  0  0  0  0  0
    7.1321   14.7221   16.2837 C   0  0  2  0  0  0  0  0  0  0  0  0
    7.5757   14.1307   15.0290 O   0  0  0  0  0  0  0  0  0  0  0  0
    4.2752   13.3010   12.5633 C   0  0  2  0  0  0  0  0  0  0  0  0
    5.2825   12.7069   11.6980 O   0  0  0  0  0  0  0  0  0  0  0  0
    9.0295   11.3730   12.4727 C   0  0  0  0  0  0  0  0  0  0  0  0
    9.4743   11.6778   13.8027 O   0  0  0  0  0  0  0  0  0  0  0  0
    8.0482    7.5115   14.9022 C   0  0  1  0  0  0  0  0  0  0  0  0
    7.8736    8.3978   13.7758 O   0  0  0  0  0  0  0  0  0  0  0  0
    3.9652    7.8109   18.5145 C   0  0  2  0  0  0  0  0  0  0  0  0
    5.2885    7.2578   18.4453 O   0  0  0  0  0  0  0  0  0  0  0  0
    7.7412   16.0819   16.3327 C   0  0  0  0  0  0  0  0  0  0  0  0
    7.3541   16.6739   17.5492 O   0  0  0  0  0  0  0  0  0  0  0  0
    3.3974   14.3673   11.8253 C   0  0  1  0  0  0  0  0  0  0  0  0
    2.6452   13.6683   10.7982 O   0  0  0  0  0  0  0  0  0  0  0  0
    8.6779    8.3153   16.0812 C   0  0  0  0  0  0  0  0  0  0  0  0
    8.0364    8.0437   17.3849 N   0  0  0  0  0  0  0  0  0  0  0  0
    3.9009    8.7820   19.6911 C   0  0  0  0  0  0  0  0  0  0  0  0
    5.1083    9.5876   19.7356 O   0  0  0  0  0  0  0  0  0  0  0  0
  1  2  1  1  0  0  0
  1  8  1  0  0  0  0
  1 36  1  0  0  0  0
  3  4  1  6  0  0  0
  3 10  1  0  0  0  0
  3 47  1  0  0  0  0
  5 11  1  0  0  0  0
  5 30  1  0  0  0  0
  5 38  1  6  0  0  0
  6 21  1  6  0  0  0
  6 42  1  0  0  0  0
  7 15  1  0  0  0  0
  7 44  1  0  0  0  0
  7 32  1  6  0  0  0
  8  9  1  6  0  0  0
  8 17  1  0  0  0  0
 11 12  1  6  0  0  0
 11 20  1  0  0  0  0
 13  6  1  0  0  0  0
 13 14  1  1  0  0  0
 15 16  1  1  0  0  0
 15 24  1  0  0  0  0
 17 26  1  0  0  0  0
 18 10  1  0  0  0  0
 18 19  1  1  0  0  0
 20 21  1  1  0  0  0
 20 29  1  0  0  0  0
 22 13  1  0  0  0  0
 22 23  1  6  0  0  0
 24 25  1  1  0  0  0
 24 33  1  0  0  0  0
 26 27  1  1  0  0  0
 26 35  1  0  0  0  0
 28  2  1  1  0  0  0
 28 18  1  0  0  0  0
 29 30  1  0  0  0  0
 29 39  1  6  0  0  0
 31 22  1  0  0  0  0
 31 32  1  1  0  0  0
 31 41  1  0  0  0  0
 33 34  1  6  0  0  0
 33 43  1  0  0  0  0
 35 36  1  0  0  0  0
 35 45  1  1  0  0  0
 37 28  1  0  0  0  0
 37 38  1  6  0  0  0
 39 40  1  0  0  0  0
 41 42  1  0  0  0  0
 41 49  1  1  0  0  0
 43 44  1  0  0  0  0
 43 51  1  1  0  0  0
 45 46  1  0  0  0  0
 47 37  1  0  0  0  0
 47 48  1  6  0  0  0
 49 50  1  0  0  0  0
 51 52  1  0  0  0  0
M  END
>  <CHROM.1>
169.58098309,159.68571308,176.02904133,-112.81803606,-169.51241340,-125.83022097
-169.20355390,128.67734258,-61.60304456,86.56712804,-22.34708442,-166.80243967
5.78903893,10.44694352,14.90417537,1.51227591,1.40780911,-0.22968824

>  <Name>
2esj_lig

>  <RI>
0

>  <Rbt.Current_Directory>
/home/itssahil/PROJECTS/Mol_Feturizer/New_Systems/rnas/2esj

>  <Rbt.Executable>
rbdock ($Id: //depot/dev/client3/rdock/2013.1/src/exe/rbdock.cxx#4 $)

>  <Rbt.Library>
libRbt.so (2013.1, Build901 2013/11/27)

>  <Rbt.Parameter_File>
/export/apps/rDock/src/rDock_2013.1_src/data/scripts/dock_solv.prm

>  <Rbt.Receptor>
prm/blind_docking_80.prm

>  <SCORE>
19.4186

>  <SCORE.INTER>
-2.3305

>  <SCORE.INTER.CONST>
1

>  <SCORE.INTER.POLAR>
-0.631127

>  <SCORE.INTER.ROT>
12

>  <SCORE.INTER.SOLV>
20.6441

>  <SCORE.INTER.VDW>
-17.9313

>  <SCORE.INTER.norm>
-0.0448174

>  <SCORE.INTRA>
17.6051

>  <SCORE.INTRA.DIHEDRAL>
-1.20313

>  <SCORE.INTRA.DIHEDRAL.0>
32.9766

>  <SCORE.INTRA.POLAR>
0

>  <SCORE.INTRA.POLAR.0>
0

>  <SCORE.INTRA.REPUL>
0.0337791

>  <SCORE.INTRA.REPUL.0>
0

>  <SCORE.INTRA.SOLV>
12.5239

>  <SCORE.INTRA.SOLV.lig_0>
-114.358

>  <SCORE.INTRA.VDW>
11.7759

>  <SCORE.INTRA.VDW.0>
-8.24257

>  <SCORE.INTRA.norm>
0.338561

>  <SCORE.RESTR>
4.14394

>  <SCORE.RESTR.CAVITY>
4.14394

>  <SCORE.RESTR.norm>
0.0796912

>  <SCORE.SYSTEM>
0

>  <SCORE.SYSTEM.CONST>
0

>  <SCORE.SYSTEM.DIHEDRAL>
0

>  <SCORE.SYSTEM.SOLV>
0

>  <SCORE.SYSTEM.norm>
0

>  <SCORE.heavy>
52

>  <SCORE.norm>
0.373434

>  <RMSD>
23.929

$$$$
2esj_lig
 OpenBabel11021811423D
libRbt.so/2013.1/901 2013/11/27
 52 56  0  0  0  0  0  0  0  0999 V2000
    6.4132   10.5878   12.9987 C   0  0  2  0  0  0  0  0  0  0  0  0
    6.8259   11.9666   12.9389 O   0  0  0  0  0  0  0  0  0  0  0  0
    7.3261   15.4867   15.3151 C   0  0  2  0  0  0  0  0  0  0  0  0
    7.1746   16.5717   16.2986 N   0  0  0  0  0  0  0  0  0  0  0  0
    6.8722   11.0391   16.2573 C   0  0  1  0  0  0  0  0  0  0  0  0
    5.4751    8.8514   16.9436 C   0  0  1  0  0  0  0  0  0  0  0  0
    4.1630    4.5793   17.5460 C   0  0  1  0  0  0  0  0  0  0  0  0
    6.6702    9.9605   11.5968 C   0  0  2  0  0  0  0  0  0  0  0  0
    8.0649   10.0952   11.1775 N   0  0  0  0  0  0  0  0  0  0  0  0
    6.0253   15.3664   14.4257 C   0  0  0  0  0  0  0  0  0  0  0  0
    7.1982   10.7114   17.7150 C   0  0  2  0  0  0  0  0  0  0  0  0
    7.8331    9.4226   17.8609 O   0  0  0  0  0  0  0  0  0  0  0  0
    4.1222    8.5000   16.1770 C   0  0  2  0  0  0  0  0  0  0  0  0
    3.0859    8.0048   17.1213 N   0  0  0  0  0  0  0  0  0  0  0  0
    2.8153    3.8781   17.4213 C   0  0  1  0  0  0  0  0  0  0  0  0
    2.9412    2.5224   17.8954 O   0  0  0  0  0  0  0  0  0  0  0  0
    5.7301   10.5935   10.5222 C   0  0  0  0  0  0  0  0  0  0  0  0
    6.2295   14.2367   13.3377 C   0  0  2  0  0  0  0  0  0  0  0  0
    5.0296   14.0952   12.5064 N   0  0  0  0  0  0  0  0  0  0  0  0
    5.8302   10.7976   18.3277 C   0  0  2  0  0  0  0  0  0  0  0  0
    5.0800    9.6500   18.0201 O   0  0  0  0  0  0  0  0  0  0  0  0
    4.4534    7.5197   14.9669 C   0  0  1  0  0  0  0  0  0  0  0  0
    5.5053    8.0917   14.1827 O   0  0  0  0  0  0  0  0  0  0  0  0
    1.6668    4.5359   18.1765 C   0  0  1  0  0  0  0  0  0  0  0  0
    0.5611    3.6268   18.1412 O   0  0  0  0  0  0  0  0  0  0  0  0
    4.2546   10.4584   11.0021 C   0  0  2  0  0  0  0  0  0  0  0  0
    3.3400   10.9447   10.0362 O   0  0  0  0  0  0  0  0  0  0  0  0
    6.5776   12.8871   14.0178 C   0  0  2  0  0  0  0  0  0  0  0  0
    5.1019   11.9319   17.5777 C   0  0  2  0  0  0  0  0  0  0  0  0
    5.7046   11.8713   16.2947 O   0  0  0  0  0  0  0  0  0  0  0  0
    5.0078    6.1290   15.4843 C   0  0  2  0  0  0  0  0  0  0  0  0
    3.9241    5.5739   16.2311 O   0  0  0  0  0  0  0  0  0  0  0  0
    1.9987    4.8740   19.6310 C   0  0  2  0  0  0  0  0  0  0  0  0
    0.9619    5.7502   20.1023 O   0  0  0  0  0  0  0  0  0  0  0  0
    4.1103   11.2053   12.3513 C   0  0  2  0  0  0  0  0  0  0  0  0
    4.9990   10.5540   13.3037 O   0  0  0  0  0  0  0  0  0  0  0  0
    7.7848   12.9621   15.0068 C   0  0  2  0  0  0  0  0  0  0  0  0
    7.9747   11.6668   15.6412 O   0  0  0  0  0  0  0  0  0  0  0  0
    5.2663   13.3404   18.1478 C   0  0  0  0  0  0  0  0  0  0  0  0
    4.7709   13.3222   19.4946 O   0  0  0  0  0  0  0  0  0  0  0  0
    6.0759    6.4680   16.5063 C   0  0  1  0  0  0  0  0  0  0  0  0
    6.1688    7.5865   17.4145 O   0  0  0  0  0  0  0  0  0  0  0  0
    3.4078    5.4403   19.7659 C   0  0  2  0  0  0  0  0  0  0  0  0
    4.4669    5.0232   18.8906 O   0  0  0  0  0  0  0  0  0  0  0  0
    2.7415   11.1023   12.9329 C   0  0  0  0  0  0  0  0  0  0  0  0
    2.5309    9.7549   13.2798 O   0  0  0  0  0  0  0  0  0  0  0  0
    7.5854   14.1191   16.0429 C   0  0  1  0  0  0  0  0  0  0  0  0
    8.8244   14.2450   16.7902 O   0  0  0  0  0  0  0  0  0  0  0  0
    6.8678    5.2659   17.1068 C   0  0  0  0  0  0  0  0  0  0  0  0
    7.9443    4.7722   16.2223 N   0  0  0  0  0  0  0  0  0  0  0  0
    4.0136    5.8568   21.1043 C   0  0  0  0  0  0  0  0  0  0  0  0
    4.9851    4.8684   21.5378 O   0  0  0  0  0  0  0  0  0  0  0  0
  1  2  1  6  0  0  0
  1  8  1  0  0  0  0
  1 36  1  0  0  0  0
  3  4  1  1  0  0  0
  3 10  1  0  0  0  0
  3 47  1  0  0  0  0
  5 11  1  0  0  0  0
  5 30  1  0  0  0  0
  5 38  1  1  0  0  0
  6 21  1  1  0  0  0
  6 42  1  0  0  0  0
  7 15  1  0  0  0  0
  7 44  1  0  0  0  0
  7 32  1  6  0  0  0
  8  9  1  6  0  0  0
  8 17  1  0  0  0  0
 11 12  1  6  0  0  0
 11 20  1  0  0  0  0
 13  6  1  0  0  0  0
 13 14  1  1  0  0  0
 15 16  1  1  0  0  0
 15 24  1  0  0  0  0
 17 26  1  0  0  0  0
 18 10  1  0  0  0  0
 18 19  1  1  0  0  0
 20 21  1  6  0  0  0
 20 29  1  0  0  0  0
 22 13  1  0  0  0  0
 22 23  1  6  0  0  0
 24 25  1  1  0  0  0
 24 33  1  0  0  0  0
 26 27  1  6  0  0  0
 26 35  1  0  0  0  0
 28  2  1  6  0  0  0
 28 18  1  0  0  0  0
 29 30  1  0  0  0  0
 29 39  1  1  0  0  0
 31 22  1  0  0  0  0
 31 32  1  1  0  0  0
 31 41  1  0  0  0  0
 33 34  1  6  0  0  0
 33 43  1  0  0  0  0
 35 36  1  0  0  0  0
 35 45  1  1  0  0  0
 37 28  1  0  0  0  0
 37 38  1  1  0  0  0
 39 40  1  0  0  0  0
 41 42  1  0  0  0  0
 41 49  1  1  0  0  0
 43 44  1  0  0  0  0
 43 51  1  1  0  0  0
 45 46  1  0  0  0  0
 47 37  1  0  0  0  0
 47 48  1  6  0  0  0
 49 50  1  0  0  0  0
 51 52  1  0  0  0  0
M  END
>  <CHROM.1>
172.38072176,-124.67681738,-136.57615462,-154.93902237,-19.06870626,-142.21190155
-59.22108238,-148.82389683,66.45432943,-51.70393283,80.09137811,105.13507518
5.18282153,9.36202031,15.99029278,0.73281909,-1.15792944,-1.29458499

>  <Name>
2esj_lig

>  <RI>
0

>  <Rbt.Current_Directory>
/home/itssahil/PROJECTS/Mol_Feturizer/New_Systems/rnas/2esj

>  <Rbt.Executable>
rbdock ($Id: //depot/dev/client3/rdock/2013.1/src/exe/rbdock.cxx#4 $)

>  <Rbt.Library>
libRbt.so (2013.1, Build901 2013/11/27)

>  <Rbt.Parameter_File>
/export/apps/rDock/src/rDock_2013.1_src/data/scripts/dock_solv.prm

>  <Rbt.Receptor>
prm/blind_docking_80.prm

>  <SCORE>
8.22166

>  <SCORE.INTER>
-7.74577

>  <SCORE.INTER.CONST>
1

>  <SCORE.INTER.POLAR>
0

>  <SCORE.INTER.ROT>
12

>  <SCORE.INTER.SOLV>
22.637

>  <SCORE.INTER.VDW>
-24.3095

>  <SCORE.INTER.norm>
-0.148957

>  <SCORE.INTRA>
12.1014

>  <SCORE.INTRA.DIHEDRAL>
3.62825

>  <SCORE.INTRA.DIHEDRAL.0>
32.9766

>  <SCORE.INTRA.POLAR>
0

>  <SCORE.INTRA.POLAR.0>
0

>  <SCORE.INTRA.REPUL>
0

>  <SCORE.INTRA.REPUL.0>
0

>  <SCORE.INTRA.SOLV>
3.28548

>  <SCORE.INTRA.SOLV.lig_0>
-114.358

>  <SCORE.INTRA.VDW>
8.64455

>  <SCORE.INTRA.VDW.0>
-8.24257

>  <SCORE.INTRA.norm>
0.232719

>  <SCORE.RESTR>
3.86602

>  <SCORE.RESTR.CAVITY>
3.86602

>  <SCORE.RESTR.norm>
0.0743465

>  <SCORE.SYSTEM>
0

>  <SCORE.SYSTEM.CONST>
0

>  <SCORE.SYSTEM.DIHEDRAL>
0

>  <SCORE.SYSTEM.SOLV>
0

>  <SCORE.SYSTEM.norm>
0

>  <SCORE.heavy>
52

>  <SCORE.norm>
0.158109

>  <RMSD>
23.935

$$$$
2esj_lig
 OpenBabel11021811423D
libRbt.so/2013.1/901 2013/11/27
 52 56  0  0  0  0  0  0  0  0999 V2000
    6.4948    9.6158   11.8857 C   0  0  2  0  0  0  0  0  0  0  0  0
    5.9912   10.8004   12.5321 O   0  0  0  0  0  0  0  0  0  0  0  0
    7.5855   13.7995    9.9338 C   0  0  2  0  0  0  0  0  0  0  0  0
    7.9690   15.0687    9.2940 N   0  0  0  0  0  0  0  0  0  0  0  0
    7.6874   12.4301   14.4683 C   0  0  1  0  0  0  0  0  0  0  0  0
    6.9962   11.8748   17.9339 C   0  0  1  0  0  0  0  0  0  0  0  0
    3.3868    8.3964   19.3927 C   0  0  1  0  0  0  0  0  0  0  0  0
    5.2916    8.6500   11.6740 C   0  0  2  0  0  0  0  0  0  0  0  0
    4.2109    9.2717   10.9093 N   0  0  0  0  0  0  0  0  0  0  0  0
    6.0174   13.7287   10.1166 C   0  0  0  0  0  0  0  0  0  0  0  0
    8.5705   12.7098   15.6850 C   0  0  2  0  0  0  0  0  0  0  0  0
    8.9179   11.5052   16.4017 O   0  0  0  0  0  0  0  0  0  0  0  0
    6.6906   10.5716   17.0681 C   0  0  2  0  0  0  0  0  0  0  0  0
    5.3342   10.6382   16.4625 N   0  0  0  0  0  0  0  0  0  0  0  0
    4.2245    7.3637   20.1379 C   0  0  1  0  0  0  0  0  0  0  0  0
    3.6137    7.0907   21.4149 O   0  0  0  0  0  0  0  0  0  0  0  0
    4.7439    8.1339   13.0424 C   0  0  0  0  0  0  0  0  0  0  0  0
    5.6198   12.3351   10.7503 C   0  0  2  0  0  0  0  0  0  0  0  0
    4.1686   12.2490   10.9433 N   0  0  0  0  0  0  0  0  0  0  0  0
    7.6887   13.6514   16.4530 C   0  0  2  0  0  0  0  0  0  0  0  0
    6.6610   12.9454   17.1008 O   0  0  0  0  0  0  0  0  0  0  0  0
    6.9666    9.2819   17.9599 C   0  0  1  0  0  0  0  0  0  0  0  0
    8.2771    9.3830   18.5266 O   0  0  0  0  0  0  0  0  0  0  0  0
    4.4162    6.0362   19.4145 C   0  0  1  0  0  0  0  0  0  0  0  0
    5.0109    5.1275   20.3477 O   0  0  0  0  0  0  0  0  0  0  0  0
    5.9167    7.4983   13.8463 C   0  0  2  0  0  0  0  0  0  0  0  0
    5.4741    6.9386   15.0698 O   0  0  0  0  0  0  0  0  0  0  0  0
    6.3574   12.1235   12.0980 C   0  0  2  0  0  0  0  0  0  0  0  0
    6.9510   14.4974   15.3948 C   0  0  2  0  0  0  0  0  0  0  0  0
    6.8693   13.5965   14.3019 O   0  0  0  0  0  0  0  0  0  0  0  0
    5.9698    9.2042   19.1887 C   0  0  2  0  0  0  0  0  0  0  0  0
    4.6807    9.0701   18.5882 O   0  0  0  0  0  0  0  0  0  0  0  0
    3.1168    5.4333   18.8778 C   0  0  2  0  0  0  0  0  0  0  0  0
    3.4883    4.3806   17.9731 O   0  0  0  0  0  0  0  0  0  0  0  0
    6.9972    8.5844   14.0737 C   0  0  2  0  0  0  0  0  0  0  0  0
    7.4707    9.0049   12.7622 O   0  0  0  0  0  0  0  0  0  0  0  0
    7.9076   12.2985   12.0129 C   0  0  2  0  0  0  0  0  0  0  0  0
    8.4868   12.1541   13.3396 O   0  0  0  0  0  0  0  0  0  0  0  0
    7.6476   15.7801   14.9419 C   0  0  0  0  0  0  0  0  0  0  0  0
    6.8160   16.3958   13.9475 O   0  0  0  0  0  0  0  0  0  0  0  0
    5.9853   10.5844   19.8171 C   0  0  1  0  0  0  0  0  0  0  0  0
    6.1688   11.8797   19.2061 O   0  0  0  0  0  0  0  0  0  0  0  0
    2.2173    6.5000   18.2634 C   0  0  2  0  0  0  0  0  0  0  0  0
    2.2032    7.8448   18.7665 O   0  0  0  0  0  0  0  0  0  0  0  0
    8.1965    8.0734   14.7969 C   0  0  0  0  0  0  0  0  0  0  0  0
    8.7752    7.0700   13.9978 O   0  0  0  0  0  0  0  0  0  0  0  0
    8.2783   13.6615   11.3368 C   0  0  1  0  0  0  0  0  0  0  0  0
    9.7146   13.6576   11.1213 O   0  0  0  0  0  0  0  0  0  0  0  0
    5.1571   10.7595   21.1271 C   0  0  0  0  0  0  0  0  0  0  0  0
    3.7368   11.0882   20.8836 N   0  0  0  0  0  0  0  0  0  0  0  0
    0.8506    6.1892   17.6575 C   0  0  0  0  0  0  0  0  0  0  0  0
    0.2277    7.4131   17.1853 O   0  0  0  0  0  0  0  0  0  0  0  0
  1  2  1  1  0  0  0
  1  8  1  0  0  0  0
  1 36  1  0  0  0  0
  3  4  1  1  0  0  0
  3 10  1  0  0  0  0
  3 47  1  0  0  0  0
  5 11  1  0  0  0  0
  5 30  1  0  0  0  0
  5 38  1  6  0  0  0
  6 21  1  6  0  0  0
  6 42  1  0  0  0  0
  7 15  1  0  0  0  0
  7 44  1  0  0  0  0
  7 32  1  6  0  0  0
  8  9  1  1  0  0  0
  8 17  1  0  0  0  0
 11 12  1  1  0  0  0
 11 20  1  0  0  0  0
 13  6  1  0  0  0  0
 13 14  1  1  0  0  0
 15 16  1  1  0  0  0
 15 24  1  0  0  0  0
 17 26  1  0  0  0  0
 18 10  1  0  0  0  0
 18 19  1  1  0  0  0
 20 21  1  6  0  0  0
 20 29  1  0  0  0  0
 22 13  1  0  0  0  0
 22 23  1  1  0  0  0
 24 25  1  1  0  0  0
 24 33  1  0  0  0  0
 26 27  1  1  0  0  0
 26 35  1  0  0  0  0
 28  2  1  6  0  0  0
 28 18  1  0  0  0  0
 29 30  1  0  0  0  0
 29 39  1  6  0  0  0
 31 22  1  0  0  0  0
 31 32  1  6  0  0  0
 31 41  1  0  0  0  0
 33 34  1  6  0  0  0
 33 43  1  0  0  0  0
 35 36  1  0  0  0  0
 35 45  1  1  0  0  0
 37 28  1  0  0  0  0
 37 38  1  1  0  0  0
 39 40  1  0  0  0  0
 41 42  1  0  0  0  0
 41 49  1  6  0  0  0
 43 44  1  0  0  0  0
 43 51  1  1  0  0  0
 45 46  1  0  0  0  0
 47 37  1  0  0  0  0
 47 48  1  6  0  0  0
 49 50  1  0  0  0  0
 51 52  1  0  0  0  0
M  END
>  <CHROM.1>
-134.42584906,-159.72140550,-102.03292365,-35.78758013,53.60985078,71.93977559
178.86339318,156.62352519,61.84942526,-25.17453447,-86.36092003,178.67047405
5.92593180,10.25140112,15.61847866,0.68760594,-1.08517034,-1.70481305

>  <Name>
2esj_lig

>  <RI>
224

>  <Rbt.Current_Directory>
/home/itssahil/PROJECTS/Mol_Feturizer/New_Systems/rnas/2esj

>  <Rbt.Executable>
rbdock ($Id: //depot/dev/client3/rdock/2013.1/src/exe/rbdock.cxx#4 $)

>  <Rbt.Library>
libRbt.so (2013.1, Build901 2013/11/27)

>  <Rbt.Parameter_File>
/export/apps/rDock/src/rDock_2013.1_src/data/scripts/dock_solv.prm

>  <Rbt.Receptor>
prm/blind_docking_100.prm

>  <SCORE>
6.82691

>  <SCORE.INTER>
-9.76684

>  <SCORE.INTER.CONST>
1

>  <SCORE.INTER.POLAR>
-0.868055

>  <SCORE.INTER.ROT>
12

>  <SCORE.INTER.SOLV>
19.8903

>  <SCORE.INTER.VDW>
-21.8478

>  <SCORE.INTER.norm>
-0.187824

>  <SCORE.INTRA>
9.57046

>  <SCORE.INTRA.DIHEDRAL>
-3.89644

>  <SCORE.INTRA.DIHEDRAL.0>
32.9766

>  <SCORE.INTRA.POLAR>
0

>  <SCORE.INTRA.POLAR.0>
0

>  <SCORE.INTRA.REPUL>
0.0110289

>  <SCORE.INTRA.REPUL.0>
0

>  <SCORE.INTRA.SOLV>
5.57692

>  <SCORE.INTRA.SOLV.lig_0>
-114.358

>  <SCORE.INTRA.VDW>
8.67508

>  <SCORE.INTRA.VDW.0>
-8.24257

>  <SCORE.INTRA.norm>
0.184047

>  <SCORE.RESTR>
7.02328

>  <SCORE.RESTR.CAVITY>
7.02328

>  <SCORE.RESTR.norm>
0.135063

>  <SCORE.SYSTEM>
0

>  <SCORE.SYSTEM.CONST>
0

>  <SCORE.SYSTEM.DIHEDRAL>
0

>  <SCORE.SYSTEM.SOLV>
0

>  <SCORE.SYSTEM.norm>
0

>  <SCORE.heavy>
52

>  <SCORE.norm>
0.131287

>  <RMSD>
23.981

$$$$
2esj_lig
 OpenBabel11021811423D
libRbt.so/2013.1/901 2013/11/27
 52 56  0  0  0  0  0  0  0  0999 V2000
    4.5019    7.7224   13.4585 C   0  0  2  0  0  0  0  0  0  0  0  0
    4.6426    9.1167   13.7913 O   0  0  0  0  0  0  0  0  0  0  0  0
    3.1226   10.8945   10.2112 C   0  0  2  0  0  0  0  0  0  0  0  0
    2.6964   11.8324    9.1595 N   0  0  0  0  0  0  0  0  0  0  0  0
    7.0674   10.9791   12.6650 C   0  0  1  0  0  0  0  0  0  0  0  0
    7.7201   13.5957   14.6916 C   0  0  1  0  0  0  0  0  0  0  0  0
    6.3400   15.0642   19.5072 C   0  0  1  0  0  0  0  0  0  0  0  0
    4.4313    6.9263   14.7950 C   0  0  2  0  0  0  0  0  0  0  0  0
    3.3485    7.3930   15.6605 N   0  0  0  0  0  0  0  0  0  0  0  0
    2.4051   11.2380   11.5768 C   0  0  0  0  0  0  0  0  0  0  0  0
    8.5681   10.7858   12.8862 C   0  0  2  0  0  0  0  0  0  0  0  0
    8.8519    9.8474   13.9465 O   0  0  0  0  0  0  0  0  0  0  0  0
    8.5392   14.7009   15.4971 C   0  0  2  0  0  0  0  0  0  0  0  0
    9.2383   14.1026   16.6651 N   0  0  0  0  0  0  0  0  0  0  0  0
    7.4665   14.3146   20.2090 C   0  0  1  0  0  0  0  0  0  0  0  0
    7.5276   14.7335   21.5871 O   0  0  0  0  0  0  0  0  0  0  0  0
    5.7907    7.0003   15.5602 C   0  0  0  0  0  0  0  0  0  0  0  0
    2.8295   10.1851   12.6782 C   0  0  2  0  0  0  0  0  0  0  0  0
    2.1868   10.4897   13.9608 N   0  0  0  0  0  0  0  0  0  0  0  0
    8.9851   12.1970   13.1841 C   0  0  2  0  0  0  0  0  0  0  0  0
    8.6261   12.5499   14.4959 O   0  0  0  0  0  0  0  0  0  0  0  0
    7.5679   15.9140   15.8435 C   0  0  1  0  0  0  0  0  0  0  0  0
    6.9190   16.3446   14.6425 O   0  0  0  0  0  0  0  0  0  0  0  0
    7.3522   12.7952   20.1837 C   0  0  1  0  0  0  0  0  0  0  0  0
    8.3458   12.2809   21.0772 O   0  0  0  0  0  0  0  0  0  0  0  0
    6.9289    6.5210   14.6111 C   0  0  2  0  0  0  0  0  0  0  0  0
    8.1836    6.4893   15.2675 O   0  0  0  0  0  0  0  0  0  0  0  0
    4.3717   10.1619   12.8388 C   0  0  2  0  0  0  0  0  0  0  0  0
    8.0970   13.0959   12.2992 C   0  0  2  0  0  0  0  0  0  0  0  0
    6.9114   12.3241   12.1915 O   0  0  0  0  0  0  0  0  0  0  0  0
    6.4076   15.4643   16.8236 C   0  0  2  0  0  0  0  0  0  0  0  0
    7.0871   15.0751   18.0182 O   0  0  0  0  0  0  0  0  0  0  0  0
    5.9762   12.2734   20.6014 C   0  0  2  0  0  0  0  0  0  0  0  0
    5.9265   10.8860   20.2309 O   0  0  0  0  0  0  0  0  0  0  0  0
    6.9561    7.4517   13.3733 C   0  0  2  0  0  0  0  0  0  0  0  0
    5.6693    7.3195   12.7043 O   0  0  0  0  0  0  0  0  0  0  0  0
    5.1507    9.9455   11.5019 C   0  0  2  0  0  0  0  0  0  0  0  0
    6.5814   10.0167   11.7557 O   0  0  0  0  0  0  0  0  0  0  0  0
    8.6255   13.4092   10.8998 C   0  0  0  0  0  0  0  0  0  0  0  0
    9.9916   13.8270   11.0371 O   0  0  0  0  0  0  0  0  0  0  0  0
    5.8486   14.1825   16.2365 C   0  0  1  0  0  0  0  0  0  0  0  0
    6.5090   13.1412   15.4853 O   0  0  0  0  0  0  0  0  0  0  0  0
    4.8542   13.1206   20.0116 C   0  0  2  0  0  0  0  0  0  0  0  0
    5.0231   14.5280   19.7822 O   0  0  0  0  0  0  0  0  0  0  0  0
    7.9826    7.0563   12.3672 C   0  0  0  0  0  0  0  0  0  0  0  0
    8.3629    8.2196   11.6729 O   0  0  0  0  0  0  0  0  0  0  0  0
    4.6791   10.9650   10.4108 C   0  0  1  0  0  0  0  0  0  0  0  0
    5.3027   10.5736    9.1589 O   0  0  0  0  0  0  0  0  0  0  0  0
    4.6083   13.5717   16.9586 C   0  0  0  0  0  0  0  0  0  0  0  0
    4.8512   12.2166   17.4964 N   0  0  0  0  0  0  0  0  0  0  0  0
    3.3753   12.8401   20.2684 C   0  0  0  0  0  0  0  0  0  0  0  0
    2.5612   13.8785   19.6620 O   0  0  0  0  0  0  0  0  0  0  0  0
  1  2  1  1  0  0  0
  1  8  1  0  0  0  0
  1 36  1  0  0  0  0
  3  4  1  6  0  0  0
  3 10  1  0  0  0  0
  3 47  1  0  0  0  0
  5 11  1  0  0  0  0
  5 30  1  0  0  0  0
  5 38  1  6  0  0  0
  6 21  1  1  0  0  0
  6 42  1  0  0  0  0
  7 15  1  0  0  0  0
  7 44  1  0  0  0  0
  7 32  1  6  0  0  0
  8  9  1  1  0  0  0
  8 17  1  0  0  0  0
 11 12  1  1  0  0  0
 11 20  1  0  0  0  0
 13  6  1  0  0  0  0
 13 14  1  1  0  0  0
 15 16  1  1  0  0  0
 15 24  1  0  0  0  0
 17 26  1  0  0  0  0
 18 10  1  0  0  0  0
 18 19  1  1  0  0  0
 20 21  1  1  0  0  0
 20 29  1  0  0  0  0
 22 13  1  0  0  0  0
 22 23  1  6  0  0  0
 24 25  1  1  0  0  0
 24 33  1  0  0  0  0
 26 27  1  1  0  0  0
 26 35  1  0  0  0  0
 28  2  1  1  0  0  0
 28 18  1  0  0  0  0
 29 30  1  0  0  0  0
 29 39  1  6  0  0  0
 31 22  1  0  0  0  0
 31 32  1  1  0  0  0
 31 41  1  0  0  0  0
 33 34  1  6  0  0  0
 33 43  1  0  0  0  0
 35 36  1  0  0  0  0
 35 45  1  6  0  0  0
 37 28  1  0  0  0  0
 37 38  1  1  0  0  0
 39 40  1  0  0  0  0
 41 42  1  0  0  0  0
 41 49  1  1  0  0  0
 43 44  1  0  0  0  0
 43 51  1  1  0  0  0
 45 46  1  0  0  0  0
 47 37  1  0  0  0  0
 47 48  1  6  0  0  0
 49 50  1  0  0  0  0
 51 52  1  0  0  0  0
M  END
>  <CHROM.1>
-162.49292842,174.31682484,-117.48751603,169.04252658,-117.74162597,72.29952097
-48.33293851,156.67072531,-152.47536231,-39.46580946,-118.87212545,175.43505656
6.21945932,11.57191383,15.04825882,1.71426072,-1.11454996,-1.97566431

>  <Name>
2esj_lig

>  <RI>
224

>  <Rbt.Current_Directory>
/home/itssahil/PROJECTS/Mol_Feturizer/New_Systems/rnas/2esj

>  <Rbt.Executable>
rbdock ($Id: //depot/dev/client3/rdock/2013.1/src/exe/rbdock.cxx#4 $)

>  <Rbt.Library>
libRbt.so (2013.1, Build901 2013/11/27)

>  <Rbt.Parameter_File>
/export/apps/rDock/src/rDock_2013.1_src/data/scripts/dock_solv.prm

>  <Rbt.Receptor>
prm/blind_docking_100.prm

>  <SCORE>
19.4009

>  <SCORE.INTER>
1.65014

>  <SCORE.INTER.CONST>
1

>  <SCORE.INTER.POLAR>
-1.14114

>  <SCORE.INTER.ROT>
12

>  <SCORE.INTER.SOLV>
36.5215

>  <SCORE.INTER.VDW>
-18.87

>  <SCORE.INTER.norm>
0.0317335

>  <SCORE.INTRA>
9.85706

>  <SCORE.INTRA.DIHEDRAL>
-3.98548

>  <SCORE.INTRA.DIHEDRAL.0>
32.9766

>  <SCORE.INTRA.POLAR>
0

>  <SCORE.INTRA.POLAR.0>
0

>  <SCORE.INTRA.REPUL>
0

>  <SCORE.INTRA.REPUL.0>
0

>  <SCORE.INTRA.SOLV>
5.74739

>  <SCORE.INTRA.SOLV.lig_0>
-114.358

>  <SCORE.INTRA.VDW>
8.97611

>  <SCORE.INTRA.VDW.0>
-8.24257

>  <SCORE.INTRA.norm>
0.189559

>  <SCORE.RESTR>
7.89374

>  <SCORE.RESTR.CAVITY>
7.89374

>  <SCORE.RESTR.norm>
0.151803

>  <SCORE.SYSTEM>
0

>  <SCORE.SYSTEM.CONST>
0

>  <SCORE.SYSTEM.DIHEDRAL>
0

>  <SCORE.SYSTEM.SOLV>
0

>  <SCORE.SYSTEM.norm>
0

>  <SCORE.heavy>
52

>  <SCORE.norm>
0.373095

>  <RMSD>
24.011

$$$$
2esj_lig
 OpenBabel11021811423D
libRbt.so/2013.1/901 2013/11/27
 52 56  0  0  0  0  0  0  0  0999 V2000
    6.7771   14.5954   14.6128 C   0  0  2  0  0  0  0  0  0  0  0  0
    6.7738   14.0635   15.9514 O   0  0  0  0  0  0  0  0  0  0  0  0
    7.9997   15.7063   19.7046 C   0  0  2  0  0  0  0  0  0  0  0  0
    8.1452   16.5278   20.9175 N   0  0  0  0  0  0  0  0  0  0  0  0
    5.0541   12.0693   18.1716 C   0  0  1  0  0  0  0  0  0  0  0  0
    6.4037    8.8476   16.7539 C   0  0  1  0  0  0  0  0  0  0  0  0
    4.2513    6.4382   13.1701 C   0  0  1  0  0  0  0  0  0  0  0  0
    5.3789   14.3076   13.9906 C   0  0  2  0  0  0  0  0  0  0  0  0
    4.2905   14.8615   14.7954 N   0  0  0  0  0  0  0  0  0  0  0  0
    8.1540   16.6029   18.4124 C   0  0  0  0  0  0  0  0  0  0  0  0
    6.4512   11.4517   18.2419 C   0  0  2  0  0  0  0  0  0  0  0  0
    7.1046   11.4199   16.9545 O   0  0  0  0  0  0  0  0  0  0  0  0
    5.4863    8.9380   15.4534 C   0  0  2  0  0  0  0  0  0  0  0  0
    4.1751    8.2733   15.6769 N   0  0  0  0  0  0  0  0  0  0  0  0
    5.1797    6.0082   12.0402 C   0  0  1  0  0  0  0  0  0  0  0  0
    4.3999    5.3952   10.9940 O   0  0  0  0  0  0  0  0  0  0  0  0
    5.1629   12.7738   13.7907 C   0  0  0  0  0  0  0  0  0  0  0  0
    8.0540   15.6944   17.1216 C   0  0  2  0  0  0  0  0  0  0  0  0
    8.1807   16.5055   15.9063 N   0  0  0  0  0  0  0  0  0  0  0  0
    6.1242   10.0971   18.8008 C   0  0  2  0  0  0  0  0  0  0  0  0
    5.5822    9.2704   17.8022 O   0  0  0  0  0  0  0  0  0  0  0  0
    6.3092    8.3987   14.2016 C   0  0  1  0  0  0  0  0  0  0  0  0
    7.5677    9.0784   14.1476 O   0  0  0  0  0  0  0  0  0  0  0  0
    6.0075    7.1256   11.4168 C   0  0  1  0  0  0  0  0  0  0  0  0
    6.6252    6.5897   10.2415 O   0  0  0  0  0  0  0  0  0  0  0  0
    6.3452   12.2044   12.9519 C   0  0  2  0  0  0  0  0  0  0  0  0
    6.1735   10.8278   12.6665 O   0  0  0  0  0  0  0  0  0  0  0  0
    6.7144   14.9131   17.1123 C   0  0  2  0  0  0  0  0  0  0  0  0
    4.9531   10.3158   19.7808 C   0  0  2  0  0  0  0  0  0  0  0  0
    4.2912   11.4308   19.2049 O   0  0  0  0  0  0  0  0  0  0  0  0
    6.6556    6.8607   14.3563 C   0  0  2  0  0  0  0  0  0  0  0  0
    5.3825    6.2132   14.3722 O   0  0  0  0  0  0  0  0  0  0  0  0
    5.1897    8.3624   11.0406 C   0  0  2  0  0  0  0  0  0  0  0  0
    6.1284    9.4162   10.7700 O   0  0  0  0  0  0  0  0  0  0  0  0
    7.6620   12.4669   13.7241 C   0  0  2  0  0  0  0  0  0  0  0  0
    7.8044   13.9100   13.8586 O   0  0  0  0  0  0  0  0  0  0  0  0
    6.4411   14.0968   18.4161 C   0  0  2  0  0  0  0  0  0  0  0  0
    5.1318   13.4685   18.3310 O   0  0  0  0  0  0  0  0  0  0  0  0
    5.3267   10.6407   21.2267 C   0  0  0  0  0  0  0  0  0  0  0  0
    6.5429   11.4020   21.1984 O   0  0  0  0  0  0  0  0  0  0  0  0
    7.2102    6.7044   15.7592 C   0  0  1  0  0  0  0  0  0  0  0  0
    6.8920    7.4267   16.9681 O   0  0  0  0  0  0  0  0  0  0  0  0
    4.1602    8.6997   12.1134 C   0  0  2  0  0  0  0  0  0  0  0  0
    3.5425    7.6728   12.9043 O   0  0  0  0  0  0  0  0  0  0  0  0
    8.8731   12.0033   12.9888 C   0  0  0  0  0  0  0  0  0  0  0  0
    9.5583   11.1054   13.8281 O   0  0  0  0  0  0  0  0  0  0  0  0
    6.5951   15.0033   19.6838 C   0  0  1  0  0  0  0  0  0  0  0  0
    6.5192   14.1344   20.8451 O   0  0  0  0  0  0  0  0  0  0  0  0
    7.7340    5.2865   16.1440 C   0  0  0  0  0  0  0  0  0  0  0  0
    6.7690    4.5016   16.9424 N   0  0  0  0  0  0  0  0  0  0  0  0
    3.1962    9.8786   12.0015 C   0  0  0  0  0  0  0  0  0  0  0  0
    3.3212   10.7337   13.1686 O   0  0  0  0  0  0  0  0  0  0  0  0
  1  2  1  1  0  0  0
  1  8  1  0  0  0  0
  1 36  1  0  0  0  0
  3  4  1  1  0  0  0
  3 10  1  0  0  0  0
  3 47  1  0  0  0  0
  5 11  1  0  0  0  0
  5 30  1  0  0  0  0
  5 38  1  1  0  0  0
  6 21  1  1  0  0  0
  6 42  1  0  0  0  0
  7 15  1  0  0  0  0
  7 44  1  0  0  0  0
  7 32  1  1  0  0  0
  8  9  1  1  0  0  0
  8 17  1  0  0  0  0
 11 12  1  6  0  0  0
 11 20  1  0  0  0  0
 13  6  1  0  0  0  0
 13 14  1  1  0  0  0
 15 16  1  6  0  0  0
 15 24  1  0  0  0  0
 17 26  1  0  0  0  0
 18 10  1  0  0  0  0
 18 19  1  6  0  0  0
 20 21  1  6  0  0  0
 20 29  1  0  0  0  0
 22 13  1  0  0  0  0
 22 23  1  1  0  0  0
 24 25  1  6  0  0  0
 24 33  1  0  0  0  0
 26 27  1  1  0  0  0
 26 35  1  0  0  0  0
 28  2  1  6  0  0  0
 28 18  1  0  0  0  0
 29 30  1  0  0  0  0
 29 39  1  1  0  0  0
 31 22  1  0  0  0  0
 31 32  1  1  0  0  0
 31 41  1  0  0  0  0
 33 34  1  1  0  0  0
 33 43  1  0  0  0  0
 35 36  1  0  0  0  0
 35 45  1  6  0  0  0
 37 28  1  0  0  0  0
 37 38  1  6  0  0  0
 39 40  1  0  0  0  0
 41 42  1  0  0  0  0
 41 49  1  1  0  0  0
 43 44  1  0  0  0  0
 43 51  1  6  0  0  0
 45 46  1  0  0  0  0
 47 37  1  0  0  0  0
 47 48  1  1  0  0  0
 49 50  1  0  0  0  0
 51 52  1  0  0  0  0
M  END
>  <CHROM.1>
-106.85463809,4.98130575,-139.62127861,56.22018468,68.22184395,-66.60881028
33.12401420,53.90030114,-123.59852248,109.23990987,-99.74618400,-124.96442633
6.16443551,10.75309857,15.59063429,-0.50928303,-1.40593583,-1.40850286

>  <Name>
2esj_lig

>  <RI>
224

>  <Rbt.Current_Directory>
/home/itssahil/PROJECTS/Mol_Feturizer/New_Systems/rnas/2esj

>  <Rbt.Executable>
rbdock ($Id: //depot/dev/client3/rdock/2013.1/src/exe/rbdock.cxx#4 $)

>  <Rbt.Library>
libRbt.so (2013.1, Build901 2013/11/27)

>  <Rbt.Parameter_File>
/export/apps/rDock/src/rDock_2013.1_src/data/scripts/dock_solv.prm

>  <Rbt.Receptor>
prm/blind_docking_100.prm

>  <SCORE>
12.5978

>  <SCORE.INTER>
-7.48301

>  <SCORE.INTER.CONST>
1

>  <SCORE.INTER.POLAR>
-0.0421555

>  <SCORE.INTER.ROT>
12

>  <SCORE.INTER.SOLV>
15.1004

>  <SCORE.INTER.VDW>
-21.4816

>  <SCORE.INTER.norm>
-0.143904

>  <SCORE.INTRA>
11.4483

>  <SCORE.INTRA.DIHEDRAL>
7.44781

>  <SCORE.INTRA.DIHEDRAL.0>
32.9766

>  <SCORE.INTRA.POLAR>
0

>  <SCORE.INTRA.POLAR.0>
0

>  <SCORE.INTRA.REPUL>
0.022261

>  <SCORE.INTRA.REPUL.0>
0

>  <SCORE.INTRA.SOLV>
7.30214

>  <SCORE.INTRA.SOLV.lig_0>
-114.358

>  <SCORE.INTRA.VDW>
3.96203

>  <SCORE.INTRA.VDW.0>
-8.24257

>  <SCORE.INTRA.norm>
0.22016

>  <SCORE.RESTR>
8.6325

>  <SCORE.RESTR.CAVITY>
8.6325

>  <SCORE.RESTR.norm>
0.16601

>  <SCORE.SYSTEM>
0

>  <SCORE.SYSTEM.CONST>
0

>  <SCORE.SYSTEM.DIHEDRAL>
0

>  <SCORE.SYSTEM.SOLV>
0

>  <SCORE.SYSTEM.norm>
0

>  <SCORE.heavy>
52

>  <SCORE.norm>
0.242265

>  <RMSD>
24.011

$$$$
2esj_lig
 OpenBabel11021811423D
libRbt.so/2013.1/901 2013/11/27
 52 56  0  0  0  0  0  0  0  0999 V2000
    5.7624   10.5230   10.7902 C   0  0  2  0  0  0  0  0  0  0  0  0
    6.8151   11.2075   11.4960 O   0  0  0  0  0  0  0  0  0  0  0  0
    8.2733   14.7293    9.5572 C   0  0  2  0  0  0  0  0  0  0  0  0
    8.5684   16.1168    9.1633 N   0  0  0  0  0  0  0  0  0  0  0  0
    8.1836   12.6065   13.8027 C   0  0  1  0  0  0  0  0  0  0  0  0
    7.3474   11.4590   17.1240 C   0  0  1  0  0  0  0  0  0  0  0  0
    4.8036    6.7406   17.1529 C   0  0  1  0  0  0  0  0  0  0  0  0
    4.4922   10.5622   11.6903 C   0  0  2  0  0  0  0  0  0  0  0  0
    4.1105   11.9276   12.0496 N   0  0  0  0  0  0  0  0  0  0  0  0
    6.7119   14.4875    9.5878 C   0  0  0  0  0  0  0  0  0  0  0  0
    8.9250   12.8239   15.1224 C   0  0  2  0  0  0  0  0  0  0  0  0
    9.4101   11.5885   15.6914 O   0  0  0  0  0  0  0  0  0  0  0  0
    7.4195   10.2555   16.0812 C   0  0  2  0  0  0  0  0  0  0  0  0
    6.1631   10.1557   15.2923 N   0  0  0  0  0  0  0  0  0  0  0  0
    3.5117    7.2588   16.5318 C   0  0  1  0  0  0  0  0  0  0  0  0
    2.8949    6.2014   15.7702 O   0  0  0  0  0  0  0  0  0  0  0  0
    4.6995    9.7119   12.9838 C   0  0  0  0  0  0  0  0  0  0  0  0
    6.4162   12.9777    9.9548 C   0  0  2  0  0  0  0  0  0  0  0  0
    4.9715   12.7298   10.0032 N   0  0  0  0  0  0  0  0  0  0  0  0
    7.8535   13.4962   15.9311 C   0  0  2  0  0  0  0  0  0  0  0  0
    6.9096   12.5554   16.3763 O   0  0  0  0  0  0  0  0  0  0  0  0
    7.8366    8.9269   16.8531 C   0  0  1  0  0  0  0  0  0  0  0  0
    9.0196    9.1869   17.6157 O   0  0  0  0  0  0  0  0  0  0  0  0
    2.4808    7.7892   17.5209 C   0  0  1  0  0  0  0  0  0  0  0  0
    1.2666    8.0037   16.7928 O   0  0  0  0  0  0  0  0  0  0  0  0
    5.1273    8.2711   12.5756 C   0  0  2  0  0  0  0  0  0  0  0  0
    5.2582    7.4216   13.7014 O   0  0  0  0  0  0  0  0  0  0  0  0
    7.0727   12.6120   11.3113 C   0  0  2  0  0  0  0  0  0  0  0  0
    7.0648   14.3759   14.9393 C   0  0  2  0  0  0  0  0  0  0  0  0
    7.2032   13.6508   13.7277 O   0  0  0  0  0  0  0  0  0  0  0  0
    6.7315    8.4972   17.9036 C   0  0  2  0  0  0  0  0  0  0  0  0
    5.5802    8.2137   17.1071 O   0  0  0  0  0  0  0  0  0  0  0  0
    2.2087    6.8452   18.6934 C   0  0  2  0  0  0  0  0  0  0  0  0
    1.4789    7.5993   19.6749 O   0  0  0  0  0  0  0  0  0  0  0  0
    6.4495    8.3636   11.7741 C   0  0  2  0  0  0  0  0  0  0  0  0
    6.1777    9.1528   10.5807 O   0  0  0  0  0  0  0  0  0  0  0  0
    8.5985   12.9382   11.3918 C   0  0  2  0  0  0  0  0  0  0  0  0
    9.0925   12.6277   12.7245 O   0  0  0  0  0  0  0  0  0  0  0  0
    7.5772   15.8015   14.7370 C   0  0  0  0  0  0  0  0  0  0  0  0
    7.7023   16.4040   16.0335 O   0  0  0  0  0  0  0  0  0  0  0  0
    6.3914    9.7555   18.6788 C   0  0  1  0  0  0  0  0  0  0  0  0
    6.3850   11.1347   18.2516 O   0  0  0  0  0  0  0  0  0  0  0  0
    3.4958    6.2163   19.2154 C   0  0  2  0  0  0  0  0  0  0  0  0
    4.5983    5.9358   18.3392 O   0  0  0  0  0  0  0  0  0  0  0  0
    6.9319    7.0395   11.2876 C   0  0  0  0  0  0  0  0  0  0  0  0
    5.9692    6.5439   10.3889 O   0  0  0  0  0  0  0  0  0  0  0  0
    8.8738   14.4226   10.9759 C   0  0  1  0  0  0  0  0  0  0  0  0
   10.3145   14.5845   10.8897 O   0  0  0  0  0  0  0  0  0  0  0  0
    5.3892    9.5914   19.8626 C   0  0  0  0  0  0  0  0  0  0  0  0
    5.6363   10.5328   20.9750 N   0  0  0  0  0  0  0  0  0  0  0  0
    3.5272    5.2241   20.3756 C   0  0  0  0  0  0  0  0  0  0  0  0
    2.9356    3.9629   19.9656 O   0  0  0  0  0  0  0  0  0  0  0  0
  1  2  1  1  0  0  0
  1  8  1  0  0  0  0
  1 36  1  0  0  0  0
  3  4  1  1  0  0  0
  3 10  1  0  0  0  0
  3 47  1  0  0  0  0
  5 11  1  0  0  0  0
  5 30  1  0  0  0  0
  5 38  1  6  0  0  0
  6 21  1  6  0  0  0
  6 42  1  0  0  0  0
  7 15  1  0  0  0  0
  7 44  1  0  0  0  0
  7 32  1  1  0  0  0
  8  9  1  1  0  0  0
  8 17  1  0  0  0  0
 11 12  1  1  0  0  0
 11 20  1  0  0  0  0
 13  6  1  0  0  0  0
 13 14  1  1  0  0  0
 15 16  1  1  0  0  0
 15 24  1  0  0  0  0
 17 26  1  0  0  0  0
 18 10  1  0  0  0  0
 18 19  1  1  0  0  0
 20 21  1  6  0  0  0
 20 29  1  0  0  0  0
 22 13  1  0  0  0  0
 22 23  1  1  0  0  0
 24 25  1  6  0  0  0
 24 33  1  0  0  0  0
 26 27  1  1  0  0  0
 26 35  1  0  0  0  0
 28  2  1  6  0  0  0
 28 18  1  0  0  0  0
 29 30  1  0  0  0  0
 29 39  1  6  0  0  0
 31 22  1  0  0  0  0
 31 32  1  6  0  0  0
 31 41  1  0  0  0  0
 33 34  1  1  0  0  0
 33 43  1  0  0  0  0
 35 36  1  0  0  0  0
 35 45  1  6  0  0  0
 37 28  1  0  0  0  0
 37 38  1  1  0  0  0
 39 40  1  0  0  0  0
 41 42  1  0  0  0  0
 41 49  1  6  0  0  0
 43 44  1  0  0  0  0
 43 51  1  6  0  0  0
 45 46  1  0  0  0  0
 47 37  1  0  0  0  0
 47 48  1  6  0  0  0
 49 50  1  0  0  0  0
 51 52  1  0  0  0  0
M  END
>  <CHROM.1>
-92.52545482,-157.33083586,-99.77552831,161.59239064,56.15314724,-19.93038134
-52.45165685,123.46695654,63.45841133,-23.64944720,148.25659334,70.06619364
6.11792544,10.38325077,14.78110069,0.75250936,-1.02774499,-1.55449694

>  <Name>
2esj_lig

>  <RI>
224

>  <Rbt.Current_Directory>
/home/itssahil/PROJECTS/Mol_Feturizer/New_Systems/rnas/2esj

>  <Rbt.Executable>
rbdock ($Id: //depot/dev/client3/rdock/2013.1/src/exe/rbdock.cxx#4 $)

>  <Rbt.Library>
libRbt.so (2013.1, Build901 2013/11/27)

>  <Rbt.Parameter_File>
/export/apps/rDock/src/rDock_2013.1_src/data/scripts/dock_solv.prm

>  <Rbt.Receptor>
prm/blind_docking_100.prm

>  <SCORE>
20.76

>  <SCORE.INTER>
-6.55643

>  <SCORE.INTER.CONST>
1

>  <SCORE.INTER.POLAR>
-0.27703

>  <SCORE.INTER.ROT>
12

>  <SCORE.INTER.SOLV>
18.0024

>  <SCORE.INTER.VDW>
-21.0483

>  <SCORE.INTER.norm>
-0.126085

>  <SCORE.INTRA>
20.6552

>  <SCORE.INTRA.DIHEDRAL>
2.66724

>  <SCORE.INTRA.DIHEDRAL.0>
32.9766

>  <SCORE.INTRA.POLAR>
0

>  <SCORE.INTRA.POLAR.0>
0

>  <SCORE.INTRA.REPUL>
0

>  <SCORE.INTRA.REPUL.0>
0

>  <SCORE.INTRA.SOLV>
7.55652

>  <SCORE.INTRA.SOLV.lig_0>
-114.358

>  <SCORE.INTRA.VDW>
15.5433

>  <SCORE.INTRA.VDW.0>
-8.24257

>  <SCORE.INTRA.norm>
0.397215

>  <SCORE.RESTR>
6.66123

>  <SCORE.RESTR.CAVITY>
6.66123

>  <SCORE.RESTR.norm>
0.128101

>  <SCORE.SYSTEM>
0

>  <SCORE.SYSTEM.CONST>
0

>  <SCORE.SYSTEM.DIHEDRAL>
0

>  <SCORE.SYSTEM.SOLV>
0

>  <SCORE.SYSTEM.norm>
0

>  <SCORE.heavy>
52

>  <SCORE.norm>
0.399231

>  <RMSD>
24.020

$$$$
2esj_lig
 OpenBabel11021811423D
libRbt.so/2013.1/901 2013/11/27
 52 56  0  0  0  0  0  0  0  0999 V2000
    5.8994   12.9365   12.8719 C   0  0  2  0  0  0  0  0  0  0  0  0
    5.7977   12.9399   14.3087 O   0  0  0  0  0  0  0  0  0  0  0  0
    8.1099   16.4277   15.1900 C   0  0  2  0  0  0  0  0  0  0  0  0
    8.7144   17.6094   15.8269 N   0  0  0  0  0  0  0  0  0  0  0  0
    7.3121   11.5317   15.8838 C   0  0  1  0  0  0  0  0  0  0  0  0
    5.7366    7.5846   15.7010 C   0  0  1  0  0  0  0  0  0  0  0  0
    3.9933    6.0705   19.7116 C   0  0  1  0  0  0  0  0  0  0  0  0
    4.4603   12.7695   12.3007 C   0  0  2  0  0  0  0  0  0  0  0  0
    3.5502   13.8088   12.7811 N   0  0  0  0  0  0  0  0  0  0  0  0
    6.5357   16.5647   15.1610 C   0  0  0  0  0  0  0  0  0  0  0  0
    8.0375   10.2304   16.2284 C   0  0  2  0  0  0  0  0  0  0  0  0
    8.6959    9.6472   15.0831 O   0  0  0  0  0  0  0  0  0  0  0  0
    4.4916    7.4848   16.6916 C   0  0  2  0  0  0  0  0  0  0  0  0
    4.7826    8.1576   17.9853 N   0  0  0  0  0  0  0  0  0  0  0  0
    3.4923    4.6476   19.9304 C   0  0  1  0  0  0  0  0  0  0  0  0
    2.8322    4.5693   21.2097 O   0  0  0  0  0  0  0  0  0  0  0  0
    3.8841   11.3595   12.6454 C   0  0  0  0  0  0  0  0  0  0  0  0
    5.9084   15.3155   14.4211 C   0  0  2  0  0  0  0  0  0  0  0  0
    4.4452   15.4115   14.3924 N   0  0  0  0  0  0  0  0  0  0  0  0
    6.8971    9.4149   16.7653 C   0  0  2  0  0  0  0  0  0  0  0  0
    6.0978    8.9344   15.7143 O   0  0  0  0  0  0  0  0  0  0  0  0
    4.0469    5.9606   16.8111 C   0  0  1  0  0  0  0  0  0  0  0  0
    3.8644    5.4275   15.4954 O   0  0  0  0  0  0  0  0  0  0  0  0
    2.5285    4.1266   18.8711 C   0  0  1  0  0  0  0  0  0  0  0  0
    1.9895    2.8931   19.3591 O   0  0  0  0  0  0  0  0  0  0  0  0
    4.8810   10.2725   12.1450 C   0  0  2  0  0  0  0  0  0  0  0  0
    4.3831    8.9636   12.3571 O   0  0  0  0  0  0  0  0  0  0  0  0
    6.3499   13.9993   15.1124 C   0  0  2  0  0  0  0  0  0  0  0  0
    5.9799   10.4084   17.5079 C   0  0  2  0  0  0  0  0  0  0  0  0
    6.1971   11.6084   16.7828 O   0  0  0  0  0  0  0  0  0  0  0  0
    5.1793    5.0785   17.4811 C   0  0  2  0  0  0  0  0  0  0  0  0
    5.3100    5.6150   18.7985 O   0  0  0  0  0  0  0  0  0  0  0  0
    1.3833    5.0894   18.5525 C   0  0  2  0  0  0  0  0  0  0  0  0
    0.7621    4.6140   17.3472 O   0  0  0  0  0  0  0  0  0  0  0  0
    6.2380   10.4893   12.8596 C   0  0  2  0  0  0  0  0  0  0  0  0
    6.7200   11.8105   12.4813 O   0  0  0  0  0  0  0  0  0  0  0  0
    7.8961   13.8538   15.2825 C   0  0  2  0  0  0  0  0  0  0  0  0
    8.1924   12.6268   16.0058 O   0  0  0  0  0  0  0  0  0  0  0  0
    6.2893   10.6471   18.9854 C   0  0  0  0  0  0  0  0  0  0  0  0
    6.0591   12.0375   19.2561 O   0  0  0  0  0  0  0  0  0  0  0  0
    6.4635    5.4449   16.7623 C   0  0  1  0  0  0  0  0  0  0  0  0
    6.8736    6.6998   16.1777 O   0  0  0  0  0  0  0  0  0  0  0  0
    1.8697    6.5326   18.4803 C   0  0  2  0  0  0  0  0  0  0  0  0
    2.9598    6.9945   19.2928 O   0  0  0  0  0  0  0  0  0  0  0  0
    7.2900    9.5289   12.4201 C   0  0  0  0  0  0  0  0  0  0  0  0
    6.9803    8.2770   12.9832 O   0  0  0  0  0  0  0  0  0  0  0  0
    8.5029   15.1227   15.9709 C   0  0  1  0  0  0  0  0  0  0  0  0
    9.9483   14.9927   15.9138 O   0  0  0  0  0  0  0  0  0  0  0  0
    7.7364    4.6363   17.1607 C   0  0  0  0  0  0  0  0  0  0  0  0
    7.9763    3.4587   16.3003 N   0  0  0  0  0  0  0  0  0  0  0  0
    0.9428    7.7104   18.1883 C   0  0  0  0  0  0  0  0  0  0  0  0
   -0.0527    7.3256   17.2036 O   0  0  0  0  0  0  0  0  0  0  0  0
  1  2  1  1  0  0  0
  1  8  1  0  0  0  0
  1 36  1  0  0  0  0
  3  4  1  1  0  0  0
  3 10  1  0  0  0  0
  3 47  1  0  0  0  0
  5 11  1  0  0  0  0
  5 30  1  0  0  0  0
  5 38  1  1  0  0  0
  6 21  1  1  0  0  0
  6 42  1  0  0  0  0
  7 15  1  0  0  0  0
  7 44  1  0  0  0  0
  7 32  1  6  0  0  0
  8  9  1  1  0  0  0
  8 17  1  0  0  0  0
 11 12  1  6  0  0  0
 11 20  1  0  0  0  0
 13  6  1  0  0  0  0
 13 14  1  1  0  0  0
 15 16  1  1  0  0  0
 15 24  1  0  0  0  0
 17 26  1  0  0  0  0
 18 10  1  0  0  0  0
 18 19  1  1  0  0  0
 20 21  1  6  0  0  0
 20 29  1  0  0  0  0
 22 13  1  0  0  0  0
 22 23  1  6  0  0  0
 24 25  1  1  0  0  0
 24 33  1  0  0  0  0
 26 27  1  1  0  0  0
 26 35  1  0  0  0  0
 28  2  1  6  0  0  0
 28 18  1  0  0  0  0
 29 30  1  0  0  0  0
 29 39  1  1  0  0  0
 31 22  1  0  0  0  0
 31 32  1  1  0  0  0
 31 41  1  0  0  0  0
 33 34  1  6  0  0  0
 33 43  1  0  0  0  0
 35 36  1  0  0  0  0
 35 45  1  6  0  0  0
 37 28  1  0  0  0  0
 37 38  1  1  0  0  0
 39 40  1  0  0  0  0
 41 42  1  0  0  0  0
 41 49  1  1  0  0  0
 43 44  1  0  0  0  0
 43 51  1  1  0  0  0
 45 46  1  0  0  0  0
 47 37  1  0  0  0  0
 47 48  1  6  0  0  0
 49 50  1  0  0  0  0
 51 52  1  0  0  0  0
M  END
>  <CHROM.1>
-126.28589547,157.61877533,81.60598873,69.62680376,131.97314551,46.29151263
142.35324245,41.00825738,-73.42814903,29.58584951,93.09239936,-37.65597327
5.40003805,9.48805614,16.15116413,1.04172812,-0.80102261,-0.78783181

>  <Name>
2esj_lig

>  <RI>
0

>  <Rbt.Current_Directory>
/home/itssahil/PROJECTS/Mol_Feturizer/New_Systems/rnas/2esj

>  <Rbt.Executable>
rbdock ($Id: //depot/dev/client3/rdock/2013.1/src/exe/rbdock.cxx#4 $)

>  <Rbt.Library>
libRbt.so (2013.1, Build901 2013/11/27)

>  <Rbt.Parameter_File>
/export/apps/rDock/src/rDock_2013.1_src/data/scripts/dock_solv.prm

>  <Rbt.Receptor>
prm/blind_docking_80.prm

>  <SCORE>
14.4919

>  <SCORE.INTER>
-3.0003

>  <SCORE.INTER.CONST>
1

>  <SCORE.INTER.POLAR>
0

>  <SCORE.INTER.ROT>
12

>  <SCORE.INTER.SOLV>
16.8932

>  <SCORE.INTER.VDW>
-19.2313

>  <SCORE.INTER.norm>
-0.0576981

>  <SCORE.INTRA>
12.1952

>  <SCORE.INTRA.DIHEDRAL>
0.914968

>  <SCORE.INTRA.DIHEDRAL.0>
32.9766

>  <SCORE.INTRA.POLAR>
0

>  <SCORE.INTRA.POLAR.0>
0

>  <SCORE.INTRA.REPUL>
0.132562

>  <SCORE.INTRA.REPUL.0>
0

>  <SCORE.INTRA.SOLV>
7.79106

>  <SCORE.INTRA.SOLV.lig_0>
-114.358

>  <SCORE.INTRA.VDW>
7.17939

>  <SCORE.INTRA.VDW.0>
-8.24257

>  <SCORE.INTRA.norm>
0.234523

>  <SCORE.RESTR>
5.29701

>  <SCORE.RESTR.CAVITY>
5.29701

>  <SCORE.RESTR.norm>
0.101866

>  <SCORE.SYSTEM>
0

>  <SCORE.SYSTEM.CONST>
0

>  <SCORE.SYSTEM.DIHEDRAL>
0

>  <SCORE.SYSTEM.SOLV>
0

>  <SCORE.SYSTEM.norm>
0

>  <SCORE.heavy>
52

>  <SCORE.norm>
0.278691

>  <RMSD>
24.052

$$$$
2esj_lig
 OpenBabel11021811423D
libRbt.so/2013.1/901 2013/11/27
 52 56  0  0  0  0  0  0  0  0999 V2000
    7.4874   14.3758   14.3682 C   0  0  2  0  0  0  0  0  0  0  0  0
    7.4784   12.9551   14.1310 O   0  0  0  0  0  0  0  0  0  0  0  0
    4.7866   12.7998   10.8116 C   0  0  2  0  0  0  0  0  0  0  0  0
    4.0190   12.3989    9.6211 N   0  0  0  0  0  0  0  0  0  0  0  0
    5.0146   10.0383   14.2630 C   0  0  1  0  0  0  0  0  0  0  0  0
    5.4681    7.4269   14.7305 C   0  0  1  0  0  0  0  0  0  0  0  0
    4.2609    6.0038   18.8826 C   0  0  1  0  0  0  0  0  0  0  0  0
    7.9564   14.6030   15.8356 C   0  0  2  0  0  0  0  0  0  0  0  0
    9.2612   13.9972   16.0996 N   0  0  0  0  0  0  0  0  0  0  0  0
    6.3373   12.7177   10.5182 C   0  0  0  0  0  0  0  0  0  0  0  0
    3.6583    9.5244   13.7785 C   0  0  2  0  0  0  0  0  0  0  0  0
    2.7677    9.2075   14.8702 O   0  0  0  0  0  0  0  0  0  0  0  0
    5.9623    5.9468   15.0566 C   0  0  2  0  0  0  0  0  0  0  0  0
    4.8152    5.0618   15.3912 N   0  0  0  0  0  0  0  0  0  0  0  0
    3.9482    4.5648   19.2763 C   0  0  1  0  0  0  0  0  0  0  0  0
    3.3627    4.5508   20.5936 O   0  0  0  0  0  0  0  0  0  0  0  0
    6.9023   14.0540   16.8489 C   0  0  0  0  0  0  0  0  0  0  0  0
    7.1437   13.2080   11.7874 C   0  0  2  0  0  0  0  0  0  0  0  0
    8.5881   13.1288   11.5458 N   0  0  0  0  0  0  0  0  0  0  0  0
    4.0891    8.3354   12.9692 C   0  0  2  0  0  0  0  0  0  0  0  0
    4.4280    7.2632   13.8118 O   0  0  0  0  0  0  0  0  0  0  0  0
    7.1046    6.0152   16.1636 C   0  0  1  0  0  0  0  0  0  0  0  0
    8.1049    6.9468   15.7392 O   0  0  0  0  0  0  0  0  0  0  0  0
    3.0073    3.8222   18.3353 C   0  0  1  0  0  0  0  0  0  0  0  0
    2.6462    2.5952   18.9789 O   0  0  0  0  0  0  0  0  0  0  0  0
    5.5188   14.6955   16.5326 C   0  0  2  0  0  0  0  0  0  0  0  0
    4.5290   14.2991   17.4649 O   0  0  0  0  0  0  0  0  0  0  0  0
    6.7574   12.3673   13.0320 C   0  0  2  0  0  0  0  0  0  0  0  0
    5.4277    8.7329   12.3138 C   0  0  2  0  0  0  0  0  0  0  0  0
    5.9641    9.6386   13.2650 O   0  0  0  0  0  0  0  0  0  0  0  0
    6.5470    6.5760   17.5362 C   0  0  2  0  0  0  0  0  0  0  0  0
    5.5798    5.6076   17.9450 O   0  0  0  0  0  0  0  0  0  0  0  0
    1.7395    4.6043   17.9873 C   0  0  2  0  0  0  0  0  0  0  0  0
    1.1259    3.9305   16.8763 O   0  0  0  0  0  0  0  0  0  0  0  0
    5.1238   14.3137   15.0844 C   0  0  2  0  0  0  0  0  0  0  0  0
    6.1376   14.8691   14.1986 O   0  0  0  0  0  0  0  0  0  0  0  0
    5.2214   12.3068   13.3111 C   0  0  2  0  0  0  0  0  0  0  0  0
    4.9677   11.4357   14.4483 O   0  0  0  0  0  0  0  0  0  0  0  0
    5.3413    9.4216   10.9522 C   0  0  0  0  0  0  0  0  0  0  0  0
    6.6801    9.5698   10.4569 O   0  0  0  0  0  0  0  0  0  0  0  0
    5.7541    7.8187   17.1796 C   0  0  1  0  0  0  0  0  0  0  0  0
    4.9918    8.1234   15.9919 O   0  0  0  0  0  0  0  0  0  0  0  0
    2.0421    6.0776   17.7378 C   0  0  2  0  0  0  0  0  0  0  0  0
    3.1040    6.7496   18.4324 O   0  0  0  0  0  0  0  0  0  0  0  0
    3.8299   14.9159   14.6534 C   0  0  0  0  0  0  0  0  0  0  0  0
    3.5853   14.4907   13.3345 O   0  0  0  0  0  0  0  0  0  0  0  0
    4.4385   11.8684   12.0277 C   0  0  1  0  0  0  0  0  0  0  0  0
    3.0232   12.0256   12.3130 O   0  0  0  0  0  0  0  0  0  0  0  0
    5.1731    8.6372   18.3734 C   0  0  0  0  0  0  0  0  0  0  0  0
    6.1695    9.5145   19.0231 N   0  0  0  0  0  0  0  0  0  0  0  0
    0.9657    7.1003   17.3811 C   0  0  0  0  0  0  0  0  0  0  0  0
    1.2007    8.3390   18.1015 O   0  0  0  0  0  0  0  0  0  0  0  0
  1  2  1  1  0  0  0
  1  8  1  0  0  0  0
  1 36  1  0  0  0  0
  3  4  1  6  0  0  0
  3 10  1  0  0  0  0
  3 47  1  0  0  0  0
  5 11  1  0  0  0  0
  5 30  1  0  0  0  0
  5 38  1  6  0  0  0
  6 21  1  6  0  0  0
  6 42  1  0  0  0  0
  7 15  1  0  0  0  0
  7 44  1  0  0  0  0
  7 32  1  6  0  0  0
  8  9  1  6  0  0  0
  8 17  1  0  0  0  0
 11 12  1  1  0  0  0
 11 20  1  0  0  0  0
 13  6  1  0  0  0  0
 13 14  1  1  0  0  0
 15 16  1  1  0  0  0
 15 24  1  0  0  0  0
 17 26  1  0  0  0  0
 18 10  1  0  0  0  0
 18 19  1  6  0  0  0
 20 21  1  1  0  0  0
 20 29  1  0  0  0  0
 22 13  1  0  0  0  0
 22 23  1  6  0  0  0
 24 25  1  1  0  0  0
 24 33  1  0  0  0  0
 26 27  1  1  0  0  0
 26 35  1  0  0  0  0
 28  2  1  1  0  0  0
 28 18  1  0  0  0  0
 29 30  1  0  0  0  0
 29 39  1  6  0  0  0
 31 22  1  0  0  0  0
 31 32  1  6  0  0  0
 31 41  1  0  0  0  0
 33 34  1  6  0  0  0
 33 43  1  0  0  0  0
 35 36  1  0  0  0  0
 35 45  1  6  0  0  0
 37 28  1  0  0  0  0
 37 38  1  1  0  0  0
 39 40  1  0  0  0  0
 41 42  1  0  0  0  0
 41 49  1  1  0  0  0
 43 44  1  0  0  0  0
 43 51  1  1  0  0  0
 45 46  1  0  0  0  0
 47 37  1  0  0  0  0
 47 48  1  1  0  0  0
 49 50  1  0  0  0  0
 51 52  1  0  0  0  0
M  END
>  <CHROM.1>
162.33060353,-85.87007405,-157.57878219,-163.86750587,-60.52095153,48.05449821
-173.73543525,-151.40616162,-179.74725219,-77.40195777,79.78014259,138.40161697
4.95888237,9.58619101,15.21976813,-0.46477971,1.27340147,1.51994659

>  <Name>
2esj_lig

>  <RI>
0

>  <Rbt.Current_Directory>
/home/itssahil/PROJECTS/Mol_Feturizer/New_Systems/rnas/2esj

>  <Rbt.Executable>
rbdock ($Id: //depot/dev/client3/rdock/2013.1/src/exe/rbdock.cxx#4 $)

>  <Rbt.Library>
libRbt.so (2013.1, Build901 2013/11/27)

>  <Rbt.Parameter_File>
/export/apps/rDock/src/rDock_2013.1_src/data/scripts/dock_solv.prm

>  <Rbt.Receptor>
prm/blind_docking_80.prm

>  <SCORE>
14.0453

>  <SCORE.INTER>
2.19138

>  <SCORE.INTER.CONST>
1

>  <SCORE.INTER.POLAR>
-0.18528

>  <SCORE.INTER.ROT>
12

>  <SCORE.INTER.SOLV>
25.4376

>  <SCORE.INTER.VDW>
-18.0007

>  <SCORE.INTER.norm>
0.042142

>  <SCORE.INTRA>
7.93577

>  <SCORE.INTRA.DIHEDRAL>
-13.9355

>  <SCORE.INTRA.DIHEDRAL.0>
32.9766

>  <SCORE.INTRA.POLAR>
0

>  <SCORE.INTRA.POLAR.0>
0

>  <SCORE.INTRA.REPUL>
0

>  <SCORE.INTRA.REPUL.0>
0

>  <SCORE.INTRA.SOLV>
3.67413

>  <SCORE.INTRA.SOLV.lig_0>
-114.358

>  <SCORE.INTRA.VDW>
13.0664

>  <SCORE.INTRA.VDW.0>
-8.24257

>  <SCORE.INTRA.norm>
0.152611

>  <SCORE.RESTR>
3.91811

>  <SCORE.RESTR.CAVITY>
3.91811

>  <SCORE.RESTR.norm>
0.0753483

>  <SCORE.SYSTEM>
0

>  <SCORE.SYSTEM.CONST>
0

>  <SCORE.SYSTEM.DIHEDRAL>
0

>  <SCORE.SYSTEM.SOLV>
0

>  <SCORE.SYSTEM.norm>
0

>  <SCORE.heavy>
52

>  <SCORE.norm>
0.270101

>  <RMSD>
24.063

$$$$
2esj_lig
 OpenBabel11021811423D
libRbt.so/2013.1/901 2013/11/27
 52 56  0  0  0  0  0  0  0  0999 V2000
    7.3576   13.9604   15.7841 C   0  0  2  0  0  0  0  0  0  0  0  0
    7.5491   13.8477   14.3609 O   0  0  0  0  0  0  0  0  0  0  0  0
    5.0518   11.9371   11.4625 C   0  0  2  0  0  0  0  0  0  0  0  0
    4.4160   10.9767   10.5455 N   0  0  0  0  0  0  0  0  0  0  0  0
    5.6627   10.7840   15.6866 C   0  0  1  0  0  0  0  0  0  0  0  0
    6.7899    7.1514   17.0872 C   0  0  1  0  0  0  0  0  0  0  0  0
    2.6448    3.7673   16.8792 C   0  0  1  0  0  0  0  0  0  0  0  0
    6.2468   15.0249   16.0247 C   0  0  2  0  0  0  0  0  0  0  0  0
    5.0027   14.6930   15.3311 N   0  0  0  0  0  0  0  0  0  0  0  0
    6.5988   12.0451   11.1581 C   0  0  0  0  0  0  0  0  0  0  0  0
    7.1769   10.5829   15.7597 C   0  0  2  0  0  0  0  0  0  0  0  0
    7.7468   10.2231   14.4825 O   0  0  0  0  0  0  0  0  0  0  0  0
    6.4637    5.9308   16.1151 C   0  0  2  0  0  0  0  0  0  0  0  0
    5.3582    6.2720   15.1811 N   0  0  0  0  0  0  0  0  0  0  0  0
    1.5982    4.6363   17.5669 C   0  0  1  0  0  0  0  0  0  0  0  0
    0.2962    4.3206   17.0342 O   0  0  0  0  0  0  0  0  0  0  0  0
    6.7325   16.4447   15.5918 C   0  0  0  0  0  0  0  0  0  0  0  0
    7.2528   13.1237   12.1123 C   0  0  2  0  0  0  0  0  0  0  0  0
    8.6932   13.2338   11.8591 N   0  0  0  0  0  0  0  0  0  0  0  0
    7.2600    9.5019   16.7983 C   0  0  2  0  0  0  0  0  0  0  0  0
    6.9124    8.2586   16.2435 O   0  0  0  0  0  0  0  0  0  0  0  0
    6.2252    4.6223   16.9904 C   0  0  1  0  0  0  0  0  0  0  0  0
    7.3319    4.4542   17.8823 O   0  0  0  0  0  0  0  0  0  0  0  0
    1.5321    4.4988   19.0831 C   0  0  1  0  0  0  0  0  0  0  0  0
    0.3581    5.1923   19.5204 O   0  0  0  0  0  0  0  0  0  0  0  0
    8.0688   16.7646   16.3252 C   0  0  2  0  0  0  0  0  0  0  0  0
    8.5277   18.0732   16.0367 O   0  0  0  0  0  0  0  0  0  0  0  0
    6.9916   12.7616   13.5975 C   0  0  2  0  0  0  0  0  0  0  0  0
    6.1259    9.7928   17.8027 C   0  0  2  0  0  0  0  0  0  0  0  0
    5.1568   10.4216   16.9789 O   0  0  0  0  0  0  0  0  0  0  0  0
    4.9458    4.7687   17.9129 C   0  0  2  0  0  0  0  0  0  0  0  0
    3.8614    4.8997   16.9924 O   0  0  0  0  0  0  0  0  0  0  0  0
    1.4752    3.0494   19.5689 C   0  0  2  0  0  0  0  0  0  0  0  0
    1.7319    3.0732   20.9825 O   0  0  0  0  0  0  0  0  0  0  0  0
    9.1132   15.6929   15.9255 C   0  0  2  0  0  0  0  0  0  0  0  0
    8.6031   14.4040   16.3722 O   0  0  0  0  0  0  0  0  0  0  0  0
    5.4867   12.5218   13.9421 C   0  0  2  0  0  0  0  0  0  0  0  0
    5.3651   12.1167   15.3340 O   0  0  0  0  0  0  0  0  0  0  0  0
    6.4712   10.7149   18.9715 C   0  0  0  0  0  0  0  0  0  0  0  0
    6.6593   12.0347   18.4400 O   0  0  0  0  0  0  0  0  0  0  0  0
    5.0768    6.1226   18.5838 C   0  0  1  0  0  0  0  0  0  0  0  0
    5.6756    7.3437   18.0993 O   0  0  0  0  0  0  0  0  0  0  0  0
    2.4212    2.1558   18.7745 C   0  0  2  0  0  0  0  0  0  0  0  0
    2.7066    2.4141   17.3912 O   0  0  0  0  0  0  0  0  0  0  0  0
   10.4258   15.8724   16.6091 C   0  0  0  0  0  0  0  0  0  0  0  0
   10.8576   17.1873   16.3547 O   0  0  0  0  0  0  0  0  0  0  0  0
    4.8464   11.4894   12.9540 C   0  0  1  0  0  0  0  0  0  0  0  0
    3.4181   11.4720   13.2169 O   0  0  0  0  0  0  0  0  0  0  0  0
    3.9865    6.4819   19.6397 C   0  0  0  0  0  0  0  0  0  0  0  0
    3.9747    7.9137   20.0066 N   0  0  0  0  0  0  0  0  0  0  0  0
    2.5663    0.6580   19.0335 C   0  0  0  0  0  0  0  0  0  0  0  0
    2.7791    0.4181   20.4498 O   0  0  0  0  0  0  0  0  0  0  0  0
  1  2  1  6  0  0  0
  1  8  1  0  0  0  0
  1 36  1  0  0  0  0
  3  4  1  6  0  0  0
  3 10  1  0  0  0  0
  3 47  1  0  0  0  0
  5 11  1  0  0  0  0
  5 30  1  0  0  0  0
  5 38  1  1  0  0  0
  6 21  1  6  0  0  0
  6 42  1  0  0  0  0
  7 15  1  0  0  0  0
  7 44  1  0  0  0  0
  7 32  1  1  0  0  0
  8  9  1  6  0  0  0
  8 17  1  0  0  0  0
 11 12  1  6  0  0  0
 11 20  1  0  0  0  0
 13  6  1  0  0  0  0
 13 14  1  1  0  0  0
 15 16  1  6  0  0  0
 15 24  1  0  0  0  0
 17 26  1  0  0  0  0
 18 10  1  0  0  0  0
 18 19  1  1  0  0  0
 20 21  1  6  0  0  0
 20 29  1  0  0  0  0
 22 13  1  0  0  0  0
 22 23  1  1  0  0  0
 24 25  1  6  0  0  0
 24 33  1  0  0  0  0
 26 27  1  6  0  0  0
 26 35  1  0  0  0  0
 28  2  1  1  0  0  0
 28 18  1  0  0  0  0
 29 30  1  0  0  0  0
 29 39  1  1  0  0  0
 31 22  1  0  0  0  0
 31 32  1  6  0  0  0
 31 41  1  0  0  0  0
 33 34  1  1  0  0  0
 33 43  1  0  0  0  0
 35 36  1  0  0  0  0
 35 45  1  1  0  0  0
 37 28  1  0  0  0  0
 37 38  1  1  0  0  0
 39 40  1  0  0  0  0
 41 42  1  0  0  0  0
 41 49  1  6  0  0  0
 43 44  1  0  0  0  0
 43 51  1  6  0  0  0
 45 46  1  0  0  0  0
 47 37  1  0  0  0  0
 47 48  1  1  0  0  0
 49 50  1  0  0  0  0
 51 52  1  0  0  0  0
M  END
>  <CHROM.1>
-101.52733566,78.21401151,-177.30600502,106.44451529,-173.17889331,172.09825806
69.54696160,115.74309015,-54.42503992,-78.44707980,-165.89157303,-49.97450234
5.48371142,9.33230752,16.43618723,-0.72716182,1.03405263,2.04783304

>  <Name>
2esj_lig

>  <RI>
0

>  <Rbt.Current_Directory>
/home/itssahil/PROJECTS/Mol_Feturizer/New_Systems/rnas/2esj

>  <Rbt.Executable>
rbdock ($Id: //depot/dev/client3/rdock/2013.1/src/exe/rbdock.cxx#4 $)

>  <Rbt.Library>
libRbt.so (2013.1, Build901 2013/11/27)

>  <Rbt.Parameter_File>
/export/apps/rDock/src/rDock_2013.1_src/data/scripts/dock_solv.prm

>  <Rbt.Receptor>
prm/blind_docking_80.prm

>  <SCORE>
6.17914

>  <SCORE.INTER>
-7.36894

>  <SCORE.INTER.CONST>
1

>  <SCORE.INTER.POLAR>
0

>  <SCORE.INTER.ROT>
12

>  <SCORE.INTER.SOLV>
18.3944

>  <SCORE.INTER.VDW>
-22.6441

>  <SCORE.INTER.norm>
-0.14171

>  <SCORE.INTRA>
4.98176

>  <SCORE.INTRA.DIHEDRAL>
-5.26971

>  <SCORE.INTRA.DIHEDRAL.0>
32.9766

>  <SCORE.INTRA.POLAR>
0

>  <SCORE.INTRA.POLAR.0>
0

>  <SCORE.INTRA.REPUL>
0

>  <SCORE.INTRA.REPUL.0>
0

>  <SCORE.INTRA.SOLV>
2.7075

>  <SCORE.INTRA.SOLV.lig_0>
-114.358

>  <SCORE.INTRA.VDW>
6.26287

>  <SCORE.INTRA.VDW.0>
-8.24257

>  <SCORE.INTRA.norm>
0.0958031

>  <SCORE.RESTR>
8.56632

>  <SCORE.RESTR.CAVITY>
8.56632

>  <SCORE.RESTR.norm>
0.164737

>  <SCORE.SYSTEM>
0

>  <SCORE.SYSTEM.CONST>
0

>  <SCORE.SYSTEM.DIHEDRAL>
0

>  <SCORE.SYSTEM.SOLV>
0

>  <SCORE.SYSTEM.norm>
0

>  <SCORE.heavy>
52

>  <SCORE.norm>
0.11883

>  <RMSD>
24.075

$$$$
2esj_lig
 OpenBabel11021811423D
libRbt.so/2013.1/901 2013/11/27
 52 56  0  0  0  0  0  0  0  0999 V2000
    4.2299    8.4930   13.7662 C   0  0  2  0  0  0  0  0  0  0  0  0
    4.1751    9.9164   13.9800 O   0  0  0  0  0  0  0  0  0  0  0  0
    3.3099   11.2152    9.9985 C   0  0  2  0  0  0  0  0  0  0  0  0
    2.8951   11.9801    8.8110 N   0  0  0  0  0  0  0  0  0  0  0  0
    6.1953   11.5549   14.0599 C   0  0  1  0  0  0  0  0  0  0  0  0
    6.8208   11.5702   18.1599 C   0  0  1  0  0  0  0  0  0  0  0  0
    3.5441    8.4496   20.6194 C   0  0  1  0  0  0  0  0  0  0  0  0
    4.7016    7.8369   15.0974 C   0  0  2  0  0  0  0  0  0  0  0  0
    3.8366    8.1869   16.2237 N   0  0  0  0  0  0  0  0  0  0  0  0
    2.1105   11.0946   11.0204 C   0  0  0  0  0  0  0  0  0  0  0  0
    7.5235   12.1174   14.5678 C   0  0  2  0  0  0  0  0  0  0  0  0
    8.5921   11.1480   14.5048 O   0  0  0  0  0  0  0  0  0  0  0  0
    7.3560   10.2356   18.8481 C   0  0  2  0  0  0  0  0  0  0  0  0
    6.8235    9.0292   18.1611 N   0  0  0  0  0  0  0  0  0  0  0  0
    4.0778    7.0745   21.0040 C   0  0  1  0  0  0  0  0  0  0  0  0
    3.2506    6.5201   22.0465 O   0  0  0  0  0  0  0  0  0  0  0  0
    6.1779    8.2310   15.4204 C   0  0  0  0  0  0  0  0  0  0  0  0
    2.5565   10.2204   12.2608 C   0  0  2  0  0  0  0  0  0  0  0  0
    1.4640   10.1042   13.2322 N   0  0  0  0  0  0  0  0  0  0  0  0
    7.1362   12.5182   15.9619 C   0  0  2  0  0  0  0  0  0  0  0  0
    7.0574   11.3891   16.7946 O   0  0  0  0  0  0  0  0  0  0  0  0
    7.0600   10.3053   20.4110 C   0  0  1  0  0  0  0  0  0  0  0  0
    7.5697   11.5407   20.9237 O   0  0  0  0  0  0  0  0  0  0  0  0
    4.1453    6.0612   19.8679 C   0  0  1  0  0  0  0  0  0  0  0  0
    4.4357    4.7872   20.4534 O   0  0  0  0  0  0  0  0  0  0  0  0
    7.0737    7.8702   14.1985 C   0  0  2  0  0  0  0  0  0  0  0  0
    8.4423    8.1310   14.4536 O   0  0  0  0  0  0  0  0  0  0  0  0
    3.8127   10.8344   12.9316 C   0  0  2  0  0  0  0  0  0  0  0  0
    5.6791   13.0161   15.8690 C   0  0  2  0  0  0  0  0  0  0  0  0
    5.1725   12.2455   14.7908 O   0  0  0  0  0  0  0  0  0  0  0  0
    5.5035   10.3256   20.7046 C   0  0  2  0  0  0  0  0  0  0  0  0
    5.0362    9.0687   20.2125 O   0  0  0  0  0  0  0  0  0  0  0  0
    2.8546    5.9619   19.0528 C   0  0  2  0  0  0  0  0  0  0  0  0
    3.1701    5.2244   17.8607 O   0  0  0  0  0  0  0  0  0  0  0  0
    6.5621    8.6603   12.9684 C   0  0  2  0  0  0  0  0  0  0  0  0
    5.1928    8.2320   12.7181 O   0  0  0  0  0  0  0  0  0  0  0  0
    5.0002   11.0928   11.9497 C   0  0  2  0  0  0  0  0  0  0  0  0
    6.0915   11.7361   12.6651 O   0  0  0  0  0  0  0  0  0  0  0  0
    5.4850   14.5011   15.5645 C   0  0  0  0  0  0  0  0  0  0  0  0
    6.0800   14.7614   14.2847 O   0  0  0  0  0  0  0  0  0  0  0  0
    4.9236   11.3702   19.7704 C   0  0  1  0  0  0  0  0  0  0  0  0
    5.3436   11.7666   18.4472 O   0  0  0  0  0  0  0  0  0  0  0  0
    2.2474    7.3369   18.7973 C   0  0  2  0  0  0  0  0  0  0  0  0
    2.3880    8.4034   19.7484 O   0  0  0  0  0  0  0  0  0  0  0  0
    7.3202    8.3557   11.7215 C   0  0  0  0  0  0  0  0  0  0  0  0
    7.1482    6.9863   11.4470 O   0  0  0  0  0  0  0  0  0  0  0  0
    4.5252   11.9159   10.7051 C   0  0  1  0  0  0  0  0  0  0  0  0
    5.6288   11.9430    9.7613 O   0  0  0  0  0  0  0  0  0  0  0  0
    3.4010   11.6708   19.9255 C   0  0  0  0  0  0  0  0  0  0  0  0
    3.0749   13.1095   19.8344 N   0  0  0  0  0  0  0  0  0  0  0  0
    0.9505    7.5431   18.0181 C   0  0  0  0  0  0  0  0  0  0  0  0
    1.1738    7.2844   16.6067 O   0  0  0  0  0  0  0  0  0  0  0  0
  1  2  1  1  0  0  0
  1  8  1  0  0  0  0
  1 36  1  0  0  0  0
  3  4  1  6  0  0  0
  3 10  1  0  0  0  0
  3 47  1  0  0  0  0
  5 11  1  0  0  0  0
  5 30  1  0  0  0  0
  5 38  1  6  0  0  0
  6 21  1  6  0  0  0
  6 42  1  0  0  0  0
  7 15  1  0  0  0  0
  7 44  1  0  0  0  0
  7 32  1  6  0  0  0
  8  9  1  1  0  0  0
  8 17  1  0  0  0  0
 11 12  1  1  0  0  0
 11 20  1  0  0  0  0
 13  6  1  0  0  0  0
 13 14  1  6  0  0  0
 15 16  1  1  0  0  0
 15 24  1  0  0  0  0
 17 26  1  0  0  0  0
 18 10  1  0  0  0  0
 18 19  1  1  0  0  0
 20 21  1  1  0  0  0
 20 29  1  0  0  0  0
 22 13  1  0  0  0  0
 22 23  1  6  0  0  0
 24 25  1  1  0  0  0
 24 33  1  0  0  0  0
 26 27  1  1  0  0  0
 26 35  1  0  0  0  0
 28  2  1  1  0  0  0
 28 18  1  0  0  0  0
 29 30  1  0  0  0  0
 29 39  1  6  0  0  0
 31 22  1  0  0  0  0
 31 32  1  6  0  0  0
 31 41  1  0  0  0  0
 33 34  1  6  0  0  0
 33 43  1  0  0  0  0
 35 36  1  0  0  0  0
 35 45  1  6  0  0  0
 37 28  1  0  0  0  0
 37 38  1  1  0  0  0
 39 40  1  0  0  0  0
 41 42  1  0  0  0  0
 41 49  1  6  0  0  0
 43 44  1  0  0  0  0
 43 51  1  1  0  0  0
 45 46  1  0  0  0  0
 47 37  1  0  0  0  0
 47 48  1  6  0  0  0
 49 50  1  0  0  0  0
 51 52  1  0  0  0  0
M  END
>  <CHROM.1>
178.06207765,170.72364666,-158.26732963,-130.61269327,174.60031350,46.08963802
61.02037346,164.51938101,61.50717153,24.72170092,138.56446534,-71.85709057
4.94403625,9.81000586,15.98999188,1.36507470,-1.03157643,-1.41837504

>  <Name>
2esj_lig

>  <RI>
224

>  <Rbt.Current_Directory>
/home/itssahil/PROJECTS/Mol_Feturizer/New_Systems/rnas/2esj

>  <Rbt.Executable>
rbdock ($Id: //depot/dev/client3/rdock/2013.1/src/exe/rbdock.cxx#4 $)

>  <Rbt.Library>
libRbt.so (2013.1, Build901 2013/11/27)

>  <Rbt.Parameter_File>
/export/apps/rDock/src/rDock_2013.1_src/data/scripts/dock_solv.prm

>  <Rbt.Receptor>
prm/blind_docking_100.prm

>  <SCORE>
-1.73984

>  <SCORE.INTER>
-6.08022

>  <SCORE.INTER.CONST>
1

>  <SCORE.INTER.POLAR>
-0.979796

>  <SCORE.INTER.ROT>
12

>  <SCORE.INTER.SOLV>
33.7537

>  <SCORE.INTER.VDW>
-23.6387

>  <SCORE.INTER.norm>
-0.116927

>  <SCORE.INTRA>
-0.788388

>  <SCORE.INTRA.DIHEDRAL>
-11.8428

>  <SCORE.INTRA.DIHEDRAL.0>
32.9766

>  <SCORE.INTRA.POLAR>
0

>  <SCORE.INTRA.POLAR.0>
0

>  <SCORE.INTRA.REPUL>
0.00405697

>  <SCORE.INTRA.REPUL.0>
0

>  <SCORE.INTRA.SOLV>
4.53934

>  <SCORE.INTRA.SOLV.lig_0>
-114.358

>  <SCORE.INTRA.VDW>
2.84306

>  <SCORE.INTRA.VDW.0>
-8.24257

>  <SCORE.INTRA.norm>
-0.0151613

>  <SCORE.RESTR>
5.12877

>  <SCORE.RESTR.CAVITY>
5.12877

>  <SCORE.RESTR.norm>
0.0986303

>  <SCORE.SYSTEM>
0

>  <SCORE.SYSTEM.CONST>
0

>  <SCORE.SYSTEM.DIHEDRAL>
0

>  <SCORE.SYSTEM.SOLV>
0

>  <SCORE.SYSTEM.norm>
0

>  <SCORE.heavy>
52

>  <SCORE.norm>
-0.0334584

>  <RMSD>
24.081

$$$$
2esj_lig
 OpenBabel11021811423D
libRbt.so/2013.1/901 2013/11/27
 52 56  0  0  0  0  0  0  0  0999 V2000
    7.7962   14.2929   13.8945 C   0  0  2  0  0  0  0  0  0  0  0  0
    7.4686   13.6758   15.1541 O   0  0  0  0  0  0  0  0  0  0  0  0
    8.3838   14.7959   19.1785 C   0  0  2  0  0  0  0  0  0  0  0  0
    8.4804   15.4859   20.4754 N   0  0  0  0  0  0  0  0  0  0  0  0
    5.1575   11.8410   16.9101 C   0  0  1  0  0  0  0  0  0  0  0  0
    4.9239    7.9119   15.4008 C   0  0  1  0  0  0  0  0  0  0  0  0
    4.7438    6.0117   19.1605 C   0  0  1  0  0  0  0  0  0  0  0  0
    6.4854   14.9038   13.3169 C   0  0  2  0  0  0  0  0  0  0  0  0
    5.8609   15.8491   14.2419 N   0  0  0  0  0  0  0  0  0  0  0  0
    8.8617   15.7494   18.0123 C   0  0  0  0  0  0  0  0  0  0  0  0
    5.7289   11.5008   15.5331 C   0  0  2  0  0  0  0  0  0  0  0  0
    4.8021   11.7932   14.4649 O   0  0  0  0  0  0  0  0  0  0  0  0
    3.4696    7.3490   15.7318 C   0  0  2  0  0  0  0  0  0  0  0  0
    2.9927    7.8428   17.0507 N   0  0  0  0  0  0  0  0  0  0  0  0
    3.8656    5.3931   20.2420 C   0  0  1  0  0  0  0  0  0  0  0  0
    4.6763    5.0914   21.3953 O   0  0  0  0  0  0  0  0  0  0  0  0
    5.4673   13.7816   12.9382 C   0  0  0  0  0  0  0  0  0  0  0  0
    8.8071   14.9722   16.6359 C   0  0  2  0  0  0  0  0  0  0  0  0
    9.2336   15.8404   15.5335 N   0  0  0  0  0  0  0  0  0  0  0  0
    6.0225   10.0393   15.7117 C   0  0  2  0  0  0  0  0  0  0  0  0
    4.8383    9.2866   15.6364 O   0  0  0  0  0  0  0  0  0  0  0  0
    3.4791    5.7651   15.5698 C   0  0  1  0  0  0  0  0  0  0  0  0
    4.0182    5.4346   14.2857 O   0  0  0  0  0  0  0  0  0  0  0  0
    2.6953    6.2541   20.7017 C   0  0  1  0  0  0  0  0  0  0  0  0
    2.1386    5.6271   21.8624 O   0  0  0  0  0  0  0  0  0  0  0  0
    6.1624   12.7767   11.9725 C   0  0  2  0  0  0  0  0  0  0  0  0
    5.2697   11.7716   11.5264 O   0  0  0  0  0  0  0  0  0  0  0  0
    7.3768   14.4321   16.3759 C   0  0  2  0  0  0  0  0  0  0  0  0
    6.4766    9.8754   17.1768 C   0  0  2  0  0  0  0  0  0  0  0  0
    5.7633   10.9168   17.8247 O   0  0  0  0  0  0  0  0  0  0  0  0
    4.4375    5.0810   16.6294 C   0  0  2  0  0  0  0  0  0  0  0  0
    3.8521    5.4020   17.8922 O   0  0  0  0  0  0  0  0  0  0  0  0
    3.0850    7.6939   21.0410 C   0  0  2  0  0  0  0  0  0  0  0  0
    1.8631    8.4426   21.1465 O   0  0  0  0  0  0  0  0  0  0  0  0
    7.3877   12.1694   12.6999 C   0  0  2  0  0  0  0  0  0  0  0  0
    8.2961   13.2656   13.0064 O   0  0  0  0  0  0  0  0  0  0  0  0
    6.7937   13.5768   17.5461 C   0  0  2  0  0  0  0  0  0  0  0  0
    5.4280   13.1876   17.2302 O   0  0  0  0  0  0  0  0  0  0  0  0
    7.9713   10.0408   17.4491 C   0  0  0  0  0  0  0  0  0  0  0  0
    8.6631    9.0427   16.6842 O   0  0  0  0  0  0  0  0  0  0  0  0
    5.7363    5.8620   16.5719 C   0  0  1  0  0  0  0  0  0  0  0  0
    5.9667    7.2591   16.2893 O   0  0  0  0  0  0  0  0  0  0  0  0
    4.0801    8.2564   20.0322 C   0  0  2  0  0  0  0  0  0  0  0  0
    5.0416    7.4116   19.3814 O   0  0  0  0  0  0  0  0  0  0  0  0
    8.1625   11.2222   11.8485 C   0  0  0  0  0  0  0  0  0  0  0  0
    7.3897   10.0549   11.7051 O   0  0  0  0  0  0  0  0  0  0  0  0
    6.9040   14.3447   18.9064 C   0  0  1  0  0  0  0  0  0  0  0  0
    6.5260   13.4152   19.9563 O   0  0  0  0  0  0  0  0  0  0  0  0
    6.9066    5.3281   17.4540 C   0  0  0  0  0  0  0  0  0  0  0  0
    7.5729    4.1372   16.8861 N   0  0  0  0  0  0  0  0  0  0  0  0
    4.6528    9.6689   20.1257 C   0  0  0  0  0  0  0  0  0  0  0  0
    3.5746   10.6417   20.1284 O   0  0  0  0  0  0  0  0  0  0  0  0
  1  2  1  1  0  0  0
  1  8  1  0  0  0  0
  1 36  1  0  0  0  0
  3  4  1  1  0  0  0
  3 10  1  0  0  0  0
  3 47  1  0  0  0  0
  5 11  1  0  0  0  0
  5 30  1  0  0  0  0
  5 38  1  1  0  0  0
  6 21  1  1  0  0  0
  6 42  1  0  0  0  0
  7 15  1  0  0  0  0
  7 44  1  0  0  0  0
  7 32  1  6  0  0  0
  8  9  1  1  0  0  0
  8 17  1  0  0  0  0
 11 12  1  6  0  0  0
 11 20  1  0  0  0  0
 13  6  1  0  0  0  0
 13 14  1  1  0  0  0
 15 16  1  1  0  0  0
 15 24  1  0  0  0  0
 17 26  1  0  0  0  0
 18 10  1  0  0  0  0
 18 19  1  6  0  0  0
 20 21  1  1  0  0  0
 20 29  1  0  0  0  0
 22 13  1  0  0  0  0
 22 23  1  6  0  0  0
 24 25  1  1  0  0  0
 24 33  1  0  0  0  0
 26 27  1  1  0  0  0
 26 35  1  0  0  0  0
 28  2  1  6  0  0  0
 28 18  1  0  0  0  0
 29 30  1  0  0  0  0
 29 39  1  6  0  0  0
 31 22  1  0  0  0  0
 31 32  1  1  0  0  0
 31 41  1  0  0  0  0
 33 34  1  6  0  0  0
 33 43  1  0  0  0  0
 35 36  1  0  0  0  0
 35 45  1  6  0  0  0
 37 28  1  0  0  0  0
 37 38  1  6  0  0  0
 39 40  1  0  0  0  0
 41 42  1  0  0  0  0
 41 49  1  1  0  0  0
 43 44  1  0  0  0  0
 43 51  1  1  0  0  0
 45 46  1  0  0  0  0
 47 37  1  0  0  0  0
 47 48  1  1  0  0  0
 49 50  1  0  0  0  0
 51 52  1  0  0  0  0
M  END
>  <CHROM.1>
-82.53981192,-71.31085318,166.60017570,-149.85448579,162.13284605,-64.30619579
-60.16826740,-131.57797020,-71.77196980,108.55262373,76.58650262,-57.35939418
5.78361497,10.19332485,16.82519153,0.00984725,-1.20902739,-2.02990712

>  <Name>
2esj_lig

>  <RI>
224

>  <Rbt.Current_Directory>
/home/itssahil/PROJECTS/Mol_Feturizer/New_Systems/rnas/2esj

>  <Rbt.Executable>
rbdock ($Id: //depot/dev/client3/rdock/2013.1/src/exe/rbdock.cxx#4 $)

>  <Rbt.Library>
libRbt.so (2013.1, Build901 2013/11/27)

>  <Rbt.Parameter_File>
/export/apps/rDock/src/rDock_2013.1_src/data/scripts/dock_solv.prm

>  <Rbt.Receptor>
prm/blind_docking_100.prm

>  <SCORE>
13.6465

>  <SCORE.INTER>
-0.293763

>  <SCORE.INTER.CONST>
1

>  <SCORE.INTER.POLAR>
0

>  <SCORE.INTER.ROT>
12

>  <SCORE.INTER.SOLV>
20.1067

>  <SCORE.INTER.VDW>
-18.4981

>  <SCORE.INTER.norm>
-0.00564929

>  <SCORE.INTRA>
3.4074

>  <SCORE.INTRA.DIHEDRAL>
-6.06715

>  <SCORE.INTRA.DIHEDRAL.0>
32.9766

>  <SCORE.INTRA.POLAR>
0

>  <SCORE.INTRA.POLAR.0>
0

>  <SCORE.INTRA.REPUL>
0

>  <SCORE.INTRA.REPUL.0>
0

>  <SCORE.INTRA.SOLV>
5.92134

>  <SCORE.INTRA.SOLV.lig_0>
-114.358

>  <SCORE.INTRA.VDW>
3.4803

>  <SCORE.INTRA.VDW.0>
-8.24257

>  <SCORE.INTRA.norm>
0.0655269

>  <SCORE.RESTR>
10.5328

>  <SCORE.RESTR.CAVITY>
10.5328

>  <SCORE.RESTR.norm>
0.202555

>  <SCORE.SYSTEM>
0

>  <SCORE.SYSTEM.CONST>
0

>  <SCORE.SYSTEM.DIHEDRAL>
0

>  <SCORE.SYSTEM.SOLV>
0

>  <SCORE.SYSTEM.norm>
0

>  <SCORE.heavy>
52

>  <SCORE.norm>
0.262432

>  <RMSD>
24.095

$$$$
2esj_lig
 OpenBabel11021811423D
libRbt.so/2013.1/901 2013/11/27
 52 56  0  0  0  0  0  0  0  0999 V2000
    3.8862   11.2243   11.2162 C   0  0  2  0  0  0  0  0  0  0  0  0
    5.0793   11.7973   11.7845 O   0  0  0  0  0  0  0  0  0  0  0  0
    8.0862   14.3644   10.1545 C   0  0  2  0  0  0  0  0  0  0  0  0
    8.8236   15.4892    9.5559 N   0  0  0  0  0  0  0  0  0  0  0  0
    6.5714   13.1738   14.6603 C   0  0  1  0  0  0  0  0  0  0  0  0
    7.7538   10.8335   15.7620 C   0  0  1  0  0  0  0  0  0  0  0  0
    4.7296    6.5973   16.6668 C   0  0  1  0  0  0  0  0  0  0  0  0
    2.7729   11.2864   12.3033 C   0  0  2  0  0  0  0  0  0  0  0  0
    2.5475   12.6481   12.7873 N   0  0  0  0  0  0  0  0  0  0  0  0
    6.8858   13.9355    9.2203 C   0  0  0  0  0  0  0  0  0  0  0  0
    8.0831   13.2692   14.8706 C   0  0  2  0  0  0  0  0  0  0  0  0
    8.8051   12.2499   14.1460 O   0  0  0  0  0  0  0  0  0  0  0  0
    6.1720   10.8171   15.5652 C   0  0  2  0  0  0  0  0  0  0  0  0
    5.4717   10.7136   16.8729 N   0  0  0  0  0  0  0  0  0  0  0  0
    3.2699    7.0357   16.6413 C   0  0  1  0  0  0  0  0  0  0  0  0
    2.4431    5.9088   16.2878 O   0  0  0  0  0  0  0  0  0  0  0  0
    3.1128   10.3466   13.5034 C   0  0  0  0  0  0  0  0  0  0  0  0
    6.1427   12.6895    9.8502 C   0  0  2  0  0  0  0  0  0  0  0  0
    5.0143   12.2793    9.0081 N   0  0  0  0  0  0  0  0  0  0  0  0
    8.1609   13.1360   16.3640 C   0  0  2  0  0  0  0  0  0  0  0  0
    7.9823   11.7964   16.7486 O   0  0  0  0  0  0  0  0  0  0  0  0
    5.7942    9.6877   14.5085 C   0  0  1  0  0  0  0  0  0  0  0  0
    6.5855    9.8732   13.3303 O   0  0  0  0  0  0  0  0  0  0  0  0
    2.7414    7.6157   17.9476 C   0  0  1  0  0  0  0  0  0  0  0  0
    1.3221    7.7450   17.8099 O   0  0  0  0  0  0  0  0  0  0  0  0
    3.3709    8.9101   12.9600 C   0  0  2  0  0  0  0  0  0  0  0  0
    3.6102    7.9862   14.0066 O   0  0  0  0  0  0  0  0  0  0  0  0
    5.6544   13.0191   11.2848 C   0  0  2  0  0  0  0  0  0  0  0  0
    6.9126   13.8532   16.9179 C   0  0  2  0  0  0  0  0  0  0  0  0
    5.9761   13.6676   15.8683 O   0  0  0  0  0  0  0  0  0  0  0  0
    6.1578    8.2441   15.0499 C   0  0  2  0  0  0  0  0  0  0  0  0
    5.3281    8.0806   16.2011 O   0  0  0  0  0  0  0  0  0  0  0  0
    3.0556    6.7581   19.1747 C   0  0  2  0  0  0  0  0  0  0  0  0
    2.7825    7.5676   20.3300 O   0  0  0  0  0  0  0  0  0  0  0  0
    4.5598    8.9697   11.9690 C   0  0  2  0  0  0  0  0  0  0  0  0
    4.1671    9.8465   10.8745 O   0  0  0  0  0  0  0  0  0  0  0  0
    6.7715   13.5648   12.2310 C   0  0  2  0  0  0  0  0  0  0  0  0
    6.1913   13.9107   13.5194 O   0  0  0  0  0  0  0  0  0  0  0  0
    7.0578   15.3466   17.2081 C   0  0  0  0  0  0  0  0  0  0  0  0
    6.9826   16.0401   15.9539 O   0  0  0  0  0  0  0  0  0  0  0  0
    7.5747    8.3500   15.5802 C   0  0  1  0  0  0  0  0  0  0  0  0
    8.2551    9.4671   16.1916 O   0  0  0  0  0  0  0  0  0  0  0  0
    4.4740    6.2016   19.1198 C   0  0  2  0  0  0  0  0  0  0  0  0
    5.1022    5.8811   17.8691 O   0  0  0  0  0  0  0  0  0  0  0  0
    4.8682    7.6510   11.3460 C   0  0  0  0  0  0  0  0  0  0  0  0
    3.8663    7.3901   10.3929 O   0  0  0  0  0  0  0  0  0  0  0  0
    7.5273   14.7648   11.5668 C   0  0  1  0  0  0  0  0  0  0  0  0
    8.6616   15.0814   12.4168 O   0  0  0  0  0  0  0  0  0  0  0  0
    8.2269    7.0264   16.0860 C   0  0  0  0  0  0  0  0  0  0  0  0
    7.7448    6.6071   17.4188 N   0  0  0  0  0  0  0  0  0  0  0  0
    5.0587    5.3022   20.2065 C   0  0  0  0  0  0  0  0  0  0  0  0
    4.0073    4.8676   21.1090 O   0  0  0  0  0  0  0  0  0  0  0  0
  1  2  1  1  0  0  0
  1  8  1  0  0  0  0
  1 36  1  0  0  0  0
  3  4  1  6  0  0  0
  3 10  1  0  0  0  0
  3 47  1  0  0  0  0
  5 11  1  0  0  0  0
  5 30  1  0  0  0  0
  5 38  1  6  0  0  0
  6 21  1  1  0  0  0
  6 42  1  0  0  0  0
  7 15  1  0  0  0  0
  7 44  1  0  0  0  0
  7 32  1  1  0  0  0
  8  9  1  1  0  0  0
  8 17  1  0  0  0  0
 11 12  1  6  0  0  0
 11 20  1  0  0  0  0
 13  6  1  0  0  0  0
 13 14  1  1  0  0  0
 15 16  1  1  0  0  0
 15 24  1  0  0  0  0
 17 26  1  0  0  0  0
 18 10  1  0  0  0  0
 18 19  1  6  0  0  0
 20 21  1  6  0  0  0
 20 29  1  0  0  0  0
 22 13  1  0  0  0  0
 22 23  1  6  0  0  0
 24 25  1  6  0  0  0
 24 33  1  0  0  0  0
 26 27  1  1  0  0  0
 26 35  1  0  0  0  0
 28  2  1  1  0  0  0
 28 18  1  0  0  0  0
 29 30  1  0  0  0  0
 29 39  1  6  0  0  0
 31 22  1  0  0  0  0
 31 32  1  1  0  0  0
 31 41  1  0  0  0  0
 33 34  1  1  0  0  0
 33 43  1  0  0  0  0
 35 36  1  0  0  0  0
 35 45  1  6  0  0  0
 37 28  1  0  0  0  0
 37 38  1  1  0  0  0
 39 40  1  0  0  0  0
 41 42  1  0  0  0  0
 41 49  1  1  0  0  0
 43 44  1  0  0  0  0
 43 51  1  1  0  0  0
 45 46  1  0  0  0  0
 47 37  1  0  0  0  0
 47 48  1  1  0  0  0
 49 50  1  0  0  0  0
 51 52  1  0  0  0  0
M  END
>  <CHROM.1>
-114.42517798,58.82358667,-88.50491983,-123.56858463,-0.79175105,-66.13924319
77.75907550,147.80780477,74.27647401,114.21733295,-76.95042782,11.12274619
5.60689612,10.37272538,14.65994849,1.08646744,-0.95429621,-1.13363959

>  <Name>
2esj_lig

>  <RI>
224

>  <Rbt.Current_Directory>
/home/itssahil/PROJECTS/Mol_Feturizer/New_Systems/rnas/2esj

>  <Rbt.Executable>
rbdock ($Id: //depot/dev/client3/rdock/2013.1/src/exe/rbdock.cxx#4 $)

>  <Rbt.Library>
libRbt.so (2013.1, Build901 2013/11/27)

>  <Rbt.Parameter_File>
/export/apps/rDock/src/rDock_2013.1_src/data/scripts/dock_solv.prm

>  <Rbt.Receptor>
prm/blind_docking_100.prm

>  <SCORE>
33.743

>  <SCORE.INTER>
-0.646924

>  <SCORE.INTER.CONST>
1

>  <SCORE.INTER.POLAR>
-0.997426

>  <SCORE.INTER.ROT>
12

>  <SCORE.INTER.SOLV>
22.8395

>  <SCORE.INTER.VDW>
-16.3197

>  <SCORE.INTER.norm>
-0.0124409

>  <SCORE.INTRA>
25.2707

>  <SCORE.INTRA.DIHEDRAL>
10.3885

>  <SCORE.INTRA.DIHEDRAL.0>
32.9766

>  <SCORE.INTRA.POLAR>
0

>  <SCORE.INTRA.POLAR.0>
0

>  <SCORE.INTRA.REPUL>
0

>  <SCORE.INTRA.REPUL.0>
0

>  <SCORE.INTRA.SOLV>
9.27501

>  <SCORE.INTRA.SOLV.lig_0>
-114.358

>  <SCORE.INTRA.VDW>
15.439

>  <SCORE.INTRA.VDW.0>
-8.24257

>  <SCORE.INTRA.norm>
0.485975

>  <SCORE.RESTR>
9.11926

>  <SCORE.RESTR.CAVITY>
9.11926

>  <SCORE.RESTR.norm>
0.17537

>  <SCORE.SYSTEM>
0

>  <SCORE.SYSTEM.CONST>
0

>  <SCORE.SYSTEM.DIHEDRAL>
0

>  <SCORE.SYSTEM.SOLV>
0

>  <SCORE.SYSTEM.norm>
0

>  <SCORE.heavy>
52

>  <SCORE.norm>
0.648905

>  <RMSD>
24.119

$$$$
2esj_lig
 OpenBabel11021811423D
libRbt.so/2013.1/901 2013/11/27
 52 56  0  0  0  0  0  0  0  0999 V2000
    5.8743   13.0788   14.3499 C   0  0  2  0  0  0  0  0  0  0  0  0
    6.5084   14.1637   15.0539 O   0  0  0  0  0  0  0  0  0  0  0  0
    7.8773   15.4876   18.8829 C   0  0  2  0  0  0  0  0  0  0  0  0
    8.2474   15.5865   20.3044 N   0  0  0  0  0  0  0  0  0  0  0  0
    8.5341   12.2490   15.3275 C   0  0  1  0  0  0  0  0  0  0  0  0
    7.2198    8.6506   13.5919 C   0  0  1  0  0  0  0  0  0  0  0  0
    4.3031    6.1341   17.2007 C   0  0  1  0  0  0  0  0  0  0  0  0
    6.3524   13.1382   12.8690 C   0  0  2  0  0  0  0  0  0  0  0  0
    7.8096   13.0850   12.7554 N   0  0  0  0  0  0  0  0  0  0  0  0
    6.3613   15.0652   18.7385 C   0  0  0  0  0  0  0  0  0  0  0  0
    9.5458   11.2798   14.7147 C   0  0  2  0  0  0  0  0  0  0  0  0
    9.8941   11.6324   13.3583 O   0  0  0  0  0  0  0  0  0  0  0  0
    5.6533    8.8820   13.7760 C   0  0  2  0  0  0  0  0  0  0  0  0
    5.3624    9.5732   15.0600 N   0  0  0  0  0  0  0  0  0  0  0  0
    2.8282    6.2272   16.8270 C   0  0  1  0  0  0  0  0  0  0  0  0
    2.1541    5.0274   17.2567 O   0  0  0  0  0  0  0  0  0  0  0  0
    5.8119   14.4204   12.1599 C   0  0  0  0  0  0  0  0  0  0  0  0
    5.9665   15.0220   17.2075 C   0  0  2  0  0  0  0  0  0  0  0  0
    4.5659   14.6188   17.0450 N   0  0  0  0  0  0  0  0  0  0  0  0
    8.7965    9.9850   14.8420 C   0  0  2  0  0  0  0  0  0  0  0  0
    7.7993    9.8944   13.8562 O   0  0  0  0  0  0  0  0  0  0  0  0
    4.8984    7.4950   13.5726 C   0  0  1  0  0  0  0  0  0  0  0  0
    5.3202    6.9161   12.3333 O   0  0  0  0  0  0  0  0  0  0  0  0
    2.0826    7.4208   17.4115 C   0  0  1  0  0  0  0  0  0  0  0  0
    0.6886    7.2154   17.1566 O   0  0  0  0  0  0  0  0  0  0  0  0
    4.2628   14.4658   12.3148 C   0  0  2  0  0  0  0  0  0  0  0  0
    3.6967   15.5667   11.6266 O   0  0  0  0  0  0  0  0  0  0  0  0
    6.9003   14.0543   16.4351 C   0  0  2  0  0  0  0  0  0  0  0  0
    8.0072   10.0816   16.1638 C   0  0  2  0  0  0  0  0  0  0  0  0
    7.7695   11.4768   16.2638 O   0  0  0  0  0  0  0  0  0  0  0  0
    5.2960    6.4500   14.6947 C   0  0  2  0  0  0  0  0  0  0  0  0
    4.8313    7.0429   15.9083 O   0  0  0  0  0  0  0  0  0  0  0  0
    2.3009    7.6087   18.9138 C   0  0  2  0  0  0  0  0  0  0  0  0
    1.8083    8.9170   19.2461 O   0  0  0  0  0  0  0  0  0  0  0  0
    3.9246   14.5028   13.8259 C   0  0  2  0  0  0  0  0  0  0  0  0
    4.4422   13.2757   14.4152 O   0  0  0  0  0  0  0  0  0  0  0  0
    8.4233   14.3425   16.6313 C   0  0  2  0  0  0  0  0  0  0  0  0
    9.2032   13.3355   15.9284 O   0  0  0  0  0  0  0  0  0  0  0  0
    8.7263    9.5995   17.4232 C   0  0  0  0  0  0  0  0  0  0  0  0
   10.1332    9.7967   17.2200 O   0  0  0  0  0  0  0  0  0  0  0  0
    6.8100    6.4905   14.7748 C   0  0  1  0  0  0  0  0  0  0  0  0
    7.7215    7.5878   14.5520 O   0  0  0  0  0  0  0  0  0  0  0  0
    3.7557    7.3690   19.3018 C   0  0  2  0  0  0  0  0  0  0  0  0
    4.5705    6.4214   18.5947 O   0  0  0  0  0  0  0  0  0  0  0  0
    2.4587   14.4999   14.0970 C   0  0  0  0  0  0  0  0  0  0  0  0
    1.9425   15.7261   13.6386 O   0  0  0  0  0  0  0  0  0  0  0  0
    8.7822   14.4314   18.1530 C   0  0  1  0  0  0  0  0  0  0  0  0
   10.1571   14.8901   18.2441 O   0  0  0  0  0  0  0  0  0  0  0  0
    7.4810    5.4684   15.7432 C   0  0  0  0  0  0  0  0  0  0  0  0
    7.4362    5.8866   17.1602 N   0  0  0  0  0  0  0  0  0  0  0  0
    4.2634    7.4764   20.7379 C   0  0  0  0  0  0  0  0  0  0  0  0
    5.0048    6.2792   21.0925 O   0  0  0  0  0  0  0  0  0  0  0  0
  1  2  1  1  0  0  0
  1  8  1  0  0  0  0
  1 36  1  0  0  0  0
  3  4  1  1  0  0  0
  3 10  1  0  0  0  0
  3 47  1  0  0  0  0
  5 11  1  0  0  0  0
  5 30  1  0  0  0  0
  5 38  1  1  0  0  0
  6 21  1  1  0  0  0
  6 42  1  0  0  0  0
  7 15  1  0  0  0  0
  7 44  1  0  0  0  0
  7 32  1  6  0  0  0
  8  9  1  1  0  0  0
  8 17  1  0  0  0  0
 11 12  1  6  0  0  0
 11 20  1  0  0  0  0
 13  6  1  0  0  0  0
 13 14  1  1  0  0  0
 15 16  1  1  0  0  0
 15 24  1  0  0  0  0
 17 26  1  0  0  0  0
 18 10  1  0  0  0  0
 18 19  1  1  0  0  0
 20 21  1  6  0  0  0
 20 29  1  0  0  0  0
 22 13  1  0  0  0  0
 22 23  1  6  0  0  0
 24 25  1  1  0  0  0
 24 33  1  0  0  0  0
 26 27  1  6  0  0  0
 26 35  1  0  0  0  0
 28  2  1  6  0  0  0
 28 18  1  0  0  0  0
 29 30  1  0  0  0  0
 29 39  1  1  0  0  0
 31 22  1  0  0  0  0
 31 32  1  1  0  0  0
 31 41  1  0  0  0  0
 33 34  1  6  0  0  0
 33 43  1  0  0  0  0
 35 36  1  0  0  0  0
 35 45  1  6  0  0  0
 37 28  1  0  0  0  0
 37 38  1  1  0  0  0
 39 40  1  0  0  0  0
 41 42  1  0  0  0  0
 41 49  1  1  0  0  0
 43 44  1  0  0  0  0
 43 51  1  1  0  0  0
 45 46  1  0  0  0  0
 47 37  1  0  0  0  0
 47 48  1  6  0  0  0
 49 50  1  0  0  0  0
 51 52  1  0  0  0  0
M  END
>  <CHROM.1>
-146.23778572,-176.92463350,124.81213890,-95.95105170,164.30574719,-112.06712184
28.72648489,148.51943862,-67.59593881,-5.85126160,-79.59116633,128.71582482
5.96064974,10.66081877,15.94096273,1.24227033,-0.44111466,-0.39016717

>  <Name>
2esj_lig

>  <RI>
224

>  <Rbt.Current_Directory>
/home/itssahil/PROJECTS/Mol_Feturizer/New_Systems/rnas/2esj

>  <Rbt.Executable>
rbdock ($Id: //depot/dev/client3/rdock/2013.1/src/exe/rbdock.cxx#4 $)

>  <Rbt.Library>
libRbt.so (2013.1, Build901 2013/11/27)

>  <Rbt.Parameter_File>
/export/apps/rDock/src/rDock_2013.1_src/data/scripts/dock_solv.prm

>  <Rbt.Receptor>
prm/blind_docking_100.prm

>  <SCORE>
32.3455

>  <SCORE.INTER>
4.03603

>  <SCORE.INTER.CONST>
1

>  <SCORE.INTER.POLAR>
0

>  <SCORE.INTER.ROT>
12

>  <SCORE.INTER.SOLV>
24.0937

>  <SCORE.INTER.VDW>
-16.9406

>  <SCORE.INTER.norm>
0.077616

>  <SCORE.INTRA>
14.8146

>  <SCORE.INTRA.DIHEDRAL>
11.0802

>  <SCORE.INTRA.DIHEDRAL.0>
32.9766

>  <SCORE.INTRA.POLAR>
0

>  <SCORE.INTRA.POLAR.0>
0

>  <SCORE.INTRA.REPUL>
0

>  <SCORE.INTRA.REPUL.0>
0

>  <SCORE.INTRA.SOLV>
9.55591

>  <SCORE.INTRA.SOLV.lig_0>
-114.358

>  <SCORE.INTRA.VDW>
4.49652

>  <SCORE.INTRA.VDW.0>
-8.24257

>  <SCORE.INTRA.norm>
0.284896

>  <SCORE.RESTR>
13.4949

>  <SCORE.RESTR.CAVITY>
13.4949

>  <SCORE.RESTR.norm>
0.259516

>  <SCORE.SYSTEM>
0

>  <SCORE.SYSTEM.CONST>
0

>  <SCORE.SYSTEM.DIHEDRAL>
0

>  <SCORE.SYSTEM.SOLV>
0

>  <SCORE.SYSTEM.norm>
0

>  <SCORE.heavy>
52

>  <SCORE.norm>
0.622029

>  <RMSD>
24.121

$$$$
2esj_lig
 OpenBabel11021811423D
libRbt.so/2013.1/901 2013/11/27
 52 56  0  0  0  0  0  0  0  0999 V2000
    5.2198   13.1545   12.1865 C   0  0  2  0  0  0  0  0  0  0  0  0
    4.8104   12.8752   13.5390 O   0  0  0  0  0  0  0  0  0  0  0  0
    7.8599   14.9457   15.7072 C   0  0  2  0  0  0  0  0  0  0  0  0
    8.7354   15.4951   16.7556 N   0  0  0  0  0  0  0  0  0  0  0  0
    6.8521   10.5890   15.5952 C   0  0  1  0  0  0  0  0  0  0  0  0
    6.7321    8.3680   17.0146 C   0  0  1  0  0  0  0  0  0  0  0  0
    2.8515    5.0890   16.8216 C   0  0  1  0  0  0  0  0  0  0  0  0
    3.9443   13.5407   11.3810 C   0  0  2  0  0  0  0  0  0  0  0  0
    3.2321   14.6691   11.9799 N   0  0  0  0  0  0  0  0  0  0  0  0
    6.3527   15.3217   15.9979 C   0  0  0  0  0  0  0  0  0  0  0  0
    7.9694   10.7282   16.6300 C   0  0  2  0  0  0  0  0  0  0  0  0
    9.0136    9.7474   16.4482 O   0  0  0  0  0  0  0  0  0  0  0  0
    5.1608    8.2868   16.7579 C   0  0  2  0  0  0  0  0  0  0  0  0
    4.4284    7.9859   18.0164 N   0  0  0  0  0  0  0  0  0  0  0  0
    2.3893    5.8583   18.0538 C   0  0  1  0  0  0  0  0  0  0  0  0
    1.0629    6.3731   17.8207 O   0  0  0  0  0  0  0  0  0  0  0  0
    2.9812   12.3189   11.2431 C   0  0  0  0  0  0  0  0  0  0  0  0
    5.4352   14.7744   14.8316 C   0  0  2  0  0  0  0  0  0  0  0  0
    4.0275   15.0987   15.0843 N   0  0  0  0  0  0  0  0  0  0  0  0
    7.1870   10.5672   17.9012 C   0  0  2  0  0  0  0  0  0  0  0  0
    6.8718    9.2150   18.1173 O   0  0  0  0  0  0  0  0  0  0  0  0
    4.8843    7.2749   15.5602 C   0  0  1  0  0  0  0  0  0  0  0  0
    5.6987    7.6464   14.4432 O   0  0  0  0  0  0  0  0  0  0  0  0
    2.3619    5.0566   19.3495 C   0  0  1  0  0  0  0  0  0  0  0  0
    1.6886    5.8562   20.3280 O   0  0  0  0  0  0  0  0  0  0  0  0
    3.7682   11.1252   10.6256 C   0  0  2  0  0  0  0  0  0  0  0  0
    2.9328   10.0038   10.4004 O   0  0  0  0  0  0  0  0  0  0  0  0
    5.6167   13.2423   14.6740 C   0  0  2  0  0  0  0  0  0  0  0  0
    5.8195   11.2328   17.6430 C   0  0  2  0  0  0  0  0  0  0  0  0
    5.6563   11.0389   16.2471 O   0  0  0  0  0  0  0  0  0  0  0  0
    5.3176    5.7989   15.9383 C   0  0  2  0  0  0  0  0  0  0  0  0
    4.4644    5.4503   17.0296 O   0  0  0  0  0  0  0  0  0  0  0  0
    1.6540    3.7063   19.2242 C   0  0  2  0  0  0  0  0  0  0  0  0
    1.9801    2.9537   20.4040 O   0  0  0  0  0  0  0  0  0  0  0  0
    4.9470   10.7782   11.5685 C   0  0  2  0  0  0  0  0  0  0  0  0
    5.8067   11.9517   11.6363 O   0  0  0  0  0  0  0  0  0  0  0  0
    7.1019   12.7886   14.5024 C   0  0  2  0  0  0  0  0  0  0  0  0
    7.1626   11.3364   14.4401 O   0  0  0  0  0  0  0  0  0  0  0  0
    5.7167   12.7239   17.9620 C   0  0  0  0  0  0  0  0  0  0  0  0
    4.3405   13.1035   17.8155 O   0  0  0  0  0  0  0  0  0  0  0  0
    6.7087    5.9189   16.5305 C   0  0  1  0  0  0  0  0  0  0  0  0
    7.3015    6.9898   17.2963 O   0  0  0  0  0  0  0  0  0  0  0  0
    2.0095    3.0077   17.9165 C   0  0  2  0  0  0  0  0  0  0  0  0
    2.2952    3.7555   16.7244 O   0  0  0  0  0  0  0  0  0  0  0  0
    5.8035    9.6731   11.0511 C   0  0  0  0  0  0  0  0  0  0  0  0
    4.9473    8.6527   10.5976 O   0  0  0  0  0  0  0  0  0  0  0  0
    8.0009   13.3828   15.6386 C   0  0  1  0  0  0  0  0  0  0  0  0
    9.3798   13.0787   15.2987 O   0  0  0  0  0  0  0  0  0  0  0  0
    7.4236    4.5824   16.8985 C   0  0  0  0  0  0  0  0  0  0  0  0
    7.1325    4.1204   18.2720 N   0  0  0  0  0  0  0  0  0  0  0  0
    1.4416    1.6476   17.5175 C   0  0  0  0  0  0  0  0  0  0  0  0
    1.7917    0.6522   18.5152 O   0  0  0  0  0  0  0  0  0  0  0  0
  1  2  1  1  0  0  0
  1  8  1  0  0  0  0
  1 36  1  0  0  0  0
  3  4  1  1  0  0  0
  3 10  1  0  0  0  0
  3 47  1  0  0  0  0
  5 11  1  0  0  0  0
  5 30  1  0  0  0  0
  5 38  1  6  0  0  0
  6 21  1  1  0  0  0
  6 42  1  0  0  0  0
  7 15  1  0  0  0  0
  7 44  1  0  0  0  0
  7 32  1  1  0  0  0
  8  9  1  1  0  0  0
  8 17  1  0  0  0  0
 11 12  1  6  0  0  0
 11 20  1  0  0  0  0
 13  6  1  0  0  0  0
 13 14  1  1  0  0  0
 15 16  1  6  0  0  0
 15 24  1  0  0  0  0
 17 26  1  0  0  0  0
 18 10  1  0  0  0  0
 18 19  1  1  0  0  0
 20 21  1  6  0  0  0
 20 29  1  0  0  0  0
 22 13  1  0  0  0  0
 22 23  1  6  0  0  0
 24 25  1  1  0  0  0
 24 33  1  0  0  0  0
 26 27  1  1  0  0  0
 26 35  1  0  0  0  0
 28  2  1  6  0  0  0
 28 18  1  0  0  0  0
 29 30  1  0  0  0  0
 29 39  1  6  0  0  0
 31 22  1  0  0  0  0
 31 32  1  1  0  0  0
 31 41  1  0  0  0  0
 33 34  1  1  0  0  0
 33 43  1  0  0  0  0
 35 36  1  0  0  0  0
 35 45  1  6  0  0  0
 37 28  1  0  0  0  0
 37 38  1  1  0  0  0
 39 40  1  0  0  0  0
 41 42  1  0  0  0  0
 41 49  1  1  0  0  0
 43 44  1  0  0  0  0
 43 51  1  6  0  0  0
 45 46  1  0  0  0  0
 47 37  1  0  0  0  0
 47 48  1  6  0  0  0
 49 50  1  0  0  0  0
 51 52  1  0  0  0  0
M  END
>  <CHROM.1>
-142.78430225,-71.77890239,-98.23313220,-138.57675263,-28.41805175,75.49229825
-172.88903522,74.07192449,-45.57323575,-68.11452125,-88.67600328,-59.04007014
5.06677452,9.24672442,15.77743273,1.10137325,-0.90446381,-0.80440576

>  <Name>
2esj_lig

>  <RI>
0

>  <Rbt.Current_Directory>
/home/itssahil/PROJECTS/Mol_Feturizer/New_Systems/rnas/2esj

>  <Rbt.Executable>
rbdock ($Id: //depot/dev/client3/rdock/2013.1/src/exe/rbdock.cxx#4 $)

>  <Rbt.Library>
libRbt.so (2013.1, Build901 2013/11/27)

>  <Rbt.Parameter_File>
/export/apps/rDock/src/rDock_2013.1_src/data/scripts/dock_solv.prm

>  <Rbt.Receptor>
prm/blind_docking_80.prm

>  <SCORE>
5.77264

>  <SCORE.INTER>
-6.81297

>  <SCORE.INTER.CONST>
1

>  <SCORE.INTER.POLAR>
-1.02288

>  <SCORE.INTER.ROT>
12

>  <SCORE.INTER.SOLV>
23.1148

>  <SCORE.INTER.VDW>
-20.4373

>  <SCORE.INTER.norm>
-0.131019

>  <SCORE.INTRA>
8.76767

>  <SCORE.INTRA.DIHEDRAL>
-4.52851

>  <SCORE.INTRA.DIHEDRAL.0>
32.9766

>  <SCORE.INTRA.POLAR>
0

>  <SCORE.INTRA.POLAR.0>
0

>  <SCORE.INTRA.REPUL>
0

>  <SCORE.INTRA.REPUL.0>
0

>  <SCORE.INTRA.SOLV>
5.2439

>  <SCORE.INTRA.SOLV.lig_0>
-114.358

>  <SCORE.INTRA.VDW>
8.40998

>  <SCORE.INTRA.VDW.0>
-8.24257

>  <SCORE.INTRA.norm>
0.168609

>  <SCORE.RESTR>
3.81794

>  <SCORE.RESTR.CAVITY>
3.81794

>  <SCORE.RESTR.norm>
0.0734219

>  <SCORE.SYSTEM>
0

>  <SCORE.SYSTEM.CONST>
0

>  <SCORE.SYSTEM.DIHEDRAL>
0

>  <SCORE.SYSTEM.SOLV>
0

>  <SCORE.SYSTEM.norm>
0

>  <SCORE.heavy>
52

>  <SCORE.norm>
0.111012

>  <RMSD>
24.129

$$$$
2esj_lig
 OpenBabel11021811423D
libRbt.so/2013.1/901 2013/11/27
 52 56  0  0  0  0  0  0  0  0999 V2000
    6.3214   12.4387   14.2614 C   0  0  2  0  0  0  0  0  0  0  0  0
    4.9551   12.8927   14.3057 O   0  0  0  0  0  0  0  0  0  0  0  0
    2.1887   15.7849   12.7989 C   0  0  2  0  0  0  0  0  0  0  0  0
    1.5600   16.9659   12.1846 N   0  0  0  0  0  0  0  0  0  0  0  0
    4.3436   11.5216   11.4080 C   0  0  1  0  0  0  0  0  0  0  0  0
    4.5679    7.5674   11.4071 C   0  0  1  0  0  0  0  0  0  0  0  0
    6.2717    7.7053   16.3246 C   0  0  1  0  0  0  0  0  0  0  0  0
    6.5214   11.4391   15.4387 C   0  0  2  0  0  0  0  0  0  0  0  0
    5.5742   10.3259   15.3864 N   0  0  0  0  0  0  0  0  0  0  0  0
    3.1711   16.2252   13.9558 C   0  0  0  0  0  0  0  0  0  0  0  0
    4.5830   10.9722   10.0011 C   0  0  2  0  0  0  0  0  0  0  0  0
    3.3680   10.9002    9.2240 O   0  0  0  0  0  0  0  0  0  0  0  0
    3.9883    7.7389   12.8822 C   0  0  2  0  0  0  0  0  0  0  0  0
    4.3501    9.0656   13.4479 N   0  0  0  0  0  0  0  0  0  0  0  0
    7.0005    6.3825   16.5314 C   0  0  1  0  0  0  0  0  0  0  0  0
    7.7633    6.4480   17.7531 O   0  0  0  0  0  0  0  0  0  0  0  0
    6.4066   12.1687   16.8148 C   0  0  0  0  0  0  0  0  0  0  0  0
    3.7909   14.9420   14.6421 C   0  0  2  0  0  0  0  0  0  0  0  0
    4.7182   15.3238   15.7123 N   0  0  0  0  0  0  0  0  0  0  0  0
    5.1861    9.6366   10.3275 C   0  0  2  0  0  0  0  0  0  0  0  0
    4.1902    8.7334   10.7359 O   0  0  0  0  0  0  0  0  0  0  0  0
    4.4339    6.4885   13.7614 C   0  0  1  0  0  0  0  0  0  0  0  0
    4.0807    5.2866   13.0689 O   0  0  0  0  0  0  0  0  0  0  0  0
    6.1064    5.1504   16.6005 C   0  0  1  0  0  0  0  0  0  0  0  0
    6.9250    4.0567   17.0293 O   0  0  0  0  0  0  0  0  0  0  0  0
    7.4070   13.3622   16.8364 C   0  0  2  0  0  0  0  0  0  0  0  0
    7.4106   14.0237   18.0889 O   0  0  0  0  0  0  0  0  0  0  0  0
    4.5135   14.0614   13.5899 C   0  0  2  0  0  0  0  0  0  0  0  0
    6.0353    9.8551   11.5966 C   0  0  2  0  0  0  0  0  0  0  0  0
    5.3347   10.9063   12.2426 O   0  0  0  0  0  0  0  0  0  0  0  0
    6.0071    6.4378   13.9394 C   0  0  2  0  0  0  0  0  0  0  0  0
    6.3182    7.6306   14.6610 O   0  0  0  0  0  0  0  0  0  0  0  0
    4.9212    5.3015   17.5558 C   0  0  2  0  0  0  0  0  0  0  0  0
    4.0220    4.2154   17.2793 O   0  0  0  0  0  0  0  0  0  0  0  0
    7.0394   14.3277   15.6825 C   0  0  2  0  0  0  0  0  0  0  0  0
    7.1835   13.5876   14.4365 O   0  0  0  0  0  0  0  0  0  0  0  0
    3.6324   13.6877   12.3550 C   0  0  2  0  0  0  0  0  0  0  0  0
    4.4278   12.9294   11.4017 O   0  0  0  0  0  0  0  0  0  0  0  0
    7.4889   10.2744   11.3797 C   0  0  0  0  0  0  0  0  0  0  0  0
    7.4974   11.6857   11.1193 O   0  0  0  0  0  0  0  0  0  0  0  0
    6.5835    6.6391   12.5511 C   0  0  1  0  0  0  0  0  0  0  0  0
    6.0767    7.4078   11.4389 O   0  0  0  0  0  0  0  0  0  0  0  0
    4.2875    6.6838   17.4465 C   0  0  2  0  0  0  0  0  0  0  0  0
    5.0733    7.8421   17.1261 O   0  0  0  0  0  0  0  0  0  0  0  0
    7.9655   15.4911   15.5764 C   0  0  0  0  0  0  0  0  0  0  0  0
    9.2785   14.9964   15.6836 O   0  0  0  0  0  0  0  0  0  0  0  0
    2.9884   14.9672   11.7222 C   0  0  1  0  0  0  0  0  0  0  0  0
    2.0420   14.5189   10.7158 O   0  0  0  0  0  0  0  0  0  0  0  0
    8.1339    6.5292   12.4210 C   0  0  0  0  0  0  0  0  0  0  0  0
    8.8464    7.7518   12.8479 N   0  0  0  0  0  0  0  0  0  0  0  0
    3.0915    7.1209   18.2893 C   0  0  0  0  0  0  0  0  0  0  0  0
    1.9715    6.2247   18.0630 O   0  0  0  0  0  0  0  0  0  0  0  0
  1  2  1  1  0  0  0
  1  8  1  0  0  0  0
  1 36  1  0  0  0  0
  3  4  1  6  0  0  0
  3 10  1  0  0  0  0
  3 47  1  0  0  0  0
  5 11  1  0  0  0  0
  5 30  1  0  0  0  0
  5 38  1  6  0  0  0
  6 21  1  6  0  0  0
  6 42  1  0  0  0  0
  7 15  1  0  0  0  0
  7 44  1  0  0  0  0
  7 32  1  6  0  0  0
  8  9  1  1  0  0  0
  8 17  1  0  0  0  0
 11 12  1  1  0  0  0
 11 20  1  0  0  0  0
 13  6  1  0  0  0  0
 13 14  1  1  0  0  0
 15 16  1  1  0  0  0
 15 24  1  0  0  0  0
 17 26  1  0  0  0  0
 18 10  1  0  0  0  0
 18 19  1  1  0  0  0
 20 21  1  1  0  0  0
 20 29  1  0  0  0  0
 22 13  1  0  0  0  0
 22 23  1  6  0  0  0
 24 25  1  1  0  0  0
 24 33  1  0  0  0  0
 26 27  1  1  0  0  0
 26 35  1  0  0  0  0
 28  2  1  1  0  0  0
 28 18  1  0  0  0  0
 29 30  1  0  0  0  0
 29 39  1  6  0  0  0
 31 22  1  0  0  0  0
 31 32  1  1  0  0  0
 31 41  1  0  0  0  0
 33 34  1  6  0  0  0
 33 43  1  0  0  0  0
 35 36  1  0  0  0  0
 35 45  1  6  0  0  0
 37 28  1  0  0  0  0
 37 38  1  6  0  0  0
 39 40  1  0  0  0  0
 41 42  1  0  0  0  0
 41 49  1  1  0  0  0
 43 44  1  0  0  0  0
 43 51  1  1  0  0  0
 45 46  1  0  0  0  0
 47 37  1  0  0  0  0
 47 48  1  6  0  0  0
 49 50  1  0  0  0  0
 51 52  1  0  0  0  0
M  END
>  <CHROM.1>
163.93733740,149.65066780,113.21202885,44.84703533,-163.47499554,-127.78490188
80.49939125,86.56819039,45.51854412,97.44976439,-79.64151606,-58.29315694
5.35540591,10.25686332,14.08610470,-1.90940793,1.26331376,-3.10639395

>  <Name>
2esj_lig

>  <RI>
0

>  <Rbt.Current_Directory>
/home/itssahil/PROJECTS/Mol_Feturizer/New_Systems/rnas/2esj

>  <Rbt.Executable>
rbdock ($Id: //depot/dev/client3/rdock/2013.1/src/exe/rbdock.cxx#4 $)

>  <Rbt.Library>
libRbt.so (2013.1, Build901 2013/11/27)

>  <Rbt.Parameter_File>
/export/apps/rDock/src/rDock_2013.1_src/data/scripts/dock_solv.prm

>  <Rbt.Receptor>
prm/blind_docking_80.prm

>  <SCORE>
33.3012

>  <SCORE.INTER>
8.25316

>  <SCORE.INTER.CONST>
1

>  <SCORE.INTER.POLAR>
-1.92497

>  <SCORE.INTER.ROT>
12

>  <SCORE.INTER.SOLV>
21.2723

>  <SCORE.INTER.VDW>
-6.77209

>  <SCORE.INTER.norm>
0.158715

>  <SCORE.INTRA>
19.7084

>  <SCORE.INTRA.DIHEDRAL>
2.85321

>  <SCORE.INTRA.DIHEDRAL.0>
32.9766

>  <SCORE.INTRA.POLAR>
0

>  <SCORE.INTRA.POLAR.0>
0

>  <SCORE.INTRA.REPUL>
0.402305

>  <SCORE.INTRA.REPUL.0>
0

>  <SCORE.INTRA.SOLV>
14.9294

>  <SCORE.INTRA.SOLV.lig_0>
-114.358

>  <SCORE.INTRA.VDW>
8.80559

>  <SCORE.INTRA.VDW.0>
-8.24257

>  <SCORE.INTRA.norm>
0.379008

>  <SCORE.RESTR>
5.33957

>  <SCORE.RESTR.CAVITY>
5.33957

>  <SCORE.RESTR.norm>
0.102684

>  <SCORE.SYSTEM>
0

>  <SCORE.SYSTEM.CONST>
0

>  <SCORE.SYSTEM.DIHEDRAL>
0

>  <SCORE.SYSTEM.SOLV>
0

>  <SCORE.SYSTEM.norm>
0

>  <SCORE.heavy>
52

>  <SCORE.norm>
0.640407

>  <RMSD>
24.138

$$$$
2esj_lig
 OpenBabel11021811423D
libRbt.so/2013.1/901 2013/11/27
 52 56  0  0  0  0  0  0  0  0999 V2000
    7.5529    8.9512   12.1097 C   0  0  2  0  0  0  0  0  0  0  0  0
    7.6703    8.7731   13.5342 O   0  0  0  0  0  0  0  0  0  0  0  0
    6.9289    5.1809   15.7329 C   0  0  2  0  0  0  0  0  0  0  0  0
    7.0163    3.8449   16.3452 N   0  0  0  0  0  0  0  0  0  0  0  0
    8.6620    9.7118   16.6515 C   0  0  1  0  0  0  0  0  0  0  0  0
    7.7155   13.7447   16.5424 C   0  0  1  0  0  0  0  0  0  0  0  0
    3.5670   14.8908   14.3314 C   0  0  1  0  0  0  0  0  0  0  0  0
    7.7354   10.4685   11.8105 C   0  0  2  0  0  0  0  0  0  0  0  0
    9.0044   10.9848   12.3225 N   0  0  0  0  0  0  0  0  0  0  0  0
    7.0797    5.0764   14.1633 C   0  0  0  0  0  0  0  0  0  0  0  0
    7.9947   10.5513   15.5613 C   0  0  2  0  0  0  0  0  0  0  0  0
    8.9525   11.2844   14.7673 O   0  0  0  0  0  0  0  0  0  0  0  0
    6.1738   14.1095   16.7193 C   0  0  2  0  0  0  0  0  0  0  0  0
    5.3041   13.0411   16.1599 N   0  0  0  0  0  0  0  0  0  0  0  0
    3.1346   13.8467   13.3085 C   0  0  1  0  0  0  0  0  0  0  0  0
    1.9255   13.2082   13.7656 O   0  0  0  0  0  0  0  0  0  0  0  0
    6.5499   11.2987   12.3974 C   0  0  0  0  0  0  0  0  0  0  0  0
    6.9240    6.5123   13.5188 C   0  0  2  0  0  0  0  0  0  0  0  0
    7.0736    6.4450   12.0615 N   0  0  0  0  0  0  0  0  0  0  0  0
    7.0939   11.4164   16.3946 C   0  0  2  0  0  0  0  0  0  0  0  0
    7.8312   12.4364   17.0194 O   0  0  0  0  0  0  0  0  0  0  0  0
    5.9158   15.5652   16.1281 C   0  0  1  0  0  0  0  0  0  0  0  0
    6.8603   16.4729   16.7050 O   0  0  0  0  0  0  0  0  0  0  0  0
    2.8835   14.3777   11.9023 C   0  0  1  0  0  0  0  0  0  0  0  0
    2.2676   13.3230   11.1551 O   0  0  0  0  0  0  0  0  0  0  0  0
    5.2109   10.7155   11.8564 C   0  0  2  0  0  0  0  0  0  0  0  0
    4.0941   11.4715   12.2892 O   0  0  0  0  0  0  0  0  0  0  0  0
    7.9625    7.4924   14.1238 C   0  0  2  0  0  0  0  0  0  0  0  0
    6.6189   10.5292   17.5637 C   0  0  2  0  0  0  0  0  0  0  0  0
    7.7172    9.6462   17.7287 O   0  0  0  0  0  0  0  0  0  0  0  0
    6.1738   15.6091   14.5658 C   0  0  2  0  0  0  0  0  0  0  0  0
    5.1953   14.7215   14.0225 O   0  0  0  0  0  0  0  0  0  0  0  0
    1.9880   15.6173   11.8622 C   0  0  2  0  0  0  0  0  0  0  0  0
    2.1016   16.1709   10.5411 O   0  0  0  0  0  0  0  0  0  0  0  0
    5.1067    9.2365   12.3045 C   0  0  2  0  0  0  0  0  0  0  0  0
    6.2293    8.5242   11.7101 O   0  0  0  0  0  0  0  0  0  0  0  0
    7.9492    7.5549   15.6848 C   0  0  2  0  0  0  0  0  0  0  0  0
    9.0069    8.4415   16.1450 O   0  0  0  0  0  0  0  0  0  0  0  0
    5.3468    9.7157   17.3281 C   0  0  0  0  0  0  0  0  0  0  0  0
    5.0471    9.0192   18.5466 O   0  0  0  0  0  0  0  0  0  0  0  0
    7.5096   14.9238   14.3514 C   0  0  1  0  0  0  0  0  0  0  0  0
    8.1263   13.8438   15.0849 O   0  0  0  0  0  0  0  0  0  0  0  0
    2.3321   16.5923   12.9826 C   0  0  2  0  0  0  0  0  0  0  0  0
    2.8212   16.1296   14.2508 O   0  0  0  0  0  0  0  0  0  0  0  0
    3.8788    8.5581   11.8001 C   0  0  0  0  0  0  0  0  0  0  0  0
    3.7505    7.3435   12.4991 O   0  0  0  0  0  0  0  0  0  0  0  0
    8.0533    6.1191   16.3010 C   0  0  1  0  0  0  0  0  0  0  0  0
    7.8388    6.2489   17.7316 O   0  0  0  0  0  0  0  0  0  0  0  0
    8.0607   14.9193   12.8922 C   0  0  0  0  0  0  0  0  0  0  0  0
    7.6347   13.7411   12.1080 N   0  0  0  0  0  0  0  0  0  0  0  0
    1.5941   17.9123   13.1940 C   0  0  0  0  0  0  0  0  0  0  0  0
    1.5955   18.6836   11.9636 O   0  0  0  0  0  0  0  0  0  0  0  0
  1  2  1  1  0  0  0
  1  8  1  0  0  0  0
  1 36  1  0  0  0  0
  3  4  1  1  0  0  0
  3 10  1  0  0  0  0
  3 47  1  0  0  0  0
  5 11  1  0  0  0  0
  5 30  1  0  0  0  0
  5 38  1  6  0  0  0
  6 21  1  6  0  0  0
  6 42  1  0  0  0  0
  7 15  1  0  0  0  0
  7 44  1  0  0  0  0
  7 32  1  6  0  0  0
  8  9  1  1  0  0  0
  8 17  1  0  0  0  0
 11 12  1  1  0  0  0
 11 20  1  0  0  0  0
 13  6  1  0  0  0  0
 13 14  1  6  0  0  0
 15 16  1  1  0  0  0
 15 24  1  0  0  0  0
 17 26  1  0  0  0  0
 18 10  1  0  0  0  0
 18 19  1  6  0  0  0
 20 21  1  1  0  0  0
 20 29  1  0  0  0  0
 22 13  1  0  0  0  0
 22 23  1  1  0  0  0
 24 25  1  6  0  0  0
 24 33  1  0  0  0  0
 26 27  1  1  0  0  0
 26 35  1  0  0  0  0
 28  2  1  6  0  0  0
 28 18  1  0  0  0  0
 29 30  1  0  0  0  0
 29 39  1  6  0  0  0
 31 22  1  0  0  0  0
 31 32  1  6  0  0  0
 31 41  1  0  0  0  0
 33 34  1  6  0  0  0
 33 43  1  0  0  0  0
 35 36  1  0  0  0  0
 35 45  1  6  0  0  0
 37 28  1  0  0  0  0
 37 38  1  1  0  0  0
 39 40  1  0  0  0  0
 41 42  1  0  0  0  0
 41 49  1  6  0  0  0
 43 44  1  0  0  0  0
 43 51  1  1  0  0  0
 45 46  1  0  0  0  0
 47 37  1  0  0  0  0
 47 48  1  1  0  0  0
 49 50  1  0  0  0  0
 51 52  1  0  0  0  0
M  END
>  <CHROM.1>
-160.52607143,-62.77659538,60.51155092,170.81293352,106.30561876,-51.89819418
-177.25756501,54.83986429,-167.39407176,106.55978774,-90.33912471,-53.46068041
5.91038659,11.46776717,14.28085834,0.89180875,0.88142723,-2.81960840

>  <Name>
2esj_lig

>  <RI>
0

>  <Rbt.Current_Directory>
/home/itssahil/PROJECTS/Mol_Feturizer/New_Systems/rnas/2esj

>  <Rbt.Executable>
rbdock ($Id: //depot/dev/client3/rdock/2013.1/src/exe/rbdock.cxx#4 $)

>  <Rbt.Library>
libRbt.so (2013.1, Build901 2013/11/27)

>  <Rbt.Parameter_File>
/export/apps/rDock/src/rDock_2013.1_src/data/scripts/dock_solv.prm

>  <Rbt.Receptor>
prm/blind_docking_80.prm

>  <SCORE>
12.146

>  <SCORE.INTER>
-4.01402

>  <SCORE.INTER.CONST>
1

>  <SCORE.INTER.POLAR>
-0.19605

>  <SCORE.INTER.ROT>
12

>  <SCORE.INTER.SOLV>
19.6228

>  <SCORE.INTER.VDW>
-20.1635

>  <SCORE.INTER.norm>
-0.0771927

>  <SCORE.INTRA>
9.49965

>  <SCORE.INTRA.DIHEDRAL>
-12.108

>  <SCORE.INTRA.DIHEDRAL.0>
32.9766

>  <SCORE.INTRA.POLAR>
0

>  <SCORE.INTRA.POLAR.0>
0

>  <SCORE.INTRA.REPUL>
0

>  <SCORE.INTRA.REPUL.0>
0

>  <SCORE.INTRA.SOLV>
12.9123

>  <SCORE.INTRA.SOLV.lig_0>
-114.358

>  <SCORE.INTRA.VDW>
9.09751

>  <SCORE.INTRA.VDW.0>
-8.24257

>  <SCORE.INTRA.norm>
0.182686

>  <SCORE.RESTR>
6.66034

>  <SCORE.RESTR.CAVITY>
6.66034

>  <SCORE.RESTR.norm>
0.128083

>  <SCORE.SYSTEM>
0

>  <SCORE.SYSTEM.CONST>
0

>  <SCORE.SYSTEM.DIHEDRAL>
0

>  <SCORE.SYSTEM.SOLV>
0

>  <SCORE.SYSTEM.norm>
0

>  <SCORE.heavy>
52

>  <SCORE.norm>
0.233576

>  <RMSD>
24.149

$$$$
2esj_lig
 OpenBabel11021811423D
libRbt.so/2013.1/901 2013/11/27
 52 56  0  0  0  0  0  0  0  0999 V2000
    8.1812   15.3400   14.4762 C   0  0  2  0  0  0  0  0  0  0  0  0
    6.7844   15.6009   14.7122 O   0  0  0  0  0  0  0  0  0  0  0  0
    6.1758   13.3404   18.2909 C   0  0  2  0  0  0  0  0  0  0  0  0
    5.6823   12.8168   19.5753 N   0  0  0  0  0  0  0  0  0  0  0  0
    4.6441   12.5206   13.8491 C   0  0  1  0  0  0  0  0  0  0  0  0
    5.2255    9.3423   11.4358 C   0  0  1  0  0  0  0  0  0  0  0  0
    4.4354    5.8933   15.2996 C   0  0  1  0  0  0  0  0  0  0  0  0
    8.8471   16.6871   14.0677 C   0  0  2  0  0  0  0  0  0  0  0  0
    8.6489   17.7299   15.0739 N   0  0  0  0  0  0  0  0  0  0  0  0
    6.5538   14.8685   18.4298 C   0  0  0  0  0  0  0  0  0  0  0  0
    5.7218   12.7472   12.7880 C   0  0  2  0  0  0  0  0  0  0  0  0
    5.2264   13.4831   11.6486 O   0  0  0  0  0  0  0  0  0  0  0  0
    3.7768    8.7789   11.7896 C   0  0  2  0  0  0  0  0  0  0  0  0
    3.3192    9.2751   13.1145 N   0  0  0  0  0  0  0  0  0  0  0  0
    3.8888    6.9280   16.2764 C   0  0  1  0  0  0  0  0  0  0  0  0
    3.2796    6.2497   17.3932 O   0  0  0  0  0  0  0  0  0  0  0  0
    8.3118   17.1764   12.6846 C   0  0  0  0  0  0  0  0  0  0  0  0
    7.1368   15.3973   17.0579 C   0  0  2  0  0  0  0  0  0  0  0  0
    7.4835   16.8189   17.1560 N   0  0  0  0  0  0  0  0  0  0  0  0
    6.1100   11.3290   12.4846 C   0  0  2  0  0  0  0  0  0  0  0  0
    5.1422   10.7174   11.6698 O   0  0  0  0  0  0  0  0  0  0  0  0
    3.7852    7.1947   11.6308 C   0  0  1  0  0  0  0  0  0  0  0  0
    4.3053    6.8619   10.3395 O   0  0  0  0  0  0  0  0  0  0  0  0
    4.9157    7.9107   16.8260 C   0  0  1  0  0  0  0  0  0  0  0  0
    4.2824    8.6366   17.8854 O   0  0  0  0  0  0  0  0  0  0  0  0
    8.5128   16.0414   11.6372 C   0  0  2  0  0  0  0  0  0  0  0  0
    8.1181   16.4470   10.3388 O   0  0  0  0  0  0  0  0  0  0  0  0
    6.1171   15.1678   15.9123 C   0  0  2  0  0  0  0  0  0  0  0  0
    6.0074   10.5673   13.8221 C   0  0  2  0  0  0  0  0  0  0  0  0
    4.9802   11.2824   14.4904 O   0  0  0  0  0  0  0  0  0  0  0  0
    4.7599    6.5136   12.6774 C   0  0  2  0  0  0  0  0  0  0  0  0
    4.1931    6.8367   13.9481 O   0  0  0  0  0  0  0  0  0  0  0  0
    6.1853    7.2430   17.3573 C   0  0  2  0  0  0  0  0  0  0  0  0
    7.1585    8.2842   17.5402 O   0  0  0  0  0  0  0  0  0  0  0  0
    7.7232   14.7957   12.1103 C   0  0  2  0  0  0  0  0  0  0  0  0
    8.2844   14.3884   13.3910 O   0  0  0  0  0  0  0  0  0  0  0  0
    5.6080   13.6954   15.7947 C   0  0  2  0  0  0  0  0  0  0  0  0
    4.6054   13.6100   14.7440 O   0  0  0  0  0  0  0  0  0  0  0  0
    7.2622   10.5508   14.6944 C   0  0  0  0  0  0  0  0  0  0  0  0
    8.3753   10.2368   13.8447 O   0  0  0  0  0  0  0  0  0  0  0  0
    6.0570    7.2956   12.5988 C   0  0  1  0  0  0  0  0  0  0  0  0
    6.2820    8.6922   12.3099 O   0  0  0  0  0  0  0  0  0  0  0  0
    6.6435    6.1089   16.4471 C   0  0  2  0  0  0  0  0  0  0  0  0
    5.7007    5.3185   15.7069 O   0  0  0  0  0  0  0  0  0  0  0  0
    7.8820   13.6236   11.2029 C   0  0  0  0  0  0  0  0  0  0  0  0
    9.2568   13.3337   11.1250 O   0  0  0  0  0  0  0  0  0  0  0  0
    5.0824   13.1755   17.1752 C   0  0  1  0  0  0  0  0  0  0  0  0
    4.8147   11.7559   17.0260 O   0  0  0  0  0  0  0  0  0  0  0  0
    7.2407    6.7644   13.4645 C   0  0  0  0  0  0  0  0  0  0  0  0
    8.4481    7.6138   13.3915 N   0  0  0  0  0  0  0  0  0  0  0  0
    7.8782    5.2576   16.7342 C   0  0  0  0  0  0  0  0  0  0  0  0
    7.4767    3.9166   17.1208 O   0  0  0  0  0  0  0  0  0  0  0  0
  1  2  1  6  0  0  0
  1  8  1  0  0  0  0
  1 36  1  0  0  0  0
  3  4  1  1  0  0  0
  3 10  1  0  0  0  0
  3 47  1  0  0  0  0
  5 11  1  0  0  0  0
  5 30  1  0  0  0  0
  5 38  1  1  0  0  0
  6 21  1  1  0  0  0
  6 42  1  0  0  0  0
  7 15  1  0  0  0  0
  7 44  1  0  0  0  0
  7 32  1  6  0  0  0
  8  9  1  1  0  0  0
  8 17  1  0  0  0  0
 11 12  1  6  0  0  0
 11 20  1  0  0  0  0
 13  6  1  0  0  0  0
 13 14  1  1  0  0  0
 15 16  1  1  0  0  0
 15 24  1  0  0  0  0
 17 26  1  0  0  0  0
 18 10  1  0  0  0  0
 18 19  1  1  0  0  0
 20 21  1  6  0  0  0
 20 29  1  0  0  0  0
 22 13  1  0  0  0  0
 22 23  1  6  0  0  0
 24 25  1  1  0  0  0
 24 33  1  0  0  0  0
 26 27  1  6  0  0  0
 26 35  1  0  0  0  0
 28  2  1  6  0  0  0
 28 18  1  0  0  0  0
 29 30  1  0  0  0  0
 29 39  1  1  0  0  0
 31 22  1  0  0  0  0
 31 32  1  1  0  0  0
 31 41  1  0  0  0  0
 33 34  1  6  0  0  0
 33 43  1  0  0  0  0
 35 36  1  0  0  0  0
 35 45  1  6  0  0  0
 37 28  1  0  0  0  0
 37 38  1  6  0  0  0
 39 40  1  0  0  0  0
 41 42  1  0  0  0  0
 41 49  1  1  0  0  0
 43 44  1  0  0  0  0
 43 51  1  1  0  0  0
 45 46  1  0  0  0  0
 47 37  1  0  0  0  0
 47 48  1  6  0  0  0
 49 50  1  0  0  0  0
 51 52  1  0  0  0  0
M  END
>  <CHROM.1>
-129.80180795,-78.72548037,128.52971438,167.45167300,-170.91602719,39.33792815
-46.17295355,154.23991707,57.86352023,137.18921216,-177.04663753,109.16316940
6.20287851,10.96857544,14.45958535,0.15392602,1.34196772,1.29702036

>  <Name>
2esj_lig

>  <RI>
224

>  <Rbt.Current_Directory>
/home/itssahil/PROJECTS/Mol_Feturizer/New_Systems/rnas/2esj

>  <Rbt.Executable>
rbdock ($Id: //depot/dev/client3/rdock/2013.1/src/exe/rbdock.cxx#4 $)

>  <Rbt.Library>
libRbt.so (2013.1, Build901 2013/11/27)

>  <Rbt.Parameter_File>
/export/apps/rDock/src/rDock_2013.1_src/data/scripts/dock_solv.prm

>  <Rbt.Receptor>
prm/blind_docking_100.prm

>  <SCORE>
24.6567

>  <SCORE.INTER>
-1.08996

>  <SCORE.INTER.CONST>
1

>  <SCORE.INTER.POLAR>
-0.938083

>  <SCORE.INTER.ROT>
12

>  <SCORE.INTER.SOLV>
15.5175

>  <SCORE.INTER.VDW>
-14.3722

>  <SCORE.INTER.norm>
-0.0209607

>  <SCORE.INTRA>
12.8819

>  <SCORE.INTRA.DIHEDRAL>
0.694426

>  <SCORE.INTRA.DIHEDRAL.0>
32.9766

>  <SCORE.INTRA.POLAR>
0

>  <SCORE.INTRA.POLAR.0>
0

>  <SCORE.INTRA.REPUL>
0

>  <SCORE.INTRA.REPUL.0>
0

>  <SCORE.INTRA.SOLV>
9.40491

>  <SCORE.INTRA.SOLV.lig_0>
-114.358

>  <SCORE.INTRA.VDW>
7.83228

>  <SCORE.INTRA.VDW.0>
-8.24257

>  <SCORE.INTRA.norm>
0.24773

>  <SCORE.RESTR>
12.8647

>  <SCORE.RESTR.CAVITY>
12.8647

>  <SCORE.RESTR.norm>
0.247399

>  <SCORE.SYSTEM>
0

>  <SCORE.SYSTEM.CONST>
0

>  <SCORE.SYSTEM.DIHEDRAL>
0

>  <SCORE.SYSTEM.SOLV>
0

>  <SCORE.SYSTEM.norm>
0

>  <SCORE.heavy>
52

>  <SCORE.norm>
0.474168

>  <RMSD>
24.162

$$$$
2esj_lig
 OpenBabel11021811423D
libRbt.so/2013.1/901 2013/11/27
 52 56  0  0  0  0  0  0  0  0999 V2000
    4.8608   13.5802   12.3948 C   0  0  2  0  0  0  0  0  0  0  0  0
    4.7247   12.9492   13.6825 O   0  0  0  0  0  0  0  0  0  0  0  0
    8.8198   11.9708   14.4315 C   0  0  2  0  0  0  0  0  0  0  0  0
   10.0861   11.5100   15.0244 N   0  0  0  0  0  0  0  0  0  0  0  0
    5.1668    9.3813   14.4609 C   0  0  1  0  0  0  0  0  0  0  0  0
    4.4417    7.3672   17.8842 C   0  0  1  0  0  0  0  0  0  0  0  0
    1.9631    3.2080   19.3330 C   0  0  1  0  0  0  0  0  0  0  0  0
    3.4290   13.9212   11.8864 C   0  0  2  0  0  0  0  0  0  0  0  0
    2.6918   14.7605   12.8304 N   0  0  0  0  0  0  0  0  0  0  0  0
    8.1182   13.0201   15.3824 C   0  0  0  0  0  0  0  0  0  0  0  0
    6.2302    8.3346   14.7957 C   0  0  2  0  0  0  0  0  0  0  0  0
    6.0378    7.1020   14.0682 O   0  0  0  0  0  0  0  0  0  0  0  0
    5.2815    6.1785   18.5346 C   0  0  2  0  0  0  0  0  0  0  0  0
    5.2500    4.9676   17.6723 N   0  0  0  0  0  0  0  0  0  0  0  0
    2.6757    2.0917   18.5782 C   0  0  1  0  0  0  0  0  0  0  0  0
    2.0978    0.8244   18.9504 O   0  0  0  0  0  0  0  0  0  0  0  0
    2.6185   12.6197   11.5893 C   0  0  0  0  0  0  0  0  0  0  0  0
    6.7911   13.5475   14.7025 C   0  0  2  0  0  0  0  0  0  0  0  0
    6.1125   14.5142   15.5718 N   0  0  0  0  0  0  0  0  0  0  0  0
    6.0357    8.2115   16.2794 C   0  0  2  0  0  0  0  0  0  0  0  0
    4.8932    7.4446   16.5641 O   0  0  0  0  0  0  0  0  0  0  0  0
    4.7845    5.9524   20.0303 C   0  0  1  0  0  0  0  0  0  0  0  0
    4.8074    7.2064   20.7199 O   0  0  0  0  0  0  0  0  0  0  0  0
    2.6306    2.2013   17.0588 C   0  0  1  0  0  0  0  0  0  0  0  0
    3.1312    0.9683   16.5303 O   0  0  0  0  0  0  0  0  0  0  0  0
    3.4339   11.7337   10.6014 C   0  0  2  0  0  0  0  0  0  0  0  0
    2.7207   10.5685   10.2275 O   0  0  0  0  0  0  0  0  0  0  0  0
    5.8461   12.3636   14.3701 C   0  0  2  0  0  0  0  0  0  0  0  0
    5.6699    9.6252   16.7764 C   0  0  2  0  0  0  0  0  0  0  0  0
    5.0098   10.1733   15.6464 O   0  0  0  0  0  0  0  0  0  0  0  0
    3.2781    5.4644   20.0717 C   0  0  2  0  0  0  0  0  0  0  0  0
    3.2994    4.2000   19.4073 O   0  0  0  0  0  0  0  0  0  0  0  0
    1.2301    2.4606   16.5007 C   0  0  2  0  0  0  0  0  0  0  0  0
    1.3940    2.8460   15.1262 O   0  0  0  0  0  0  0  0  0  0  0  0
    4.7894   11.3846   11.2644 C   0  0  2  0  0  0  0  0  0  0  0  0
    5.4932   12.6384   11.4965 O   0  0  0  0  0  0  0  0  0  0  0  0
    6.5143   11.2285   13.5299 C   0  0  2  0  0  0  0  0  0  0  0  0
    5.5668   10.1407   13.3417 O   0  0  0  0  0  0  0  0  0  0  0  0
    6.8357   10.5316   17.1701 C   0  0  0  0  0  0  0  0  0  0  0  0
    7.6349    9.8179   18.1249 O   0  0  0  0  0  0  0  0  0  0  0  0
    2.5192    6.3976   19.1480 C   0  0  1  0  0  0  0  0  0  0  0  0
    2.9547    7.0703   17.9470 O   0  0  0  0  0  0  0  0  0  0  0  0
    0.4684    3.4725   17.3493 C   0  0  2  0  0  0  0  0  0  0  0  0
    0.6800    3.5682   18.7663 O   0  0  0  0  0  0  0  0  0  0  0  0
    5.6786   10.5734   10.3848 C   0  0  0  0  0  0  0  0  0  0  0  0
    5.0439    9.3361   10.1693 O   0  0  0  0  0  0  0  0  0  0  0  0
    7.8516   10.7569   14.1942 C   0  0  1  0  0  0  0  0  0  0  0  0
    8.4992    9.8518   13.2610 O   0  0  0  0  0  0  0  0  0  0  0  0
    0.9731    6.2025   19.0822 C   0  0  0  0  0  0  0  0  0  0  0  0
    0.3756    6.6757   17.8158 N   0  0  0  0  0  0  0  0  0  0  0  0
   -0.9588    3.9161   17.0360 C   0  0  0  0  0  0  0  0  0  0  0  0
   -1.4187    4.8548   18.0439 O   0  0  0  0  0  0  0  0  0  0  0  0
  1  2  1  1  0  0  0
  1  8  1  0  0  0  0
  1 36  1  0  0  0  0
  3  4  1  1  0  0  0
  3 10  1  0  0  0  0
  3 47  1  0  0  0  0
  5 11  1  0  0  0  0
  5 30  1  0  0  0  0
  5 38  1  6  0  0  0
  6 21  1  6  0  0  0
  6 42  1  0  0  0  0
  7 15  1  0  0  0  0
  7 44  1  0  0  0  0
  7 32  1  6  0  0  0
  8  9  1  1  0  0  0
  8 17  1  0  0  0  0
 11 12  1  6  0  0  0
 11 20  1  0  0  0  0
 13  6  1  0  0  0  0
 13 14  1  6  0  0  0
 15 16  1  6  0  0  0
 15 24  1  0  0  0  0
 17 26  1  0  0  0  0
 18 10  1  0  0  0  0
 18 19  1  1  0  0  0
 20 21  1  6  0  0  0
 20 29  1  0  0  0  0
 22 13  1  0  0  0  0
 22 23  1  1  0  0  0
 24 25  1  6  0  0  0
 24 33  1  0  0  0  0
 26 27  1  1  0  0  0
 26 35  1  0  0  0  0
 28  2  1  6  0  0  0
 28 18  1  0  0  0  0
 29 30  1  0  0  0  0
 29 39  1  6  0  0  0
 31 22  1  0  0  0  0
 31 32  1  6  0  0  0
 31 41  1  0  0  0  0
 33 34  1  6  0  0  0
 33 43  1  0  0  0  0
 35 36  1  0  0  0  0
 35 45  1  6  0  0  0
 37 28  1  0  0  0  0
 37 38  1  1  0  0  0
 39 40  1  0  0  0  0
 41 42  1  0  0  0  0
 41 49  1  6  0  0  0
 43 44  1  0  0  0  0
 43 51  1  1  0  0  0
 45 46  1  0  0  0  0
 47 37  1  0  0  0  0
 47 48  1  6  0  0  0
 49 50  1  0  0  0  0
 51 52  1  0  0  0  0
M  END
>  <CHROM.1>
172.63542189,-80.41087095,-85.72892103,-178.04325909,-171.43326149,65.23393612
-53.50555039,173.55058684,-64.36300508,-67.24991308,-154.92535067,178.42844689
4.30683182,8.25397348,15.68323193,1.10771509,-0.64556283,-0.84319459

>  <Name>
2esj_lig

>  <RI>
0

>  <Rbt.Current_Directory>
/home/itssahil/PROJECTS/Mol_Feturizer/New_Systems/rnas/2esj

>  <Rbt.Executable>
rbdock ($Id: //depot/dev/client3/rdock/2013.1/src/exe/rbdock.cxx#4 $)

>  <Rbt.Library>
libRbt.so (2013.1, Build901 2013/11/27)

>  <Rbt.Parameter_File>
/export/apps/rDock/src/rDock_2013.1_src/data/scripts/dock_solv.prm

>  <Rbt.Receptor>
prm/blind_docking_80.prm

>  <SCORE>
12.4421

>  <SCORE.INTER>
3.5054

>  <SCORE.INTER.CONST>
1

>  <SCORE.INTER.POLAR>
-0.470445

>  <SCORE.INTER.ROT>
12

>  <SCORE.INTER.SOLV>
23.6313

>  <SCORE.INTER.VDW>
-15.572

>  <SCORE.INTER.norm>
0.0674116

>  <SCORE.INTRA>
-1.07918

>  <SCORE.INTRA.DIHEDRAL>
-21.8378

>  <SCORE.INTRA.DIHEDRAL.0>
32.9766

>  <SCORE.INTRA.POLAR>
0

>  <SCORE.INTRA.POLAR.0>
0

>  <SCORE.INTRA.REPUL>
0

>  <SCORE.INTRA.REPUL.0>
0

>  <SCORE.INTRA.SOLV>
3.61842

>  <SCORE.INTRA.SOLV.lig_0>
-114.358

>  <SCORE.INTRA.VDW>
8.0305

>  <SCORE.INTRA.VDW.0>
-8.24257

>  <SCORE.INTRA.norm>
-0.0207535

>  <SCORE.RESTR>
10.0159

>  <SCORE.RESTR.CAVITY>
10.0159

>  <SCORE.RESTR.norm>
0.192613

>  <SCORE.SYSTEM>
0

>  <SCORE.SYSTEM.CONST>
0

>  <SCORE.SYSTEM.DIHEDRAL>
0

>  <SCORE.SYSTEM.SOLV>
0

>  <SCORE.SYSTEM.norm>
0

>  <SCORE.heavy>
52

>  <SCORE.norm>
0.239271

>  <RMSD>
24.188

$$$$
2esj_lig
 OpenBabel11021811423D
libRbt.so/2013.1/901 2013/11/27
 52 56  0  0  0  0  0  0  0  0999 V2000
    5.8745   15.0895   17.1187 C   0  0  2  0  0  0  0  0  0  0  0  0
    6.8675   14.2927   17.7924 O   0  0  0  0  0  0  0  0  0  0  0  0
    7.8122   12.3052   21.4592 C   0  0  2  0  0  0  0  0  0  0  0  0
    7.7754   11.7188   22.8091 N   0  0  0  0  0  0  0  0  0  0  0  0
    6.3729   10.7738   17.0736 C   0  0  1  0  0  0  0  0  0  0  0  0
    7.5693    8.0853   14.1836 C   0  0  1  0  0  0  0  0  0  0  0  0
    5.1197   10.0494   12.3472 C   0  0  1  0  0  0  0  0  0  0  0  0
    4.8328   14.1130   16.4971 C   0  0  2  0  0  0  0  0  0  0  0  0
    4.2364   13.2294   17.4985 N   0  0  0  0  0  0  0  0  0  0  0  0
    7.4426   13.8406   21.5174 C   0  0  0  0  0  0  0  0  0  0  0  0
    7.0133    9.4766   17.5695 C   0  0  2  0  0  0  0  0  0  0  0  0
    8.4131    9.6392   17.8847 O   0  0  0  0  0  0  0  0  0  0  0  0
    8.1160    9.0409   13.0307 C   0  0  2  0  0  0  0  0  0  0  0  0
    7.4475   10.3684   13.0750 N   0  0  0  0  0  0  0  0  0  0  0  0
    3.8827    9.1622   12.2683 C   0  0  1  0  0  0  0  0  0  0  0  0
    3.3059    9.0356   13.5835 O   0  0  0  0  0  0  0  0  0  0  0  0
    5.4774   13.2629   15.3566 C   0  0  0  0  0  0  0  0  0  0  0  0
    7.5451   14.4659   20.0682 C   0  0  2  0  0  0  0  0  0  0  0  0
    7.1933   15.8895   20.0922 N   0  0  0  0  0  0  0  0  0  0  0  0
    6.7455    8.5743   16.3998 C   0  0  2  0  0  0  0  0  0  0  0  0
    7.6339    8.8552   15.3480 O   0  0  0  0  0  0  0  0  0  0  0  0
    8.0104    8.2807   11.6357 C   0  0  1  0  0  0  0  0  0  0  0  0
    8.6371    6.9998   11.7583 O   0  0  0  0  0  0  0  0  0  0  0  0
    2.7923    9.6483   11.3211 C   0  0  1  0  0  0  0  0  0  0  0  0
    1.6360    8.8366   11.5545 O   0  0  0  0  0  0  0  0  0  0  0  0
    6.1249   14.2247   14.3167 C   0  0  2  0  0  0  0  0  0  0  0  0
    6.6629   13.5207   13.2117 O   0  0  0  0  0  0  0  0  0  0  0  0
    6.6263   13.6991   19.0818 C   0  0  2  0  0  0  0  0  0  0  0  0
    5.3680    8.9956   15.8477 C   0  0  2  0  0  0  0  0  0  0  0  0
    5.3300   10.3762   16.1727 O   0  0  0  0  0  0  0  0  0  0  0  0
    6.5024    7.9883   11.2490 C   0  0  2  0  0  0  0  0  0  0  0  0
    5.9191    9.2839   11.1021 O   0  0  0  0  0  0  0  0  0  0  0  0
    2.4240   11.1211   11.5089 C   0  0  2  0  0  0  0  0  0  0  0  0
    1.6378   11.5028   10.3684 O   0  0  0  0  0  0  0  0  0  0  0  0
    7.2066   15.0664   15.0382 C   0  0  2  0  0  0  0  0  0  0  0  0
    6.5340   15.8405   16.0723 O   0  0  0  0  0  0  0  0  0  0  0  0
    6.8575   12.1540   19.0623 C   0  0  2  0  0  0  0  0  0  0  0  0
    5.8973   11.5300   18.1650 O   0  0  0  0  0  0  0  0  0  0  0  0
    4.1497    8.2996   16.4534 C   0  0  0  0  0  0  0  0  0  0  0  0
    4.3340    6.8857   16.2903 O   0  0  0  0  0  0  0  0  0  0  0  0
    5.8682    7.3941   12.4920 C   0  0  1  0  0  0  0  0  0  0  0  0
    6.1479    7.6447   13.8861 O   0  0  0  0  0  0  0  0  0  0  0  0
    3.6615   11.9826   11.7343 C   0  0  2  0  0  0  0  0  0  0  0  0
    4.8191   11.4647   12.4079 O   0  0  0  0  0  0  0  0  0  0  0  0
    7.8646   16.0621   14.1449 C   0  0  0  0  0  0  0  0  0  0  0  0
    9.2010   16.1890   14.5669 O   0  0  0  0  0  0  0  0  0  0  0  0
    6.8022   11.5639   20.5117 C   0  0  1  0  0  0  0  0  0  0  0  0
    7.2162   10.1744   20.4260 O   0  0  0  0  0  0  0  0  0  0  0  0
    4.3911    6.9123   12.3545 C   0  0  0  0  0  0  0  0  0  0  0  0
    4.0386    6.4856   10.9840 N   0  0  0  0  0  0  0  0  0  0  0  0
    3.5962   13.4911   11.9618 C   0  0  0  0  0  0  0  0  0  0  0  0
    2.5275   14.0668   11.1648 O   0  0  0  0  0  0  0  0  0  0  0  0
  1  2  1  6  0  0  0
  1  8  1  0  0  0  0
  1 36  1  0  0  0  0
  3  4  1  1  0  0  0
  3 10  1  0  0  0  0
  3 47  1  0  0  0  0
  5 11  1  0  0  0  0
  5 30  1  0  0  0  0
  5 38  1  1  0  0  0
  6 21  1  1  0  0  0
  6 42  1  0  0  0  0
  7 15  1  0  0  0  0
  7 44  1  0  0  0  0
  7 32  1  6  0  0  0
  8  9  1  1  0  0  0
  8 17  1  0  0  0  0
 11 12  1  6  0  0  0
 11 20  1  0  0  0  0
 13  6  1  0  0  0  0
 13 14  1  6  0  0  0
 15 16  1  1  0  0  0
 15 24  1  0  0  0  0
 17 26  1  0  0  0  0
 18 10  1  0  0  0  0
 18 19  1  1  0  0  0
 20 21  1  6  0  0  0
 20 29  1  0  0  0  0
 22 13  1  0  0  0  0
 22 23  1  1  0  0  0
 24 25  1  1  0  0  0
 24 33  1  0  0  0  0
 26 27  1  6  0  0  0
 26 35  1  0  0  0  0
 28  2  1  6  0  0  0
 28 18  1  0  0  0  0
 29 30  1  0  0  0  0
 29 39  1  1  0  0  0
 31 22  1  0  0  0  0
 31 32  1  1  0  0  0
 31 41  1  0  0  0  0
 33 34  1  6  0  0  0
 33 43  1  0  0  0  0
 35 36  1  0  0  0  0
 35 45  1  6  0  0  0
 37 28  1  0  0  0  0
 37 38  1  6  0  0  0
 39 40  1  0  0  0  0
 41 42  1  0  0  0  0
 41 49  1  1  0  0  0
 43 44  1  0  0  0  0
 43 51  1  1  0  0  0
 45 46  1  0  0  0  0
 47 37  1  0  0  0  0
 47 48  1  6  0  0  0
 49 50  1  0  0  0  0
 51 52  1  0  0  0  0
M  END
>  <CHROM.1>
-77.63038136,70.06926405,153.04618279,-73.72264433,177.89714919,-110.85863278
-56.00215319,-94.03057999,-146.80401503,121.26239896,28.34397003,-35.58191500
5.86072695,11.12614722,15.15424442,0.67275649,-1.19203449,0.17507628

>  <Name>
2esj_lig

>  <RI>
224

>  <Rbt.Current_Directory>
/home/itssahil/PROJECTS/Mol_Feturizer/New_Systems/rnas/2esj

>  <Rbt.Executable>
rbdock ($Id: //depot/dev/client3/rdock/2013.1/src/exe/rbdock.cxx#4 $)

>  <Rbt.Library>
libRbt.so (2013.1, Build901 2013/11/27)

>  <Rbt.Parameter_File>
/export/apps/rDock/src/rDock_2013.1_src/data/scripts/dock_solv.prm

>  <Rbt.Receptor>
prm/blind_docking_100.prm

>  <SCORE>
31.185

>  <SCORE.INTER>
-6.10207

>  <SCORE.INTER.CONST>
1

>  <SCORE.INTER.POLAR>
-0.686852

>  <SCORE.INTER.ROT>
12

>  <SCORE.INTER.SOLV>
23.175

>  <SCORE.INTER.VDW>
-21.1035

>  <SCORE.INTER.norm>
-0.117348

>  <SCORE.INTRA>
29.1708

>  <SCORE.INTRA.DIHEDRAL>
-0.272095

>  <SCORE.INTRA.DIHEDRAL.0>
32.9766

>  <SCORE.INTRA.POLAR>
0

>  <SCORE.INTRA.POLAR.0>
0

>  <SCORE.INTRA.REPUL>
0.244303

>  <SCORE.INTRA.REPUL.0>
0

>  <SCORE.INTRA.SOLV>
11.1402

>  <SCORE.INTRA.SOLV.lig_0>
-114.358

>  <SCORE.INTRA.VDW>
22.5152

>  <SCORE.INTRA.VDW.0>
-8.24257

>  <SCORE.INTRA.norm>
0.560977

>  <SCORE.RESTR>
8.1163

>  <SCORE.RESTR.CAVITY>
8.1163

>  <SCORE.RESTR.norm>
0.156083

>  <SCORE.SYSTEM>
0

>  <SCORE.SYSTEM.CONST>
0

>  <SCORE.SYSTEM.DIHEDRAL>
0

>  <SCORE.SYSTEM.SOLV>
0

>  <SCORE.SYSTEM.norm>
0

>  <SCORE.heavy>
52

>  <SCORE.norm>
0.599712

>  <RMSD>
24.222

$$$$
2esj_lig
 OpenBabel11021811423D
libRbt.so/2013.1/901 2013/11/27
 52 56  0  0  0  0  0  0  0  0999 V2000
    3.8723   12.8286   12.5410 C   0  0  2  0  0  0  0  0  0  0  0  0
    5.1897   13.3123   12.8656 O   0  0  0  0  0  0  0  0  0  0  0  0
    7.6664   14.1680   16.2451 C   0  0  2  0  0  0  0  0  0  0  0  0
    8.3186   14.1735   17.5650 N   0  0  0  0  0  0  0  0  0  0  0  0
    7.0339   10.3712   13.9197 C   0  0  1  0  0  0  0  0  0  0  0  0
    5.4292    6.6658   14.9511 C   0  0  1  0  0  0  0  0  0  0  0  0
    4.3839    5.3318   19.7849 C   0  0  1  0  0  0  0  0  0  0  0  0
    3.8256   12.5925   11.0025 C   0  0  2  0  0  0  0  0  0  0  0  0
    4.8708   11.6741   10.5516 N   0  0  0  0  0  0  0  0  0  0  0  0
    6.1034   14.3381   16.4044 C   0  0  0  0  0  0  0  0  0  0  0  0
    5.8861    9.8185   13.0738 C   0  0  2  0  0  0  0  0  0  0  0  0
    4.6047   10.3572   13.4653 O   0  0  0  0  0  0  0  0  0  0  0  0
    4.2286    6.6141   15.9985 C   0  0  2  0  0  0  0  0  0  0  0  0
    4.4011    7.6406   17.0603 N   0  0  0  0  0  0  0  0  0  0  0  0
    3.1572    4.9603   18.9598 C   0  0  1  0  0  0  0  0  0  0  0  0
    2.3335    4.0523   19.7183 O   0  0  0  0  0  0  0  0  0  0  0  0
    3.9371   13.9439   10.2277 C   0  0  0  0  0  0  0  0  0  0  0  0
    5.4273   14.3894   14.9754 C   0  0  2  0  0  0  0  0  0  0  0  0
    3.9728   14.5335   15.0955 N   0  0  0  0  0  0  0  0  0  0  0  0
    6.0406    8.3473   13.3300 C   0  0  2  0  0  0  0  0  0  0  0  0
    5.5412    8.0138   14.6003 O   0  0  0  0  0  0  0  0  0  0  0  0
    4.0669    5.1207   16.5263 C   0  0  1  0  0  0  0  0  0  0  0  0
    3.9757    4.2399   15.4018 O   0  0  0  0  0  0  0  0  0  0  0  0
    2.2867    6.1325   18.5234 C   0  0  1  0  0  0  0  0  0  0  0  0
    1.0814    5.5849   17.9780 O   0  0  0  0  0  0  0  0  0  0  0  0
    2.8299   14.9113   10.7416 C   0  0  2  0  0  0  0  0  0  0  0  0
    2.8241   16.1331   10.0252 O   0  0  0  0  0  0  0  0  0  0  0  0
    5.7788   13.1151   14.1645 C   0  0  2  0  0  0  0  0  0  0  0  0
    7.5581    8.0959   13.4476 C   0  0  2  0  0  0  0  0  0  0  0  0
    8.0225    9.3329   13.9645 O   0  0  0  0  0  0  0  0  0  0  0  0
    5.3437    4.6529   17.3387 C   0  0  2  0  0  0  0  0  0  0  0  0
    5.3834    5.5284   18.4667 O   0  0  0  0  0  0  0  0  0  0  0  0
    1.9373    7.0969   19.6582 C   0  0  2  0  0  0  0  0  0  0  0  0
    1.3989    8.2812   19.0479 O   0  0  0  0  0  0  0  0  0  0  0  0
    3.0476   15.1401   12.2579 C   0  0  2  0  0  0  0  0  0  0  0  0
    2.9143   13.8469   12.9142 O   0  0  0  0  0  0  0  0  0  0  0  0
    7.3100   12.8199   14.0691 C   0  0  2  0  0  0  0  0  0  0  0  0
    7.5206   11.5692   13.3565 O   0  0  0  0  0  0  0  0  0  0  0  0
    8.2988    7.7804   12.1485 C   0  0  0  0  0  0  0  0  0  0  0  0
    7.7008    6.6040   11.5846 O   0  0  0  0  0  0  0  0  0  0  0  0
    6.5366    5.0353   16.4837 C   0  0  1  0  0  0  0  0  0  0  0  0
    6.7101    6.1458   15.5773 O   0  0  0  0  0  0  0  0  0  0  0  0
    3.1353    7.3489   20.5669 C   0  0  2  0  0  0  0  0  0  0  0  0
    4.1234    6.3331   20.7982 O   0  0  0  0  0  0  0  0  0  0  0  0
    2.0109   16.0186   12.8712 C   0  0  0  0  0  0  0  0  0  0  0  0
    2.4504   16.3488   14.1665 O   0  0  0  0  0  0  0  0  0  0  0  0
    7.9679   12.8239   15.4902 C   0  0  1  0  0  0  0  0  0  0  0  0
    9.4050   12.7382   15.2985 O   0  0  0  0  0  0  0  0  0  0  0  0
    7.9368    4.5908   17.0077 C   0  0  0  0  0  0  0  0  0  0  0  0
    8.2435    5.0962   18.3624 N   0  0  0  0  0  0  0  0  0  0  0  0
    3.0763    8.2624   21.7891 C   0  0  0  0  0  0  0  0  0  0  0  0
    3.5332    9.5945   21.4347 O   0  0  0  0  0  0  0  0  0  0  0  0
  1  2  1  6  0  0  0
  1  8  1  0  0  0  0
  1 36  1  0  0  0  0
  3  4  1  1  0  0  0
  3 10  1  0  0  0  0
  3 47  1  0  0  0  0
  5 11  1  0  0  0  0
  5 30  1  0  0  0  0
  5 38  1  6  0  0  0
  6 21  1  1  0  0  0
  6 42  1  0  0  0  0
  7 15  1  0  0  0  0
  7 44  1  0  0  0  0
  7 32  1  6  0  0  0
  8  9  1  6  0  0  0
  8 17  1  0  0  0  0
 11 12  1  1  0  0  0
 11 20  1  0  0  0  0
 13  6  1  0  0  0  0
 13 14  1  1  0  0  0
 15 16  1  1  0  0  0
 15 24  1  0  0  0  0
 17 26  1  0  0  0  0
 18 10  1  0  0  0  0
 18 19  1  1  0  0  0
 20 21  1  1  0  0  0
 20 29  1  0  0  0  0
 22 13  1  0  0  0  0
 22 23  1  6  0  0  0
 24 25  1  1  0  0  0
 24 33  1  0  0  0  0
 26 27  1  6  0  0  0
 26 35  1  0  0  0  0
 28  2  1  6  0  0  0
 28 18  1  0  0  0  0
 29 30  1  0  0  0  0
 29 39  1  6  0  0  0
 31 22  1  0  0  0  0
 31 32  1  1  0  0  0
 31 41  1  0  0  0  0
 33 34  1  6  0  0  0
 33 43  1  0  0  0  0
 35 36  1  0  0  0  0
 35 45  1  1  0  0  0
 37 28  1  0  0  0  0
 37 38  1  1  0  0  0
 39 40  1  0  0  0  0
 41 42  1  0  0  0  0
 41 49  1  1  0  0  0
 43 44  1  0  0  0  0
 43 51  1  1  0  0  0
 45 46  1  0  0  0  0
 47 37  1  0  0  0  0
 47 48  1  6  0  0  0
 49 50  1  0  0  0  0
 51 52  1  0  0  0  0
M  END
>  <CHROM.1>
-153.48939716,111.86158073,-151.79253635,-40.07859242,171.40922115,-93.14897621
-58.93339599,77.65138206,-169.24917589,-63.79066559,-57.32970628,-94.89090508
4.99811456,9.68971065,15.46606725,1.50500676,0.84825962,-0.55351340

>  <Name>
2esj_lig

>  <RI>
0

>  <Rbt.Current_Directory>
/home/itssahil/PROJECTS/Mol_Feturizer/New_Systems/rnas/2esj

>  <Rbt.Executable>
rbdock ($Id: //depot/dev/client3/rdock/2013.1/src/exe/rbdock.cxx#4 $)

>  <Rbt.Library>
libRbt.so (2013.1, Build901 2013/11/27)

>  <Rbt.Parameter_File>
/export/apps/rDock/src/rDock_2013.1_src/data/scripts/dock_solv.prm

>  <Rbt.Receptor>
prm/blind_docking_80.prm

>  <SCORE>
18.1103

>  <SCORE.INTER>
-3.05939

>  <SCORE.INTER.CONST>
1

>  <SCORE.INTER.POLAR>
0

>  <SCORE.INTER.ROT>
12

>  <SCORE.INTER.SOLV>
23.0827

>  <SCORE.INTER.VDW>
-21.3338

>  <SCORE.INTER.norm>
-0.0588344

>  <SCORE.INTRA>
8.16592

>  <SCORE.INTRA.DIHEDRAL>
-6.01263

>  <SCORE.INTRA.DIHEDRAL.0>
32.9766

>  <SCORE.INTRA.POLAR>
0

>  <SCORE.INTRA.POLAR.0>
0

>  <SCORE.INTRA.REPUL>
0

>  <SCORE.INTRA.REPUL.0>
0

>  <SCORE.INTRA.SOLV>
7.27823

>  <SCORE.INTRA.SOLV.lig_0>
-114.358

>  <SCORE.INTRA.VDW>
7.53312

>  <SCORE.INTRA.VDW.0>
-8.24257

>  <SCORE.INTRA.norm>
0.157037

>  <SCORE.RESTR>
13.0038

>  <SCORE.RESTR.CAVITY>
13.0038

>  <SCORE.RESTR.norm>
0.250072

>  <SCORE.SYSTEM>
0

>  <SCORE.SYSTEM.CONST>
0

>  <SCORE.SYSTEM.DIHEDRAL>
0

>  <SCORE.SYSTEM.SOLV>
0

>  <SCORE.SYSTEM.norm>
0

>  <SCORE.heavy>
52

>  <SCORE.norm>
0.348275

>  <RMSD>
24.301

$$$$
2esj_lig
 OpenBabel11021811423D
libRbt.so/2013.1/901 2013/11/27
 52 56  0  0  0  0  0  0  0  0999 V2000
    6.0202   10.8357   10.5479 C   0  0  2  0  0  0  0  0  0  0  0  0
    6.1662   11.7168   11.6781 O   0  0  0  0  0  0  0  0  0  0  0  0
    8.6638   14.7110    9.9218 C   0  0  2  0  0  0  0  0  0  0  0  0
    9.4133   15.9432    9.6262 N   0  0  0  0  0  0  0  0  0  0  0  0
    8.0636   12.1825   13.9218 C   0  0  1  0  0  0  0  0  0  0  0  0
    6.8355   11.9361   17.9448 C   0  0  1  0  0  0  0  0  0  0  0  0
    3.3157    8.4207   19.7861 C   0  0  1  0  0  0  0  0  0  0  0  0
    4.5829   10.2388   10.6017 C   0  0  2  0  0  0  0  0  0  0  0  0
    3.5529   11.2770   10.6212 N   0  0  0  0  0  0  0  0  0  0  0  0
    7.1267   15.0325   10.0989 C   0  0  0  0  0  0  0  0  0  0  0  0
    8.9130   12.0738   15.1887 C   0  0  2  0  0  0  0  0  0  0  0  0
    9.0948   10.7057   15.6140 O   0  0  0  0  0  0  0  0  0  0  0  0
    7.1081   10.3721   18.0898 C   0  0  2  0  0  0  0  0  0  0  0  0
    6.3094    9.5966   17.1041 N   0  0  0  0  0  0  0  0  0  0  0  0
    4.1204    7.3284   20.4810 C   0  0  1  0  0  0  0  0  0  0  0  0
    3.3880    6.8593   21.6307 O   0  0  0  0  0  0  0  0  0  0  0  0
    4.4146    9.3018   11.8398 C   0  0  0  0  0  0  0  0  0  0  0  0
    6.3306   13.6904   10.3567 C   0  0  2  0  0  0  0  0  0  0  0  0
    4.9010   13.9629   10.5383 N   0  0  0  0  0  0  0  0  0  0  0  0
    8.1019   12.9109   16.1351 C   0  0  2  0  0  0  0  0  0  0  0  0
    6.9749   12.1991   16.5795 O   0  0  0  0  0  0  0  0  0  0  0  0
    6.8954    9.9490   19.6100 C   0  0  1  0  0  0  0  0  0  0  0  0
    7.6709   10.8157   20.4443 O   0  0  0  0  0  0  0  0  0  0  0  0
    4.4619    6.1211   19.6160 C   0  0  1  0  0  0  0  0  0  0  0  0
    4.9981    5.1164   20.4839 O   0  0  0  0  0  0  0  0  0  0  0  0
    5.5354    8.2208   11.8087 C   0  0  2  0  0  0  0  0  0  0  0  0
    5.3963    7.2874   12.8649 O   0  0  0  0  0  0  0  0  0  0  0  0
    6.9013   12.9521   11.5953 C   0  0  2  0  0  0  0  0  0  0  0  0
    7.5102   14.0550   15.2863 C   0  0  2  0  0  0  0  0  0  0  0  0
    7.3842   13.4425   14.0128 O   0  0  0  0  0  0  0  0  0  0  0  0
    5.3901   10.1491   20.0608 C   0  0  2  0  0  0  0  0  0  0  0  0
    4.6523    9.2477   19.2340 O   0  0  0  0  0  0  0  0  0  0  0  0
    3.2640    5.5482   18.8565 C   0  0  2  0  0  0  0  0  0  0  0  0
    3.7892    4.6448   17.8702 O   0  0  0  0  0  0  0  0  0  0  0  0
    6.9070    8.9387   11.8589 C   0  0  2  0  0  0  0  0  0  0  0  0
    6.9998    9.7778   10.6723 O   0  0  0  0  0  0  0  0  0  0  0  0
    8.4435   12.7077   11.5397 C   0  0  2  0  0  0  0  0  0  0  0  0
    8.8814   12.0807   12.7772 O   0  0  0  0  0  0  0  0  0  0  0  0
    8.3611   15.3181   15.1581 C   0  0  0  0  0  0  0  0  0  0  0  0
    9.5050   15.1571   16.0097 O   0  0  0  0  0  0  0  0  0  0  0  0
    5.0037   11.5395   19.5942 C   0  0  1  0  0  0  0  0  0  0  0  0
    5.4441   12.2861   18.4396 O   0  0  0  0  0  0  0  0  0  0  0  0
    2.3817    6.6539   18.2877 C   0  0  2  0  0  0  0  0  0  0  0  0
    2.2398    7.9153   18.9589 O   0  0  0  0  0  0  0  0  0  0  0  0
    8.0617    7.9986   11.7863 C   0  0  0  0  0  0  0  0  0  0  0  0
    7.9327    7.2633   10.5935 O   0  0  0  0  0  0  0  0  0  0  0  0
    9.2081   14.0395   11.2334 C   0  0  1  0  0  0  0  0  0  0  0  0
   10.6003   13.6933   11.0069 O   0  0  0  0  0  0  0  0  0  0  0  0
    3.5843   12.0394   20.0044 C   0  0  0  0  0  0  0  0  0  0  0  0
    3.3071   13.4285   19.5824 N   0  0  0  0  0  0  0  0  0  0  0  0
    1.1089    6.3769   17.4908 C   0  0  0  0  0  0  0  0  0  0  0  0
    0.4988    7.6291   17.0802 O   0  0  0  0  0  0  0  0  0  0  0  0
  1  2  1  1  0  0  0
  1  8  1  0  0  0  0
  1 36  1  0  0  0  0
  3  4  1  1  0  0  0
  3 10  1  0  0  0  0
  3 47  1  0  0  0  0
  5 11  1  0  0  0  0
  5 30  1  0  0  0  0
  5 38  1  6  0  0  0
  6 21  1  6  0  0  0
  6 42  1  0  0  0  0
  7 15  1  0  0  0  0
  7 44  1  0  0  0  0
  7 32  1  6  0  0  0
  8  9  1  1  0  0  0
  8 17  1  0  0  0  0
 11 12  1  1  0  0  0
 11 20  1  0  0  0  0
 13  6  1  0  0  0  0
 13 14  1  6  0  0  0
 15 16  1  1  0  0  0
 15 24  1  0  0  0  0
 17 26  1  0  0  0  0
 18 10  1  0  0  0  0
 18 19  1  1  0  0  0
 20 21  1  6  0  0  0
 20 29  1  0  0  0  0
 22 13  1  0  0  0  0
 22 23  1  1  0  0  0
 24 25  1  1  0  0  0
 24 33  1  0  0  0  0
 26 27  1  1  0  0  0
 26 35  1  0  0  0  0
 28  2  1  6  0  0  0
 28 18  1  0  0  0  0
 29 30  1  0  0  0  0
 29 39  1  6  0  0  0
 31 22  1  0  0  0  0
 31 32  1  6  0  0  0
 31 41  1  0  0  0  0
 33 34  1  6  0  0  0
 33 43  1  0  0  0  0
 35 36  1  0  0  0  0
 35 45  1  6  0  0  0
 37 28  1  0  0  0  0
 37 38  1  1  0  0  0
 39 40  1  0  0  0  0
 41 42  1  0  0  0  0
 41 49  1  6  0  0  0
 43 44  1  0  0  0  0
 43 51  1  1  0  0  0
 45 46  1  0  0  0  0
 47 37  1  0  0  0  0
 47 48  1  6  0  0  0
 49 50  1  0  0  0  0
 51 52  1  0  0  0  0
M  END
>  <CHROM.1>
-142.64319099,-153.60660161,-108.20991787,-81.18453228,118.82606740,50.95391269
-5.53578917,144.00203268,57.74208775,-20.02485082,176.68607301,-179.60349210
6.07187334,10.60986868,15.26199633,0.73478852,-1.02370505,-1.75291245

>  <Name>
2esj_lig

>  <RI>
224

>  <Rbt.Current_Directory>
/home/itssahil/PROJECTS/Mol_Feturizer/New_Systems/rnas/2esj

>  <Rbt.Executable>
rbdock ($Id: //depot/dev/client3/rdock/2013.1/src/exe/rbdock.cxx#4 $)

>  <Rbt.Library>
libRbt.so (2013.1, Build901 2013/11/27)

>  <Rbt.Parameter_File>
/export/apps/rDock/src/rDock_2013.1_src/data/scripts/dock_solv.prm

>  <Rbt.Receptor>
prm/blind_docking_100.prm

>  <SCORE>
6.98309

>  <SCORE.INTER>
-12.8662

>  <SCORE.INTER.CONST>
1

>  <SCORE.INTER.POLAR>
-1.00627

>  <SCORE.INTER.ROT>
12

>  <SCORE.INTER.SOLV>
27.9054

>  <SCORE.INTER.VDW>
-26.125

>  <SCORE.INTER.norm>
-0.247428

>  <SCORE.INTRA>
12.1055

>  <SCORE.INTRA.DIHEDRAL>
10.5515

>  <SCORE.INTRA.DIHEDRAL.0>
32.9766

>  <SCORE.INTRA.POLAR>
0

>  <SCORE.INTRA.POLAR.0>
0

>  <SCORE.INTRA.REPUL>
0

>  <SCORE.INTRA.REPUL.0>
0

>  <SCORE.INTRA.SOLV>
-0.377035

>  <SCORE.INTRA.SOLV.lig_0>
-114.358

>  <SCORE.INTRA.VDW>
7.01829

>  <SCORE.INTRA.VDW.0>
-8.24257

>  <SCORE.INTRA.norm>
0.232798

>  <SCORE.RESTR>
7.74382

>  <SCORE.RESTR.CAVITY>
7.74382

>  <SCORE.RESTR.norm>
0.14892

>  <SCORE.SYSTEM>
0

>  <SCORE.SYSTEM.CONST>
0

>  <SCORE.SYSTEM.DIHEDRAL>
0

>  <SCORE.SYSTEM.SOLV>
0

>  <SCORE.SYSTEM.norm>
0

>  <SCORE.heavy>
52

>  <SCORE.norm>
0.13429

>  <RMSD>
24.335

$$$$
2esj_lig
 OpenBabel11021811423D
libRbt.so/2013.1/901 2013/11/27
 52 56  0  0  0  0  0  0  0  0999 V2000
    5.3404   11.3162   11.3232 C   0  0  2  0  0  0  0  0  0  0  0  0
    4.9145   11.2440   12.6974 O   0  0  0  0  0  0  0  0  0  0  0  0
    3.2218   15.1416   13.1791 C   0  0  2  0  0  0  0  0  0  0  0  0
    2.6034   16.3674   13.7104 N   0  0  0  0  0  0  0  0  0  0  0  0
    6.6596   12.6896   15.0844 C   0  0  1  0  0  0  0  0  0  0  0  0
    6.8489   10.5521   16.6105 C   0  0  1  0  0  0  0  0  0  0  0  0
    3.9101    7.4127   18.4451 C   0  0  1  0  0  0  0  0  0  0  0  0
    5.4775    9.8566   10.7979 C   0  0  2  0  0  0  0  0  0  0  0  0
    4.2367    9.0965   10.9456 N   0  0  0  0  0  0  0  0  0  0  0  0
    2.3075   13.8890   13.4835 C   0  0  0  0  0  0  0  0  0  0  0  0
    8.0626   12.7811   15.6858 C   0  0  2  0  0  0  0  0  0  0  0  0
    8.9258   11.7151   15.2340 O   0  0  0  0  0  0  0  0  0  0  0  0
    5.4007   10.2327   17.1954 C   0  0  2  0  0  0  0  0  0  0  0  0
    5.4780    9.8326   18.6254 N   0  0  0  0  0  0  0  0  0  0  0  0
    4.4664    6.7005   19.6726 C   0  0  1  0  0  0  0  0  0  0  0  0
    3.8073    7.2043   20.8517 O   0  0  0  0  0  0  0  0  0  0  0  0
    6.6448    9.1117   11.5202 C   0  0  0  0  0  0  0  0  0  0  0  0
    2.9584   12.5920   12.8543 C   0  0  2  0  0  0  0  0  0  0  0  0
    2.1350   11.4112   13.1346 N   0  0  0  0  0  0  0  0  0  0  0  0
    7.7366   12.7314   17.1505 C   0  0  2  0  0  0  0  0  0  0  0  0
    7.4286   11.4176   17.5419 O   0  0  0  0  0  0  0  0  0  0  0  0
    4.6778    9.1828   16.2412 C   0  0  1  0  0  0  0  0  0  0  0  0
    4.7340    9.6660   14.8951 O   0  0  0  0  0  0  0  0  0  0  0  0
    4.3234    5.1833   19.6656 C   0  0  1  0  0  0  0  0  0  0  0  0
    4.6750    4.7188   20.9736 O   0  0  0  0  0  0  0  0  0  0  0  0
    7.9477    9.9515   11.3685 C   0  0  2  0  0  0  0  0  0  0  0  0
    9.0667    9.2946   11.9362 O   0  0  0  0  0  0  0  0  0  0  0  0
    4.3962   12.3896   13.3990 C   0  0  2  0  0  0  0  0  0  0  0  0
    6.4042   13.4915   17.3129 C   0  0  2  0  0  0  0  0  0  0  0  0
    5.7767   13.2568   16.0622 O   0  0  0  0  0  0  0  0  0  0  0  0
    5.4355    7.7918   16.2326 C   0  0  2  0  0  0  0  0  0  0  0  0
    5.3302    7.3253   17.5786 O   0  0  0  0  0  0  0  0  0  0  0  0
    2.9151    4.6984   19.3171 C   0  0  2  0  0  0  0  0  0  0  0  0
    3.0143    3.2909   19.0454 O   0  0  0  0  0  0  0  0  0  0  0  0
    7.7119   11.3388   12.0156 C   0  0  2  0  0  0  0  0  0  0  0  0
    6.6266   11.9783   11.2847 O   0  0  0  0  0  0  0  0  0  0  0  0
    5.3226   13.6373   13.2380 C   0  0  2  0  0  0  0  0  0  0  0  0
    6.6154   13.3649   13.8470 O   0  0  0  0  0  0  0  0  0  0  0  0
    6.5041   14.9974   17.5540 C   0  0  0  0  0  0  0  0  0  0  0  0
    7.1738   15.1909   18.8085 O   0  0  0  0  0  0  0  0  0  0  0  0
    6.9012    8.1245   16.0299 C   0  0  1  0  0  0  0  0  0  0  0  0
    7.6582    9.2776   16.4565 O   0  0  0  0  0  0  0  0  0  0  0  0
    2.3073    5.5150   18.1821 C   0  0  2  0  0  0  0  0  0  0  0  0
    2.6266    6.9040   18.0078 O   0  0  0  0  0  0  0  0  0  0  0  0
    8.8843   12.2506   11.8871 C   0  0  0  0  0  0  0  0  0  0  0  0
    8.4507   13.5457   12.2261 O   0  0  0  0  0  0  0  0  0  0  0  0
    4.6377   14.9189   13.8218 C   0  0  1  0  0  0  0  0  0  0  0  0
    5.4697   16.0531   13.4603 O   0  0  0  0  0  0  0  0  0  0  0  0
    7.8728    6.9138   15.8776 C   0  0  0  0  0  0  0  0  0  0  0  0
    7.2480    5.6154   16.2070 N   0  0  0  0  0  0  0  0  0  0  0  0
    0.9060    5.2614   17.6310 C   0  0  0  0  0  0  0  0  0  0  0  0
    0.6629    3.8331   17.5327 O   0  0  0  0  0  0  0  0  0  0  0  0
  1  2  1  1  0  0  0
  1  8  1  0  0  0  0
  1 36  1  0  0  0  0
  3  4  1  1  0  0  0
  3 10  1  0  0  0  0
  3 47  1  0  0  0  0
  5 11  1  0  0  0  0
  5 30  1  0  0  0  0
  5 38  1  6  0  0  0
  6 21  1  1  0  0  0
  6 42  1  0  0  0  0
  7 15  1  0  0  0  0
  7 44  1  0  0  0  0
  7 32  1  6  0  0  0
  8  9  1  1  0  0  0
  8 17  1  0  0  0  0
 11 12  1  6  0  0  0
 11 20  1  0  0  0  0
 13  6  1  0  0  0  0
 13 14  1  1  0  0  0
 15 16  1  1  0  0  0
 15 24  1  0  0  0  0
 17 26  1  0  0  0  0
 18 10  1  0  0  0  0
 18 19  1  1  0  0  0
 20 21  1  6  0  0  0
 20 29  1  0  0  0  0
 22 13  1  0  0  0  0
 22 23  1  6  0  0  0
 24 25  1  1  0  0  0
 24 33  1  0  0  0  0
 26 27  1  1  0  0  0
 26 35  1  0  0  0  0
 28  2  1  6  0  0  0
 28 18  1  0  0  0  0
 29 30  1  0  0  0  0
 29 39  1  6  0  0  0
 31 22  1  0  0  0  0
 31 32  1  1  0  0  0
 31 41  1  0  0  0  0
 33 34  1  6  0  0  0
 33 43  1  0  0  0  0
 35 36  1  0  0  0  0
 35 45  1  6  0  0  0
 37 28  1  0  0  0  0
 37 38  1  1  0  0  0
 39 40  1  0  0  0  0
 41 42  1  0  0  0  0
 41 49  1  1  0  0  0
 43 44  1  0  0  0  0
 43 51  1  1  0  0  0
 45 46  1  0  0  0  0
 47 37  1  0  0  0  0
 47 48  1  6  0  0  0
 49 50  1  0  0  0  0
 51 52  1  0  0  0  0
M  END
>  <CHROM.1>
-165.42553952,-167.49446207,-115.52986167,176.58965788,-30.03664441,75.16647549
-63.65430820,43.99371801,166.78284729,-41.62887787,-10.83071728,-40.84547621
5.41778262,10.21867300,15.48665273,0.21046309,-1.31517515,-1.95996274

>  <Name>
2esj_lig

>  <RI>
0

>  <Rbt.Current_Directory>
/home/itssahil/PROJECTS/Mol_Feturizer/New_Systems/rnas/2esj

>  <Rbt.Executable>
rbdock ($Id: //depot/dev/client3/rdock/2013.1/src/exe/rbdock.cxx#4 $)

>  <Rbt.Library>
libRbt.so (2013.1, Build901 2013/11/27)

>  <Rbt.Parameter_File>
/export/apps/rDock/src/rDock_2013.1_src/data/scripts/dock_solv.prm

>  <Rbt.Receptor>
prm/blind_docking_80.prm

>  <SCORE>
2.00251

>  <SCORE.INTER>
-8.3316

>  <SCORE.INTER.CONST>
1

>  <SCORE.INTER.POLAR>
-0.728667

>  <SCORE.INTER.ROT>
12

>  <SCORE.INTER.SOLV>
24.2572

>  <SCORE.INTER.VDW>
-22.8112

>  <SCORE.INTER.norm>
-0.160223

>  <SCORE.INTRA>
8.05819

>  <SCORE.INTRA.DIHEDRAL>
-10.5919

>  <SCORE.INTRA.DIHEDRAL.0>
32.9766

>  <SCORE.INTRA.POLAR>
0

>  <SCORE.INTRA.POLAR.0>
0

>  <SCORE.INTRA.REPUL>
1

>  <SCORE.INTRA.REPUL.0>
0

>  <SCORE.INTRA.SOLV>
3.19739

>  <SCORE.INTRA.SOLV.lig_0>
-114.358

>  <SCORE.INTRA.VDW>
6.75543

>  <SCORE.INTRA.VDW.0>
-8.24257

>  <SCORE.INTRA.norm>
0.154965

>  <SCORE.RESTR>
2.27592

>  <SCORE.RESTR.CAVITY>
2.27592

>  <SCORE.RESTR.norm>
0.0437677

>  <SCORE.SYSTEM>
0

>  <SCORE.SYSTEM.CONST>
0

>  <SCORE.SYSTEM.DIHEDRAL>
0

>  <SCORE.SYSTEM.SOLV>
0

>  <SCORE.SYSTEM.norm>
0

>  <SCORE.heavy>
52

>  <SCORE.norm>
0.0385098

>  <RMSD>
24.367

$$$$
2esj_lig
 OpenBabel11021811423D
libRbt.so/2013.1/901 2013/11/27
 52 56  0  0  0  0  0  0  0  0999 V2000
    6.4194   15.2506   15.4013 C   0  0  2  0  0  0  0  0  0  0  0  0
    7.6492   14.6306   14.9794 O   0  0  0  0  0  0  0  0  0  0  0  0
    9.3228   11.1632   13.1183 C   0  0  2  0  0  0  0  0  0  0  0  0
    9.5820    9.8027   12.6188 N   0  0  0  0  0  0  0  0  0  0  0  0
    5.3827   13.0271   12.3529 C   0  0  1  0  0  0  0  0  0  0  0  0
    3.5656   10.9410   12.6551 C   0  0  1  0  0  0  0  0  0  0  0  0
    2.8025    6.9104   16.0065 C   0  0  1  0  0  0  0  0  0  0  0  0
    6.7924   16.5022   16.2494 C   0  0  2  0  0  0  0  0  0  0  0  0
    7.6491   17.4328   15.5152 N   0  0  0  0  0  0  0  0  0  0  0  0
    9.1197   11.1432   14.6854 C   0  0  0  0  0  0  0  0  0  0  0  0
    4.1724   13.9125   12.6525 C   0  0  2  0  0  0  0  0  0  0  0  0
    3.9139   14.0308   14.0683 O   0  0  0  0  0  0  0  0  0  0  0  0
    2.6119    9.6650   12.7146 C   0  0  2  0  0  0  0  0  0  0  0  0
    1.5570    9.8339   13.7489 N   0  0  0  0  0  0  0  0  0  0  0  0
    1.9459    7.6077   17.0570 C   0  0  1  0  0  0  0  0  0  0  0  0
    0.8570    6.7403   17.4320 O   0  0  0  0  0  0  0  0  0  0  0  0
    7.4862   16.0840   17.5847 C   0  0  0  0  0  0  0  0  0  0  0  0
    8.9017   12.6191   15.2106 C   0  0  2  0  0  0  0  0  0  0  0  0
    8.6968   12.6272   16.6627 N   0  0  0  0  0  0  0  0  0  0  0  0
    3.1043   13.1839   11.8895 C   0  0  2  0  0  0  0  0  0  0  0  0
    2.6979   12.0342   12.5879 O   0  0  0  0  0  0  0  0  0  0  0  0
    3.5067    8.3577   12.8736 C   0  0  1  0  0  0  0  0  0  0  0  0
    4.5133    8.3595   11.8560 O   0  0  0  0  0  0  0  0  0  0  0  0
    2.6798    8.0178   18.3280 C   0  0  1  0  0  0  0  0  0  0  0  0
    1.6884    8.4307   19.2750 O   0  0  0  0  0  0  0  0  0  0  0  0
    6.5659   15.0765   18.3356 C   0  0  2  0  0  0  0  0  0  0  0  0
    7.1006   14.7134   19.5960 O   0  0  0  0  0  0  0  0  0  0  0  0
    7.6954   13.2768   14.4912 C   0  0  2  0  0  0  0  0  0  0  0  0
    3.7919   12.6291   10.6250 C   0  0  2  0  0  0  0  0  0  0  0  0
    5.1207   12.4241   11.0781 O   0  0  0  0  0  0  0  0  0  0  0  0
    4.2866    8.3547   14.2523 C   0  0  2  0  0  0  0  0  0  0  0  0
    3.2553    8.3185   15.2400 O   0  0  0  0  0  0  0  0  0  0  0  0
    3.5288    6.9008   18.9375 C   0  0  2  0  0  0  0  0  0  0  0  0
    4.3833    7.5137   19.9167 O   0  0  0  0  0  0  0  0  0  0  0  0
    6.3542   13.8394   17.4281 C   0  0  2  0  0  0  0  0  0  0  0  0
    5.6924   14.3005   16.2155 O   0  0  0  0  0  0  0  0  0  0  0  0
    7.7745   13.2241   12.9318 C   0  0  2  0  0  0  0  0  0  0  0  0
    6.5640   13.7974   12.3639 O   0  0  0  0  0  0  0  0  0  0  0  0
    3.8101   13.5455    9.4021 C   0  0  0  0  0  0  0  0  0  0  0  0
    2.8774   13.0140    8.4496 O   0  0  0  0  0  0  0  0  0  0  0  0
    4.9160    9.7296   14.3703 C   0  0  1  0  0  0  0  0  0  0  0  0
    4.4499   11.0076   13.8867 O   0  0  0  0  0  0  0  0  0  0  0  0
    4.2703    6.1125   17.8635 C   0  0  2  0  0  0  0  0  0  0  0  0
    3.7095    5.9237   16.5552 O   0  0  0  0  0  0  0  0  0  0  0  0
    5.4445   12.8225   18.0289 C   0  0  0  0  0  0  0  0  0  0  0  0
    6.1363   12.2135   19.0922 O   0  0  0  0  0  0  0  0  0  0  0  0
    8.0410   11.7626   12.4363 C   0  0  1  0  0  0  0  0  0  0  0  0
    8.2929   11.8325   11.0077 O   0  0  0  0  0  0  0  0  0  0  0  0
    5.8400    9.9659   15.6045 C   0  0  0  0  0  0  0  0  0  0  0  0
    7.0161    9.0712   15.6366 N   0  0  0  0  0  0  0  0  0  0  0  0
    5.1855    4.9317   18.1794 C   0  0  0  0  0  0  0  0  0  0  0  0
    5.4260    4.8598   19.6097 O   0  0  0  0  0  0  0  0  0  0  0  0
  1  2  1  1  0  0  0
  1  8  1  0  0  0  0
  1 36  1  0  0  0  0
  3  4  1  6  0  0  0
  3 10  1  0  0  0  0
  3 47  1  0  0  0  0
  5 11  1  0  0  0  0
  5 30  1  0  0  0  0
  5 38  1  6  0  0  0
  6 21  1  1  0  0  0
  6 42  1  0  0  0  0
  7 15  1  0  0  0  0
  7 44  1  0  0  0  0
  7 32  1  1  0  0  0
  8  9  1  6  0  0  0
  8 17  1  0  0  0  0
 11 12  1  1  0  0  0
 11 20  1  0  0  0  0
 13  6  1  0  0  0  0
 13 14  1  1  0  0  0
 15 16  1  1  0  0  0
 15 24  1  0  0  0  0
 17 26  1  0  0  0  0
 18 10  1  0  0  0  0
 18 19  1  1  0  0  0
 20 21  1  1  0  0  0
 20 29  1  0  0  0  0
 22 13  1  0  0  0  0
 22 23  1  6  0  0  0
 24 25  1  1  0  0  0
 24 33  1  0  0  0  0
 26 27  1  1  0  0  0
 26 35  1  0  0  0  0
 28  2  1  6  0  0  0
 28 18  1  0  0  0  0
 29 30  1  0  0  0  0
 29 39  1  6  0  0  0
 31 22  1  0  0  0  0
 31 32  1  1  0  0  0
 31 41  1  0  0  0  0
 33 34  1  1  0  0  0
 33 43  1  0  0  0  0
 35 36  1  0  0  0  0
 35 45  1  1  0  0  0
 37 28  1  0  0  0  0
 37 38  1  6  0  0  0
 39 40  1  0  0  0  0
 41 42  1  0  0  0  0
 41 49  1  1  0  0  0
 43 44  1  0  0  0  0
 43 51  1  1  0  0  0
 45 46  1  0  0  0  0
 47 37  1  0  0  0  0
 47 48  1  6  0  0  0
 49 50  1  0  0  0  0
 51 52  1  0  0  0  0
M  END
>  <CHROM.1>
163.04407465,141.55019140,-148.65856256,169.04234937,-71.77794831,-134.19291372
-107.25784040,99.58292554,-71.27167694,-77.51612235,61.41860457,-10.77284197
5.24757727,11.12403273,15.00001669,-0.89353216,0.99260227,2.02379527

>  <Name>
2esj_lig

>  <RI>
0

>  <Rbt.Current_Directory>
/home/itssahil/PROJECTS/Mol_Feturizer/New_Systems/rnas/2esj

>  <Rbt.Executable>
rbdock ($Id: //depot/dev/client3/rdock/2013.1/src/exe/rbdock.cxx#4 $)

>  <Rbt.Library>
libRbt.so (2013.1, Build901 2013/11/27)

>  <Rbt.Parameter_File>
/export/apps/rDock/src/rDock_2013.1_src/data/scripts/dock_solv.prm

>  <Rbt.Receptor>
prm/blind_docking_80.prm

>  <SCORE>
12.854

>  <SCORE.INTER>
-1.92722

>  <SCORE.INTER.CONST>
1

>  <SCORE.INTER.POLAR>
-0.688611

>  <SCORE.INTER.ROT>
12

>  <SCORE.INTER.SOLV>
30.3932

>  <SCORE.INTER.VDW>
-20.7205

>  <SCORE.INTER.norm>
-0.0370618

>  <SCORE.INTRA>
9.8208

>  <SCORE.INTRA.DIHEDRAL>
2.59043

>  <SCORE.INTRA.DIHEDRAL.0>
32.9766

>  <SCORE.INTRA.POLAR>
0

>  <SCORE.INTRA.POLAR.0>
0

>  <SCORE.INTRA.REPUL>
0.35361

>  <SCORE.INTRA.REPUL.0>
0

>  <SCORE.INTRA.SOLV>
4.41344

>  <SCORE.INTRA.SOLV.lig_0>
-114.358

>  <SCORE.INTRA.VDW>
4.55081

>  <SCORE.INTRA.VDW.0>
-8.24257

>  <SCORE.INTRA.norm>
0.188861

>  <SCORE.RESTR>
4.96039

>  <SCORE.RESTR.CAVITY>
4.96039

>  <SCORE.RESTR.norm>
0.095392

>  <SCORE.SYSTEM>
0

>  <SCORE.SYSTEM.CONST>
0

>  <SCORE.SYSTEM.DIHEDRAL>
0

>  <SCORE.SYSTEM.SOLV>
0

>  <SCORE.SYSTEM.norm>
0

>  <SCORE.heavy>
52

>  <SCORE.norm>
0.247192

>  <RMSD>
24.665

$$$$
2esj_lig
 OpenBabel11021811423D
libRbt.so/2013.1/901 2013/11/27
 52 56  0  0  0  0  0  0  0  0999 V2000
    6.7322   15.4379   15.5481 C   0  0  2  0  0  0  0  0  0  0  0  0
    7.8523   14.7013   15.0210 O   0  0  0  0  0  0  0  0  0  0  0  0
    8.9647   11.2061   12.8224 C   0  0  2  0  0  0  0  0  0  0  0  0
    9.0258    9.8626   12.2235 N   0  0  0  0  0  0  0  0  0  0  0  0
    5.2084   13.5602   12.5710 C   0  0  1  0  0  0  0  0  0  0  0  0
    3.3319   11.6554   12.6779 C   0  0  1  0  0  0  0  0  0  0  0  0
    4.2809    6.9193   14.6857 C   0  0  1  0  0  0  0  0  0  0  0  0
    7.2924   16.7289   16.2148 C   0  0  2  0  0  0  0  0  0  0  0  0
    8.0854   17.5325   15.2849 N   0  0  0  0  0  0  0  0  0  0  0  0
    8.8853   11.1021   14.3973 C   0  0  0  0  0  0  0  0  0  0  0  0
    4.4750   14.0779   13.8090 C   0  0  2  0  0  0  0  0  0  0  0  0
    4.7866   13.3130   14.9936 O   0  0  0  0  0  0  0  0  0  0  0  0
    2.3098   10.4444   12.5047 C   0  0  2  0  0  0  0  0  0  0  0  0
    1.6926   10.0755   13.8062 N   0  0  0  0  0  0  0  0  0  0  0  0
    3.1380    6.8621   15.6926 C   0  0  1  0  0  0  0  0  0  0  0  0
    3.0072    5.5133   16.1845 O   0  0  0  0  0  0  0  0  0  0  0  0
    8.1462   16.3799   17.4750 C   0  0  0  0  0  0  0  0  0  0  0  0
    8.8803   12.5539   15.0249 C   0  0  2  0  0  0  0  0  0  0  0  0
    8.7934   12.4857   16.4873 N   0  0  0  0  0  0  0  0  0  0  0  0
    3.0495   13.9560   13.3538 C   0  0  2  0  0  0  0  0  0  0  0  0
    2.6282   12.6166   13.4083 O   0  0  0  0  0  0  0  0  0  0  0  0
    3.0443    9.2524   11.7466 C   0  0  1  0  0  0  0  0  0  0  0  0
    3.6423    9.7634   10.5507 O   0  0  0  0  0  0  0  0  0  0  0  0
    3.2815    7.7891   16.8936 C   0  0  1  0  0  0  0  0  0  0  0  0
    2.2583    7.4313   17.8292 O   0  0  0  0  0  0  0  0  0  0  0  0
    7.2886   15.5057   18.4374 C   0  0  2  0  0  0  0  0  0  0  0  0
    7.9776   15.2160   19.6405 O   0  0  0  0  0  0  0  0  0  0  0  0
    7.7042   13.3869   14.4522 C   0  0  2  0  0  0  0  0  0  0  0  0
    3.0576   14.2838   11.8465 C   0  0  2  0  0  0  0  0  0  0  0  0
    4.3520   13.8518   11.4580 O   0  0  0  0  0  0  0  0  0  0  0  0
    4.2367    8.6661   12.6089 C   0  0  2  0  0  0  0  0  0  0  0  0
    3.6015    8.1366   13.7736 O   0  0  0  0  0  0  0  0  0  0  0  0
    4.6467    7.7040   17.5784 C   0  0  2  0  0  0  0  0  0  0  0  0
    4.7387    8.8304   18.4659 O   0  0  0  0  0  0  0  0  0  0  0  0
    6.8801   14.2130   17.6885 C   0  0  2  0  0  0  0  0  0  0  0  0
    6.0779   14.6130   16.5407 O   0  0  0  0  0  0  0  0  0  0  0  0
    7.6529   13.4319   12.8913 C   0  0  2  0  0  0  0  0  0  0  0  0
    6.4750   14.1714   12.4646 O   0  0  0  0  0  0  0  0  0  0  0  0
    2.8803   15.7539   11.4682 C   0  0  0  0  0  0  0  0  0  0  0  0
    1.6172   16.1865   11.9948 O   0  0  0  0  0  0  0  0  0  0  0  0
    5.0272    9.8689   13.0868 C   0  0  1  0  0  0  0  0  0  0  0  0
    4.5804   11.2027   13.4122 O   0  0  0  0  0  0  0  0  0  0  0  0
    5.7782    7.6134   16.5606 C   0  0  2  0  0  0  0  0  0  0  0  0
    5.5938    6.9596   15.2956 O   0  0  0  0  0  0  0  0  0  0  0  0
    6.0109   13.3159   18.5022 C   0  0  0  0  0  0  0  0  0  0  0  0
    4.8522   14.0410   18.8367 O   0  0  0  0  0  0  0  0  0  0  0  0
    7.7101   11.9871   12.2900 C   0  0  1  0  0  0  0  0  0  0  0  0
    7.8544   12.1258   10.8515 O   0  0  0  0  0  0  0  0  0  0  0  0
    6.3338    9.5682   13.8838 C   0  0  0  0  0  0  0  0  0  0  0  0
    6.3090   10.0861   15.2679 N   0  0  0  0  0  0  0  0  0  0  0  0
    7.2490    7.5072   16.9573 C   0  0  0  0  0  0  0  0  0  0  0  0
    7.7014    8.7649   17.5248 O   0  0  0  0  0  0  0  0  0  0  0  0
  1  2  1  1  0  0  0
  1  8  1  0  0  0  0
  1 36  1  0  0  0  0
  3  4  1  6  0  0  0
  3 10  1  0  0  0  0
  3 47  1  0  0  0  0
  5 11  1  0  0  0  0
  5 30  1  0  0  0  0
  5 38  1  6  0  0  0
  6 21  1  1  0  0  0
  6 42  1  0  0  0  0
  7 15  1  0  0  0  0
  7 44  1  0  0  0  0
  7 32  1  1  0  0  0
  8  9  1  6  0  0  0
  8 17  1  0  0  0  0
 11 12  1  1  0  0  0
 11 20  1  0  0  0  0
 13  6  1  0  0  0  0
 13 14  1  1  0  0  0
 15 16  1  1  0  0  0
 15 24  1  0  0  0  0
 17 26  1  0  0  0  0
 18 10  1  0  0  0  0
 18 19  1  1  0  0  0
 20 21  1  6  0  0  0
 20 29  1  0  0  0  0
 22 13  1  0  0  0  0
 22 23  1  6  0  0  0
 24 25  1  1  0  0  0
 24 33  1  0  0  0  0
 26 27  1  1  0  0  0
 26 35  1  0  0  0  0
 28  2  1  1  0  0  0
 28 18  1  0  0  0  0
 29 30  1  0  0  0  0
 29 39  1  1  0  0  0
 31 22  1  0  0  0  0
 31 32  1  1  0  0  0
 31 41  1  0  0  0  0
 33 34  1  6  0  0  0
 33 43  1  0  0  0  0
 35 36  1  0  0  0  0
 35 45  1  1  0  0  0
 37 28  1  0  0  0  0
 37 38  1  1  0  0  0
 39 40  1  0  0  0  0
 41 42  1  0  0  0  0
 41 49  1  1  0  0  0
 43 44  1  0  0  0  0
 43 51  1  1  0  0  0
 45 46  1  0  0  0  0
 47 37  1  0  0  0  0
 47 48  1  6  0  0  0
 49 50  1  0  0  0  0
 51 52  1  0  0  0  0
M  END
>  <CHROM.1>
173.74282061,100.93290432,-158.71500775,-179.88586839,-58.06081473,-136.02534521
-59.48898510,155.31332362,59.49996593,-74.49361750,-118.14103884,-70.15814853
5.49677662,11.69071788,14.73045862,-0.95511763,0.96663701,2.61994032

>  <Name>
2esj_lig

>  <RI>
0

>  <Rbt.Current_Directory>
/home/itssahil/PROJECTS/Mol_Feturizer/New_Systems/rnas/2esj

>  <Rbt.Executable>
rbdock ($Id: //depot/dev/client3/rdock/2013.1/src/exe/rbdock.cxx#4 $)

>  <Rbt.Library>
libRbt.so (2013.1, Build901 2013/11/27)

>  <Rbt.Parameter_File>
/export/apps/rDock/src/rDock_2013.1_src/data/scripts/dock_solv.prm

>  <Rbt.Receptor>
prm/blind_docking_80.prm

>  <SCORE>
1.79138

>  <SCORE.INTER>
-7.48185

>  <SCORE.INTER.CONST>
1

>  <SCORE.INTER.POLAR>
-0.319481

>  <SCORE.INTER.ROT>
12

>  <SCORE.INTER.SOLV>
24.2414

>  <SCORE.INTER.VDW>
-23.6034

>  <SCORE.INTER.norm>
-0.143882

>  <SCORE.INTRA>
7.28229

>  <SCORE.INTRA.DIHEDRAL>
-10.5515

>  <SCORE.INTRA.DIHEDRAL.0>
32.9766

>  <SCORE.INTRA.POLAR>
0

>  <SCORE.INTRA.POLAR.0>
0

>  <SCORE.INTRA.REPUL>
0

>  <SCORE.INTRA.REPUL.0>
0

>  <SCORE.INTRA.SOLV>
12.6696

>  <SCORE.INTRA.SOLV.lig_0>
-114.358

>  <SCORE.INTRA.VDW>
6.22326

>  <SCORE.INTRA.VDW.0>
-8.24257

>  <SCORE.INTRA.norm>
0.140044

>  <SCORE.RESTR>
1.99094

>  <SCORE.RESTR.CAVITY>
1.99094

>  <SCORE.RESTR.norm>
0.0382874

>  <SCORE.SYSTEM>
0

>  <SCORE.SYSTEM.CONST>
0

>  <SCORE.SYSTEM.DIHEDRAL>
0

>  <SCORE.SYSTEM.SOLV>
0

>  <SCORE.SYSTEM.norm>
0

>  <SCORE.heavy>
52

>  <SCORE.norm>
0.0344497

>  <RMSD>
24.690

$$$$
2esj_lig
 OpenBabel11021811423D
libRbt.so/2013.1/901 2013/11/27
 52 56  0  0  0  0  0  0  0  0999 V2000
    6.1923   13.6542   15.0735 C   0  0  2  0  0  0  0  0  0  0  0  0
    4.8489   13.6555   14.5538 O   0  0  0  0  0  0  0  0  0  0  0  0
    2.8671   16.9897   12.7529 C   0  0  2  0  0  0  0  0  0  0  0  0
    2.3995   18.0367   11.8297 N   0  0  0  0  0  0  0  0  0  0  0  0
    3.6078   12.1590   12.6286 C   0  0  1  0  0  0  0  0  0  0  0  0
    5.3643    8.4033   12.5642 C   0  0  1  0  0  0  0  0  0  0  0  0
    5.5083    6.2923   17.3971 C   0  0  1  0  0  0  0  0  0  0  0  0
    6.8789   12.3411   14.5945 C   0  0  2  0  0  0  0  0  0  0  0  0
    6.8566   12.2044   13.1385 N   0  0  0  0  0  0  0  0  0  0  0  0
    4.4401   17.0452   12.8947 C   0  0  0  0  0  0  0  0  0  0  0  0
    3.0232   10.7905   12.2765 C   0  0  2  0  0  0  0  0  0  0  0  0
    2.6541   10.0315   13.4483 O   0  0  0  0  0  0  0  0  0  0  0  0
    4.3119    8.0198   13.6984 C   0  0  2  0  0  0  0  0  0  0  0  0
    4.3990    8.9588   14.8480 N   0  0  0  0  0  0  0  0  0  0  0  0
    4.3188    5.5035   16.8620 C   0  0  1  0  0  0  0  0  0  0  0  0
    4.1699    4.2922   17.6294 O   0  0  0  0  0  0  0  0  0  0  0  0
    6.2137   11.0917   15.2545 C   0  0  0  0  0  0  0  0  0  0  0  0
    4.9176   15.9533   13.9346 C   0  0  2  0  0  0  0  0  0  0  0  0
    6.3773   15.9748   14.0746 N   0  0  0  0  0  0  0  0  0  0  0  0
    4.1597   10.2006   11.4926 C   0  0  2  0  0  0  0  0  0  0  0  0
    5.1831    9.7731   12.3554 O   0  0  0  0  0  0  0  0  0  0  0  0
    4.4904    6.4821   14.0708 C   0  0  1  0  0  0  0  0  0  0  0  0
    4.4487    5.7070   12.8681 O   0  0  0  0  0  0  0  0  0  0  0  0
    2.9855    6.2412   16.8839 C   0  0  1  0  0  0  0  0  0  0  0  0
    1.9665    5.2833   16.5770 O   0  0  0  0  0  0  0  0  0  0  0  0
    6.2287   11.2719   16.8014 C   0  0  2  0  0  0  0  0  0  0  0  0
    5.7082   10.1364   17.4691 O   0  0  0  0  0  0  0  0  0  0  0  0
    4.4375   14.5446   13.4987 C   0  0  2  0  0  0  0  0  0  0  0  0
    4.7918   11.3742   10.7163 C   0  0  2  0  0  0  0  0  0  0  0  0
    4.5344   12.4708   11.5790 O   0  0  0  0  0  0  0  0  0  0  0  0
    5.9108    6.2039   14.7145 C   0  0  2  0  0  0  0  0  0  0  0  0
    5.9036    6.9632   15.9244 O   0  0  0  0  0  0  0  0  0  0  0  0
    2.6700    6.9047   18.2257 C   0  0  2  0  0  0  0  0  0  0  0  0
    1.5693    7.8002   17.9992 O   0  0  0  0  0  0  0  0  0  0  0  0
    5.4326   12.5538   17.1509 C   0  0  2  0  0  0  0  0  0  0  0  0
    6.1161   13.6735   16.5184 O   0  0  0  0  0  0  0  0  0  0  0  0
    2.9025   14.4487   13.2239 C   0  0  2  0  0  0  0  0  0  0  0  0
    2.5756   13.1123   12.7512 O   0  0  0  0  0  0  0  0  0  0  0  0
    4.2087   11.6696    9.3349 C   0  0  0  0  0  0  0  0  0  0  0  0
    2.7788   11.6366    9.4531 O   0  0  0  0  0  0  0  0  0  0  0  0
    6.9136    6.8912   13.8077 C   0  0  1  0  0  0  0  0  0  0  0  0
    6.7787    8.0920   13.0175 O   0  0  0  0  0  0  0  0  0  0  0  0
    3.9048    7.5677   18.8258 C   0  0  2  0  0  0  0  0  0  0  0  0
    5.2195    7.0334   18.6073 O   0  0  0  0  0  0  0  0  0  0  0  0
    5.4202   12.8542   18.6110 C   0  0  0  0  0  0  0  0  0  0  0  0
    6.7384   13.1713   18.9877 O   0  0  0  0  0  0  0  0  0  0  0  0
    2.4428   15.5699   12.2319 C   0  0  1  0  0  0  0  0  0  0  0  0
    0.9917   15.5328   12.1842 O   0  0  0  0  0  0  0  0  0  0  0  0
    8.4197    6.6865   14.1579 C   0  0  0  0  0  0  0  0  0  0  0  0
    8.8343    7.3831   15.3939 N   0  0  0  0  0  0  0  0  0  0  0  0
    3.8894    8.2983   20.1666 C   0  0  0  0  0  0  0  0  0  0  0  0
    4.6761    9.5156   20.0768 O   0  0  0  0  0  0  0  0  0  0  0  0
  1  2  1  6  0  0  0
  1  8  1  0  0  0  0
  1 36  1  0  0  0  0
  3  4  1  6  0  0  0
  3 10  1  0  0  0  0
  3 47  1  0  0  0  0
  5 11  1  0  0  0  0
  5 30  1  0  0  0  0
  5 38  1  6  0  0  0
  6 21  1  1  0  0  0
  6 42  1  0  0  0  0
  7 15  1  0  0  0  0
  7 44  1  0  0  0  0
  7 32  1  6  0  0  0
  8  9  1  6  0  0  0
  8 17  1  0  0  0  0
 11 12  1  1  0  0  0
 11 20  1  0  0  0  0
 13  6  1  0  0  0  0
 13 14  1  1  0  0  0
 15 16  1  1  0  0  0
 15 24  1  0  0  0  0
 17 26  1  0  0  0  0
 18 10  1  0  0  0  0
 18 19  1  6  0  0  0
 20 21  1  1  0  0  0
 20 29  1  0  0  0  0
 22 13  1  0  0  0  0
 22 23  1  6  0  0  0
 24 25  1  1  0  0  0
 24 33  1  0  0  0  0
 26 27  1  1  0  0  0
 26 35  1  0  0  0  0
 28  2  1  1  0  0  0
 28 18  1  0  0  0  0
 29 30  1  0  0  0  0
 29 39  1  6  0  0  0
 31 22  1  0  0  0  0
 31 32  1  1  0  0  0
 31 41  1  0  0  0  0
 33 34  1  6  0  0  0
 33 43  1  0  0  0  0
 35 36  1  0  0  0  0
 35 45  1  1  0  0  0
 37 28  1  0  0  0  0
 37 38  1  6  0  0  0
 39 40  1  0  0  0  0
 41 42  1  0  0  0  0
 41 49  1  1  0  0  0
 43 44  1  0  0  0  0
 43 51  1  1  0  0  0
 45 46  1  0  0  0  0
 47 37  1  0  0  0  0
 47 48  1  1  0  0  0
 49 50  1  0  0  0  0
 51 52  1  0  0  0  0
M  END
>  <CHROM.1>
-108.87246661,173.42766504,-83.55121733,-43.22406387,106.71455131,-49.43447274
45.20288236,95.97425942,66.33966043,0.56320700,-70.28424666,-138.80138515
4.65007616,10.51794024,14.73997092,-2.28283913,1.42365357,-2.90430250

>  <Name>
2esj_lig

>  <RI>
0

>  <Rbt.Current_Directory>
/home/itssahil/PROJECTS/Mol_Feturizer/New_Systems/rnas/2esj

>  <Rbt.Executable>
rbdock ($Id: //depot/dev/client3/rdock/2013.1/src/exe/rbdock.cxx#4 $)

>  <Rbt.Library>
libRbt.so (2013.1, Build901 2013/11/27)

>  <Rbt.Parameter_File>
/export/apps/rDock/src/rDock_2013.1_src/data/scripts/dock_solv.prm

>  <Rbt.Receptor>
prm/blind_docking_80.prm

>  <SCORE>
10.2682

>  <SCORE.INTER>
-10.3889

>  <SCORE.INTER.CONST>
1

>  <SCORE.INTER.POLAR>
-0.979796

>  <SCORE.INTER.ROT>
12

>  <SCORE.INTER.SOLV>
16.7678

>  <SCORE.INTER.VDW>
-20.8492

>  <SCORE.INTER.norm>
-0.199787

>  <SCORE.INTRA>
14.0337

>  <SCORE.INTRA.DIHEDRAL>
2.93277

>  <SCORE.INTRA.DIHEDRAL.0>
32.9766

>  <SCORE.INTRA.POLAR>
0

>  <SCORE.INTRA.POLAR.0>
0

>  <SCORE.INTRA.REPUL>
0

>  <SCORE.INTRA.REPUL.0>
0

>  <SCORE.INTRA.SOLV>
10.9463

>  <SCORE.INTRA.SOLV.lig_0>
-114.358

>  <SCORE.INTRA.VDW>
7.09415

>  <SCORE.INTRA.VDW.0>
-8.24257

>  <SCORE.INTRA.norm>
0.269879

>  <SCORE.RESTR>
6.62342

>  <SCORE.RESTR.CAVITY>
6.62342

>  <SCORE.RESTR.norm>
0.127373

>  <SCORE.SYSTEM>
0

>  <SCORE.SYSTEM.CONST>
0

>  <SCORE.SYSTEM.DIHEDRAL>
0

>  <SCORE.SYSTEM.SOLV>
0

>  <SCORE.SYSTEM.norm>
0

>  <SCORE.heavy>
52

>  <SCORE.norm>
0.197466

>  <RMSD>
24.750

$$$$
2esj_lig
 OpenBabel11021811423D
libRbt.so/2013.1/901 2013/11/27
 52 56  0  0  0  0  0  0  0  0999 V2000
    2.9007   14.7027   14.3307 C   0  0  2  0  0  0  0  0  0  0  0  0
    4.3279   14.8792   14.2482 O   0  0  0  0  0  0  0  0  0  0  0  0
    8.0255   13.1037   15.4577 C   0  0  2  0  0  0  0  0  0  0  0  0
    9.0822   12.1743   15.8900 N   0  0  0  0  0  0  0  0  0  0  0  0
    5.4567   12.0455   11.9985 C   0  0  1  0  0  0  0  0  0  0  0  0
    4.7193    8.1811   11.1302 C   0  0  1  0  0  0  0  0  0  0  0  0
    3.1767    6.5161   15.5347 C   0  0  1  0  0  0  0  0  0  0  0  0
    2.4693   13.8061   13.1328 C   0  0  2  0  0  0  0  0  0  0  0  0
    3.1775   12.5265   13.1161 N   0  0  0  0  0  0  0  0  0  0  0  0
    6.8147   13.0687   16.4727 C   0  0  0  0  0  0  0  0  0  0  0  0
    5.4660   11.7459   10.4990 C   0  0  2  0  0  0  0  0  0  0  0  0
    4.2198   12.0974    9.8596 O   0  0  0  0  0  0  0  0  0  0  0  0
    3.4389    7.8266   12.0112 C   0  0  2  0  0  0  0  0  0  0  0  0
    3.2821    8.7857   13.1365 N   0  0  0  0  0  0  0  0  0  0  0  0
    3.4856    7.6631   16.4900 C   0  0  1  0  0  0  0  0  0  0  0  0
    2.2504    8.1807   17.0236 O   0  0  0  0  0  0  0  0  0  0  0  0
    2.6838   14.5484   11.7755 C   0  0  0  0  0  0  0  0  0  0  0  0
    5.7168   14.1154   16.0246 C   0  0  2  0  0  0  0  0  0  0  0  0
    4.5743   14.0932   16.9438 N   0  0  0  0  0  0  0  0  0  0  0  0
    5.7564   10.2730   10.5156 C   0  0  2  0  0  0  0  0  0  0  0  0
    4.6043    9.5482   10.8646 O   0  0  0  0  0  0  0  0  0  0  0  0
    3.5134    6.2946   12.4384 C   0  0  1  0  0  0  0  0  0  0  0  0
    3.7280    5.4980   11.2688 O   0  0  0  0  0  0  0  0  0  0  0  0
    4.3924    7.3078   17.6622 C   0  0  1  0  0  0  0  0  0  0  0  0
    4.3763    8.4212   18.5624 O   0  0  0  0  0  0  0  0  0  0  0  0
    1.9404   15.9160   11.8271 C   0  0  2  0  0  0  0  0  0  0  0  0
    2.0292   16.6105   10.5958 O   0  0  0  0  0  0  0  0  0  0  0  0
    5.2497   13.8225   14.5751 C   0  0  2  0  0  0  0  0  0  0  0  0
    6.7150   10.0446   11.7024 C   0  0  2  0  0  0  0  0  0  0  0  0
    6.3271   11.0752   12.5971 O   0  0  0  0  0  0  0  0  0  0  0  0
    4.7542    6.0172   13.3833 C   0  0  2  0  0  0  0  0  0  0  0  0
    4.4900    6.7986   14.5495 O   0  0  0  0  0  0  0  0  0  0  0  0
    3.9653    6.0442   18.4110 C   0  0  2  0  0  0  0  0  0  0  0  0
    5.0629    5.6723   19.2606 O   0  0  0  0  0  0  0  0  0  0  0  0
    2.5284   16.7471   12.9944 C   0  0  2  0  0  0  0  0  0  0  0  0
    2.2790   16.0050   14.2224 O   0  0  0  0  0  0  0  0  0  0  0  0
    6.4124   13.7239   13.5361 C   0  0  2  0  0  0  0  0  0  0  0  0
    5.8708   13.3733   12.2322 O   0  0  0  0  0  0  0  0  0  0  0  0
    8.2089   10.1688   11.4049 C   0  0  0  0  0  0  0  0  0  0  0  0
    8.8996    9.2568   12.2712 O   0  0  0  0  0  0  0  0  0  0  0  0
    5.9397    6.6800   12.7083 C   0  0  1  0  0  0  0  0  0  0  0  0
    5.9958    7.8671   11.8885 O   0  0  0  0  0  0  0  0  0  0  0  0
    3.5172    4.9489   17.4498 C   0  0  2  0  0  0  0  0  0  0  0  0
    2.8809    5.2653   16.2020 O   0  0  0  0  0  0  0  0  0  0  0  0
    1.8558   18.0659   13.1699 C   0  0  0  0  0  0  0  0  0  0  0  0
    1.9475   18.7525   11.9450 O   0  0  0  0  0  0  0  0  0  0  0  0
    7.5117   12.7209   14.0235 C   0  0  1  0  0  0  0  0  0  0  0  0
    8.6334   12.8347   13.1080 O   0  0  0  0  0  0  0  0  0  0  0  0
    7.3295    6.4700   13.3845 C   0  0  0  0  0  0  0  0  0  0  0  0
    7.4311    7.0918   14.7216 N   0  0  0  0  0  0  0  0  0  0  0  0
    3.0270    3.5802   17.9166 C   0  0  0  0  0  0  0  0  0  0  0  0
    2.0790    3.0399   16.9584 O   0  0  0  0  0  0  0  0  0  0  0  0
  1  2  1  6  0  0  0
  1  8  1  0  0  0  0
  1 36  1  0  0  0  0
  3  4  1  1  0  0  0
  3 10  1  0  0  0  0
  3 47  1  0  0  0  0
  5 11  1  0  0  0  0
  5 30  1  0  0  0  0
  5 38  1  6  0  0  0
  6 21  1  1  0  0  0
  6 42  1  0  0  0  0
  7 15  1  0  0  0  0
  7 44  1  0  0  0  0
  7 32  1  6  0  0  0
  8  9  1  6  0  0  0
  8 17  1  0  0  0  0
 11 12  1  1  0  0  0
 11 20  1  0  0  0  0
 13  6  1  0  0  0  0
 13 14  1  1  0  0  0
 15 16  1  1  0  0  0
 15 24  1  0  0  0  0
 17 26  1  0  0  0  0
 18 10  1  0  0  0  0
 18 19  1  1  0  0  0
 20 21  1  1  0  0  0
 20 29  1  0  0  0  0
 22 13  1  0  0  0  0
 22 23  1  6  0  0  0
 24 25  1  1  0  0  0
 24 33  1  0  0  0  0
 26 27  1  6  0  0  0
 26 35  1  0  0  0  0
 28  2  1  6  0  0  0
 28 18  1  0  0  0  0
 29 30  1  0  0  0  0
 29 39  1  6  0  0  0
 31 22  1  0  0  0  0
 31 32  1  1  0  0  0
 31 41  1  0  0  0  0
 33 34  1  6  0  0  0
 33 43  1  0  0  0  0
 35 36  1  0  0  0  0
 35 45  1  1  0  0  0
 37 28  1  0  0  0  0
 37 38  1  6  0  0  0
 39 40  1  0  0  0  0
 41 42  1  0  0  0  0
 41 49  1  1  0  0  0
 43 44  1  0  0  0  0
 43 51  1  1  0  0  0
 45 46  1  0  0  0  0
 47 37  1  0  0  0  0
 47 48  1  6  0  0  0
 49 50  1  0  0  0  0
 51 52  1  0  0  0  0
M  END
>  <CHROM.1>
-73.42320310,-157.16306536,158.40995889,-178.73840294,-170.48147342,-98.90963751
-147.93257254,63.34402907,-56.29403315,-75.17512960,-65.45910658,150.99922793
4.69137066,10.49140140,13.90751337,1.64881948,1.07695274,-0.37569145

>  <Name>
2esj_lig

>  <RI>
0

>  <Rbt.Current_Directory>
/home/itssahil/PROJECTS/Mol_Feturizer/New_Systems/rnas/2esj

>  <Rbt.Executable>
rbdock ($Id: //depot/dev/client3/rdock/2013.1/src/exe/rbdock.cxx#4 $)

>  <Rbt.Library>
libRbt.so (2013.1, Build901 2013/11/27)

>  <Rbt.Parameter_File>
/export/apps/rDock/src/rDock_2013.1_src/data/scripts/dock_solv.prm

>  <Rbt.Receptor>
prm/blind_docking_80.prm

>  <SCORE>
15.1353

>  <SCORE.INTER>
-3.95887

>  <SCORE.INTER.CONST>
1

>  <SCORE.INTER.POLAR>
-0.355252

>  <SCORE.INTER.ROT>
12

>  <SCORE.INTER.SOLV>
24.8915

>  <SCORE.INTER.VDW>
-21.3522

>  <SCORE.INTER.norm>
-0.0761321

>  <SCORE.INTRA>
13.1595

>  <SCORE.INTRA.DIHEDRAL>
-12.5476

>  <SCORE.INTRA.DIHEDRAL.0>
32.9766

>  <SCORE.INTRA.POLAR>
0

>  <SCORE.INTRA.POLAR.0>
0

>  <SCORE.INTRA.REPUL>
0.507217

>  <SCORE.INTRA.REPUL.0>
0

>  <SCORE.INTRA.SOLV>
7.4322

>  <SCORE.INTRA.SOLV.lig_0>
-114.358

>  <SCORE.INTRA.VDW>
13.1811

>  <SCORE.INTRA.VDW.0>
-8.24257

>  <SCORE.INTRA.norm>
0.253067

>  <SCORE.RESTR>
5.93473

>  <SCORE.RESTR.CAVITY>
5.93473

>  <SCORE.RESTR.norm>
0.114129

>  <SCORE.SYSTEM>
0

>  <SCORE.SYSTEM.CONST>
0

>  <SCORE.SYSTEM.DIHEDRAL>
0

>  <SCORE.SYSTEM.SOLV>
0

>  <SCORE.SYSTEM.norm>
0

>  <SCORE.heavy>
52

>  <SCORE.norm>
0.291064

>  <RMSD>
24.821

$$$$
2esj_lig
 OpenBabel11021811423D
libRbt.so/2013.1/901 2013/11/27
 52 56  0  0  0  0  0  0  0  0999 V2000
    3.3625   11.9886   13.4310 C   0  0  2  0  0  0  0  0  0  0  0  0
    4.0926   13.1457   12.9804 O   0  0  0  0  0  0  0  0  0  0  0  0
    2.6004   17.1499   12.8152 C   0  0  2  0  0  0  0  0  0  0  0  0
    2.1560   18.5161   13.1369 N   0  0  0  0  0  0  0  0  0  0  0  0
    6.4379   14.2418   13.7625 C   0  0  1  0  0  0  0  0  0  0  0  0
    8.2768   11.1959   15.9784 C   0  0  1  0  0  0  0  0  0  0  0  0
    5.0838    7.8549   18.1211 C   0  0  1  0  0  0  0  0  0  0  0  0
    4.4044   10.9301   13.8990 C   0  0  2  0  0  0  0  0  0  0  0  0
    5.2952   11.4511   14.9354 N   0  0  0  0  0  0  0  0  0  0  0  0
    1.8112   16.0958   13.6891 C   0  0  0  0  0  0  0  0  0  0  0  0
    7.9148   13.9269   13.5215 C   0  0  2  0  0  0  0  0  0  0  0  0
    8.1130   13.0439   12.3961 O   0  0  0  0  0  0  0  0  0  0  0  0
    8.2061    9.7145   15.3936 C   0  0  2  0  0  0  0  0  0  0  0  0
    6.8769    9.4430   14.7849 N   0  0  0  0  0  0  0  0  0  0  0  0
    5.3967    6.3636   18.1628 C   0  0  1  0  0  0  0  0  0  0  0  0
    4.9311    5.8168   19.4129 O   0  0  0  0  0  0  0  0  0  0  0  0
    5.2452   10.4043   12.6925 C   0  0  0  0  0  0  0  0  0  0  0  0
    2.2591   14.6330   13.2879 C   0  0  2  0  0  0  0  0  0  0  0  0
    1.5503   13.6345   14.0951 N   0  0  0  0  0  0  0  0  0  0  0  0
    8.2873   13.3289   14.8473 C   0  0  2  0  0  0  0  0  0  0  0  0
    7.8079   12.0118   14.9453 O   0  0  0  0  0  0  0  0  0  0  0  0
    8.6485    8.6891   16.5284 C   0  0  1  0  0  0  0  0  0  0  0  0
    9.9077    9.1078   17.0650 O   0  0  0  0  0  0  0  0  0  0  0  0
    4.7901    5.5392   17.0338 C   0  0  1  0  0  0  0  0  0  0  0  0
    4.9855    4.1598   17.3644 O   0  0  0  0  0  0  0  0  0  0  0  0
    4.2745    9.8772   11.5945 C   0  0  2  0  0  0  0  0  0  0  0  0
    4.9741    9.3129   10.4999 O   0  0  0  0  0  0  0  0  0  0  0  0
    3.7926   14.4719   13.4539 C   0  0  2  0  0  0  0  0  0  0  0  0
    7.4720   14.1026   15.9039 C   0  0  2  0  0  0  0  0  0  0  0  0
    6.3097   14.4622   15.1740 O   0  0  0  0  0  0  0  0  0  0  0  0
    7.6351    8.7011   17.7458 C   0  0  2  0  0  0  0  0  0  0  0  0
    6.4033    8.2472   17.1828 O   0  0  0  0  0  0  0  0  0  0  0  0
    3.2994    5.8009   16.8114 C   0  0  2  0  0  0  0  0  0  0  0  0
    2.9560    5.2080   15.5484 O   0  0  0  0  0  0  0  0  0  0  0  0
    3.3630   11.0469   11.1470 C   0  0  2  0  0  0  0  0  0  0  0  0
    2.6019   11.4729   12.3132 O   0  0  0  0  0  0  0  0  0  0  0  0
    4.6339   15.5583   12.7103 C   0  0  2  0  0  0  0  0  0  0  0  0
    6.0466   15.3580   12.9944 O   0  0  0  0  0  0  0  0  0  0  0  0
    8.1204   15.3630   16.4756 C   0  0  0  0  0  0  0  0  0  0  0  0
    9.5173   15.0871   16.6553 O   0  0  0  0  0  0  0  0  0  0  0  0
    7.4153   10.1635   18.0820 C   0  0  1  0  0  0  0  0  0  0  0  0
    7.4163   11.3232   17.2219 O   0  0  0  0  0  0  0  0  0  0  0  0
    2.9704    7.2859   16.9172 C   0  0  2  0  0  0  0  0  0  0  0  0
    3.7041    8.1522   17.7964 O   0  0  0  0  0  0  0  0  0  0  0  0
    2.3547   10.6442   10.1253 C   0  0  0  0  0  0  0  0  0  0  0  0
    2.1622   11.7425    9.2669 O   0  0  0  0  0  0  0  0  0  0  0  0
    4.1406   16.9970   13.0831 C   0  0  1  0  0  0  0  0  0  0  0  0
    4.8347   17.9286   12.2115 O   0  0  0  0  0  0  0  0  0  0  0  0
    6.5264   10.4629   19.3282 C   0  0  0  0  0  0  0  0  0  0  0  0
    5.1134   10.7337   18.9893 N   0  0  0  0  0  0  0  0  0  0  0  0
    1.5573    7.8400   16.7501 C   0  0  0  0  0  0  0  0  0  0  0  0
    0.8463    7.7740   18.0146 O   0  0  0  0  0  0  0  0  0  0  0  0
  1  2  1  6  0  0  0
  1  8  1  0  0  0  0
  1 36  1  0  0  0  0
  3  4  1  1  0  0  0
  3 10  1  0  0  0  0
  3 47  1  0  0  0  0
  5 11  1  0  0  0  0
  5 30  1  0  0  0  0
  5 38  1  6  0  0  0
  6 21  1  6  0  0  0
  6 42  1  0  0  0  0
  7 15  1  0  0  0  0
  7 44  1  0  0  0  0
  7 32  1  6  0  0  0
  8  9  1  1  0  0  0
  8 17  1  0  0  0  0
 11 12  1  6  0  0  0
 11 20  1  0  0  0  0
 13  6  1  0  0  0  0
 13 14  1  1  0  0  0
 15 16  1  1  0  0  0
 15 24  1  0  0  0  0
 17 26  1  0  0  0  0
 18 10  1  0  0  0  0
 18 19  1  1  0  0  0
 20 21  1  6  0  0  0
 20 29  1  0  0  0  0
 22 13  1  0  0  0  0
 22 23  1  1  0  0  0
 24 25  1  1  0  0  0
 24 33  1  0  0  0  0
 26 27  1  6  0  0  0
 26 35  1  0  0  0  0
 28  2  1  6  0  0  0
 28 18  1  0  0  0  0
 29 30  1  0  0  0  0
 29 39  1  6  0  0  0
 31 22  1  0  0  0  0
 31 32  1  6  0  0  0
 31 41  1  0  0  0  0
 33 34  1  6  0  0  0
 33 43  1  0  0  0  0
 35 36  1  0  0  0  0
 35 45  1  6  0  0  0
 37 28  1  0  0  0  0
 37 38  1  1  0  0  0
 39 40  1  0  0  0  0
 41 42  1  0  0  0  0
 41 49  1  6  0  0  0
 43 44  1  0  0  0  0
 43 51  1  1  0  0  0
 45 46  1  0  0  0  0
 47 37  1  0  0  0  0
 47 48  1  6  0  0  0
 49 50  1  0  0  0  0
 51 52  1  0  0  0  0
M  END
>  <CHROM.1>
-128.85101874,159.33780857,-150.55725872,-95.35102812,167.16371308,-49.89952172
-39.43926535,169.96749183,-146.11935727,4.20130080,-96.13776794,85.31171465
5.17521731,11.27173801,14.96589790,1.64992444,-0.58064646,-0.46128076

>  <Name>
2esj_lig

>  <RI>
0

>  <Rbt.Current_Directory>
/home/itssahil/PROJECTS/Mol_Feturizer/New_Systems/rnas/2esj

>  <Rbt.Executable>
rbdock ($Id: //depot/dev/client3/rdock/2013.1/src/exe/rbdock.cxx#4 $)

>  <Rbt.Library>
libRbt.so (2013.1, Build901 2013/11/27)

>  <Rbt.Parameter_File>
/export/apps/rDock/src/rDock_2013.1_src/data/scripts/dock_solv.prm

>  <Rbt.Receptor>
prm/blind_docking_80.prm

>  <SCORE>
26.4852

>  <SCORE.INTER>
4.63604

>  <SCORE.INTER.CONST>
1

>  <SCORE.INTER.POLAR>
-0.960624

>  <SCORE.INTER.ROT>
12

>  <SCORE.INTER.SOLV>
28.1339

>  <SCORE.INTER.VDW>
-14.6852

>  <SCORE.INTER.norm>
0.0891547

>  <SCORE.INTRA>
13.4855

>  <SCORE.INTRA.DIHEDRAL>
2.95217

>  <SCORE.INTRA.DIHEDRAL.0>
32.9766

>  <SCORE.INTRA.POLAR>
0

>  <SCORE.INTRA.POLAR.0>
0

>  <SCORE.INTRA.REPUL>
0.232906

>  <SCORE.INTRA.REPUL.0>
0

>  <SCORE.INTRA.SOLV>
9.74898

>  <SCORE.INTRA.SOLV.lig_0>
-114.358

>  <SCORE.INTRA.VDW>
5.97042

>  <SCORE.INTRA.VDW.0>
-8.24257

>  <SCORE.INTRA.norm>
0.259337

>  <SCORE.RESTR>
8.36363

>  <SCORE.RESTR.CAVITY>
8.36363

>  <SCORE.RESTR.norm>
0.160839

>  <SCORE.SYSTEM>
0

>  <SCORE.SYSTEM.CONST>
0

>  <SCORE.SYSTEM.DIHEDRAL>
0

>  <SCORE.SYSTEM.SOLV>
0

>  <SCORE.SYSTEM.norm>
0

>  <SCORE.heavy>
52

>  <SCORE.norm>
0.509331

>  <RMSD>
24.983

$$$$
2esj_lig
 OpenBabel11021811423D
libRbt.so/2013.1/901 2013/11/27
 52 56  0  0  0  0  0  0  0  0999 V2000
    6.1574   10.0051   14.3496 C   0  0  2  0  0  0  0  0  0  0  0  0
    7.2756    9.1295   14.1094 O   0  0  0  0  0  0  0  0  0  0  0  0
    7.9968    5.7939   11.5323 C   0  0  2  0  0  0  0  0  0  0  0  0
    8.0172    4.4656   10.8979 N   0  0  0  0  0  0  0  0  0  0  0  0
    4.9183    9.5536   11.3822 C   0  0  1  0  0  0  0  0  0  0  0  0
    4.2406   13.3228    9.6929 C   0  0  1  0  0  0  0  0  0  0  0  0
    3.9084   13.6406    4.3698 C   0  0  1  0  0  0  0  0  0  0  0  0
    6.4983   10.8684   15.6000 C   0  0  2  0  0  0  0  0  0  0  0  0
    7.7476   11.6110   15.4359 N   0  0  0  0  0  0  0  0  0  0  0  0
    8.4754    5.6920   13.0350 C   0  0  0  0  0  0  0  0  0  0  0  0
    4.4245   10.6909   12.2773 C   0  0  2  0  0  0  0  0  0  0  0  0
    2.9933   10.6605   12.4669 O   0  0  0  0  0  0  0  0  0  0  0  0
    3.0125   13.3535    8.6771 C   0  0  2  0  0  0  0  0  0  0  0  0
    2.9052   12.0727    7.9293 N   0  0  0  0  0  0  0  0  0  0  0  0
    2.7645   14.6328    4.5450 C   0  0  1  0  0  0  0  0  0  0  0  0
    2.7296   15.5205    3.4096 O   0  0  0  0  0  0  0  0  0  0  0  0
    6.5724    9.9835   16.8847 C   0  0  0  0  0  0  0  0  0  0  0  0
    8.5036    7.1352   13.6815 C   0  0  2  0  0  0  0  0  0  0  0  0
    8.9321    7.0669   15.0824 N   0  0  0  0  0  0  0  0  0  0  0  0
    4.9191   11.8806   11.5065 C   0  0  2  0  0  0  0  0  0  0  0  0
    4.0973   12.1217   10.3926 O   0  0  0  0  0  0  0  0  0  0  0  0
    3.1257   14.6558    7.7682 C   0  0  1  0  0  0  0  0  0  0  0  0
    3.2866   15.7984    8.6150 O   0  0  0  0  0  0  0  0  0  0  0  0
    1.3816   14.0114    4.6991 C   0  0  1  0  0  0  0  0  0  0  0  0
    0.4273   15.0753    4.6122 O   0  0  0  0  0  0  0  0  0  0  0  0
    5.2415    9.1866   17.0242 C   0  0  2  0  0  0  0  0  0  0  0  0
    5.2096    8.4188   18.2139 O   0  0  0  0  0  0  0  0  0  0  0  0
    7.1079    7.8029   13.5755 C   0  0  2  0  0  0  0  0  0  0  0  0
    6.2675   11.4542   10.8903 C   0  0  2  0  0  0  0  0  0  0  0  0
    6.0826   10.0586   10.7138 O   0  0  0  0  0  0  0  0  0  0  0  0
    4.4176   14.6116    6.8526 C   0  0  2  0  0  0  0  0  0  0  0  0
    4.2072   13.4840    6.0013 O   0  0  0  0  0  0  0  0  0  0  0  0
    1.0595   12.9539    3.6418 C   0  0  2  0  0  0  0  0  0  0  0  0
   -0.1109   12.2543    4.0950 O   0  0  0  0  0  0  0  0  0  0  0  0
    5.0712    8.2980   15.7671 C   0  0  2  0  0  0  0  0  0  0  0  0
    4.9940    9.1869   14.6161 O   0  0  0  0  0  0  0  0  0  0  0  0
    6.5199    7.8293   12.1283 C   0  0  2  0  0  0  0  0  0  0  0  0
    5.1842    8.4051   12.1565 O   0  0  0  0  0  0  0  0  0  0  0  0
    7.5126   11.6956   11.7430 C   0  0  0  0  0  0  0  0  0  0  0  0
    7.6268   13.1110   11.9504 O   0  0  0  0  0  0  0  0  0  0  0  0
    5.5587   14.2209    7.7721 C   0  0  1  0  0  0  0  0  0  0  0  0
    5.5587   13.3756    8.9426 O   0  0  0  0  0  0  0  0  0  0  0  0
    2.2599   12.0552    3.3658 C   0  0  2  0  0  0  0  0  0  0  0  0
    3.6031   12.5530    3.4637 O   0  0  0  0  0  0  0  0  0  0  0  0
    3.7993    7.5202   15.7690 C   0  0  0  0  0  0  0  0  0  0  0  0
    3.6823    6.8996   14.5115 O   0  0  0  0  0  0  0  0  0  0  0  0
    6.5484    6.4001   11.4890 C   0  0  1  0  0  0  0  0  0  0  0  0
    6.1726    6.5459   10.0937 O   0  0  0  0  0  0  0  0  0  0  0  0
    6.9844   14.2039    7.1398 C   0  0  0  0  0  0  0  0  0  0  0  0
    7.4504   15.5385    6.7080 N   0  0  0  0  0  0  0  0  0  0  0  0
    2.2319   10.9171    2.3481 C   0  0  0  0  0  0  0  0  0  0  0  0
    0.8582   10.5623    2.0389 O   0  0  0  0  0  0  0  0  0  0  0  0
  1  2  1  1  0  0  0
  1  8  1  0  0  0  0
  1 36  1  0  0  0  0
  3  4  1  1  0  0  0
  3 10  1  0  0  0  0
  3 47  1  0  0  0  0
  5 11  1  0  0  0  0
  5 30  1  0  0  0  0
  5 38  1  1  0  0  0
  6 21  1  6  0  0  0
  6 42  1  0  0  0  0
  7 15  1  0  0  0  0
  7 44  1  0  0  0  0
  7 32  1  1  0  0  0
  8  9  1  6  0  0  0
  8 17  1  0  0  0  0
 11 12  1  6  0  0  0
 11 20  1  0  0  0  0
 13  6  1  0  0  0  0
 13 14  1  6  0  0  0
 15 16  1  6  0  0  0
 15 24  1  0  0  0  0
 17 26  1  0  0  0  0
 18 10  1  0  0  0  0
 18 19  1  1  0  0  0
 20 21  1  6  0  0  0
 20 29  1  0  0  0  0
 22 13  1  0  0  0  0
 22 23  1  1  0  0  0
 24 25  1  6  0  0  0
 24 33  1  0  0  0  0
 26 27  1  1  0  0  0
 26 35  1  0  0  0  0
 28  2  1  6  0  0  0
 28 18  1  0  0  0  0
 29 30  1  0  0  0  0
 29 39  1  1  0  0  0
 31 22  1  0  0  0  0
 31 32  1  6  0  0  0
 31 41  1  0  0  0  0
 33 34  1  1  0  0  0
 33 43  1  0  0  0  0
 35 36  1  0  0  0  0
 35 45  1  1  0  0  0
 37 28  1  0  0  0  0
 37 38  1  1  0  0  0
 39 40  1  0  0  0  0
 41 42  1  0  0  0  0
 41 49  1  6  0  0  0
 43 44  1  0  0  0  0
 43 51  1  6  0  0  0
 45 46  1  0  0  0  0
 47 37  1  0  0  0  0
 47 48  1  6  0  0  0
 49 50  1  0  0  0  0
 51 52  1  0  0  0  0
M  END
>  <CHROM.1>
146.56194977,-121.99367723,-170.85690248,-52.14307497,168.25520813,-171.44678420
-62.43246467,110.39043660,172.40668182,121.54445544,64.88152912,-18.17528854
4.89315314,10.94174648,10.08359501,-0.23774722,-1.23102772,0.24492475

>  <Name>
2esj_lig

>  <RI>
0

>  <Rbt.Current_Directory>
/home/itssahil/PROJECTS/Mol_Feturizer/New_Systems/rnas/2esj

>  <Rbt.Executable>
rbdock ($Id: //depot/dev/client3/rdock/2013.1/src/exe/rbdock.cxx#4 $)

>  <Rbt.Library>
libRbt.so (2013.1, Build901 2013/11/27)

>  <Rbt.Parameter_File>
/export/apps/rDock/src/rDock_2013.1_src/data/scripts/dock_solv.prm

>  <Rbt.Receptor>
prm/blind_docking_20.prm

>  <SCORE>
17.8905

>  <SCORE.INTER>
-5.53095

>  <SCORE.INTER.CONST>
1

>  <SCORE.INTER.POLAR>
-0.910154

>  <SCORE.INTER.ROT>
12

>  <SCORE.INTER.SOLV>
29.0513

>  <SCORE.INTER.VDW>
-21.9372

>  <SCORE.INTER.norm>
-0.106364

>  <SCORE.INTRA>
2.55432

>  <SCORE.INTRA.DIHEDRAL>
0.0368834

>  <SCORE.INTRA.DIHEDRAL.0>
32.9766

>  <SCORE.INTRA.POLAR>
0

>  <SCORE.INTRA.POLAR.0>
0

>  <SCORE.INTRA.REPUL>
0

>  <SCORE.INTRA.REPUL.0>
0

>  <SCORE.INTRA.SOLV>
-1.31047

>  <SCORE.INTRA.SOLV.lig_0>
-114.358

>  <SCORE.INTRA.VDW>
3.19111

>  <SCORE.INTRA.VDW.0>
-8.24257

>  <SCORE.INTRA.norm>
0.0491215

>  <SCORE.RESTR>
20.8671

>  <SCORE.RESTR.CAVITY>
20.8671

>  <SCORE.RESTR.norm>
0.401291

>  <SCORE.SYSTEM>
0

>  <SCORE.SYSTEM.CONST>
0

>  <SCORE.SYSTEM.DIHEDRAL>
0

>  <SCORE.SYSTEM.SOLV>
0

>  <SCORE.SYSTEM.norm>
0

>  <SCORE.heavy>
52

>  <SCORE.norm>
0.344048

>  <RMSD>
25.077

$$$$
2esj_lig
 OpenBabel11021811423D
libRbt.so/2013.1/901 2013/11/27
 52 56  0  0  0  0  0  0  0  0999 V2000
    4.3012    6.8907   15.0437 C   0  0  2  0  0  0  0  0  0  0  0  0
    4.1630    7.7308   13.8818 O   0  0  0  0  0  0  0  0  0  0  0  0
    7.7088    6.6750   11.7368 C   0  0  2  0  0  0  0  0  0  0  0  0
    8.7176    6.4195   10.6955 N   0  0  0  0  0  0  0  0  0  0  0  0
    5.8927   10.6557   11.8301 C   0  0  1  0  0  0  0  0  0  0  0  0
    4.6387   13.5762    9.0675 C   0  0  1  0  0  0  0  0  0  0  0  0
    2.8233   12.6101    4.3438 C   0  0  1  0  0  0  0  0  0  0  0  0
    3.7235    7.6737   16.2595 C   0  0  2  0  0  0  0  0  0  0  0  0
    2.3363    8.0844   16.0446 N   0  0  0  0  0  0  0  0  0  0  0  0
    6.3825    5.8744   11.4245 C   0  0  0  0  0  0  0  0  0  0  0  0
    5.1397   11.9638   12.0761 C   0  0  2  0  0  0  0  0  0  0  0  0
    3.7133   11.8186   11.9045 O   0  0  0  0  0  0  0  0  0  0  0  0
    3.1544   13.0254    8.8805 C   0  0  2  0  0  0  0  0  0  0  0  0
    3.1626   11.6351    8.3533 N   0  0  0  0  0  0  0  0  0  0  0  0
    1.8248   13.6974    3.9641 C   0  0  1  0  0  0  0  0  0  0  0  0
    2.1742   14.2305    2.6709 O   0  0  0  0  0  0  0  0  0  0  0  0
    4.6018    8.9231   16.5859 C   0  0  0  0  0  0  0  0  0  0  0  0
    5.3331    6.1143   12.5833 C   0  0  2  0  0  0  0  0  0  0  0  0
    4.0862    5.3920   12.3106 N   0  0  0  0  0  0  0  0  0  0  0  0
    5.7956   12.8528   11.0594 C   0  0  2  0  0  0  0  0  0  0  0  0
    5.3076   12.5718    9.7721 O   0  0  0  0  0  0  0  0  0  0  0  0
    2.3212   14.0689    8.0134 C   0  0  1  0  0  0  0  0  0  0  0  0
    2.4545   15.3680    8.5991 O   0  0  0  0  0  0  0  0  0  0  0  0
    0.3678   13.2540    3.9122 C   0  0  1  0  0  0  0  0  0  0  0  0
   -0.3789   14.3216    3.3181 O   0  0  0  0  0  0  0  0  0  0  0  0
    6.0761    8.4630   16.7870 C   0  0  2  0  0  0  0  0  0  0  0  0
    6.9170    9.5390   17.1631 O   0  0  0  0  0  0  0  0  0  0  0  0
    5.0529    7.6300   12.7544 C   0  0  2  0  0  0  0  0  0  0  0  0
    7.2729   12.4123   11.0031 C   0  0  2  0  0  0  0  0  0  0  0  0
    7.1822   11.0344   11.3290 O   0  0  0  0  0  0  0  0  0  0  0  0
    2.9025   14.1955    6.5453 C   0  0  2  0  0  0  0  0  0  0  0  0
    2.7224   12.8952    5.9821 O   0  0  0  0  0  0  0  0  0  0  0  0
    0.1421   11.9705    3.1110 C   0  0  2  0  0  0  0  0  0  0  0  0
   -1.1886   11.5197    3.4123 O   0  0  0  0  0  0  0  0  0  0  0  0
    6.5603    7.7913   15.4781 C   0  0  2  0  0  0  0  0  0  0  0  0
    5.7103    6.6316   15.2469 O   0  0  0  0  0  0  0  0  0  0  0  0
    6.3363    8.4997   12.9478 C   0  0  2  0  0  0  0  0  0  0  0  0
    5.9653    9.9044   13.0215 O   0  0  0  0  0  0  0  0  0  0  0  0
    8.2265   13.1011   11.9788 C   0  0  0  0  0  0  0  0  0  0  0  0
    8.0359   12.4989   13.2674 O   0  0  0  0  0  0  0  0  0  0  0  0
    4.4006   14.3644    6.7106 C   0  0  1  0  0  0  0  0  0  0  0  0
    5.2874   13.8375    7.7207 O   0  0  0  0  0  0  0  0  0  0  0  0
    1.2311   10.9399    3.3874 C   0  0  2  0  0  0  0  0  0  0  0  0
    2.5756   11.3390    3.6957 O   0  0  0  0  0  0  0  0  0  0  0  0
    7.9524    7.2659   15.5711 C   0  0  0  0  0  0  0  0  0  0  0  0
    8.2033    6.5265   14.4004 O   0  0  0  0  0  0  0  0  0  0  0  0
    7.3818    8.2092   11.8187 C   0  0  1  0  0  0  0  0  0  0  0  0
    8.6062    8.9028   12.1780 O   0  0  0  0  0  0  0  0  0  0  0  0
    5.2181   14.6179    5.4067 C   0  0  0  0  0  0  0  0  0  0  0  0
    4.3776   14.9986    4.2520 N   0  0  0  0  0  0  0  0  0  0  0  0
    1.2684    9.5676    2.7188 C   0  0  0  0  0  0  0  0  0  0  0  0
    0.4730    9.5863    1.5040 O   0  0  0  0  0  0  0  0  0  0  0  0
  1  2  1  6  0  0  0
  1  8  1  0  0  0  0
  1 36  1  0  0  0  0
  3  4  1  6  0  0  0
  3 10  1  0  0  0  0
  3 47  1  0  0  0  0
  5 11  1  0  0  0  0
  5 30  1  0  0  0  0
  5 38  1  1  0  0  0
  6 21  1  6  0  0  0
  6 42  1  0  0  0  0
  7 15  1  0  0  0  0
  7 44  1  0  0  0  0
  7 32  1  1  0  0  0
  8  9  1  6  0  0  0
  8 17  1  0  0  0  0
 11 12  1  6  0  0  0
 11 20  1  0  0  0  0
 13  6  1  0  0  0  0
 13 14  1  6  0  0  0
 15 16  1  6  0  0  0
 15 24  1  0  0  0  0
 17 26  1  0  0  0  0
 18 10  1  0  0  0  0
 18 19  1  6  0  0  0
 20 21  1  6  0  0  0
 20 29  1  0  0  0  0
 22 13  1  0  0  0  0
 22 23  1  1  0  0  0
 24 25  1  6  0  0  0
 24 33  1  0  0  0  0
 26 27  1  6  0  0  0
 26 35  1  0  0  0  0
 28  2  1  1  0  0  0
 28 18  1  0  0  0  0
 29 30  1  0  0  0  0
 29 39  1  1  0  0  0
 31 22  1  0  0  0  0
 31 32  1  6  0  0  0
 31 41  1  0  0  0  0
 33 34  1  1  0  0  0
 33 43  1  0  0  0  0
 35 36  1  0  0  0  0
 35 45  1  1  0  0  0
 37 28  1  0  0  0  0
 37 38  1  6  0  0  0
 39 40  1  0  0  0  0
 41 42  1  0  0  0  0
 41 49  1  6  0  0  0
 43 44  1  0  0  0  0
 43 51  1  6  0  0  0
 45 46  1  0  0  0  0
 47 37  1  0  0  0  0
 47 48  1  1  0  0  0
 49 50  1  0  0  0  0
 51 52  1  0  0  0  0
M  END
>  <CHROM.1>
152.40131937,164.85334167,-116.37571685,-52.41602442,118.28127037,38.38347536
78.21488932,164.34329235,172.03036172,-89.14305305,14.83987091,20.50642078
4.50806094,10.66697533,9.85308612,0.86580883,0.96774548,2.62512185

>  <Name>
2esj_lig

>  <RI>
0

>  <Rbt.Current_Directory>
/home/itssahil/PROJECTS/Mol_Feturizer/New_Systems/rnas/2esj

>  <Rbt.Executable>
rbdock ($Id: //depot/dev/client3/rdock/2013.1/src/exe/rbdock.cxx#4 $)

>  <Rbt.Library>
libRbt.so (2013.1, Build901 2013/11/27)

>  <Rbt.Parameter_File>
/export/apps/rDock/src/rDock_2013.1_src/data/scripts/dock_solv.prm

>  <Rbt.Receptor>
prm/blind_docking_20.prm

>  <SCORE>
23.0617

>  <SCORE.INTER>
-2.24036

>  <SCORE.INTER.CONST>
1

>  <SCORE.INTER.POLAR>
-1.01667

>  <SCORE.INTER.ROT>
12

>  <SCORE.INTER.SOLV>
33.7092

>  <SCORE.INTER.VDW>
-20.9411

>  <SCORE.INTER.norm>
-0.0430839

>  <SCORE.INTRA>
9.8725

>  <SCORE.INTRA.DIHEDRAL>
-0.33288

>  <SCORE.INTRA.DIHEDRAL.0>
32.9766

>  <SCORE.INTRA.POLAR>
0

>  <SCORE.INTRA.POLAR.0>
0

>  <SCORE.INTRA.REPUL>
0

>  <SCORE.INTRA.REPUL.0>
0

>  <SCORE.INTRA.SOLV>
3.99336

>  <SCORE.INTRA.SOLV.lig_0>
-114.358

>  <SCORE.INTRA.VDW>
8.04226

>  <SCORE.INTRA.VDW.0>
-8.24257

>  <SCORE.INTRA.norm>
0.189856

>  <SCORE.RESTR>
15.4296

>  <SCORE.RESTR.CAVITY>
15.4296

>  <SCORE.RESTR.norm>
0.296722

>  <SCORE.SYSTEM>
0

>  <SCORE.SYSTEM.CONST>
0

>  <SCORE.SYSTEM.DIHEDRAL>
0

>  <SCORE.SYSTEM.SOLV>
0

>  <SCORE.SYSTEM.norm>
0

>  <SCORE.heavy>
52

>  <SCORE.norm>
0.443494

>  <RMSD>
25.410

$$$$
2esj_lig
 OpenBabel11021811423D
libRbt.so/2013.1/901 2013/11/27
 52 56  0  0  0  0  0  0  0  0999 V2000
    5.0928    6.5436   15.2477 C   0  0  2  0  0  0  0  0  0  0  0  0
    4.6600    6.8752   13.9145 O   0  0  0  0  0  0  0  0  0  0  0  0
    8.1687    8.7632   12.3614 C   0  0  2  0  0  0  0  0  0  0  0  0
    9.2459    9.2689   11.4946 N   0  0  0  0  0  0  0  0  0  0  0  0
    4.2841   10.4806   11.5697 C   0  0  1  0  0  0  0  0  0  0  0  0
    3.7489   13.5965    9.0246 C   0  0  1  0  0  0  0  0  0  0  0  0
    4.2786   14.5868    3.8998 C   0  0  1  0  0  0  0  0  0  0  0  0
    3.9480    6.9426   16.2250 C   0  0  2  0  0  0  0  0  0  0  0  0
    2.6806    6.2962   15.8859 N   0  0  0  0  0  0  0  0  0  0  0  0
    8.0430    7.1940   12.2222 C   0  0  0  0  0  0  0  0  0  0  0  0
    2.8309   10.7131   11.1541 C   0  0  2  0  0  0  0  0  0  0  0  0
    2.4139    9.8286   10.0915 O   0  0  0  0  0  0  0  0  0  0  0  0
    2.8107   13.7546    7.7455 C   0  0  2  0  0  0  0  0  0  0  0  0
    2.9472   12.5871    6.8349 N   0  0  0  0  0  0  0  0  0  0  0  0
    2.8340   14.9951    4.1641 C   0  0  1  0  0  0  0  0  0  0  0  0
    2.4394   15.9914    3.1997 O   0  0  0  0  0  0  0  0  0  0  0  0
    3.7599    8.4926   16.2597 C   0  0  0  0  0  0  0  0  0  0  0  0
    6.9222    6.6627   13.2036 C   0  0  2  0  0  0  0  0  0  0  0  0
    6.7759    5.2084   13.0839 N   0  0  0  0  0  0  0  0  0  0  0  0
    2.8860   12.1620   10.7643 C   0  0  2  0  0  0  0  0  0  0  0  0
    3.4883   12.3099    9.5035 O   0  0  0  0  0  0  0  0  0  0  0  0
    3.0897   15.1698    7.0714 C   0  0  1  0  0  0  0  0  0  0  0  0
    2.9865   16.1875    8.0726 O   0  0  0  0  0  0  0  0  0  0  0  0
    1.8170   13.8613    4.1122 C   0  0  1  0  0  0  0  0  0  0  0  0
    0.5158   14.4578    4.1445 O   0  0  0  0  0  0  0  0  0  0  0  0
    5.1266    9.1578   16.5994 C   0  0  2  0  0  0  0  0  0  0  0  0
    5.0116   10.5640   16.7233 O   0  0  0  0  0  0  0  0  0  0  0  0
    5.5713    7.3672   12.9142 C   0  0  2  0  0  0  0  0  0  0  0  0
    3.8855   12.8233   11.7356 C   0  0  2  0  0  0  0  0  0  0  0  0
    4.7700   11.7518   12.0228 O   0  0  0  0  0  0  0  0  0  0  0  0
    4.5689   15.2626    6.5123 C   0  0  2  0  0  0  0  0  0  0  0  0
    4.6246   14.2601    5.4964 O   0  0  0  0  0  0  0  0  0  0  0  0
    1.9397   12.9796    2.8682 C   0  0  2  0  0  0  0  0  0  0  0  0
    1.1506   11.8036    3.1114 O   0  0  0  0  0  0  0  0  0  0  0  0
    6.1469    8.7633   15.5028 C   0  0  2  0  0  0  0  0  0  0  0  0
    6.2826    7.3138   15.5393 O   0  0  0  0  0  0  0  0  0  0  0  0
    5.6502    8.9276   12.9175 C   0  0  2  0  0  0  0  0  0  0  0  0
    4.3525    9.4808   12.5622 O   0  0  0  0  0  0  0  0  0  0  0  0
    3.3077   13.3664   13.0420 C   0  0  0  0  0  0  0  0  0  0  0  0
    4.3969   13.9053   13.8055 O   0  0  0  0  0  0  0  0  0  0  0  0
    5.4621   14.7603    7.6303 C   0  0  1  0  0  0  0  0  0  0  0  0
    5.2083   13.7631    8.6431 O   0  0  0  0  0  0  0  0  0  0  0  0
    3.3979   12.6964    2.5249 C   0  0  2  0  0  0  0  0  0  0  0  0
    4.4296   13.6565    2.8003 O   0  0  0  0  0  0  0  0  0  0  0  0
    7.5121    9.3083   15.7514 C   0  0  0  0  0  0  0  0  0  0  0  0
    8.4119    8.5685   14.9620 O   0  0  0  0  0  0  0  0  0  0  0  0
    6.7987    9.4296   11.9789 C   0  0  1  0  0  0  0  0  0  0  0  0
    6.9303   10.8607   12.1885 O   0  0  0  0  0  0  0  0  0  0  0  0
    6.9994   14.8426    7.3801 C   0  0  0  0  0  0  0  0  0  0  0  0
    7.8035   14.6736    8.6088 N   0  0  0  0  0  0  0  0  0  0  0  0
    3.8226   11.8510    1.3264 C   0  0  0  0  0  0  0  0  0  0  0  0
    2.8390   10.8116    1.0795 O   0  0  0  0  0  0  0  0  0  0  0  0
  1  2  1  6  0  0  0
  1  8  1  0  0  0  0
  1 36  1  0  0  0  0
  3  4  1  6  0  0  0
  3 10  1  0  0  0  0
  3 47  1  0  0  0  0
  5 11  1  0  0  0  0
  5 30  1  0  0  0  0
  5 38  1  1  0  0  0
  6 21  1  6  0  0  0
  6 42  1  0  0  0  0
  7 15  1  0  0  0  0
  7 44  1  0  0  0  0
  7 32  1  1  0  0  0
  8  9  1  6  0  0  0
  8 17  1  0  0  0  0
 11 12  1  6  0  0  0
 11 20  1  0  0  0  0
 13  6  1  0  0  0  0
 13 14  1  6  0  0  0
 15 16  1  6  0  0  0
 15 24  1  0  0  0  0
 17 26  1  0  0  0  0
 18 10  1  0  0  0  0
 18 19  1  6  0  0  0
 20 21  1  6  0  0  0
 20 29  1  0  0  0  0
 22 13  1  0  0  0  0
 22 23  1  1  0  0  0
 24 25  1  6  0  0  0
 24 33  1  0  0  0  0
 26 27  1  6  0  0  0
 26 35  1  0  0  0  0
 28  2  1  1  0  0  0
 28 18  1  0  0  0  0
 29 30  1  0  0  0  0
 29 39  1  1  0  0  0
 31 22  1  0  0  0  0
 31 32  1  6  0  0  0
 31 41  1  0  0  0  0
 33 34  1  1  0  0  0
 33 43  1  0  0  0  0
 35 36  1  0  0  0  0
 35 45  1  1  0  0  0
 37 28  1  0  0  0  0
 37 38  1  6  0  0  0
 39 40  1  0  0  0  0
 41 42  1  0  0  0  0
 41 49  1  6  0  0  0
 43 44  1  0  0  0  0
 43 51  1  6  0  0  0
 45 46  1  0  0  0  0
 47 37  1  0  0  0  0
 47 48  1  1  0  0  0
 49 50  1  0  0  0  0
 51 52  1  0  0  0  0
M  END
>  <CHROM.1>
144.03066047,168.55265360,-114.73737097,-62.15937089,-173.82495691,33.51687566
178.68144609,91.66353659,162.01343574,-131.10806597,165.12392450,-32.70256667
4.58253560,11.29090631,9.92293105,-0.16908929,1.34930859,-2.47376680

>  <Name>
2esj_lig

>  <RI>
0

>  <Rbt.Current_Directory>
/home/itssahil/PROJECTS/Mol_Feturizer/New_Systems/rnas/2esj

>  <Rbt.Executable>
rbdock ($Id: //depot/dev/client3/rdock/2013.1/src/exe/rbdock.cxx#4 $)

>  <Rbt.Library>
libRbt.so (2013.1, Build901 2013/11/27)

>  <Rbt.Parameter_File>
/export/apps/rDock/src/rDock_2013.1_src/data/scripts/dock_solv.prm

>  <Rbt.Receptor>
prm/blind_docking_20.prm

>  <SCORE>
39.5224

>  <SCORE.INTER>
4.50212

>  <SCORE.INTER.CONST>
1

>  <SCORE.INTER.POLAR>
-0.382799

>  <SCORE.INTER.ROT>
12

>  <SCORE.INTER.SOLV>
28.4788

>  <SCORE.INTER.VDW>
-16.8155

>  <SCORE.INTER.norm>
0.0865793

>  <SCORE.INTRA>
14.1216

>  <SCORE.INTRA.DIHEDRAL>
-0.288441

>  <SCORE.INTRA.DIHEDRAL.0>
32.9766

>  <SCORE.INTRA.POLAR>
0

>  <SCORE.INTRA.POLAR.0>
0

>  <SCORE.INTRA.REPUL>
0

>  <SCORE.INTRA.REPUL.0>
0

>  <SCORE.INTRA.SOLV>
1.05766

>  <SCORE.INTRA.SOLV.lig_0>
-114.358

>  <SCORE.INTRA.VDW>
13.737

>  <SCORE.INTRA.VDW.0>
-8.24257

>  <SCORE.INTRA.norm>
0.271569

>  <SCORE.RESTR>
20.8986

>  <SCORE.RESTR.CAVITY>
20.8986

>  <SCORE.RESTR.norm>
0.401897

>  <SCORE.SYSTEM>
0

>  <SCORE.SYSTEM.CONST>
0

>  <SCORE.SYSTEM.DIHEDRAL>
0

>  <SCORE.SYSTEM.SOLV>
0

>  <SCORE.SYSTEM.norm>
0

>  <SCORE.heavy>
52

>  <SCORE.norm>
0.760045

>  <RMSD>
25.541

$$$$
2esj_lig
 OpenBabel11021811423D
libRbt.so/2013.1/901 2013/11/27
 52 56  0  0  0  0  0  0  0  0999 V2000
    4.4233    8.3111   15.4993 C   0  0  2  0  0  0  0  0  0  0  0  0
    3.9029    8.0412   14.1835 O   0  0  0  0  0  0  0  0  0  0  0  0
    7.3213    7.0831   11.7993 C   0  0  2  0  0  0  0  0  0  0  0  0
    8.2797    6.8992   10.6971 N   0  0  0  0  0  0  0  0  0  0  0  0
    5.5595   11.0723   12.3631 C   0  0  1  0  0  0  0  0  0  0  0  0
    4.3434   13.4135    9.1496 C   0  0  1  0  0  0  0  0  0  0  0  0
    3.5575   13.1481    3.9250 C   0  0  1  0  0  0  0  0  0  0  0  0
    5.3589    7.1275   15.8849 C   0  0  2  0  0  0  0  0  0  0  0  0
    6.4270    6.9249   14.9065 N   0  0  0  0  0  0  0  0  0  0  0  0
    5.9534    6.3669   11.4627 C   0  0  0  0  0  0  0  0  0  0  0  0
    4.3785   10.5787   11.5263 C   0  0  2  0  0  0  0  0  0  0  0  0
    4.7746    9.6066   10.5346 O   0  0  0  0  0  0  0  0  0  0  0  0
    3.1934   12.8801    8.1830 C   0  0  2  0  0  0  0  0  0  0  0  0
    3.6096   11.6282    7.4971 N   0  0  0  0  0  0  0  0  0  0  0  0
    3.1805   14.6156    3.7581 C   0  0  1  0  0  0  0  0  0  0  0  0
    3.2844   14.9759    2.3661 O   0  0  0  0  0  0  0  0  0  0  0  0
    4.5437    5.8071   16.0608 C   0  0  0  0  0  0  0  0  0  0  0  0
    4.9582    6.5248   12.6819 C   0  0  2  0  0  0  0  0  0  0  0  0
    3.6742    5.8794   12.3893 N   0  0  0  0  0  0  0  0  0  0  0  0
    3.8861   11.8768   10.9549 C   0  0  2  0  0  0  0  0  0  0  0  0
    4.7201   12.3009    9.9065 O   0  0  0  0  0  0  0  0  0  0  0  0
    2.7437   14.0607    7.2139 C   0  0  1  0  0  0  0  0  0  0  0  0
    2.4351   15.2145    8.0026 O   0  0  0  0  0  0  0  0  0  0  0  0
    1.7824   14.9872    4.2373 C   0  0  1  0  0  0  0  0  0  0  0  0
    1.5225   16.3224    3.7901 O   0  0  0  0  0  0  0  0  0  0  0  0
    3.4000    6.0551   17.0885 C   0  0  2  0  0  0  0  0  0  0  0  0
    2.6656    4.8736   17.3546 O   0  0  0  0  0  0  0  0  0  0  0  0
    4.7455    8.0241   13.0161 C   0  0  2  0  0  0  0  0  0  0  0  0
    4.1050   12.9338   12.0569 C   0  0  2  0  0  0  0  0  0  0  0  0
    5.2379   12.4188   12.7383 O   0  0  0  0  0  0  0  0  0  0  0  0
    3.9224   14.4989    6.2506 C   0  0  2  0  0  0  0  0  0  0  0  0
    4.1796   13.3383    5.4587 O   0  0  0  0  0  0  0  0  0  0  0  0
    0.6851   14.0562    3.7183 C   0  0  2  0  0  0  0  0  0  0  0  0
   -0.4957   14.3339    4.4885 O   0  0  0  0  0  0  0  0  0  0  0  0
    2.4888    7.1820   16.5417 C   0  0  2  0  0  0  0  0  0  0  0  0
    3.3082    8.3797   16.4190 O   0  0  0  0  0  0  0  0  0  0  0  0
    6.0690    8.8227   13.2432 C   0  0  2  0  0  0  0  0  0  0  0  0
    5.7573   10.2250   13.4731 O   0  0  0  0  0  0  0  0  0  0  0  0
    2.9611   13.1272   13.0518 C   0  0  0  0  0  0  0  0  0  0  0  0
    3.3584   14.1532   13.9733 O   0  0  0  0  0  0  0  0  0  0  0  0
    5.1395   14.6634    7.1404 C   0  0  1  0  0  0  0  0  0  0  0  0
    5.5089   13.9601    8.3459 O   0  0  0  0  0  0  0  0  0  0  0  0
    1.1272   12.5975    3.7518 C   0  0  2  0  0  0  0  0  0  0  0  0
    2.5011   12.2292    3.5552 O   0  0  0  0  0  0  0  0  0  0  0  0
    1.3792    7.5392   17.4711 C   0  0  0  0  0  0  0  0  0  0  0  0
    0.6074    6.3798   17.6718 O   0  0  0  0  0  0  0  0  0  0  0  0
    7.0592    8.6117   12.0486 C   0  0  1  0  0  0  0  0  0  0  0  0
    8.3229    9.2204   12.4254 O   0  0  0  0  0  0  0  0  0  0  0  0
    6.4340   15.1973    6.4533 C   0  0  0  0  0  0  0  0  0  0  0  0
    7.5752   14.2625    6.5456 N   0  0  0  0  0  0  0  0  0  0  0  0
    0.2395   11.4470    3.2829 C   0  0  0  0  0  0  0  0  0  0  0  0
   -0.0181   11.5683    1.8589 O   0  0  0  0  0  0  0  0  0  0  0  0
  1  2  1  6  0  0  0
  1  8  1  0  0  0  0
  1 36  1  0  0  0  0
  3  4  1  6  0  0  0
  3 10  1  0  0  0  0
  3 47  1  0  0  0  0
  5 11  1  0  0  0  0
  5 30  1  0  0  0  0
  5 38  1  1  0  0  0
  6 21  1  6  0  0  0
  6 42  1  0  0  0  0
  7 15  1  0  0  0  0
  7 44  1  0  0  0  0
  7 32  1  1  0  0  0
  8  9  1  6  0  0  0
  8 17  1  0  0  0  0
 11 12  1  6  0  0  0
 11 20  1  0  0  0  0
 13  6  1  0  0  0  0
 13 14  1  6  0  0  0
 15 16  1  6  0  0  0
 15 24  1  0  0  0  0
 17 26  1  0  0  0  0
 18 10  1  0  0  0  0
 18 19  1  6  0  0  0
 20 21  1  6  0  0  0
 20 29  1  0  0  0  0
 22 13  1  0  0  0  0
 22 23  1  1  0  0  0
 24 25  1  6  0  0  0
 24 33  1  0  0  0  0
 26 27  1  6  0  0  0
 26 35  1  0  0  0  0
 28  2  1  1  0  0  0
 28 18  1  0  0  0  0
 29 30  1  0  0  0  0
 29 39  1  1  0  0  0
 31 22  1  0  0  0  0
 31 32  1  6  0  0  0
 31 41  1  0  0  0  0
 33 34  1  1  0  0  0
 33 43  1  0  0  0  0
 35 36  1  0  0  0  0
 35 45  1  1  0  0  0
 37 28  1  0  0  0  0
 37 38  1  6  0  0  0
 39 40  1  0  0  0  0
 41 42  1  0  0  0  0
 41 49  1  6  0  0  0
 43 44  1  0  0  0  0
 43 51  1  6  0  0  0
 45 46  1  0  0  0  0
 47 37  1  0  0  0  0
 47 48  1  1  0  0  0
 49 50  1  0  0  0  0
 51 52  1  0  0  0  0
M  END
>  <CHROM.1>
-66.68193488,60.88135969,-76.25095937,15.51878225,173.00291961,103.22265402
-179.39496408,98.31595413,-59.55869607,-83.85622788,-120.00775755,64.49927905
3.93370373,10.90718077,10.14681083,1.43215824,0.26112703,2.16679950

>  <Name>
2esj_lig

>  <RI>
0

>  <Rbt.Current_Directory>
/home/itssahil/PROJECTS/Mol_Feturizer/New_Systems/rnas/2esj

>  <Rbt.Executable>
rbdock ($Id: //depot/dev/client3/rdock/2013.1/src/exe/rbdock.cxx#4 $)

>  <Rbt.Library>
libRbt.so (2013.1, Build901 2013/11/27)

>  <Rbt.Parameter_File>
/export/apps/rDock/src/rDock_2013.1_src/data/scripts/dock_solv.prm

>  <Rbt.Receptor>
prm/blind_docking_20.prm

>  <SCORE>
46.6289

>  <SCORE.INTER>
17.9111

>  <SCORE.INTER.CONST>
1

>  <SCORE.INTER.POLAR>
-1.23947

>  <SCORE.INTER.ROT>
12

>  <SCORE.INTER.SOLV>
32.4498

>  <SCORE.INTER.VDW>
-6.34429

>  <SCORE.INTER.norm>
0.344445

>  <SCORE.INTRA>
9.38229

>  <SCORE.INTRA.DIHEDRAL>
-6.95586

>  <SCORE.INTRA.DIHEDRAL.0>
32.9766

>  <SCORE.INTRA.POLAR>
0

>  <SCORE.INTRA.POLAR.0>
0

>  <SCORE.INTRA.REPUL>
0

>  <SCORE.INTRA.REPUL.0>
0

>  <SCORE.INTRA.SOLV>
4.61267

>  <SCORE.INTRA.SOLV.lig_0>
-114.358

>  <SCORE.INTRA.VDW>
10.5539

>  <SCORE.INTRA.VDW.0>
-8.24257

>  <SCORE.INTRA.norm>
0.180429

>  <SCORE.RESTR>
19.3355

>  <SCORE.RESTR.CAVITY>
19.3355

>  <SCORE.RESTR.norm>
0.371836

>  <SCORE.SYSTEM>
0

>  <SCORE.SYSTEM.CONST>
0

>  <SCORE.SYSTEM.DIHEDRAL>
0

>  <SCORE.SYSTEM.SOLV>
0

>  <SCORE.SYSTEM.norm>
0

>  <SCORE.heavy>
52

>  <SCORE.norm>
0.89671

>  <RMSD>
25.612

$$$$
2esj_lig
 OpenBabel11021811423D
libRbt.so/2013.1/901 2013/11/27
 52 56  0  0  0  0  0  0  0  0999 V2000
    2.5033   12.0449    4.0144 C   0  0  2  0  0  0  0  0  0  0  0  0
    2.1060   13.4122    4.2324 O   0  0  0  0  0  0  0  0  0  0  0  0
    5.9618   15.2476    4.4599 C   0  0  2  0  0  0  0  0  0  0  0  0
    7.0787   16.2000    4.5724 N   0  0  0  0  0  0  0  0  0  0  0  0
    3.3397   13.1386    7.8506 C   0  0  1  0  0  0  0  0  0  0  0  0
    4.2144   10.5791   10.9656 C   0  0  1  0  0  0  0  0  0  0  0  0
    7.7869    7.8756   12.0925 C   0  0  1  0  0  0  0  0  0  0  0  0
    3.2990   11.9958    2.6767 C   0  0  2  0  0  0  0  0  0  0  0  0
    4.4459   12.9034    2.6813 N   0  0  0  0  0  0  0  0  0  0  0  0
    5.0124   15.6537    3.2636 C   0  0  0  0  0  0  0  0  0  0  0  0
    4.7240   13.2802    8.4849 C   0  0  2  0  0  0  0  0  0  0  0  0
    5.7463   12.5886    7.7353 O   0  0  0  0  0  0  0  0  0  0  0  0
    5.6705   10.4418   11.5997 C   0  0  2  0  0  0  0  0  0  0  0  0
    6.6500    9.9599   10.5901 N   0  0  0  0  0  0  0  0  0  0  0  0
    7.7871    7.2007   13.4592 C   0  0  1  0  0  0  0  0  0  0  0  0
    9.0936    6.6470   13.7138 O   0  0  0  0  0  0  0  0  0  0  0  0
    2.3705   12.3210    1.4637 C   0  0  0  0  0  0  0  0  0  0  0  0
    3.8531   14.5872    3.1211 C   0  0  2  0  0  0  0  0  0  0  0  0
    2.9486   14.9486    2.0247 N   0  0  0  0  0  0  0  0  0  0  0  0
    4.4617   12.7041    9.8463 C   0  0  2  0  0  0  0  0  0  0  0  0
    4.4045   11.3015    9.7846 O   0  0  0  0  0  0  0  0  0  0  0  0
    5.5775    9.5591   12.9216 C   0  0  1  0  0  0  0  0  0  0  0  0
    4.5574   10.0994   13.7679 O   0  0  0  0  0  0  0  0  0  0  0  0
    7.4223    8.1038   14.6313 C   0  0  1  0  0  0  0  0  0  0  0  0
    7.7035    7.3747   15.8311 O   0  0  0  0  0  0  0  0  0  0  0  0
    1.1469   11.3579    1.4944 C   0  0  2  0  0  0  0  0  0  0  0  0
    0.2998   11.5468    0.3751 O   0  0  0  0  0  0  0  0  0  0  0  0
    3.0662   14.4624    4.4516 C   0  0  2  0  0  0  0  0  0  0  0  0
    3.0220   13.1208   10.2114 C   0  0  2  0  0  0  0  0  0  0  0  0
    2.4040   13.1935    8.9364 O   0  0  0  0  0  0  0  0  0  0  0  0
    5.1275    8.0756   12.5961 C   0  0  2  0  0  0  0  0  0  0  0  0
    6.1811    7.5589   11.7817 O   0  0  0  0  0  0  0  0  0  0  0  0
    8.1884    9.4277   14.6513 C   0  0  2  0  0  0  0  0  0  0  0  0
    7.5258   10.2783   15.6012 O   0  0  0  0  0  0  0  0  0  0  0  0
    0.3882   11.5755    2.8271 C   0  0  2  0  0  0  0  0  0  0  0  0
    1.3057   11.2397    3.9070 O   0  0  0  0  0  0  0  0  0  0  0  0
    3.9618   14.1793    5.7001 C   0  0  2  0  0  0  0  0  0  0  0  0
    3.1349   14.1572    6.8968 O   0  0  0  0  0  0  0  0  0  0  0  0
    2.8621   14.4610   10.9283 C   0  0  0  0  0  0  0  0  0  0  0  0
    3.0055   15.4969    9.9454 O   0  0  0  0  0  0  0  0  0  0  0  0
    3.9274    8.2034   11.6776 C   0  0  1  0  0  0  0  0  0  0  0  0
    3.6178    9.2110   10.6909 O   0  0  0  0  0  0  0  0  0  0  0  0
    8.3107   10.0243   13.2536 C   0  0  2  0  0  0  0  0  0  0  0  0
    8.4000    9.1876   12.0901 O   0  0  0  0  0  0  0  0  0  0  0  0
   -0.7828   10.6670    2.9881 C   0  0  0  0  0  0  0  0  0  0  0  0
   -0.2901    9.3502    3.0475 O   0  0  0  0  0  0  0  0  0  0  0  0
    5.1320   15.2157    5.7932 C   0  0  1  0  0  0  0  0  0  0  0  0
    6.0180   14.7693    6.8539 O   0  0  0  0  0  0  0  0  0  0  0  0
    3.2133    6.8749   11.2804 C   0  0  0  0  0  0  0  0  0  0  0  0
    4.1149    5.7037   11.2734 N   0  0  0  0  0  0  0  0  0  0  0  0
    9.0347   11.3382   12.9691 C   0  0  0  0  0  0  0  0  0  0  0  0
   10.3923   11.2770   13.4810 O   0  0  0  0  0  0  0  0  0  0  0  0
  1  2  1  6  0  0  0
  1  8  1  0  0  0  0
  1 36  1  0  0  0  0
  3  4  1  1  0  0  0
  3 10  1  0  0  0  0
  3 47  1  0  0  0  0
  5 11  1  0  0  0  0
  5 30  1  0  0  0  0
  5 38  1  6  0  0  0
  6 21  1  6  0  0  0
  6 42  1  0  0  0  0
  7 15  1  0  0  0  0
  7 44  1  0  0  0  0
  7 32  1  1  0  0  0
  8  9  1  1  0  0  0
  8 17  1  0  0  0  0
 11 12  1  6  0  0  0
 11 20  1  0  0  0  0
 13  6  1  0  0  0  0
 13 14  1  6  0  0  0
 15 16  1  1  0  0  0
 15 24  1  0  0  0  0
 17 26  1  0  0  0  0
 18 10  1  0  0  0  0
 18 19  1  6  0  0  0
 20 21  1  6  0  0  0
 20 29  1  0  0  0  0
 22 13  1  0  0  0  0
 22 23  1  1  0  0  0
 24 25  1  1  0  0  0
 24 33  1  0  0  0  0
 26 27  1  6  0  0  0
 26 35  1  0  0  0  0
 28  2  1  6  0  0  0
 28 18  1  0  0  0  0
 29 30  1  0  0  0  0
 29 39  1  6  0  0  0
 31 22  1  0  0  0  0
 31 32  1  6  0  0  0
 31 41  1  0  0  0  0
 33 34  1  1  0  0  0
 33 43  1  0  0  0  0
 35 36  1  0  0  0  0
 35 45  1  6  0  0  0
 37 28  1  0  0  0  0
 37 38  1  1  0  0  0
 39 40  1  0  0  0  0
 41 42  1  0  0  0  0
 41 49  1  6  0  0  0
 43 44  1  0  0  0  0
 43 51  1  1  0  0  0
 45 46  1  0  0  0  0
 47 37  1  0  0  0  0
 47 48  1  1  0  0  0
 49 50  1  0  0  0  0
 51 52  1  0  0  0  0
M  END
>  <CHROM.1>
-64.56780641,65.37386585,-83.69025379,61.95727123,177.77790552,65.77067971
76.82164497,40.49975247,64.04282520,135.95504055,-28.41652399,55.07942913
4.64534283,11.36952365,8.52783927,2.18741450,-0.83452132,-0.69041143

>  <Name>
2esj_lig

>  <RI>
0

>  <Rbt.Current_Directory>
/home/itssahil/PROJECTS/Mol_Feturizer/New_Systems/rnas/2esj

>  <Rbt.Executable>
rbdock ($Id: //depot/dev/client3/rdock/2013.1/src/exe/rbdock.cxx#4 $)

>  <Rbt.Library>
libRbt.so (2013.1, Build901 2013/11/27)

>  <Rbt.Parameter_File>
/export/apps/rDock/src/rDock_2013.1_src/data/scripts/dock_solv.prm

>  <Rbt.Receptor>
prm/blind_docking_20.prm

>  <SCORE>
23.4457

>  <SCORE.INTER>
-21.4877

>  <SCORE.INTER.CONST>
1

>  <SCORE.INTER.POLAR>
-2.68801

>  <SCORE.INTER.ROT>
12

>  <SCORE.INTER.SOLV>
30.7211

>  <SCORE.INTER.VDW>
-27.2054

>  <SCORE.INTER.norm>
-0.413225

>  <SCORE.INTRA>
25.372

>  <SCORE.INTRA.DIHEDRAL>
-16.4968

>  <SCORE.INTRA.DIHEDRAL.0>
32.9766

>  <SCORE.INTRA.POLAR>
0

>  <SCORE.INTRA.POLAR.0>
0

>  <SCORE.INTRA.REPUL>
0

>  <SCORE.INTRA.REPUL.0>
0

>  <SCORE.INTRA.SOLV>
12.1328

>  <SCORE.INTRA.SOLV.lig_0>
-114.358

>  <SCORE.INTRA.VDW>
27.554

>  <SCORE.INTRA.VDW.0>
-8.24257

>  <SCORE.INTRA.norm>
0.487923

>  <SCORE.RESTR>
19.5614

>  <SCORE.RESTR.CAVITY>
19.5614

>  <SCORE.RESTR.norm>
0.37618

>  <SCORE.SYSTEM>
0

>  <SCORE.SYSTEM.CONST>
0

>  <SCORE.SYSTEM.DIHEDRAL>
0

>  <SCORE.SYSTEM.SOLV>
0

>  <SCORE.SYSTEM.norm>
0

>  <SCORE.heavy>
52

>  <SCORE.norm>
0.450878

>  <RMSD>
26.491

$$$$
2esj_lig
 OpenBabel11021811423D
libRbt.so/2013.1/901 2013/11/27
 52 56  0  0  0  0  0  0  0  0999 V2000
    7.1436    9.1915   12.9522 C   0  0  2  0  0  0  0  0  0  0  0  0
    5.9131    9.7192   13.4837 O   0  0  0  0  0  0  0  0  0  0  0  0
    3.1324    6.9222   11.8306 C   0  0  2  0  0  0  0  0  0  0  0  0
    1.9562    6.0812   11.5539 N   0  0  0  0  0  0  0  0  0  0  0  0
    3.7264   11.3704   10.5251 C   0  0  1  0  0  0  0  0  0  0  0  0
    3.3476   14.1398    7.3103 C   0  0  1  0  0  0  0  0  0  0  0  0
    1.4412   13.2285    2.4082 C   0  0  1  0  0  0  0  0  0  0  0  0
    7.9928    8.6821   14.1540 C   0  0  2  0  0  0  0  0  0  0  0  0
    7.2764    7.6923   14.9578 N   0  0  0  0  0  0  0  0  0  0  0  0
    3.6462    6.6795   13.3053 C   0  0  0  0  0  0  0  0  0  0  0  0
    3.3839   12.8558   10.6470 C   0  0  2  0  0  0  0  0  0  0  0  0
    1.9608   13.0978   10.6063 O   0  0  0  0  0  0  0  0  0  0  0  0
    1.8143   14.1307    6.8742 C   0  0  2  0  0  0  0  0  0  0  0  0
    1.3574   12.7521    6.5556 N   0  0  0  0  0  0  0  0  0  0  0  0
    0.1389   12.5061    2.7332 C   0  0  1  0  0  0  0  0  0  0  0  0
   -0.7955   12.7057    1.6535 O   0  0  0  0  0  0  0  0  0  0  0  0
    8.4474    9.8712   15.0588 C   0  0  0  0  0  0  0  0  0  0  0  0
    4.9437    7.5462   13.5640 C   0  0  2  0  0  0  0  0  0  0  0  0
    5.4338    7.3492   14.9322 N   0  0  0  0  0  0  0  0  0  0  0  0
    4.1370   13.4080    9.4714 C   0  0  2  0  0  0  0  0  0  0  0  0
    3.4517   13.1348    8.2755 O   0  0  0  0  0  0  0  0  0  0  0  0
    1.6016   15.1959    5.7101 C   0  0  1  0  0  0  0  0  0  0  0  0
    2.1421   16.4533    6.1290 O   0  0  0  0  0  0  0  0  0  0  0  0
    0.2682   11.0066    2.9723 C   0  0  1  0  0  0  0  0  0  0  0  0
   -1.0583   10.4701    3.0240 O   0  0  0  0  0  0  0  0  0  0  0  0
    9.1861   10.9208   14.1767 C   0  0  2  0  0  0  0  0  0  0  0  0
    9.6947   11.9935   14.9492 O   0  0  0  0  0  0  0  0  0  0  0  0
    4.6522    9.0472   13.3055 C   0  0  2  0  0  0  0  0  0  0  0  0
    5.4264   12.5681    9.3632 C   0  0  2  0  0  0  0  0  0  0  0  0
    5.0063   11.3153    9.8800 O   0  0  0  0  0  0  0  0  0  0  0  0
    2.4044   14.7943    4.4048 C   0  0  2  0  0  0  0  0  0  0  0  0
    1.8176   13.5574    3.9974 O   0  0  0  0  0  0  0  0  0  0  0  0
    1.0684   10.2768    1.8921 C   0  0  2  0  0  0  0  0  0  0  0  0
    1.3664    8.9686    2.4065 O   0  0  0  0  0  0  0  0  0  0  0  0
    8.2054   11.4182   13.0860 C   0  0  2  0  0  0  0  0  0  0  0  0
    7.8387   10.2651   12.2754 O   0  0  0  0  0  0  0  0  0  0  0  0
    4.0279    9.3455   11.9047 C   0  0  2  0  0  0  0  0  0  0  0  0
    3.7267   10.7648   11.7988 O   0  0  0  0  0  0  0  0  0  0  0  0
    6.6320   13.0655   10.1600 C   0  0  0  0  0  0  0  0  0  0  0  0
    6.2249   13.1842   11.5311 O   0  0  0  0  0  0  0  0  0  0  0  0
    3.8037   14.4465    4.8749 C   0  0  1  0  0  0  0  0  0  0  0  0
    4.2458   13.8621    6.1189 O   0  0  0  0  0  0  0  0  0  0  0  0
    2.2941   11.0777    1.4669 C   0  0  2  0  0  0  0  0  0  0  0  0
    2.2873   12.5135    1.4753 O   0  0  0  0  0  0  0  0  0  0  0  0
    8.8230   12.3980   12.1474 C   0  0  0  0  0  0  0  0  0  0  0  0
    8.8060   11.8212   10.8640 O   0  0  0  0  0  0  0  0  0  0  0  0
    2.7754    8.4411   11.6488 C   0  0  1  0  0  0  0  0  0  0  0  0
    2.3782    8.6386   10.2659 O   0  0  0  0  0  0  0  0  0  0  0  0
    4.8453   14.1103    3.7636 C   0  0  0  0  0  0  0  0  0  0  0  0
    5.8080   15.2033    3.5120 N   0  0  0  0  0  0  0  0  0  0  0  0
    3.2722   10.5986    0.3966 C   0  0  0  0  0  0  0  0  0  0  0  0
    3.3581    9.1491    0.4168 O   0  0  0  0  0  0  0  0  0  0  0  0
  1  2  1  1  0  0  0
  1  8  1  0  0  0  0
  1 36  1  0  0  0  0
  3  4  1  1  0  0  0
  3 10  1  0  0  0  0
  3 47  1  0  0  0  0
  5 11  1  0  0  0  0
  5 30  1  0  0  0  0
  5 38  1  1  0  0  0
  6 21  1  1  0  0  0
  6 42  1  0  0  0  0
  7 15  1  0  0  0  0
  7 44  1  0  0  0  0
  7 32  1  1  0  0  0
  8  9  1  1  0  0  0
  8 17  1  0  0  0  0
 11 12  1  6  0  0  0
 11 20  1  0  0  0  0
 13  6  1  0  0  0  0
 13 14  1  6  0  0  0
 15 16  1  6  0  0  0
 15 24  1  0  0  0  0
 17 26  1  0  0  0  0
 18 10  1  0  0  0  0
 18 19  1  1  0  0  0
 20 21  1  6  0  0  0
 20 29  1  0  0  0  0
 22 13  1  0  0  0  0
 22 23  1  1  0  0  0
 24 25  1  6  0  0  0
 24 33  1  0  0  0  0
 26 27  1  1  0  0  0
 26 35  1  0  0  0  0
 28  2  1  6  0  0  0
 28 18  1  0  0  0  0
 29 30  1  0  0  0  0
 29 39  1  1  0  0  0
 31 22  1  0  0  0  0
 31 32  1  1  0  0  0
 31 41  1  0  0  0  0
 33 34  1  1  0  0  0
 33 43  1  0  0  0  0
 35 36  1  0  0  0  0
 35 45  1  6  0  0  0
 37 28  1  0  0  0  0
 37 38  1  1  0  0  0
 39 40  1  0  0  0  0
 41 42  1  0  0  0  0
 41 49  1  6  0  0  0
 43 44  1  0  0  0  0
 43 51  1  6  0  0  0
 45 46  1  0  0  0  0
 47 37  1  0  0  0  0
 47 48  1  6  0  0  0
 49 50  1  0  0  0  0
 51 52  1  0  0  0  0
M  END
>  <CHROM.1>
-108.81149887,179.88583132,-133.19209788,-141.22578587,136.90630991,43.18926591
55.50634141,136.09408119,117.16858261,152.28057621,104.23529430,-32.15693450
4.08756218,11.36266425,8.47507975,0.89893118,0.85735376,2.36384373

>  <Name>
2esj_lig

>  <RI>
0

>  <Rbt.Current_Directory>
/home/itssahil/PROJECTS/Mol_Feturizer/New_Systems/rnas/2esj

>  <Rbt.Executable>
rbdock ($Id: //depot/dev/client3/rdock/2013.1/src/exe/rbdock.cxx#4 $)

>  <Rbt.Library>
libRbt.so (2013.1, Build901 2013/11/27)

>  <Rbt.Parameter_File>
/export/apps/rDock/src/rDock_2013.1_src/data/scripts/dock_solv.prm

>  <Rbt.Receptor>
prm/blind_docking_20.prm

>  <SCORE>
76.2736

>  <SCORE.INTER>
32.0354

>  <SCORE.INTER.CONST>
1

>  <SCORE.INTER.POLAR>
-0.389719

>  <SCORE.INTER.ROT>
12

>  <SCORE.INTER.SOLV>
32.8962

>  <SCORE.INTER.VDW>
0.0906208

>  <SCORE.INTER.norm>
0.616066

>  <SCORE.INTRA>
27.3697

>  <SCORE.INTRA.DIHEDRAL>
12.0078

>  <SCORE.INTRA.DIHEDRAL.0>
32.9766

>  <SCORE.INTRA.POLAR>
0

>  <SCORE.INTRA.POLAR.0>
0

>  <SCORE.INTRA.REPUL>
0

>  <SCORE.INTRA.REPUL.0>
0

>  <SCORE.INTRA.SOLV>
3.31393

>  <SCORE.INTRA.SOLV.lig_0>
-114.358

>  <SCORE.INTRA.VDW>
19.7088

>  <SCORE.INTRA.VDW.0>
-8.24257

>  <SCORE.INTRA.norm>
0.52634

>  <SCORE.RESTR>
16.8685

>  <SCORE.RESTR.CAVITY>
16.8685

>  <SCORE.RESTR.norm>
0.324394

>  <SCORE.SYSTEM>
0

>  <SCORE.SYSTEM.CONST>
0

>  <SCORE.SYSTEM.DIHEDRAL>
0

>  <SCORE.SYSTEM.SOLV>
0

>  <SCORE.SYSTEM.norm>
0

>  <SCORE.heavy>
52

>  <SCORE.norm>
1.4668

>  <RMSD>
26.560

$$$$
2esj_lig
 OpenBabel11021811423D
libRbt.so/2013.1/901 2013/11/27
 52 56  0  0  0  0  0  0  0  0999 V2000
    4.9976    6.9606   11.7624 C   0  0  2  0  0  0  0  0  0  0  0  0
    5.1688    8.0985   10.8959 O   0  0  0  0  0  0  0  0  0  0  0  0
    8.1353   10.3042   13.0458 C   0  0  2  0  0  0  0  0  0  0  0  0
    9.2509   11.1835   13.4325 N   0  0  0  0  0  0  0  0  0  0  0  0
    4.9098   11.6291   10.1944 C   0  0  1  0  0  0  0  0  0  0  0  0
    4.1696   14.0601    6.8745 C   0  0  1  0  0  0  0  0  0  0  0  0
    2.0946   11.6013    3.0708 C   0  0  1  0  0  0  0  0  0  0  0  0
    3.4735    6.8120   12.0453 C   0  0  2  0  0  0  0  0  0  0  0  0
    2.6923    6.6841   10.8155 N   0  0  0  0  0  0  0  0  0  0  0  0
    8.6220    9.2303   11.9935 C   0  0  0  0  0  0  0  0  0  0  0  0
    3.9151   12.7767   10.0153 C   0  0  2  0  0  0  0  0  0  0  0  0
    2.6923   12.3506    9.3760 O   0  0  0  0  0  0  0  0  0  0  0  0
    2.6242   13.6914    7.0051 C   0  0  2  0  0  0  0  0  0  0  0  0
    2.4273   12.2180    7.0408 N   0  0  0  0  0  0  0  0  0  0  0  0
    1.4503   12.5736    2.0895 C   0  0  1  0  0  0  0  0  0  0  0  0
    2.0813   12.4337    0.8008 O   0  0  0  0  0  0  0  0  0  0  0  0
    2.9432    8.0156   12.8874 C   0  0  0  0  0  0  0  0  0  0  0  0
    7.4261    8.2591   11.6354 C   0  0  2  0  0  0  0  0  0  0  0  0
    7.8483    7.2596   10.6487 N   0  0  0  0  0  0  0  0  0  0  0  0
    4.7391   13.7284    9.1973 C   0  0  2  0  0  0  0  0  0  0  0  0
    4.8039   13.2999    7.8606 O   0  0  0  0  0  0  0  0  0  0  0  0
    1.8133   14.4510    5.8646 C   0  0  1  0  0  0  0  0  0  0  0  0
    2.1470   15.8422    5.9080 O   0  0  0  0  0  0  0  0  0  0  0  0
   -0.0523   12.4057    1.8984 C   0  0  1  0  0  0  0  0  0  0  0  0
   -0.4321   13.2260    0.7879 O   0  0  0  0  0  0  0  0  0  0  0  0
    3.8049    8.1450   14.1783 C   0  0  2  0  0  0  0  0  0  0  0  0
    3.3286    9.1726   15.0288 O   0  0  0  0  0  0  0  0  0  0  0  0
    6.2145    9.0666   11.1017 C   0  0  2  0  0  0  0  0  0  0  0  0
    6.1872   13.5800    9.7076 C   0  0  2  0  0  0  0  0  0  0  0  0
    6.2123   12.2269   10.1336 O   0  0  0  0  0  0  0  0  0  0  0  0
    2.2368   13.9504    4.4226 C   0  0  2  0  0  0  0  0  0  0  0  0
    1.8593   12.5729    4.4034 O   0  0  0  0  0  0  0  0  0  0  0  0
   -0.4825   10.9620    1.6327 C   0  0  2  0  0  0  0  0  0  0  0  0
   -1.9103   10.9173    1.7880 O   0  0  0  0  0  0  0  0  0  0  0  0
    5.2765    8.3870   13.7602 C   0  0  2  0  0  0  0  0  0  0  0  0
    5.7061    7.2238   12.9964 O   0  0  0  0  0  0  0  0  0  0  0  0
    5.7550   10.2267   12.0420 C   0  0  2  0  0  0  0  0  0  0  0  0
    4.6682   10.9611   11.4128 O   0  0  0  0  0  0  0  0  0  0  0  0
    6.5956   14.4840   10.8703 C   0  0  0  0  0  0  0  0  0  0  0  0
    7.8225   13.9691   11.4080 O   0  0  0  0  0  0  0  0  0  0  0  0
    3.7534   13.9577    4.4150 C   0  0  1  0  0  0  0  0  0  0  0  0
    4.6874   13.7183    5.4896 O   0  0  0  0  0  0  0  0  0  0  0  0
    0.2759    9.9803    2.5191 C   0  0  2  0  0  0  0  0  0  0  0  0
    1.6267   10.2377    2.9323 O   0  0  0  0  0  0  0  0  0  0  0  0
    6.2065    8.4797   14.9217 C   0  0  0  0  0  0  0  0  0  0  0  0
    6.2234    7.2208   15.5501 O   0  0  0  0  0  0  0  0  0  0  0  0
    6.9637   11.1460   12.4244 C   0  0  1  0  0  0  0  0  0  0  0  0
    6.4956   12.0697   13.4427 O   0  0  0  0  0  0  0  0  0  0  0  0
    4.4420   13.6010    3.0617 C   0  0  0  0  0  0  0  0  0  0  0  0
    5.5372   14.5251    2.6994 N   0  0  0  0  0  0  0  0  0  0  0  0
    0.0597    8.4697    2.4639 C   0  0  0  0  0  0  0  0  0  0  0  0
   -1.2762    8.1428    2.9299 O   0  0  0  0  0  0  0  0  0  0  0  0
  1  2  1  6  0  0  0
  1  8  1  0  0  0  0
  1 36  1  0  0  0  0
  3  4  1  6  0  0  0
  3 10  1  0  0  0  0
  3 47  1  0  0  0  0
  5 11  1  0  0  0  0
  5 30  1  0  0  0  0
  5 38  1  1  0  0  0
  6 21  1  1  0  0  0
  6 42  1  0  0  0  0
  7 15  1  0  0  0  0
  7 44  1  0  0  0  0
  7 32  1  1  0  0  0
  8  9  1  6  0  0  0
  8 17  1  0  0  0  0
 11 12  1  6  0  0  0
 11 20  1  0  0  0  0
 13  6  1  0  0  0  0
 13 14  1  6  0  0  0
 15 16  1  6  0  0  0
 15 24  1  0  0  0  0
 17 26  1  0  0  0  0
 18 10  1  0  0  0  0
 18 19  1  6  0  0  0
 20 21  1  6  0  0  0
 20 29  1  0  0  0  0
 22 13  1  0  0  0  0
 22 23  1  6  0  0  0
 24 25  1  6  0  0  0
 24 33  1  0  0  0  0
 26 27  1  1  0  0  0
 26 35  1  0  0  0  0
 28  2  1  1  0  0  0
 28 18  1  0  0  0  0
 29 30  1  0  0  0  0
 29 39  1  1  0  0  0
 31 22  1  0  0  0  0
 31 32  1  1  0  0  0
 31 41  1  0  0  0  0
 33 34  1  1  0  0  0
 33 43  1  0  0  0  0
 35 36  1  0  0  0  0
 35 45  1  1  0  0  0
 37 28  1  0  0  0  0
 37 38  1  6  0  0  0
 39 40  1  0  0  0  0
 41 42  1  0  0  0  0
 41 49  1  6  0  0  0
 43 44  1  0  0  0  0
 43 51  1  6  0  0  0
 45 46  1  0  0  0  0
 47 37  1  0  0  0  0
 47 48  1  1  0  0  0
 49 50  1  0  0  0  0
 51 52  1  0  0  0  0
M  END
>  <CHROM.1>
136.81580845,-155.69388661,-77.96325502,-50.12242126,112.26844793,35.20404268
165.60198109,179.48919377,65.31933850,-62.50259235,133.76831390,-66.64415709
3.98008760,11.09243621,8.34535282,0.87386487,0.85542497,2.41025665

>  <Name>
2esj_lig

>  <RI>
0

>  <Rbt.Current_Directory>
/home/itssahil/PROJECTS/Mol_Feturizer/New_Systems/rnas/2esj

>  <Rbt.Executable>
rbdock ($Id: //depot/dev/client3/rdock/2013.1/src/exe/rbdock.cxx#4 $)

>  <Rbt.Library>
libRbt.so (2013.1, Build901 2013/11/27)

>  <Rbt.Parameter_File>
/export/apps/rDock/src/rDock_2013.1_src/data/scripts/dock_solv.prm

>  <Rbt.Receptor>
prm/blind_docking_20.prm

>  <SCORE>
56.037

>  <SCORE.INTER>
30.5204

>  <SCORE.INTER.CONST>
1

>  <SCORE.INTER.POLAR>
-2.65545

>  <SCORE.INTER.ROT>
12

>  <SCORE.INTER.SOLV>
43.1562

>  <SCORE.INTER.VDW>
3.21307

>  <SCORE.INTER.norm>
0.586932

>  <SCORE.INTRA>
12.6027

>  <SCORE.INTRA.DIHEDRAL>
-7.18889

>  <SCORE.INTRA.DIHEDRAL.0>
32.9766

>  <SCORE.INTRA.POLAR>
0

>  <SCORE.INTRA.POLAR.0>
0

>  <SCORE.INTRA.REPUL>
0

>  <SCORE.INTRA.REPUL.0>
0

>  <SCORE.INTRA.SOLV>
1.61609

>  <SCORE.INTRA.SOLV.lig_0>
-114.358

>  <SCORE.INTRA.VDW>
15.3891

>  <SCORE.INTRA.VDW.0>
-8.24257

>  <SCORE.INTRA.norm>
0.24236

>  <SCORE.RESTR>
12.9139

>  <SCORE.RESTR.CAVITY>
12.9139

>  <SCORE.RESTR.norm>
0.248343

>  <SCORE.SYSTEM>
0

>  <SCORE.SYSTEM.CONST>
0

>  <SCORE.SYSTEM.DIHEDRAL>
0

>  <SCORE.SYSTEM.SOLV>
0

>  <SCORE.SYSTEM.norm>
0

>  <SCORE.heavy>
52

>  <SCORE.norm>
1.07763

>  <RMSD>
26.561

$$$$
2esj_lig
 OpenBabel11021811423D
libRbt.so/2013.1/901 2013/11/27
 52 56  0  0  0  0  0  0  0  0999 V2000
    7.4146   10.8356   11.7544 C   0  0  2  0  0  0  0  0  0  0  0  0
    6.8441    9.6079   11.2624 O   0  0  0  0  0  0  0  0  0  0  0  0
    3.7056    6.7563   11.8160 C   0  0  2  0  0  0  0  0  0  0  0  0
    2.6146    5.9302   12.3586 N   0  0  0  0  0  0  0  0  0  0  0  0
    4.1609   11.2511    9.8568 C   0  0  1  0  0  0  0  0  0  0  0  0
    3.6922   14.0892    6.7165 C   0  0  1  0  0  0  0  0  0  0  0  0
    1.8434   13.1718    1.7873 C   0  0  1  0  0  0  0  0  0  0  0  0
    8.3466   10.4740   12.9483 C   0  0  2  0  0  0  0  0  0  0  0  0
    9.3764    9.5055   12.5729 N   0  0  0  0  0  0  0  0  0  0  0  0
    4.9904    6.6372   12.7284 C   0  0  0  0  0  0  0  0  0  0  0  0
    3.3969   12.5737    9.9314 C   0  0  2  0  0  0  0  0  0  0  0  0
    2.0072   12.4280    9.5669 O   0  0  0  0  0  0  0  0  0  0  0  0
    2.1674   13.9428    6.2750 C   0  0  2  0  0  0  0  0  0  0  0  0
    1.8496   12.5371    5.9088 N   0  0  0  0  0  0  0  0  0  0  0  0
    0.4739   12.5779    2.0962 C   0  0  1  0  0  0  0  0  0  0  0  0
   -0.4225   12.8612    1.0033 O   0  0  0  0  0  0  0  0  0  0  0  0
    7.5197    9.9275   14.1552 C   0  0  0  0  0  0  0  0  0  0  0  0
    6.1687    7.4833   12.0981 C   0  0  2  0  0  0  0  0  0  0  0  0
    7.3708    7.4004   12.9342 N   0  0  0  0  0  0  0  0  0  0  0  0
    4.2004   13.4084    8.9765 C   0  0  2  0  0  0  0  0  0  0  0  0
    3.8954   13.0675    7.6479 O   0  0  0  0  0  0  0  0  0  0  0  0
    1.8501   15.0202    5.1465 C   0  0  1  0  0  0  0  0  0  0  0  0
    2.2631   16.3101    5.6092 O   0  0  0  0  0  0  0  0  0  0  0  0
    0.4567   11.0739    2.3412 C   0  0  1  0  0  0  0  0  0  0  0  0
   -0.9155   10.6663    2.3761 O   0  0  0  0  0  0  0  0  0  0  0  0
    6.4167   10.9648   14.5202 C   0  0  2  0  0  0  0  0  0  0  0  0
    5.6758   10.5667   15.6598 O   0  0  0  0  0  0  0  0  0  0  0  0
    5.7369    8.9619   11.9181 C   0  0  2  0  0  0  0  0  0  0  0  0
    5.6654   12.9577    9.1507 C   0  0  2  0  0  0  0  0  0  0  0  0
    5.5127   11.5979    9.5256 O   0  0  0  0  0  0  0  0  0  0  0  0
    2.6890   14.7444    3.8313 C   0  0  2  0  0  0  0  0  0  0  0  0
    2.2279   13.4698    3.3807 O   0  0  0  0  0  0  0  0  0  0  0  0
    1.1983   10.2669    1.2741 C   0  0  2  0  0  0  0  0  0  0  0  0
    1.3634    8.9384    1.7961 O   0  0  0  0  0  0  0  0  0  0  0  0
    5.5027   11.1598   13.2851 C   0  0  2  0  0  0  0  0  0  0  0  0
    6.3340   11.6833   12.2100 O   0  0  0  0  0  0  0  0  0  0  0  0
    4.4039    9.1467   11.1244 C   0  0  2  0  0  0  0  0  0  0  0  0
    4.0556   10.5585   11.0808 O   0  0  0  0  0  0  0  0  0  0  0  0
    6.4803   13.6881   10.2175 C   0  0  0  0  0  0  0  0  0  0  0  0
    5.6234   13.8948   11.3500 O   0  0  0  0  0  0  0  0  0  0  0  0
    4.1159   14.5215    4.2943 C   0  0  1  0  0  0  0  0  0  0  0  0
    4.6136   13.9422    5.5196 O   0  0  0  0  0  0  0  0  0  0  0  0
    2.5003   10.9458    0.8637 C   0  0  2  0  0  0  0  0  0  0  0  0
    2.6301   12.3759    0.8682 O   0  0  0  0  0  0  0  0  0  0  0  0
    4.4319   12.1735   13.5046 C   0  0  0  0  0  0  0  0  0  0  0  0
    5.0502   13.3435   13.9830 O   0  0  0  0  0  0  0  0  0  0  0  0
    3.2649    8.2618   11.7344 C   0  0  1  0  0  0  0  0  0  0  0  0
    2.1295    8.3409   10.8321 O   0  0  0  0  0  0  0  0  0  0  0  0
    5.1858   14.3278    3.1760 C   0  0  0  0  0  0  0  0  0  0  0  0
    4.6283   13.7876    1.9182 N   0  0  0  0  0  0  0  0  0  0  0  0
    3.4426   10.3715   -0.1917 C   0  0  0  0  0  0  0  0  0  0  0  0
    3.8380    9.0239    0.1775 O   0  0  0  0  0  0  0  0  0  0  0  0
  1  2  1  1  0  0  0
  1  8  1  0  0  0  0
  1 36  1  0  0  0  0
  3  4  1  1  0  0  0
  3 10  1  0  0  0  0
  3 47  1  0  0  0  0
  5 11  1  0  0  0  0
  5 30  1  0  0  0  0
  5 38  1  1  0  0  0
  6 21  1  1  0  0  0
  6 42  1  0  0  0  0
  7 15  1  0  0  0  0
  7 44  1  0  0  0  0
  7 32  1  1  0  0  0
  8  9  1  6  0  0  0
  8 17  1  0  0  0  0
 11 12  1  6  0  0  0
 11 20  1  0  0  0  0
 13  6  1  0  0  0  0
 13 14  1  6  0  0  0
 15 16  1  6  0  0  0
 15 24  1  0  0  0  0
 17 26  1  0  0  0  0
 18 10  1  0  0  0  0
 18 19  1  1  0  0  0
 20 21  1  6  0  0  0
 20 29  1  0  0  0  0
 22 13  1  0  0  0  0
 22 23  1  1  0  0  0
 24 25  1  6  0  0  0
 24 33  1  0  0  0  0
 26 27  1  1  0  0  0
 26 35  1  0  0  0  0
 28  2  1  6  0  0  0
 28 18  1  0  0  0  0
 29 30  1  0  0  0  0
 29 39  1  1  0  0  0
 31 22  1  0  0  0  0
 31 32  1  1  0  0  0
 31 41  1  0  0  0  0
 33 34  1  1  0  0  0
 33 43  1  0  0  0  0
 35 36  1  0  0  0  0
 35 45  1  1  0  0  0
 37 28  1  0  0  0  0
 37 38  1  1  0  0  0
 39 40  1  0  0  0  0
 41 42  1  0  0  0  0
 41 49  1  6  0  0  0
 43 44  1  0  0  0  0
 43 51  1  6  0  0  0
 45 46  1  0  0  0  0
 47 37  1  0  0  0  0
 47 48  1  6  0  0  0
 49 50  1  0  0  0  0
 51 52  1  0  0  0  0
M  END
>  <CHROM.1>
79.08482311,164.27122049,-115.76384826,-128.96508400,135.34774690,-129.66137378
39.96515163,134.24541610,51.75813511,109.35494537,-26.24219012,-56.44565960
4.01633846,11.43109204,7.98969496,-0.58667283,-1.16253529,-0.41045938

>  <Name>
2esj_lig

>  <RI>
0

>  <Rbt.Current_Directory>
/home/itssahil/PROJECTS/Mol_Feturizer/New_Systems/rnas/2esj

>  <Rbt.Executable>
rbdock ($Id: //depot/dev/client3/rdock/2013.1/src/exe/rbdock.cxx#4 $)

>  <Rbt.Library>
libRbt.so (2013.1, Build901 2013/11/27)

>  <Rbt.Parameter_File>
/export/apps/rDock/src/rDock_2013.1_src/data/scripts/dock_solv.prm

>  <Rbt.Receptor>
prm/blind_docking_20.prm

>  <SCORE>
45.9695

>  <SCORE.INTER>
16.451

>  <SCORE.INTER.CONST>
1

>  <SCORE.INTER.POLAR>
-0.968007

>  <SCORE.INTER.ROT>
12

>  <SCORE.INTER.SOLV>
35.2784

>  <SCORE.INTER.VDW>
-9.16544

>  <SCORE.INTER.norm>
0.316366

>  <SCORE.INTRA>
17.1337

>  <SCORE.INTRA.DIHEDRAL>
15.2206

>  <SCORE.INTRA.DIHEDRAL.0>
32.9766

>  <SCORE.INTRA.POLAR>
0

>  <SCORE.INTRA.POLAR.0>
0

>  <SCORE.INTRA.REPUL>
0

>  <SCORE.INTRA.REPUL.0>
0

>  <SCORE.INTRA.SOLV>
8.32564

>  <SCORE.INTRA.SOLV.lig_0>
-114.358

>  <SCORE.INTRA.VDW>
5.36052

>  <SCORE.INTRA.VDW.0>
-8.24257

>  <SCORE.INTRA.norm>
0.329494

>  <SCORE.RESTR>
12.3848

>  <SCORE.RESTR.CAVITY>
12.3848

>  <SCORE.RESTR.norm>
0.238169

>  <SCORE.SYSTEM>
0

>  <SCORE.SYSTEM.CONST>
0

>  <SCORE.SYSTEM.DIHEDRAL>
0

>  <SCORE.SYSTEM.SOLV>
0

>  <SCORE.SYSTEM.norm>
0

>  <SCORE.heavy>
52

>  <SCORE.norm>
0.884028

>  <RMSD>
26.671

$$$$
2esj_lig
 OpenBabel11021811423D
libRbt.so/2013.1/901 2013/11/27
 52 56  0  0  0  0  0  0  0  0999 V2000
    5.5971    8.2196   12.0878 C   0  0  2  0  0  0  0  0  0  0  0  0
    6.3585    9.3600   11.6466 O   0  0  0  0  0  0  0  0  0  0  0  0
    4.5606   12.6094   13.7672 C   0  0  2  0  0  0  0  0  0  0  0  0
    4.1023   13.9349   14.2149 N   0  0  0  0  0  0  0  0  0  0  0  0
    4.2005   11.2232    9.4840 C   0  0  1  0  0  0  0  0  0  0  0  0
    3.9927   14.1955    6.5556 C   0  0  1  0  0  0  0  0  0  0  0  0
    1.9541   13.2029    1.7365 C   0  0  1  0  0  0  0  0  0  0  0  0
    5.5554    8.2575   13.6440 C   0  0  2  0  0  0  0  0  0  0  0  0
    5.0028    9.5127   14.1523 N   0  0  0  0  0  0  0  0  0  0  0  0
    6.1345   12.5917   13.6256 C   0  0  0  0  0  0  0  0  0  0  0  0
    3.4917   12.5781    9.5016 C   0  0  2  0  0  0  0  0  0  0  0  0
    2.1983   12.5312    8.8611 O   0  0  0  0  0  0  0  0  0  0  0  0
    2.5835   13.6701    6.0271 C   0  0  2  0  0  0  0  0  0  0  0  0
    2.6878   12.2750    5.5234 N   0  0  0  0  0  0  0  0  0  0  0  0
    0.6488   12.9580    2.4847 C   0  0  1  0  0  0  0  0  0  0  0  0
   -0.4573   13.3568    1.6504 O   0  0  0  0  0  0  0  0  0  0  0  0
    6.9773    8.0222   14.2455 C   0  0  0  0  0  0  0  0  0  0  0  0
    6.6125   11.1448   13.2016 C   0  0  2  0  0  0  0  0  0  0  0  0
    8.0706   11.1047   13.0500 N   0  0  0  0  0  0  0  0  0  0  0  0
    4.5035   13.4259    8.7863 C   0  0  2  0  0  0  0  0  0  0  0  0
    4.4570   13.1857    7.4027 O   0  0  0  0  0  0  0  0  0  0  0  0
    1.9987   14.7203    4.9831 C   0  0  1  0  0  0  0  0  0  0  0  0
    2.0163   16.0223    5.5774 O   0  0  0  0  0  0  0  0  0  0  0  0
    0.4109   11.5186    2.9250 C   0  0  1  0  0  0  0  0  0  0  0  0
   -0.9415   11.4354    3.3879 O   0  0  0  0  0  0  0  0  0  0  0  0
    7.5527    6.6936   13.6717 C   0  0  2  0  0  0  0  0  0  0  0  0
    8.8129    6.3782   14.2362 O   0  0  0  0  0  0  0  0  0  0  0  0
    5.9202   10.7109   11.8835 C   0  0  2  0  0  0  0  0  0  0  0  0
    5.8843   12.8863    9.2128 C   0  0  2  0  0  0  0  0  0  0  0  0
    5.6043   11.5160    9.4513 O   0  0  0  0  0  0  0  0  0  0  0  0
    2.9115   14.8226    3.6925 C   0  0  2  0  0  0  0  0  0  0  0  0
    2.8432   13.5205    3.1091 O   0  0  0  0  0  0  0  0  0  0  0  0
    0.6308   10.4898    1.8145 C   0  0  2  0  0  0  0  0  0  0  0  0
    0.6796    9.1997    2.4452 O   0  0  0  0  0  0  0  0  0  0  0  0
    7.6344    6.8228   12.1304 C   0  0  2  0  0  0  0  0  0  0  0  0
    6.2777    7.0235   11.6405 O   0  0  0  0  0  0  0  0  0  0  0  0
    4.3619   10.8189   11.9141 C   0  0  2  0  0  0  0  0  0  0  0  0
    3.8241   10.4622   10.6102 O   0  0  0  0  0  0  0  0  0  0  0  0
    6.4983   13.5033   10.4689 C   0  0  0  0  0  0  0  0  0  0  0  0
    7.6885   12.7628   10.7768 O   0  0  0  0  0  0  0  0  0  0  0  0
    4.3317   14.9657    4.2050 C   0  0  1  0  0  0  0  0  0  0  0  0
    4.9453   14.4322    5.3981 O   0  0  0  0  0  0  0  0  0  0  0  0
    1.8596   10.8253    0.9766 C   0  0  2  0  0  0  0  0  0  0  0  0
    2.2620   12.1854    0.7531 O   0  0  0  0  0  0  0  0  0  0  0  0
    8.1303    5.5841   11.4654 C   0  0  0  0  0  0  0  0  0  0  0  0
    7.0573    4.6752   11.4127 O   0  0  0  0  0  0  0  0  0  0  0  0
    3.9111   12.2428   12.3848 C   0  0  1  0  0  0  0  0  0  0  0  0
    2.4715   12.1977   12.5717 O   0  0  0  0  0  0  0  0  0  0  0  0
    5.4380   15.1920    3.1291 C   0  0  0  0  0  0  0  0  0  0  0  0
    5.4081   14.1949    2.0384 N   0  0  0  0  0  0  0  0  0  0  0  0
    2.3161    9.9780   -0.2088 C   0  0  0  0  0  0  0  0  0  0  0  0
    3.6474   10.3830   -0.6241 O   0  0  0  0  0  0  0  0  0  0  0  0
  1  2  1  1  0  0  0
  1  8  1  0  0  0  0
  1 36  1  0  0  0  0
  3  4  1  6  0  0  0
  3 10  1  0  0  0  0
  3 47  1  0  0  0  0
  5 11  1  0  0  0  0
  5 30  1  0  0  0  0
  5 38  1  1  0  0  0
  6 21  1  1  0  0  0
  6 42  1  0  0  0  0
  7 15  1  0  0  0  0
  7 44  1  0  0  0  0
  7 32  1  1  0  0  0
  8  9  1  6  0  0  0
  8 17  1  0  0  0  0
 11 12  1  6  0  0  0
 11 20  1  0  0  0  0
 13  6  1  0  0  0  0
 13 14  1  6  0  0  0
 15 16  1  6  0  0  0
 15 24  1  0  0  0  0
 17 26  1  0  0  0  0
 18 10  1  0  0  0  0
 18 19  1  6  0  0  0
 20 21  1  6  0  0  0
 20 29  1  0  0  0  0
 22 13  1  0  0  0  0
 22 23  1  1  0  0  0
 24 25  1  6  0  0  0
 24 33  1  0  0  0  0
 26 27  1  1  0  0  0
 26 35  1  0  0  0  0
 28  2  1  1  0  0  0
 28 18  1  0  0  0  0
 29 30  1  0  0  0  0
 29 39  1  1  0  0  0
 31 22  1  0  0  0  0
 31 32  1  6  0  0  0
 31 41  1  0  0  0  0
 33 34  1  1  0  0  0
 33 43  1  0  0  0  0
 35 36  1  0  0  0  0
 35 45  1  6  0  0  0
 37 28  1  0  0  0  0
 37 38  1  6  0  0  0
 39 40  1  0  0  0  0
 41 42  1  0  0  0  0
 41 49  1  6  0  0  0
 43 44  1  0  0  0  0
 43 51  1  6  0  0  0
 45 46  1  0  0  0  0
 47 37  1  0  0  0  0
 47 48  1  1  0  0  0
 49 50  1  0  0  0  0
 51 52  1  0  0  0  0
M  END
>  <CHROM.1>
-63.90219010,-74.19973967,-109.90197758,-86.06742872,111.72420088,93.90609327
173.34274714,105.55149583,78.53922727,-60.45343221,-51.79470278,-168.22758813
4.25266135,11.43000283,8.01744436,-0.22746392,1.18484344,-2.58075224

>  <Name>
2esj_lig

>  <RI>
0

>  <Rbt.Current_Directory>
/home/itssahil/PROJECTS/Mol_Feturizer/New_Systems/rnas/2esj

>  <Rbt.Executable>
rbdock ($Id: //depot/dev/client3/rdock/2013.1/src/exe/rbdock.cxx#4 $)

>  <Rbt.Library>
libRbt.so (2013.1, Build901 2013/11/27)

>  <Rbt.Parameter_File>
/export/apps/rDock/src/rDock_2013.1_src/data/scripts/dock_solv.prm

>  <Rbt.Receptor>
prm/blind_docking_20.prm

>  <SCORE>
20.031

>  <SCORE.INTER>
-5.75778

>  <SCORE.INTER.CONST>
1

>  <SCORE.INTER.POLAR>
-1.76072

>  <SCORE.INTER.ROT>
12

>  <SCORE.INTER.SOLV>
32.1495

>  <SCORE.INTER.VDW>
-20.286

>  <SCORE.INTER.norm>
-0.110727

>  <SCORE.INTRA>
12.3614

>  <SCORE.INTRA.DIHEDRAL>
0.75171

>  <SCORE.INTRA.DIHEDRAL.0>
32.9766

>  <SCORE.INTRA.POLAR>
0

>  <SCORE.INTRA.POLAR.0>
0

>  <SCORE.INTRA.REPUL>
0

>  <SCORE.INTRA.REPUL.0>
0

>  <SCORE.INTRA.SOLV>
9.81647

>  <SCORE.INTRA.SOLV.lig_0>
-114.358

>  <SCORE.INTRA.VDW>
7.07729

>  <SCORE.INTRA.VDW.0>
-8.24257

>  <SCORE.INTRA.norm>
0.237719

>  <SCORE.RESTR>
13.4274

>  <SCORE.RESTR.CAVITY>
13.4274

>  <SCORE.RESTR.norm>
0.25822

>  <SCORE.SYSTEM>
0

>  <SCORE.SYSTEM.CONST>
0

>  <SCORE.SYSTEM.DIHEDRAL>
0

>  <SCORE.SYSTEM.SOLV>
0

>  <SCORE.SYSTEM.norm>
0

>  <SCORE.heavy>
52

>  <SCORE.norm>
0.385212

>  <RMSD>
26.744

$$$$
2esj_lig
 OpenBabel11021811423D
libRbt.so/2013.1/901 2013/11/27
 52 56  0  0  0  0  0  0  0  0999 V2000
    1.3531   13.2910    3.1664 C   0  0  2  0  0  0  0  0  0  0  0  0
    2.3761   13.2365    4.1790 O   0  0  0  0  0  0  0  0  0  0  0  0
    5.9962   15.4714    4.6121 C   0  0  2  0  0  0  0  0  0  0  0  0
    6.9967   16.5328    4.8116 N   0  0  0  0  0  0  0  0  0  0  0  0
    3.5359   12.8174    7.7609 C   0  0  1  0  0  0  0  0  0  0  0  0
    5.5712   10.1290   10.3230 C   0  0  1  0  0  0  0  0  0  0  0  0
    5.0340    9.8046   15.5051 C   0  0  1  0  0  0  0  0  0  0  0  0
    0.2393   12.2805    3.5706 C   0  0  2  0  0  0  0  0  0  0  0  0
   -0.2972   12.5525    4.9038 N   0  0  0  0  0  0  0  0  0  0  0  0
    5.0250   15.8487    3.4239 C   0  0  0  0  0  0  0  0  0  0  0  0
    4.8759   13.0113    8.4719 C   0  0  2  0  0  0  0  0  0  0  0  0
    5.9857   12.4967    7.7046 O   0  0  0  0  0  0  0  0  0  0  0  0
    4.6434    9.3928   11.3900 C   0  0  2  0  0  0  0  0  0  0  0  0
    3.7164   10.3532   12.0451 N   0  0  0  0  0  0  0  0  0  0  0  0
    6.3907    9.3098   15.9930 C   0  0  1  0  0  0  0  0  0  0  0  0
    6.4710    9.4805   17.4223 O   0  0  0  0  0  0  0  0  0  0  0  0
    0.7668   10.8123    3.5009 C   0  0  0  0  0  0  0  0  0  0  0  0
    3.9958   14.6715    3.1862 C   0  0  2  0  0  0  0  0  0  0  0  0
    3.0727   15.0027    2.0958 N   0  0  0  0  0  0  0  0  0  0  0  0
    4.6161   12.2717    9.7524 C   0  0  2  0  0  0  0  0  0  0  0  0
    4.6912   10.8843    9.5434 O   0  0  0  0  0  0  0  0  0  0  0  0
    5.5632    8.5590   12.3869 C   0  0  1  0  0  0  0  0  0  0  0  0
    6.4426    7.7295   11.6206 O   0  0  0  0  0  0  0  0  0  0  0  0
    6.7053    7.8530   15.6747 C   0  0  1  0  0  0  0  0  0  0  0  0
    7.8886    7.5066   16.4028 O   0  0  0  0  0  0  0  0  0  0  0  0
    1.3531   10.5553    2.0811 C   0  0  2  0  0  0  0  0  0  0  0  0
    1.7813    9.2145    1.9229 O   0  0  0  0  0  0  0  0  0  0  0  0
    3.2083   14.3702    4.4878 C   0  0  2  0  0  0  0  0  0  0  0  0
    3.1311   12.5187   10.0893 C   0  0  2  0  0  0  0  0  0  0  0  0
    2.5583   12.6732    8.8005 O   0  0  0  0  0  0  0  0  0  0  0  0
    6.5004    9.5089   13.2405 C   0  0  2  0  0  0  0  0  0  0  0  0
    5.5933   10.2953   14.0145 O   0  0  0  0  0  0  0  0  0  0  0  0
    5.5807    6.8843   16.0446 C   0  0  2  0  0  0  0  0  0  0  0  0
    5.8850    5.6310   15.4112 O   0  0  0  0  0  0  0  0  0  0  0  0
    2.5114   11.5557    1.8432 C   0  0  2  0  0  0  0  0  0  0  0  0
    1.9452   12.8960    1.9065 O   0  0  0  0  0  0  0  0  0  0  0  0
    4.1114   14.1053    5.7348 C   0  0  2  0  0  0  0  0  0  0  0  0
    3.2745   13.9104    6.9087 O   0  0  0  0  0  0  0  0  0  0  0  0
    2.8206   13.7551   10.9323 C   0  0  0  0  0  0  0  0  0  0  0  0
    3.1155   14.9093   10.1320 O   0  0  0  0  0  0  0  0  0  0  0  0
    7.1262   10.4685   12.2465 C   0  0  1  0  0  0  0  0  0  0  0  0
    6.5940   11.0088   11.0179 O   0  0  0  0  0  0  0  0  0  0  0  0
    4.2123    7.4527   15.6853 C   0  0  2  0  0  0  0  0  0  0  0  0
    3.9554    8.8647   15.7297 O   0  0  0  0  0  0  0  0  0  0  0  0
    3.1209   11.4329    0.4883 C   0  0  0  0  0  0  0  0  0  0  0  0
    4.2020   12.3317    0.4290 O   0  0  0  0  0  0  0  0  0  0  0  0
    5.1555   15.2573    5.9216 C   0  0  1  0  0  0  0  0  0  0  0  0
    6.0704   14.8421    6.9704 O   0  0  0  0  0  0  0  0  0  0  0  0
    8.1870   11.4610   12.8141 C   0  0  0  0  0  0  0  0  0  0  0  0
    9.4868   10.8233   13.1118 N   0  0  0  0  0  0  0  0  0  0  0  0
    2.9056    6.7083   15.9499 C   0  0  0  0  0  0  0  0  0  0  0  0
    2.7022    6.5565   17.3797 O   0  0  0  0  0  0  0  0  0  0  0  0
  1  2  1  1  0  0  0
  1  8  1  0  0  0  0
  1 36  1  0  0  0  0
  3  4  1  1  0  0  0
  3 10  1  0  0  0  0
  3 47  1  0  0  0  0
  5 11  1  0  0  0  0
  5 30  1  0  0  0  0
  5 38  1  1  0  0  0
  6 21  1  6  0  0  0
  6 42  1  0  0  0  0
  7 15  1  0  0  0  0
  7 44  1  0  0  0  0
  7 32  1  6  0  0  0
  8  9  1  1  0  0  0
  8 17  1  0  0  0  0
 11 12  1  6  0  0  0
 11 20  1  0  0  0  0
 13  6  1  0  0  0  0
 13 14  1  1  0  0  0
 15 16  1  1  0  0  0
 15 24  1  0  0  0  0
 17 26  1  0  0  0  0
 18 10  1  0  0  0  0
 18 19  1  6  0  0  0
 20 21  1  6  0  0  0
 20 29  1  0  0  0  0
 22 13  1  0  0  0  0
 22 23  1  6  0  0  0
 24 25  1  1  0  0  0
 24 33  1  0  0  0  0
 26 27  1  1  0  0  0
 26 35  1  0  0  0  0
 28  2  1  6  0  0  0
 28 18  1  0  0  0  0
 29 30  1  0  0  0  0
 29 39  1  1  0  0  0
 31 22  1  0  0  0  0
 31 32  1  1  0  0  0
 31 41  1  0  0  0  0
 33 34  1  6  0  0  0
 33 43  1  0  0  0  0
 35 36  1  0  0  0  0
 35 45  1  6  0  0  0
 37 28  1  0  0  0  0
 37 38  1  1  0  0  0
 39 40  1  0  0  0  0
 41 42  1  0  0  0  0
 41 49  1  1  0  0  0
 43 44  1  0  0  0  0
 43 51  1  1  0  0  0
 45 46  1  0  0  0  0
 47 37  1  0  0  0  0
 47 48  1  1  0  0  0
 49 50  1  0  0  0  0
 51 52  1  0  0  0  0
M  END
>  <CHROM.1>
-151.31655933,67.57130363,103.75502348,43.02409400,124.44164533,-62.39534444
67.61834810,88.23920134,-176.53650197,132.67972697,74.57734005,65.11203134
4.40484124,11.34356447,9.09033491,1.86523490,-0.79739939,-0.97374516

>  <Name>
2esj_lig

>  <RI>
0

>  <Rbt.Current_Directory>
/home/itssahil/PROJECTS/Mol_Feturizer/New_Systems/rnas/2esj

>  <Rbt.Executable>
rbdock ($Id: //depot/dev/client3/rdock/2013.1/src/exe/rbdock.cxx#4 $)

>  <Rbt.Library>
libRbt.so (2013.1, Build901 2013/11/27)

>  <Rbt.Parameter_File>
/export/apps/rDock/src/rDock_2013.1_src/data/scripts/dock_solv.prm

>  <Rbt.Receptor>
prm/blind_docking_20.prm

>  <SCORE>
22.0518

>  <SCORE.INTER>
-2.65955

>  <SCORE.INTER.CONST>
1

>  <SCORE.INTER.POLAR>
-1.05415

>  <SCORE.INTER.ROT>
12

>  <SCORE.INTER.SOLV>
34.2962

>  <SCORE.INTER.VDW>
-21.2913

>  <SCORE.INTER.norm>
-0.0511453

>  <SCORE.INTRA>
7.53862

>  <SCORE.INTRA.DIHEDRAL>
-0.499763

>  <SCORE.INTRA.DIHEDRAL.0>
32.9766

>  <SCORE.INTRA.POLAR>
0

>  <SCORE.INTRA.POLAR.0>
0

>  <SCORE.INTRA.REPUL>
0

>  <SCORE.INTRA.REPUL.0>
0

>  <SCORE.INTRA.SOLV>
2.36607

>  <SCORE.INTRA.SOLV.lig_0>
-114.358

>  <SCORE.INTRA.VDW>
6.60547

>  <SCORE.INTRA.VDW.0>
-8.24257

>  <SCORE.INTRA.norm>
0.144974

>  <SCORE.RESTR>
17.1728

>  <SCORE.RESTR.CAVITY>
17.1728

>  <SCORE.RESTR.norm>
0.330246

>  <SCORE.SYSTEM>
0

>  <SCORE.SYSTEM.CONST>
0

>  <SCORE.SYSTEM.DIHEDRAL>
0

>  <SCORE.SYSTEM.SOLV>
0

>  <SCORE.SYSTEM.norm>
0

>  <SCORE.heavy>
52

>  <SCORE.norm>
0.424074

>  <RMSD>
26.815

$$$$
2esj_lig
 OpenBabel11021811423D
libRbt.so/2013.1/901 2013/11/27
 52 56  0  0  0  0  0  0  0  0999 V2000
    4.2911    7.4318   11.8385 C   0  0  2  0  0  0  0  0  0  0  0  0
    4.8129    8.1615   10.7115 O   0  0  0  0  0  0  0  0  0  0  0  0
    7.7506   10.5363   12.7160 C   0  0  2  0  0  0  0  0  0  0  0  0
    8.8608   11.4454   13.0454 N   0  0  0  0  0  0  0  0  0  0  0  0
    4.6033   11.7983    9.8310 C   0  0  1  0  0  0  0  0  0  0  0  0
    4.3350   14.5157    6.5718 C   0  0  1  0  0  0  0  0  0  0  0  0
    1.6292   13.3344    2.1402 C   0  0  1  0  0  0  0  0  0  0  0  0
    2.9687    6.7478   11.3822 C   0  0  2  0  0  0  0  0  0  0  0  0
    3.1649    5.8857   10.2171 N   0  0  0  0  0  0  0  0  0  0  0  0
    8.2512    9.3827   11.7589 C   0  0  0  0  0  0  0  0  0  0  0  0
    3.5456   12.8804    9.6098 C   0  0  2  0  0  0  0  0  0  0  0  0
    2.4201   12.4014    8.8422 O   0  0  0  0  0  0  0  0  0  0  0  0
    2.7488   14.5410    6.4159 C   0  0  2  0  0  0  0  0  0  0  0  0
    2.2030   13.1646    6.2803 N   0  0  0  0  0  0  0  0  0  0  0  0
    0.2623   12.9133    2.6671 C   0  0  1  0  0  0  0  0  0  0  0  0
   -0.7302   13.1446    1.6473 O   0  0  0  0  0  0  0  0  0  0  0  0
    1.8680    7.8123   11.0747 C   0  0  0  0  0  0  0  0  0  0  0  0
    7.0606    8.3842   11.4642 C   0  0  2  0  0  0  0  0  0  0  0  0
    7.4959    7.3098   10.5658 N   0  0  0  0  0  0  0  0  0  0  0  0
    4.3661   13.9270    8.9131 C   0  0  2  0  0  0  0  0  0  0  0  0
    4.5819   13.5707    7.5712 O   0  0  0  0  0  0  0  0  0  0  0  0
    2.3611   15.5377    5.2363 C   0  0  1  0  0  0  0  0  0  0  0  0
    3.0036   16.7963    5.4641 O   0  0  0  0  0  0  0  0  0  0  0  0
    0.1543   11.4583    3.1074 C   0  0  1  0  0  0  0  0  0  0  0  0
   -1.2325   11.1882    3.3401 O   0  0  0  0  0  0  0  0  0  0  0  0
    1.6946    8.7310   12.3203 C   0  0  2  0  0  0  0  0  0  0  0  0
    0.6540    9.6745   12.1381 O   0  0  0  0  0  0  0  0  0  0  0  0
    5.8554    9.1447   10.8526 C   0  0  2  0  0  0  0  0  0  0  0  0
    5.7699   13.8559    9.5488 C   0  0  2  0  0  0  0  0  0  0  0  0
    5.8577   12.4885    9.9169 O   0  0  0  0  0  0  0  0  0  0  0  0
    2.9048   15.0217    3.8409 C   0  0  2  0  0  0  0  0  0  0  0  0
    2.2194   13.7861    3.6312 O   0  0  0  0  0  0  0  0  0  0  0  0
    0.6998   10.4620    2.0829 C   0  0  2  0  0  0  0  0  0  0  0  0
    0.8186    9.1970    2.7540 O   0  0  0  0  0  0  0  0  0  0  0  0
    3.0495    9.4245   12.6073 C   0  0  2  0  0  0  0  0  0  0  0  0
    4.0183    8.3771   12.8996 O   0  0  0  0  0  0  0  0  0  0  0  0
    5.3834   10.3753   11.6915 C   0  0  2  0  0  0  0  0  0  0  0  0
    4.3042   11.0555   10.9921 O   0  0  0  0  0  0  0  0  0  0  0  0
    6.0041   14.7278   10.7819 C   0  0  0  0  0  0  0  0  0  0  0  0
    7.3362   14.4680   11.2484 O   0  0  0  0  0  0  0  0  0  0  0  0
    4.3553   14.6480    4.0788 C   0  0  1  0  0  0  0  0  0  0  0  0
    4.9965   14.1265    5.2626 O   0  0  0  0  0  0  0  0  0  0  0  0
    1.9949   10.9613    1.4519 C   0  0  2  0  0  0  0  0  0  0  0  0
    2.2375   12.3628    1.2553 O   0  0  0  0  0  0  0  0  0  0  0  0
    3.0148   10.2979   13.8150 C   0  0  0  0  0  0  0  0  0  0  0  0
    3.1749    9.4683   14.9403 O   0  0  0  0  0  0  0  0  0  0  0  0
    6.5866   11.3240   12.0146 C   0  0  1  0  0  0  0  0  0  0  0  0
    6.1051   12.3253   12.9500 O   0  0  0  0  0  0  0  0  0  0  0  0
    5.1705   14.1999    2.8268 C   0  0  0  0  0  0  0  0  0  0  0  0
    4.4095   13.3189    1.9160 N   0  0  0  0  0  0  0  0  0  0  0  0
    2.7590   10.1776    0.3873 C   0  0  0  0  0  0  0  0  0  0  0  0
    4.1550   10.5774    0.3839 O   0  0  0  0  0  0  0  0  0  0  0  0
  1  2  1  6  0  0  0
  1  8  1  0  0  0  0
  1 36  1  0  0  0  0
  3  4  1  6  0  0  0
  3 10  1  0  0  0  0
  3 47  1  0  0  0  0
  5 11  1  0  0  0  0
  5 30  1  0  0  0  0
  5 38  1  1  0  0  0
  6 21  1  1  0  0  0
  6 42  1  0  0  0  0
  7 15  1  0  0  0  0
  7 44  1  0  0  0  0
  7 32  1  1  0  0  0
  8  9  1  6  0  0  0
  8 17  1  0  0  0  0
 11 12  1  6  0  0  0
 11 20  1  0  0  0  0
 13  6  1  0  0  0  0
 13 14  1  6  0  0  0
 15 16  1  6  0  0  0
 15 24  1  0  0  0  0
 17 26  1  0  0  0  0
 18 10  1  0  0  0  0
 18 19  1  6  0  0  0
 20 21  1  6  0  0  0
 20 29  1  0  0  0  0
 22 13  1  0  0  0  0
 22 23  1  1  0  0  0
 24 25  1  6  0  0  0
 24 33  1  0  0  0  0
 26 27  1  6  0  0  0
 26 35  1  0  0  0  0
 28  2  1  1  0  0  0
 28 18  1  0  0  0  0
 29 30  1  0  0  0  0
 29 39  1  1  0  0  0
 31 22  1  0  0  0  0
 31 32  1  1  0  0  0
 31 41  1  0  0  0  0
 33 34  1  1  0  0  0
 33 43  1  0  0  0  0
 35 36  1  0  0  0  0
 35 45  1  1  0  0  0
 37 28  1  0  0  0  0
 37 38  1  6  0  0  0
 39 40  1  0  0  0  0
 41 42  1  0  0  0  0
 41 49  1  6  0  0  0
 43 44  1  0  0  0  0
 43 51  1  6  0  0  0
 45 46  1  0  0  0  0
 47 37  1  0  0  0  0
 47 48  1  1  0  0  0
 49 50  1  0  0  0  0
 51 52  1  0  0  0  0
M  END
>  <CHROM.1>
165.92340589,-155.35758758,-77.17452079,-133.01338284,130.94956406,59.27931761
177.33076944,139.59663189,81.23021244,-72.10784165,-41.18745649,-156.32803320
3.75372920,11.52790919,7.88617419,1.07657378,0.90600042,2.26703365

>  <Name>
2esj_lig

>  <RI>
0

>  <Rbt.Current_Directory>
/home/itssahil/PROJECTS/Mol_Feturizer/New_Systems/rnas/2esj

>  <Rbt.Executable>
rbdock ($Id: //depot/dev/client3/rdock/2013.1/src/exe/rbdock.cxx#4 $)

>  <Rbt.Library>
libRbt.so (2013.1, Build901 2013/11/27)

>  <Rbt.Parameter_File>
/export/apps/rDock/src/rDock_2013.1_src/data/scripts/dock_solv.prm

>  <Rbt.Receptor>
prm/blind_docking_20.prm

>  <SCORE>
34.8749

>  <SCORE.INTER>
9.9683

>  <SCORE.INTER.CONST>
1

>  <SCORE.INTER.POLAR>
-2.38215

>  <SCORE.INTER.ROT>
12

>  <SCORE.INTER.SOLV>
40.5892

>  <SCORE.INTER.VDW>
-10.5437

>  <SCORE.INTER.norm>
0.191698

>  <SCORE.INTRA>
9.76753

>  <SCORE.INTRA.DIHEDRAL>
-2.50951

>  <SCORE.INTRA.DIHEDRAL.0>
32.9766

>  <SCORE.INTRA.POLAR>
0

>  <SCORE.INTRA.POLAR.0>
0

>  <SCORE.INTRA.REPUL>
0

>  <SCORE.INTRA.REPUL.0>
0

>  <SCORE.INTRA.SOLV>
4.8202

>  <SCORE.INTRA.SOLV.lig_0>
-114.358

>  <SCORE.INTRA.VDW>
8.61219

>  <SCORE.INTRA.VDW.0>
-8.24257

>  <SCORE.INTRA.norm>
0.187837

>  <SCORE.RESTR>
15.139

>  <SCORE.RESTR.CAVITY>
15.139

>  <SCORE.RESTR.norm>
0.291135

>  <SCORE.SYSTEM>
0

>  <SCORE.SYSTEM.CONST>
0

>  <SCORE.SYSTEM.DIHEDRAL>
0

>  <SCORE.SYSTEM.SOLV>
0

>  <SCORE.SYSTEM.norm>
0

>  <SCORE.heavy>
52

>  <SCORE.norm>
0.670671

>  <RMSD>
26.913

$$$$
2esj_lig
 OpenBabel11021811423D
libRbt.so/2013.1/901 2013/11/27
 52 56  0  0  0  0  0  0  0  0999 V2000
    6.4852    9.1744   13.6459 C   0  0  2  0  0  0  0  0  0  0  0  0
    6.1526   10.2889   12.7960 O   0  0  0  0  0  0  0  0  0  0  0  0
    1.9708   10.0304   11.9394 C   0  0  2  0  0  0  0  0  0  0  0  0
    0.5309   10.2980   11.7896 N   0  0  0  0  0  0  0  0  0  0  0  0
    4.6615   12.0476    9.1041 C   0  0  1  0  0  0  0  0  0  0  0  0
    2.8760   14.1988    5.8947 C   0  0  1  0  0  0  0  0  0  0  0  0
    2.0488   12.2138    1.0532 C   0  0  1  0  0  0  0  0  0  0  0  0
    8.0291    8.9809   13.5822 C   0  0  2  0  0  0  0  0  0  0  0  0
    8.7548   10.1926   13.9619 N   0  0  0  0  0  0  0  0  0  0  0  0
    2.4126   10.2294   13.4436 C   0  0  0  0  0  0  0  0  0  0  0  0
    3.9109   13.3688    9.2754 C   0  0  2  0  0  0  0  0  0  0  0  0
    2.5163   13.1723    9.5949 O   0  0  0  0  0  0  0  0  0  0  0  0
    1.7420   13.3253    5.1932 C   0  0  2  0  0  0  0  0  0  0  0  0
    2.2156   11.9389    4.9391 N   0  0  0  0  0  0  0  0  0  0  0  0
    0.6130   12.1554    1.5619 C   0  0  1  0  0  0  0  0  0  0  0  0
   -0.2904   12.2877    0.4462 O   0  0  0  0  0  0  0  0  0  0  0  0
    8.4746    8.5205   12.1579 C   0  0  0  0  0  0  0  0  0  0  0  0
    3.9477    9.8804   13.5960 C   0  0  2  0  0  0  0  0  0  0  0  0
    4.3870   10.0704   14.9823 N   0  0  0  0  0  0  0  0  0  0  0  0
    4.1532   13.9976    7.9338 C   0  0  2  0  0  0  0  0  0  0  0  0
    3.3256   13.4138    6.9599 O   0  0  0  0  0  0  0  0  0  0  0  0
    1.2125   14.1015    3.9079 C   0  0  1  0  0  0  0  0  0  0  0  0
    0.8533   15.4341    4.2875 O   0  0  0  0  0  0  0  0  0  0  0  0
    0.2420   10.8864    2.3199 C   0  0  1  0  0  0  0  0  0  0  0  0
   -1.1775   10.9045    2.5066 O   0  0  0  0  0  0  0  0  0  0  0  0
    7.6719    7.2441   11.7677 C   0  0  2  0  0  0  0  0  0  0  0  0
    8.0825    6.7261   10.5150 O   0  0  0  0  0  0  0  0  0  0  0  0
    4.7986   10.7515   12.6356 C   0  0  2  0  0  0  0  0  0  0  0  0
    5.5765   13.5717    7.5183 C   0  0  2  0  0  0  0  0  0  0  0  0
    5.7038   12.3097    8.1542 O   0  0  0  0  0  0  0  0  0  0  0  0
    2.3496   14.2555    2.8159 C   0  0  2  0  0  0  0  0  0  0  0  0
    2.6578   12.9131    2.4371 O   0  0  0  0  0  0  0  0  0  0  0  0
    0.6420    9.5982    1.5985 C   0  0  2  0  0  0  0  0  0  0  0  0
    0.5192    8.5308    2.5527 O   0  0  0  0  0  0  0  0  0  0  0  0
    6.1636    7.5960   11.7728 C   0  0  2  0  0  0  0  0  0  0  0  0
    5.8179    7.9991   13.1288 O   0  0  0  0  0  0  0  0  0  0  0  0
    4.3383   10.6947   11.1437 C   0  0  2  0  0  0  0  0  0  0  0  0
    5.1522   11.6016   10.3489 O   0  0  0  0  0  0  0  0  0  0  0  0
    6.7185   14.4823    7.9682 C   0  0  0  0  0  0  0  0  0  0  0  0
    7.0126   14.1632    9.3361 O   0  0  0  0  0  0  0  0  0  0  0  0
    3.5699   14.7588    3.5628 C   0  0  1  0  0  0  0  0  0  0  0  0
    3.9967   14.5065    4.9188 O   0  0  0  0  0  0  0  0  0  0  0  0
    2.0238    9.7176    0.9654 C   0  0  2  0  0  0  0  0  0  0  0  0
    2.5101   10.9730    0.4661 O   0  0  0  0  0  0  0  0  0  0  0  0
    5.2902    6.4296   11.4578 C   0  0  0  0  0  0  0  0  0  0  0  0
    4.0718    6.9350   10.9677 O   0  0  0  0  0  0  0  0  0  0  0  0
    2.8059   10.9934   11.0214 C   0  0  1  0  0  0  0  0  0  0  0  0
    2.4255   10.7307    9.6446 O   0  0  0  0  0  0  0  0  0  0  0  0
    4.8218   15.0988    2.6968 C   0  0  0  0  0  0  0  0  0  0  0  0
    6.0865   15.0806    3.4617 N   0  0  0  0  0  0  0  0  0  0  0  0
    2.6769    8.5884    0.1717 C   0  0  0  0  0  0  0  0  0  0  0  0
    4.1225    8.6840    0.2715 O   0  0  0  0  0  0  0  0  0  0  0  0
  1  2  1  6  0  0  0
  1  8  1  0  0  0  0
  1 36  1  0  0  0  0
  3  4  1  1  0  0  0
  3 10  1  0  0  0  0
  3 47  1  0  0  0  0
  5 11  1  0  0  0  0
  5 30  1  0  0  0  0
  5 38  1  1  0  0  0
  6 21  1  1  0  0  0
  6 42  1  0  0  0  0
  7 15  1  0  0  0  0
  7 44  1  0  0  0  0
  7 32  1  1  0  0  0
  8  9  1  6  0  0  0
  8 17  1  0  0  0  0
 11 12  1  6  0  0  0
 11 20  1  0  0  0  0
 13  6  1  0  0  0  0
 13 14  1  6  0  0  0
 15 16  1  6  0  0  0
 15 24  1  0  0  0  0
 17 26  1  0  0  0  0
 18 10  1  0  0  0  0
 18 19  1  1  0  0  0
 20 21  1  6  0  0  0
 20 29  1  0  0  0  0
 22 13  1  0  0  0  0
 22 23  1  1  0  0  0
 24 25  1  6  0  0  0
 24 33  1  0  0  0  0
 26 27  1  6  0  0  0
 26 35  1  0  0  0  0
 28  2  1  6  0  0  0
 28 18  1  0  0  0  0
 29 30  1  0  0  0  0
 29 39  1  1  0  0  0
 31 22  1  0  0  0  0
 31 32  1  1  0  0  0
 31 41  1  0  0  0  0
 33 34  1  1  0  0  0
 33 43  1  0  0  0  0
 35 36  1  0  0  0  0
 35 45  1  1  0  0  0
 37 28  1  0  0  0  0
 37 38  1  6  0  0  0
 39 40  1  0  0  0  0
 41 42  1  0  0  0  0
 41 49  1  6  0  0  0
 43 44  1  0  0  0  0
 43 51  1  6  0  0  0
 45 46  1  0  0  0  0
 47 37  1  0  0  0  0
 47 48  1  6  0  0  0
 49 50  1  0  0  0  0
 51 52  1  0  0  0  0
M  END
>  <CHROM.1>
-179.29275955,92.47501717,-168.12431982,-69.08812038,147.98203127,3.56195715
80.52781049,99.66527566,-156.71101146,-159.42671720,-158.07779337,-151.55337880
3.79535725,11.26077631,7.45949308,0.53523915,1.16546053,2.81913426

>  <Name>
2esj_lig

>  <RI>
0

>  <Rbt.Current_Directory>
/home/itssahil/PROJECTS/Mol_Feturizer/New_Systems/rnas/2esj

>  <Rbt.Executable>
rbdock ($Id: //depot/dev/client3/rdock/2013.1/src/exe/rbdock.cxx#4 $)

>  <Rbt.Library>
libRbt.so (2013.1, Build901 2013/11/27)

>  <Rbt.Parameter_File>
/export/apps/rDock/src/rDock_2013.1_src/data/scripts/dock_solv.prm

>  <Rbt.Receptor>
prm/blind_docking_20.prm

>  <SCORE>
37.5845

>  <SCORE.INTER>
17.0793

>  <SCORE.INTER.CONST>
1

>  <SCORE.INTER.POLAR>
-1.2565

>  <SCORE.INTER.ROT>
12

>  <SCORE.INTER.SOLV>
43.4037

>  <SCORE.INTER.VDW>
-10.4934

>  <SCORE.INTER.norm>
0.328447

>  <SCORE.INTRA>
8.70539

>  <SCORE.INTRA.DIHEDRAL>
-1.31758

>  <SCORE.INTRA.DIHEDRAL.0>
32.9766

>  <SCORE.INTRA.POLAR>
0

>  <SCORE.INTRA.POLAR.0>
0

>  <SCORE.INTRA.REPUL>
0

>  <SCORE.INTRA.REPUL.0>
0

>  <SCORE.INTRA.SOLV>
0.33965

>  <SCORE.INTRA.SOLV.lig_0>
-114.358

>  <SCORE.INTRA.VDW>
9.19436

>  <SCORE.INTRA.VDW.0>
-8.24257

>  <SCORE.INTRA.norm>
0.167411

>  <SCORE.RESTR>
11.7999

>  <SCORE.RESTR.CAVITY>
11.7999

>  <SCORE.RESTR.norm>
0.22692

>  <SCORE.SYSTEM>
0

>  <SCORE.SYSTEM.CONST>
0

>  <SCORE.SYSTEM.DIHEDRAL>
0

>  <SCORE.SYSTEM.SOLV>
0

>  <SCORE.SYSTEM.norm>
0

>  <SCORE.heavy>
52

>  <SCORE.norm>
0.722779

>  <RMSD>
26.993

$$$$
2esj_lig
 OpenBabel11021811423D
libRbt.so/2013.1/901 2013/11/27
 52 56  0  0  0  0  0  0  0  0999 V2000
    7.0260    7.9621   11.8793 C   0  0  2  0  0  0  0  0  0  0  0  0
    6.2898    8.8385   11.0048 O   0  0  0  0  0  0  0  0  0  0  0  0
    5.8286   12.3787   13.3590 C   0  0  2  0  0  0  0  0  0  0  0  0
    5.7427   13.7698   13.8331 N   0  0  0  0  0  0  0  0  0  0  0  0
    3.6963   11.0225    9.6499 C   0  0  1  0  0  0  0  0  0  0  0  0
    3.3330   13.8048    6.5108 C   0  0  1  0  0  0  0  0  0  0  0  0
    0.9741   13.2815    1.9689 C   0  0  1  0  0  0  0  0  0  0  0  0
    6.4173    6.5361   11.7347 C   0  0  2  0  0  0  0  0  0  0  0  0
    6.4335    6.0654   10.3500 N   0  0  0  0  0  0  0  0  0  0  0  0
    7.2268   12.1188   12.6698 C   0  0  0  0  0  0  0  0  0  0  0  0
    2.7608   12.2243    9.7881 C   0  0  2  0  0  0  0  0  0  0  0  0
    1.3945   11.9000    9.4512 O   0  0  0  0  0  0  0  0  0  0  0  0
    1.9049   14.4732    6.2762 C   0  0  2  0  0  0  0  0  0  0  0  0
    0.8525   13.4376    6.1005 N   0  0  0  0  0  0  0  0  0  0  0  0
   -0.3860   12.7052    2.3452 C   0  0  1  0  0  0  0  0  0  0  0  0
   -1.2274   12.6742    1.1749 O   0  0  0  0  0  0  0  0  0  0  0  0
    4.9589    6.4936   12.2919 C   0  0  0  0  0  0  0  0  0  0  0  0
    7.3233   10.6053   12.2207 C   0  0  2  0  0  0  0  0  0  0  0  0
    8.6082   10.3406   11.5650 N   0  0  0  0  0  0  0  0  0  0  0  0
    3.4156   13.1911    8.8444 C   0  0  2  0  0  0  0  0  0  0  0  0
    3.1232   12.8531    7.5122 O   0  0  0  0  0  0  0  0  0  0  0  0
    2.0163   15.5274    5.0882 C   0  0  1  0  0  0  0  0  0  0  0  0
    3.1044   16.4170    5.3596 O   0  0  0  0  0  0  0  0  0  0  0  0
   -0.3566   11.3028    2.9408 C   0  0  1  0  0  0  0  0  0  0  0  0
   -1.7108   10.8424    3.0067 O   0  0  0  0  0  0  0  0  0  0  0  0
    4.9649    7.0208   13.7575 C   0  0  2  0  0  0  0  0  0  0  0  0
    3.6822    6.9373   14.3524 O   0  0  0  0  0  0  0  0  0  0  0  0
    6.1493   10.2461   11.2733 C   0  0  2  0  0  0  0  0  0  0  0  0
    4.9327   12.9413    8.9687 C   0  0  2  0  0  0  0  0  0  0  0  0
    4.9782   11.5623    9.2995 O   0  0  0  0  0  0  0  0  0  0  0  0
    2.3705   14.8181    3.7168 C   0  0  2  0  0  0  0  0  0  0  0  0
    1.2519   13.9673    3.4615 O   0  0  0  0  0  0  0  0  0  0  0  0
    0.4785   10.3074    2.1335 C   0  0  2  0  0  0  0  0  0  0  0  0
    0.6663    9.1504    2.9646 O   0  0  0  0  0  0  0  0  0  0  0  0
    5.4967    8.4755   13.7504 C   0  0  2  0  0  0  0  0  0  0  0  0
    6.8587    8.4358   13.2364 O   0  0  0  0  0  0  0  0  0  0  0  0
    4.7370   10.5899   11.8463 C   0  0  2  0  0  0  0  0  0  0  0  0
    3.7209   10.2840   10.8512 O   0  0  0  0  0  0  0  0  0  0  0  0
    5.6694   13.7433   10.0410 C   0  0  0  0  0  0  0  0  0  0  0  0
    7.0074   13.2305   10.1215 O   0  0  0  0  0  0  0  0  0  0  0  0
    3.5286   13.8881    4.0232 C   0  0  1  0  0  0  0  0  0  0  0  0
    3.8420   13.1643    5.2325 O   0  0  0  0  0  0  0  0  0  0  0  0
    1.7737   10.9388    1.6353 C   0  0  2  0  0  0  0  0  0  0  0  0
    1.8450   12.3342    1.3046 O   0  0  0  0  0  0  0  0  0  0  0  0
    5.5915    9.0698   15.1143 C   0  0  0  0  0  0  0  0  0  0  0  0
    6.3125   10.2730   15.0010 O   0  0  0  0  0  0  0  0  0  0  0  0
    4.6794   12.0778   12.3312 C   0  0  1  0  0  0  0  0  0  0  0  0
    3.4134   12.2565   13.0200 O   0  0  0  0  0  0  0  0  0  0  0  0
    4.1508   13.1317    2.8093 C   0  0  0  0  0  0  0  0  0  0  0  0
    5.0541   13.9719    1.9951 N   0  0  0  0  0  0  0  0  0  0  0  0
    2.7990   10.1826    0.7934 C   0  0  0  0  0  0  0  0  0  0  0  0
    2.8304   10.7241   -0.5537 O   0  0  0  0  0  0  0  0  0  0  0  0
  1  2  1  6  0  0  0
  1  8  1  0  0  0  0
  1 36  1  0  0  0  0
  3  4  1  6  0  0  0
  3 10  1  0  0  0  0
  3 47  1  0  0  0  0
  5 11  1  0  0  0  0
  5 30  1  0  0  0  0
  5 38  1  1  0  0  0
  6 21  1  1  0  0  0
  6 42  1  0  0  0  0
  7 15  1  0  0  0  0
  7 44  1  0  0  0  0
  7 32  1  1  0  0  0
  8  9  1  6  0  0  0
  8 17  1  0  0  0  0
 11 12  1  6  0  0  0
 11 20  1  0  0  0  0
 13  6  1  0  0  0  0
 13 14  1  6  0  0  0
 15 16  1  6  0  0  0
 15 24  1  0  0  0  0
 17 26  1  0  0  0  0
 18 10  1  0  0  0  0
 18 19  1  6  0  0  0
 20 21  1  6  0  0  0
 20 29  1  0  0  0  0
 22 13  1  0  0  0  0
 22 23  1  1  0  0  0
 24 25  1  6  0  0  0
 24 33  1  0  0  0  0
 26 27  1  6  0  0  0
 26 35  1  0  0  0  0
 28  2  1  1  0  0  0
 28 18  1  0  0  0  0
 29 30  1  0  0  0  0
 29 39  1  1  0  0  0
 31 22  1  0  0  0  0
 31 32  1  1  0  0  0
 31 41  1  0  0  0  0
 33 34  1  1  0  0  0
 33 43  1  0  0  0  0
 35 36  1  0  0  0  0
 35 45  1  1  0  0  0
 37 28  1  0  0  0  0
 37 38  1  6  0  0  0
 39 40  1  0  0  0  0
 41 42  1  0  0  0  0
 41 49  1  6  0  0  0
 43 44  1  0  0  0  0
 43 51  1  6  0  0  0
 45 46  1  0  0  0  0
 47 37  1  0  0  0  0
 47 48  1  1  0  0  0
 49 50  1  0  0  0  0
 51 52  1  0  0  0  0
M  END
>  <CHROM.1>
152.17708393,-92.29831997,-96.84664266,-173.06962183,163.30086418,21.71456983
171.87739033,165.08529279,169.08613890,-65.37900066,78.09149623,111.57383599
3.77513938,11.42805014,8.03974711,0.40997794,1.14446570,2.97090180

>  <Name>
2esj_lig

>  <RI>
0

>  <Rbt.Current_Directory>
/home/itssahil/PROJECTS/Mol_Feturizer/New_Systems/rnas/2esj

>  <Rbt.Executable>
rbdock ($Id: //depot/dev/client3/rdock/2013.1/src/exe/rbdock.cxx#4 $)

>  <Rbt.Library>
libRbt.so (2013.1, Build901 2013/11/27)

>  <Rbt.Parameter_File>
/export/apps/rDock/src/rDock_2013.1_src/data/scripts/dock_solv.prm

>  <Rbt.Receptor>
prm/blind_docking_20.prm

>  <SCORE>
18.6814

>  <SCORE.INTER>
-0.0839734

>  <SCORE.INTER.CONST>
1

>  <SCORE.INTER.POLAR>
-1.47696

>  <SCORE.INTER.ROT>
12

>  <SCORE.INTER.SOLV>
39.2865

>  <SCORE.INTER.VDW>
-19.8283

>  <SCORE.INTER.norm>
-0.00161487

>  <SCORE.INTRA>
6.92627

>  <SCORE.INTRA.DIHEDRAL>
-6.13939

>  <SCORE.INTRA.DIHEDRAL.0>
32.9766

>  <SCORE.INTRA.POLAR>
0

>  <SCORE.INTRA.POLAR.0>
0

>  <SCORE.INTRA.REPUL>
0

>  <SCORE.INTRA.REPUL.0>
0

>  <SCORE.INTRA.SOLV>
3.2944

>  <SCORE.INTRA.SOLV.lig_0>
-114.358

>  <SCORE.INTRA.VDW>
8.34877

>  <SCORE.INTRA.VDW.0>
-8.24257

>  <SCORE.INTRA.norm>
0.133198

>  <SCORE.RESTR>
11.8391

>  <SCORE.RESTR.CAVITY>
11.8391

>  <SCORE.RESTR.norm>
0.227675

>  <SCORE.SYSTEM>
0

>  <SCORE.SYSTEM.CONST>
0

>  <SCORE.SYSTEM.DIHEDRAL>
0

>  <SCORE.SYSTEM.SOLV>
0

>  <SCORE.SYSTEM.norm>
0

>  <SCORE.heavy>
52

>  <SCORE.norm>
0.359257

>  <RMSD>
27.001

$$$$
2esj_lig
 OpenBabel11021811423D
libRbt.so/2013.1/901 2013/11/27
 52 56  0  0  0  0  0  0  0  0999 V2000
    7.6883    9.0999   11.3255 C   0  0  2  0  0  0  0  0  0  0  0  0
    6.2942    8.7448   11.2524 O   0  0  0  0  0  0  0  0  0  0  0  0
    2.3367    9.8696   12.4190 C   0  0  2  0  0  0  0  0  0  0  0  0
    1.1656   10.4918   13.0582 N   0  0  0  0  0  0  0  0  0  0  0  0
    4.6094   11.9229    9.0536 C   0  0  1  0  0  0  0  0  0  0  0  0
    3.1245   14.3648    6.1103 C   0  0  1  0  0  0  0  0  0  0  0  0
    0.5003   12.7298    1.7466 C   0  0  1  0  0  0  0  0  0  0  0  0
    8.4756    7.8236   11.7455 C   0  0  2  0  0  0  0  0  0  0  0  0
    8.2443    6.7051   10.8318 N   0  0  0  0  0  0  0  0  0  0  0  0
    3.2814    9.2271   13.5109 C   0  0  0  0  0  0  0  0  0  0  0  0
    3.8220   13.1421    9.5352 C   0  0  2  0  0  0  0  0  0  0  0  0
    2.4540   12.8187    9.8656 O   0  0  0  0  0  0  0  0  0  0  0  0
    1.5865   14.5966    5.7610 C   0  0  2  0  0  0  0  0  0  0  0  0
    0.8195   13.3263    5.8558 N   0  0  0  0  0  0  0  0  0  0  0  0
   -0.4698   11.7848    2.4462 C   0  0  1  0  0  0  0  0  0  0  0  0
   -1.6619   11.6525    1.6464 O   0  0  0  0  0  0  0  0  0  0  0  0
    8.1130    7.4001   13.2043 C   0  0  0  0  0  0  0  0  0  0  0  0
    4.5019    8.5130   12.8022 C   0  0  2  0  0  0  0  0  0  0  0  0
    5.4026    7.9192   13.7956 N   0  0  0  0  0  0  0  0  0  0  0  0
    3.9715   14.0507    8.3494 C   0  0  2  0  0  0  0  0  0  0  0  0
    3.1156   13.6485    7.3101 O   0  0  0  0  0  0  0  0  0  0  0  0
    1.4816   15.3428    4.3584 C   0  0  1  0  0  0  0  0  0  0  0  0
    2.3150   16.5061    4.3898 O   0  0  0  0  0  0  0  0  0  0  0  0
    0.0689   10.3864    2.7228 C   0  0  1  0  0  0  0  0  0  0  0  0
   -1.0359    9.5851    3.1560 O   0  0  0  0  0  0  0  0  0  0  0  0
    8.3453    8.6134   14.1528 C   0  0  2  0  0  0  0  0  0  0  0  0
    8.1086    8.2755   15.5078 O   0  0  0  0  0  0  0  0  0  0  0  0
    5.2721    9.5188   11.9077 C   0  0  2  0  0  0  0  0  0  0  0  0
    5.3855   13.7881    7.7913 C   0  0  2  0  0  0  0  0  0  0  0  0
    5.5907   12.4274    8.1372 O   0  0  0  0  0  0  0  0  0  0  0  0
    2.0412   14.4426    3.1812 C   0  0  2  0  0  0  0  0  0  0  0  0
    1.1684   13.3121    3.1572 O   0  0  0  0  0  0  0  0  0  0  0  0
    0.7273    9.7281    1.5090 C   0  0  2  0  0  0  0  0  0  0  0  0
    1.4467    8.5831    1.9950 O   0  0  0  0  0  0  0  0  0  0  0  0
    7.4352    9.7772   13.6878 C   0  0  2  0  0  0  0  0  0  0  0  0
    7.8389   10.1275   12.3331 O   0  0  0  0  0  0  0  0  0  0  0  0
    4.3732   10.2808   10.8818 C   0  0  2  0  0  0  0  0  0  0  0  0
    5.1799   11.2468   10.1521 O   0  0  0  0  0  0  0  0  0  0  0  0
    6.5161   14.6345    8.3751 C   0  0  0  0  0  0  0  0  0  0  0  0
    6.8626   14.0732    9.6496 O   0  0  0  0  0  0  0  0  0  0  0  0
    3.3776   13.9157    3.6675 C   0  0  1  0  0  0  0  0  0  0  0  0
    3.8147   13.5883    5.0041 O   0  0  0  0  0  0  0  0  0  0  0  0
    1.5818   10.7211    0.7292 C   0  0  2  0  0  0  0  0  0  0  0  0
    1.2347   12.1128    0.6616 O   0  0  0  0  0  0  0  0  0  0  0  0
    7.6093   11.0156   14.4994 C   0  0  0  0  0  0  0  0  0  0  0  0
    6.8307   10.8706   15.6626 O   0  0  0  0  0  0  0  0  0  0  0  0
    3.1445   10.9370   11.5971 C   0  0  1  0  0  0  0  0  0  0  0  0
    2.2677   11.4512   10.5598 O   0  0  0  0  0  0  0  0  0  0  0  0
    4.2033   13.0721    2.6480 C   0  0  0  0  0  0  0  0  0  0  0  0
    5.2274   13.8589    1.9291 N   0  0  0  0  0  0  0  0  0  0  0  0
    2.3499   10.3456   -0.5360 C   0  0  0  0  0  0  0  0  0  0  0  0
    3.5340    9.5803   -0.1883 O   0  0  0  0  0  0  0  0  0  0  0  0
  1  2  1  1  0  0  0
  1  8  1  0  0  0  0
  1 36  1  0  0  0  0
  3  4  1  1  0  0  0
  3 10  1  0  0  0  0
  3 47  1  0  0  0  0
  5 11  1  0  0  0  0
  5 30  1  0  0  0  0
  5 38  1  1  0  0  0
  6 21  1  1  0  0  0
  6 42  1  0  0  0  0
  7 15  1  0  0  0  0
  7 44  1  0  0  0  0
  7 32  1  1  0  0  0
  8  9  1  6  0  0  0
  8 17  1  0  0  0  0
 11 12  1  6  0  0  0
 11 20  1  0  0  0  0
 13  6  1  0  0  0  0
 13 14  1  6  0  0  0
 15 16  1  6  0  0  0
 15 24  1  0  0  0  0
 17 26  1  0  0  0  0
 18 10  1  0  0  0  0
 18 19  1  1  0  0  0
 20 21  1  6  0  0  0
 20 29  1  0  0  0  0
 22 13  1  0  0  0  0
 22 23  1  1  0  0  0
 24 25  1  6  0  0  0
 24 33  1  0  0  0  0
 26 27  1  1  0  0  0
 26 35  1  0  0  0  0
 28  2  1  6  0  0  0
 28 18  1  0  0  0  0
 29 30  1  0  0  0  0
 29 39  1  1  0  0  0
 31 22  1  0  0  0  0
 31 32  1  1  0  0  0
 31 41  1  0  0  0  0
 33 34  1  1  0  0  0
 33 43  1  0  0  0  0
 35 36  1  0  0  0  0
 35 45  1  1  0  0  0
 37 28  1  0  0  0  0
 37 38  1  1  0  0  0
 39 40  1  0  0  0  0
 41 42  1  0  0  0  0
 41 49  1  6  0  0  0
 43 44  1  0  0  0  0
 43 51  1  6  0  0  0
 45 46  1  0  0  0  0
 47 37  1  0  0  0  0
 47 48  1  6  0  0  0
 49 50  1  0  0  0  0
 51 52  1  0  0  0  0
M  END
>  <CHROM.1>
129.76968486,84.31564541,-133.67432436,-169.46396991,-179.16060155,-125.11598033
78.67504926,132.63694137,-82.27459936,171.77386634,96.50857831,-75.67485688
3.87433248,11.38883753,7.76229555,0.15557361,1.14342824,-3.06970157

>  <Name>
2esj_lig

>  <RI>
0

>  <Rbt.Current_Directory>
/home/itssahil/PROJECTS/Mol_Feturizer/New_Systems/rnas/2esj

>  <Rbt.Executable>
rbdock ($Id: //depot/dev/client3/rdock/2013.1/src/exe/rbdock.cxx#4 $)

>  <Rbt.Library>
libRbt.so (2013.1, Build901 2013/11/27)

>  <Rbt.Parameter_File>
/export/apps/rDock/src/rDock_2013.1_src/data/scripts/dock_solv.prm

>  <Rbt.Receptor>
prm/blind_docking_20.prm

>  <SCORE>
41.3224

>  <SCORE.INTER>
2.26542

>  <SCORE.INTER.CONST>
1

>  <SCORE.INTER.POLAR>
-0.744042

>  <SCORE.INTER.ROT>
12

>  <SCORE.INTER.SOLV>
44.7101

>  <SCORE.INTER.VDW>
-22.513

>  <SCORE.INTER.norm>
0.0435657

>  <SCORE.INTRA>
27.2946

>  <SCORE.INTRA.DIHEDRAL>
4.38847

>  <SCORE.INTRA.DIHEDRAL.0>
32.9766

>  <SCORE.INTRA.POLAR>
0

>  <SCORE.INTRA.POLAR.0>
0

>  <SCORE.INTRA.REPUL>
0.0540608

>  <SCORE.INTRA.REPUL.0>
0

>  <SCORE.INTRA.SOLV>
2.26493

>  <SCORE.INTRA.SOLV.lig_0>
-114.358

>  <SCORE.INTRA.VDW>
23.6976

>  <SCORE.INTRA.VDW.0>
-8.24257

>  <SCORE.INTRA.norm>
0.524896

>  <SCORE.RESTR>
11.7624

>  <SCORE.RESTR.CAVITY>
11.7624

>  <SCORE.RESTR.norm>
0.2262

>  <SCORE.SYSTEM>
0

>  <SCORE.SYSTEM.CONST>
0

>  <SCORE.SYSTEM.DIHEDRAL>
0

>  <SCORE.SYSTEM.SOLV>
0

>  <SCORE.SYSTEM.norm>
0

>  <SCORE.heavy>
52

>  <SCORE.norm>
0.794661

>  <RMSD>
27.023

$$$$
2esj_lig
 OpenBabel11021811423D
libRbt.so/2013.1/901 2013/11/27
 52 56  0  0  0  0  0  0  0  0999 V2000
    6.7600    8.8290   11.1135 C   0  0  2  0  0  0  0  0  0  0  0  0
    5.4209    8.5836   11.5841 O   0  0  0  0  0  0  0  0  0  0  0  0
    1.9139   10.4905   13.1180 C   0  0  2  0  0  0  0  0  0  0  0  0
    0.9659   11.3822   13.8061 N   0  0  0  0  0  0  0  0  0  0  0  0
    3.8310   11.9785    9.4092 C   0  0  1  0  0  0  0  0  0  0  0  0
    2.4598   14.7502    6.9264 C   0  0  1  0  0  0  0  0  0  0  0  0
    2.1665   11.2791    3.4193 C   0  0  1  0  0  0  0  0  0  0  0  0
    7.5424    7.4857   11.2052 C   0  0  2  0  0  0  0  0  0  0  0  0
    6.8888    6.4124   10.4569 N   0  0  0  0  0  0  0  0  0  0  0  0
    2.9435    9.8816   14.1508 C   0  0  0  0  0  0  0  0  0  0  0  0
    4.0296   13.3876    9.9690 C   0  0  2  0  0  0  0  0  0  0  0  0
    3.0106   13.7484   10.9265 O   0  0  0  0  0  0  0  0  0  0  0  0
    1.5391   13.6162    6.2881 C   0  0  2  0  0  0  0  0  0  0  0  0
    2.0963   12.2633    6.5531 N   0  0  0  0  0  0  0  0  0  0  0  0
    2.7828   11.3417    2.0265 C   0  0  1  0  0  0  0  0  0  0  0  0
    2.8010   10.0175    1.4567 O   0  0  0  0  0  0  0  0  0  0  0  0
    7.7347    7.0533   12.6935 C   0  0  0  0  0  0  0  0  0  0  0  0
    3.9152    8.8818   13.4041 C   0  0  2  0  0  0  0  0  0  0  0  0
    4.8909    8.3123   14.3392 N   0  0  0  0  0  0  0  0  0  0  0  0
    3.9978   14.1927    8.7021 C   0  0  2  0  0  0  0  0  0  0  0  0
    2.6775   14.3362    8.2431 O   0  0  0  0  0  0  0  0  0  0  0  0
    1.2938   13.9535    4.7515 C   0  0  1  0  0  0  0  0  0  0  0  0
    0.8211   15.3002    4.6432 O   0  0  0  0  0  0  0  0  0  0  0  0
    2.0767   12.2674    1.0432 C   0  0  1  0  0  0  0  0  0  0  0  0
    2.6383   12.0187   -0.2503 O   0  0  0  0  0  0  0  0  0  0  0  0
    8.4103    8.2202   13.4731 C   0  0  2  0  0  0  0  0  0  0  0  0
    8.6853    7.8662   14.8167 O   0  0  0  0  0  0  0  0  0  0  0  0
    4.6411    9.6021   12.2382 C   0  0  2  0  0  0  0  0  0  0  0  0
    4.6735   13.3163    7.6274 C   0  0  2  0  0  0  0  0  0  0  0  0
    4.3653   12.0069    8.0784 O   0  0  0  0  0  0  0  0  0  0  0  0
    2.6444   13.9023    3.9253 C   0  0  2  0  0  0  0  0  0  0  0  0
    3.0676   12.5418    4.0266 O   0  0  0  0  0  0  0  0  0  0  0  0
    0.5615   12.0653    0.9854 C   0  0  2  0  0  0  0  0  0  0  0  0
    0.0178   13.1901    0.2755 O   0  0  0  0  0  0  0  0  0  0  0  0
    7.4885    9.4619   13.3877 C   0  0  2  0  0  0  0  0  0  0  0  0
    7.3682    9.8154   11.9801 O   0  0  0  0  0  0  0  0  0  0  0  0
    3.6836   10.3303   11.2413 C   0  0  2  0  0  0  0  0  0  0  0  0
    4.4688   11.0315   10.2372 O   0  0  0  0  0  0  0  0  0  0  0  0
    6.1886   13.4590    7.4860 C   0  0  0  0  0  0  0  0  0  0  0  0
    6.7364   13.5809    8.8069 O   0  0  0  0  0  0  0  0  0  0  0  0
    3.6489   14.7029    4.7316 C   0  0  1  0  0  0  0  0  0  0  0  0
    3.7637   14.8768    6.1603 O   0  0  0  0  0  0  0  0  0  0  0  0
   -0.0283   11.8564    2.3757 C   0  0  2  0  0  0  0  0  0  0  0  0
    0.7201   11.2056    3.4140 O   0  0  0  0  0  0  0  0  0  0  0  0
    8.0600   10.6617   14.0632 C   0  0  0  0  0  0  0  0  0  0  0  0
    9.4615   10.5445   14.0166 O   0  0  0  0  0  0  0  0  0  0  0  0
    2.6973   11.2761   12.0061 C   0  0  1  0  0  0  0  0  0  0  0  0
    1.7267   11.7574   11.0389 O   0  0  0  0  0  0  0  0  0  0  0  0
    5.0548   14.9029    4.0864 C   0  0  0  0  0  0  0  0  0  0  0  0
    5.6745   16.2022    4.4217 N   0  0  0  0  0  0  0  0  0  0  0  0
   -1.5165   11.6196    2.6223 C   0  0  0  0  0  0  0  0  0  0  0  0
   -1.7025   10.4165    3.4139 O   0  0  0  0  0  0  0  0  0  0  0  0
  1  2  1  1  0  0  0
  1  8  1  0  0  0  0
  1 36  1  0  0  0  0
  3  4  1  1  0  0  0
  3 10  1  0  0  0  0
  3 47  1  0  0  0  0
  5 11  1  0  0  0  0
  5 30  1  0  0  0  0
  5 38  1  1  0  0  0
  6 21  1  1  0  0  0
  6 42  1  0  0  0  0
  7 15  1  0  0  0  0
  7 44  1  0  0  0  0
  7 32  1  1  0  0  0
  8  9  1  6  0  0  0
  8 17  1  0  0  0  0
 11 12  1  1  0  0  0
 11 20  1  0  0  0  0
 13  6  1  0  0  0  0
 13 14  1  6  0  0  0
 15 16  1  6  0  0  0
 15 24  1  0  0  0  0
 17 26  1  0  0  0  0
 18 10  1  0  0  0  0
 18 19  1  1  0  0  0
 20 21  1  6  0  0  0
 20 29  1  0  0  0  0
 22 13  1  0  0  0  0
 22 23  1  1  0  0  0
 24 25  1  6  0  0  0
 24 33  1  0  0  0  0
 26 27  1  1  0  0  0
 26 35  1  0  0  0  0
 28  2  1  6  0  0  0
 28 18  1  0  0  0  0
 29 30  1  0  0  0  0
 29 39  1  1  0  0  0
 31 22  1  0  0  0  0
 31 32  1  1  0  0  0
 31 41  1  0  0  0  0
 33 34  1  1  0  0  0
 33 43  1  0  0  0  0
 35 36  1  0  0  0  0
 35 45  1  1  0  0  0
 37 28  1  0  0  0  0
 37 38  1  6  0  0  0
 39 40  1  0  0  0  0
 41 42  1  0  0  0  0
 41 49  1  1  0  0  0
 43 44  1  0  0  0  0
 43 51  1  6  0  0  0
 45 46  1  0  0  0  0
 47 37  1  0  0  0  0
 47 48  1  6  0  0  0
 49 50  1  0  0  0  0
 51 52  1  0  0  0  0
M  END
>  <CHROM.1>
149.43521623,96.59641602,124.30427124,88.04100824,-163.99146844,-139.22268126
39.73524653,62.44248273,27.94871022,-166.83328853,146.53577225,126.99029742
3.80306537,11.59094779,8.06395184,-1.13264445,0.34065169,-1.40456013

>  <Name>
2esj_lig

>  <RI>
0

>  <Rbt.Current_Directory>
/home/itssahil/PROJECTS/Mol_Feturizer/New_Systems/rnas/2esj

>  <Rbt.Executable>
rbdock ($Id: //depot/dev/client3/rdock/2013.1/src/exe/rbdock.cxx#4 $)

>  <Rbt.Library>
libRbt.so (2013.1, Build901 2013/11/27)

>  <Rbt.Parameter_File>
/export/apps/rDock/src/rDock_2013.1_src/data/scripts/dock_solv.prm

>  <Rbt.Receptor>
prm/blind_docking_20.prm

>  <SCORE>
159.823

>  <SCORE.INTER>
128.821

>  <SCORE.INTER.CONST>
1

>  <SCORE.INTER.POLAR>
-0.192946

>  <SCORE.INTER.ROT>
12

>  <SCORE.INTER.SOLV>
42.609

>  <SCORE.INTER.VDW>
60.7211

>  <SCORE.INTER.norm>
2.47733

>  <SCORE.INTRA>
17.6617

>  <SCORE.INTRA.DIHEDRAL>
4.21352

>  <SCORE.INTRA.DIHEDRAL.0>
32.9766

>  <SCORE.INTRA.POLAR>
0

>  <SCORE.INTRA.POLAR.0>
0

>  <SCORE.INTRA.REPUL>
0.0231962

>  <SCORE.INTRA.REPUL.0>
0

>  <SCORE.INTRA.SOLV>
4.81241

>  <SCORE.INTRA.SOLV.lig_0>
-114.358

>  <SCORE.INTRA.VDW>
13.0328

>  <SCORE.INTRA.VDW.0>
-8.24257

>  <SCORE.INTRA.norm>
0.339649

>  <SCORE.RESTR>
13.3398

>  <SCORE.RESTR.CAVITY>
13.3398

>  <SCORE.RESTR.norm>
0.256535

>  <SCORE.SYSTEM>
0

>  <SCORE.SYSTEM.CONST>
0

>  <SCORE.SYSTEM.DIHEDRAL>
0

>  <SCORE.SYSTEM.SOLV>
0

>  <SCORE.SYSTEM.norm>
0

>  <SCORE.heavy>
52

>  <SCORE.norm>
3.07352

>  <RMSD>
27.061

$$$$
2esj_lig
 OpenBabel11021811423D
libRbt.so/2013.1/901 2013/11/27
 52 56  0  0  0  0  0  0  0  0999 V2000
    6.5643    9.4030   13.6419 C   0  0  2  0  0  0  0  0  0  0  0  0
    6.2004   10.4607   12.7343 O   0  0  0  0  0  0  0  0  0  0  0  0
    2.0290   10.1637   11.8404 C   0  0  2  0  0  0  0  0  0  0  0  0
    0.5855   10.4118   11.6920 N   0  0  0  0  0  0  0  0  0  0  0  0
    4.7236   12.3031    9.0834 C   0  0  1  0  0  0  0  0  0  0  0  0
    3.2053   14.4265    5.7457 C   0  0  1  0  0  0  0  0  0  0  0  0
    2.0858   12.0381    1.1998 C   0  0  1  0  0  0  0  0  0  0  0  0
    8.1074    9.2157   13.5487 C   0  0  2  0  0  0  0  0  0  0  0  0
    8.8332   10.4532   13.8335 N   0  0  0  0  0  0  0  0  0  0  0  0
    2.4584   10.3090   13.3543 C   0  0  0  0  0  0  0  0  0  0  0  0
    4.0664   13.6765    9.2265 C   0  0  2  0  0  0  0  0  0  0  0  0
    2.6640   13.5840    9.5580 O   0  0  0  0  0  0  0  0  0  0  0  0
    1.9618   13.6837    5.0799 C   0  0  2  0  0  0  0  0  0  0  0  0
    2.1928   12.2167    5.0054 N   0  0  0  0  0  0  0  0  0  0  0  0
    0.6965   12.4223    1.6956 C   0  0  1  0  0  0  0  0  0  0  0  0
   -0.1855   12.5712    0.5650 O   0  0  0  0  0  0  0  0  0  0  0  0
    8.5188    8.6711   12.1441 C   0  0  0  0  0  0  0  0  0  0  0  0
    3.9986    9.9812   13.5025 C   0  0  2  0  0  0  0  0  0  0  0  0
    4.4262   10.1222   14.8982 N   0  0  0  0  0  0  0  0  0  0  0  0
    4.3421   14.2550    7.8688 C   0  0  2  0  0  0  0  0  0  0  0  0
    3.4696   13.7064    6.9137 O   0  0  0  0  0  0  0  0  0  0  0  0
    1.6255   14.3832    3.6897 C   0  0  1  0  0  0  0  0  0  0  0  0
    1.4930   15.7927    3.9011 O   0  0  0  0  0  0  0  0  0  0  0  0
    0.0559   11.4369    2.6655 C   0  0  1  0  0  0  0  0  0  0  0  0
   -1.3101   11.8331    2.8311 O   0  0  0  0  0  0  0  0  0  0  0  0
    7.7163    7.3679   11.8549 C   0  0  2  0  0  0  0  0  0  0  0  0
    8.0978    6.7763   10.6259 O   0  0  0  0  0  0  0  0  0  0  0  0
    4.8393   10.9056   12.5839 C   0  0  2  0  0  0  0  0  0  0  0  0
    5.7299   13.7225    7.4563 C   0  0  2  0  0  0  0  0  0  0  0  0
    5.7748   12.4703    8.1219 O   0  0  0  0  0  0  0  0  0  0  0  0
    2.8116   14.2117    2.6540 C   0  0  2  0  0  0  0  0  0  0  0  0
    2.8923   12.8015    2.4416 O   0  0  0  0  0  0  0  0  0  0  0  0
    0.1081    9.9833    2.1919 C   0  0  2  0  0  0  0  0  0  0  0  0
   -0.2365    9.1643    3.3211 O   0  0  0  0  0  0  0  0  0  0  0  0
    6.2059    7.7099   11.8788 C   0  0  2  0  0  0  0  0  0  0  0  0
    5.8930    8.1938   13.2163 O   0  0  0  0  0  0  0  0  0  0  0  0
    4.3889   10.9016   11.0879 C   0  0  2  0  0  0  0  0  0  0  0  0
    5.1910   11.8542   10.3360 O   0  0  0  0  0  0  0  0  0  0  0  0
    6.9347   14.5630    7.8780 C   0  0  0  0  0  0  0  0  0  0  0  0
    6.8383   15.8258    7.2031 O   0  0  0  0  0  0  0  0  0  0  0  0
    4.0730   14.5830    3.4099 C   0  0  1  0  0  0  0  0  0  0  0  0
    4.3981   14.4219    4.8074 O   0  0  0  0  0  0  0  0  0  0  0  0
    1.4556    9.6484    1.5622 C   0  0  2  0  0  0  0  0  0  0  0  0
    2.2136   10.6386    0.8503 O   0  0  0  0  0  0  0  0  0  0  0  0
    5.3338    6.5207   11.6599 C   0  0  0  0  0  0  0  0  0  0  0  0
    5.1440    6.3866   10.2720 O   0  0  0  0  0  0  0  0  0  0  0  0
    2.8522   11.1778   10.9678 C   0  0  1  0  0  0  0  0  0  0  0  0
    2.4846   10.9649    9.5790 O   0  0  0  0  0  0  0  0  0  0  0  0
    5.3965   14.6003    2.5848 C   0  0  0  0  0  0  0  0  0  0  0  0
    6.5017   15.3088    3.2639 N   0  0  0  0  0  0  0  0  0  0  0  0
    1.7894    8.2720    0.9914 C   0  0  0  0  0  0  0  0  0  0  0  0
    0.6369    7.7329    0.2915 O   0  0  0  0  0  0  0  0  0  0  0  0
  1  2  1  6  0  0  0
  1  8  1  0  0  0  0
  1 36  1  0  0  0  0
  3  4  1  1  0  0  0
  3 10  1  0  0  0  0
  3 47  1  0  0  0  0
  5 11  1  0  0  0  0
  5 30  1  0  0  0  0
  5 38  1  1  0  0  0
  6 21  1  1  0  0  0
  6 42  1  0  0  0  0
  7 15  1  0  0  0  0
  7 44  1  0  0  0  0
  7 32  1  1  0  0  0
  8  9  1  6  0  0  0
  8 17  1  0  0  0  0
 11 12  1  6  0  0  0
 11 20  1  0  0  0  0
 13  6  1  0  0  0  0
 13 14  1  6  0  0  0
 15 16  1  6  0  0  0
 15 24  1  0  0  0  0
 17 26  1  0  0  0  0
 18 10  1  0  0  0  0
 18 19  1  1  0  0  0
 20 21  1  6  0  0  0
 20 29  1  0  0  0  0
 22 13  1  0  0  0  0
 22 23  1  1  0  0  0
 24 25  1  6  0  0  0
 24 33  1  0  0  0  0
 26 27  1  6  0  0  0
 26 35  1  0  0  0  0
 28  2  1  6  0  0  0
 28 18  1  0  0  0  0
 29 30  1  0  0  0  0
 29 39  1  1  0  0  0
 31 22  1  0  0  0  0
 31 32  1  1  0  0  0
 31 41  1  0  0  0  0
 33 34  1  1  0  0  0
 33 43  1  0  0  0  0
 35 36  1  0  0  0  0
 35 45  1  1  0  0  0
 37 28  1  0  0  0  0
 37 38  1  6  0  0  0
 39 40  1  0  0  0  0
 41 42  1  0  0  0  0
 41 49  1  6  0  0  0
 43 44  1  0  0  0  0
 43 51  1  6  0  0  0
 45 46  1  0  0  0  0
 47 37  1  0  0  0  0
 47 48  1  6  0  0  0
 49 50  1  0  0  0  0
 51 52  1  0  0  0  0
M  END
>  <CHROM.1>
-179.17995093,99.50134932,-167.61138895,-62.13480736,156.25409922,-2.69020173
-64.11502337,92.97741491,-88.54509023,-161.81162463,164.37584515,39.58966182
3.79981436,11.41958773,7.43765786,0.83600006,0.98765119,2.48023534

>  <Name>
2esj_lig

>  <RI>
0

>  <Rbt.Current_Directory>
/home/itssahil/PROJECTS/Mol_Feturizer/New_Systems/rnas/2esj

>  <Rbt.Executable>
rbdock ($Id: //depot/dev/client3/rdock/2013.1/src/exe/rbdock.cxx#4 $)

>  <Rbt.Library>
libRbt.so (2013.1, Build901 2013/11/27)

>  <Rbt.Parameter_File>
/export/apps/rDock/src/rDock_2013.1_src/data/scripts/dock_solv.prm

>  <Rbt.Receptor>
prm/blind_docking_20.prm

>  <SCORE>
7.16824

>  <SCORE.INTER>
-12.8672

>  <SCORE.INTER.CONST>
1

>  <SCORE.INTER.POLAR>
-2.70838

>  <SCORE.INTER.ROT>
12

>  <SCORE.INTER.SOLV>
43.1845

>  <SCORE.INTER.VDW>
-25.5451

>  <SCORE.INTER.norm>
-0.247446

>  <SCORE.INTRA>
6.86379

>  <SCORE.INTRA.DIHEDRAL>
-4.19911

>  <SCORE.INTRA.DIHEDRAL.0>
32.9766

>  <SCORE.INTRA.POLAR>
0

>  <SCORE.INTRA.POLAR.0>
0

>  <SCORE.INTRA.REPUL>
0

>  <SCORE.INTRA.REPUL.0>
0

>  <SCORE.INTRA.SOLV>
0.29279

>  <SCORE.INTRA.SOLV.lig_0>
-114.358

>  <SCORE.INTRA.VDW>
8.81695

>  <SCORE.INTRA.VDW.0>
-8.24257

>  <SCORE.INTRA.norm>
0.131996

>  <SCORE.RESTR>
13.1717

>  <SCORE.RESTR.CAVITY>
13.1717

>  <SCORE.RESTR.norm>
0.253301

>  <SCORE.SYSTEM>
0

>  <SCORE.SYSTEM.CONST>
0

>  <SCORE.SYSTEM.DIHEDRAL>
0

>  <SCORE.SYSTEM.SOLV>
0

>  <SCORE.SYSTEM.norm>
0

>  <SCORE.heavy>
52

>  <SCORE.norm>
0.137851

>  <RMSD>
27.132

$$$$
2esj_lig
 OpenBabel11021811423D
libRbt.so/2013.1/901 2013/11/27
 52 56  0  0  0  0  0  0  0  0999 V2000
    4.4766    8.4460   11.8115 C   0  0  2  0  0  0  0  0  0  0  0  0
    4.6609    9.2835   10.6541 O   0  0  0  0  0  0  0  0  0  0  0  0
    7.7088   11.8996   12.1218 C   0  0  2  0  0  0  0  0  0  0  0  0
    8.8191   12.8576   12.2513 N   0  0  0  0  0  0  0  0  0  0  0  0
    4.1282   12.3821    9.3079 C   0  0  1  0  0  0  0  0  0  0  0  0
    3.1006   13.6603    5.3926 C   0  0  1  0  0  0  0  0  0  0  0  0
    2.1276   10.5486    1.3399 C   0  0  1  0  0  0  0  0  0  0  0  0
    2.9671    8.0700   11.8824 C   0  0  2  0  0  0  0  0  0  0  0  0
    2.5008    7.4197   10.6582 N   0  0  0  0  0  0  0  0  0  0  0  0
    8.1477   10.6669   11.2356 C   0  0  0  0  0  0  0  0  0  0  0  0
    3.0910   13.4308    8.9042 C   0  0  2  0  0  0  0  0  0  0  0  0
    1.7924   12.8519    8.6513 O   0  0  0  0  0  0  0  0  0  0  0  0
    2.0206   12.5859    4.9230 C   0  0  2  0  0  0  0  0  0  0  0  0
    2.5839   11.2103    4.9604 N   0  0  0  0  0  0  0  0  0  0  0  0
    1.2510   11.5925    0.6577 C   0  0  1  0  0  0  0  0  0  0  0  0
    0.9549   11.1582   -0.6847 O   0  0  0  0  0  0  0  0  0  0  0  0
    2.0926    9.3293   12.1799 C   0  0  0  0  0  0  0  0  0  0  0  0
    6.9632    9.6218   11.1571 C   0  0  2  0  0  0  0  0  0  0  0  0
    7.3405    8.4726   10.3278 N   0  0  0  0  0  0  0  0  0  0  0  0
    3.7519   14.0165    7.6900 C   0  0  2  0  0  0  0  0  0  0  0  0
    3.6132   13.1537    6.5897 O   0  0  0  0  0  0  0  0  0  0  0  0
    1.4265   13.0316    3.5146 C   0  0  1  0  0  0  0  0  0  0  0  0
    0.9824   14.3890    3.6085 O   0  0  0  0  0  0  0  0  0  0  0  0
   -0.0693   11.8917    1.3574 C   0  0  1  0  0  0  0  0  0  0  0  0
   -0.8476   12.6982    0.4662 O   0  0  0  0  0  0  0  0  0  0  0  0
    2.6231   10.0161   13.4732 C   0  0  2  0  0  0  0  0  0  0  0  0
    1.8250   11.1254   13.8457 O   0  0  0  0  0  0  0  0  0  0  0  0
    5.6836   10.2953   10.5967 C   0  0  2  0  0  0  0  0  0  0  0  0
    5.2659   14.0044    7.9856 C   0  0  2  0  0  0  0  0  0  0  0  0
    5.3901   12.8794    8.8412 O   0  0  0  0  0  0  0  0  0  0  0  0
    2.5392   13.0184    2.3872 C   0  0  2  0  0  0  0  0  0  0  0  0
    2.9331   11.6483    2.2975 O   0  0  0  0  0  0  0  0  0  0  0  0
   -0.8647   10.6406    1.7343 C   0  0  2  0  0  0  0  0  0  0  0  0
   -1.8968   11.0605    2.6416 O   0  0  0  0  0  0  0  0  0  0  0  0
    4.0975   10.4278   13.2372 C   0  0  2  0  0  0  0  0  0  0  0  0
    4.8518    9.2082   12.9830 O   0  0  0  0  0  0  0  0  0  0  0  0
    5.2596   11.5935   11.3556 C   0  0  2  0  0  0  0  0  0  0  0  0
    4.0993   12.1808   10.7035 O   0  0  0  0  0  0  0  0  0  0  0  0
    5.8327   15.2383    8.6869 C   0  0  0  0  0  0  0  0  0  0  0  0
    5.4048   15.1922   10.0561 O   0  0  0  0  0  0  0  0  0  0  0  0
    3.7305   13.7474    2.9783 C   0  0  1  0  0  0  0  0  0  0  0  0
    4.1877   13.8210    4.3458 O   0  0  0  0  0  0  0  0  0  0  0  0
    0.0430    9.5444    2.2809 C   0  0  2  0  0  0  0  0  0  0  0  0
    1.3946    9.3954    1.8195 O   0  0  0  0  0  0  0  0  0  0  0  0
    4.7274   11.0564   14.4332 C   0  0  0  0  0  0  0  0  0  0  0  0
    4.7085   12.4497   14.2367 O   0  0  0  0  0  0  0  0  0  0  0  0
    6.4608   12.5921   11.4659 C   0  0  1  0  0  0  0  0  0  0  0  0
    6.0431   13.6714   12.3434 O   0  0  0  0  0  0  0  0  0  0  0  0
    4.9475   13.9715    2.0288 C   0  0  0  0  0  0  0  0  0  0  0  0
    6.0575   14.7133    2.6632 N   0  0  0  0  0  0  0  0  0  0  0  0
   -0.4754    8.1794    2.7280 C   0  0  0  0  0  0  0  0  0  0  0  0
    0.2213    7.1256    2.0118 O   0  0  0  0  0  0  0  0  0  0  0  0
  1  2  1  6  0  0  0
  1  8  1  0  0  0  0
  1 36  1  0  0  0  0
  3  4  1  6  0  0  0
  3 10  1  0  0  0  0
  3 47  1  0  0  0  0
  5 11  1  0  0  0  0
  5 30  1  0  0  0  0
  5 38  1  1  0  0  0
  6 21  1  1  0  0  0
  6 42  1  0  0  0  0
  7 15  1  0  0  0  0
  7 44  1  0  0  0  0
  7 32  1  1  0  0  0
  8  9  1  6  0  0  0
  8 17  1  0  0  0  0
 11 12  1  6  0  0  0
 11 20  1  0  0  0  0
 13  6  1  0  0  0  0
 13 14  1  6  0  0  0
 15 16  1  6  0  0  0
 15 24  1  0  0  0  0
 17 26  1  0  0  0  0
 18 10  1  0  0  0  0
 18 19  1  6  0  0  0
 20 21  1  6  0  0  0
 20 29  1  0  0  0  0
 22 13  1  0  0  0  0
 22 23  1  1  0  0  0
 24 25  1  6  0  0  0
 24 33  1  0  0  0  0
 26 27  1  6  0  0  0
 26 35  1  0  0  0  0
 28  2  1  1  0  0  0
 28 18  1  0  0  0  0
 29 30  1  0  0  0  0
 29 39  1  1  0  0  0
 31 22  1  0  0  0  0
 31 32  1  1  0  0  0
 31 41  1  0  0  0  0
 33 34  1  1  0  0  0
 33 43  1  0  0  0  0
 35 36  1  0  0  0  0
 35 45  1  1  0  0  0
 37 28  1  0  0  0  0
 37 38  1  6  0  0  0
 39 40  1  0  0  0  0
 41 42  1  0  0  0  0
 41 49  1  6  0  0  0
 43 44  1  0  0  0  0
 43 51  1  6  0  0  0
 45 46  1  0  0  0  0
 47 37  1  0  0  0  0
 47 48  1  1  0  0  0
 49 50  1  0  0  0  0
 51 52  1  0  0  0  0
M  END
>  <CHROM.1>
150.07321515,-159.48354565,-133.97538212,8.55197002,127.88327735,44.84065797
73.40692659,86.00637504,-100.11223244,-50.01881451,178.72470191,124.34142455
3.44464147,11.61670376,7.38880458,0.97826255,0.84780182,2.07798613

>  <Name>
2esj_lig

>  <RI>
0

>  <Rbt.Current_Directory>
/home/itssahil/PROJECTS/Mol_Feturizer/New_Systems/rnas/2esj

>  <Rbt.Executable>
rbdock ($Id: //depot/dev/client3/rdock/2013.1/src/exe/rbdock.cxx#4 $)

>  <Rbt.Library>
libRbt.so (2013.1, Build901 2013/11/27)

>  <Rbt.Parameter_File>
/export/apps/rDock/src/rDock_2013.1_src/data/scripts/dock_solv.prm

>  <Rbt.Receptor>
prm/blind_docking_20.prm

>  <SCORE>
79.5858

>  <SCORE.INTER>
48.3694

>  <SCORE.INTER.CONST>
1

>  <SCORE.INTER.POLAR>
-1.38326

>  <SCORE.INTER.ROT>
12

>  <SCORE.INTER.SOLV>
52.2205

>  <SCORE.INTER.VDW>
7.85034

>  <SCORE.INTER.norm>
0.930181

>  <SCORE.INTRA>
17.3259

>  <SCORE.INTRA.DIHEDRAL>
7.39225

>  <SCORE.INTRA.DIHEDRAL.0>
32.9766

>  <SCORE.INTRA.POLAR>
0

>  <SCORE.INTRA.POLAR.0>
0

>  <SCORE.INTRA.REPUL>
0

>  <SCORE.INTRA.REPUL.0>
0

>  <SCORE.INTRA.SOLV>
0.41273

>  <SCORE.INTRA.SOLV.lig_0>
-114.358

>  <SCORE.INTRA.VDW>
13.4234

>  <SCORE.INTRA.VDW.0>
-8.24257

>  <SCORE.INTRA.norm>
0.333191

>  <SCORE.RESTR>
13.8905

>  <SCORE.RESTR.CAVITY>
13.8905

>  <SCORE.RESTR.norm>
0.267125

>  <SCORE.SYSTEM>
0

>  <SCORE.SYSTEM.CONST>
0

>  <SCORE.SYSTEM.DIHEDRAL>
0

>  <SCORE.SYSTEM.SOLV>
0

>  <SCORE.SYSTEM.norm>
0

>  <SCORE.heavy>
52

>  <SCORE.norm>
1.5305

>  <RMSD>
27.472

$$$$
2esj_lig
 OpenBabel11021811423D
libRbt.so/2013.1/901 2013/11/27
 52 56  0  0  0  0  0  0  0  0999 V2000
    1.0280   12.3366    2.2897 C   0  0  2  0  0  0  0  0  0  0  0  0
    1.9395   12.4636    3.3979 O   0  0  0  0  0  0  0  0  0  0  0  0
    5.5499   14.6217    4.1696 C   0  0  2  0  0  0  0  0  0  0  0  0
    6.5824   15.6617    4.3099 N   0  0  0  0  0  0  0  0  0  0  0  0
    2.1910   13.6710    7.2589 C   0  0  1  0  0  0  0  0  0  0  0  0
    3.2740   11.2890   10.1315 C   0  0  1  0  0  0  0  0  0  0  0  0
    3.9197    9.7336   15.0536 C   0  0  1  0  0  0  0  0  0  0  0  0
   -0.1230   11.3874    2.7361 C   0  0  2  0  0  0  0  0  0  0  0  0
   -0.7956   11.8634    3.9444 N   0  0  0  0  0  0  0  0  0  0  0  0
    5.0068   14.5838    2.6860 C   0  0  0  0  0  0  0  0  0  0  0  0
    3.5203   12.9740    7.5514 C   0  0  2  0  0  0  0  0  0  0  0  0
    3.4550   11.5485    7.3297 O   0  0  0  0  0  0  0  0  0  0  0  0
    2.3947   10.8971   11.4022 C   0  0  2  0  0  0  0  0  0  0  0  0
    2.4735   11.9477   12.4514 N   0  0  0  0  0  0  0  0  0  0  0  0
    5.2925   10.0250   15.6485 C   0  0  1  0  0  0  0  0  0  0  0  0
    5.1412   10.3778   17.0381 O   0  0  0  0  0  0  0  0  0  0  0  0
    0.4075    9.9359    2.9615 C   0  0  0  0  0  0  0  0  0  0  0  0
    3.9428   13.4226    2.5404 C   0  0  2  0  0  0  0  0  0  0  0  0
    3.4123   13.3746    1.1739 N   0  0  0  0  0  0  0  0  0  0  0  0
    3.7253   13.3660    8.9862 C   0  0  2  0  0  0  0  0  0  0  0  0
    2.9005   12.6009    9.8280 O   0  0  0  0  0  0  0  0  0  0  0  0
    2.8029    9.4349   11.8823 C   0  0  1  0  0  0  0  0  0  0  0  0
    2.7429    8.5464   10.7617 O   0  0  0  0  0  0  0  0  0  0  0  0
    6.2964    8.8819   15.5599 C   0  0  1  0  0  0  0  0  0  0  0  0
    7.4234    9.2448   16.3651 O   0  0  0  0  0  0  0  0  0  0  0  0
    1.1388    9.4614    1.6709 C   0  0  2  0  0  0  0  0  0  0  0  0
    1.5798    8.1197    1.7785 O   0  0  0  0  0  0  0  0  0  0  0  0
    2.7906   13.6135    3.5607 C   0  0  2  0  0  0  0  0  0  0  0  0
    3.1667   14.7979    9.1170 C   0  0  2  0  0  0  0  0  0  0  0  0
    2.1426   14.8056    8.1351 O   0  0  0  0  0  0  0  0  0  0  0  0
    4.3032    9.3902   12.3888 C   0  0  2  0  0  0  0  0  0  0  0  0
    4.3176   10.2581   13.5232 O   0  0  0  0  0  0  0  0  0  0  0  0
    5.7440    7.5377   16.0375 C   0  0  2  0  0  0  0  0  0  0  0  0
    6.6722    6.5290   15.6068 O   0  0  0  0  0  0  0  0  0  0  0  0
    2.3165   10.4285    1.3940 C   0  0  2  0  0  0  0  0  0  0  0  0
    1.7482   11.7520    1.1791 O   0  0  0  0  0  0  0  0  0  0  0  0
    3.2668   13.7788    5.0395 C   0  0  2  0  0  0  0  0  0  0  0  0
    2.1171   14.0259    5.8959 O   0  0  0  0  0  0  0  0  0  0  0  0
    4.1446   15.9386    8.8370 C   0  0  0  0  0  0  0  0  0  0  0  0
    3.6841   16.6245    7.6636 O   0  0  0  0  0  0  0  0  0  0  0  0
    5.1170   10.0987   11.3230 C   0  0  1  0  0  0  0  0  0  0  0  0
    4.7540   11.1922   10.4529 O   0  0  0  0  0  0  0  0  0  0  0  0
    4.3132    7.3191   15.5584 C   0  0  2  0  0  0  0  0  0  0  0  0
    3.4078    8.4199   15.3846 O   0  0  0  0  0  0  0  0  0  0  0  0
    3.0642   10.0972    0.1476 C   0  0  0  0  0  0  0  0  0  0  0  0
    2.1842   10.2838   -0.9345 O   0  0  0  0  0  0  0  0  0  0  0  0
    4.3561   14.8982    5.1524 C   0  0  1  0  0  0  0  0  0  0  0  0
    4.8796   14.8533    6.5063 O   0  0  0  0  0  0  0  0  0  0  0  0
    6.6638   10.1080   11.5232 C   0  0  0  0  0  0  0  0  0  0  0  0
    7.4004    9.4353   10.4325 N   0  0  0  0  0  0  0  0  0  0  0  0
    3.5047    6.0678   15.8932 C   0  0  0  0  0  0  0  0  0  0  0  0
    2.7356    5.6498   14.7345 O   0  0  0  0  0  0  0  0  0  0  0  0
  1  2  1  1  0  0  0
  1  8  1  0  0  0  0
  1 36  1  0  0  0  0
  3  4  1  6  0  0  0
  3 10  1  0  0  0  0
  3 47  1  0  0  0  0
  5 11  1  0  0  0  0
  5 30  1  0  0  0  0
  5 38  1  6  0  0  0
  6 21  1  1  0  0  0
  6 42  1  0  0  0  0
  7 15  1  0  0  0  0
  7 44  1  0  0  0  0
  7 32  1  6  0  0  0
  8  9  1  1  0  0  0
  8 17  1  0  0  0  0
 11 12  1  1  0  0  0
 11 20  1  0  0  0  0
 13  6  1  0  0  0  0
 13 14  1  1  0  0  0
 15 16  1  1  0  0  0
 15 24  1  0  0  0  0
 17 26  1  0  0  0  0
 18 10  1  0  0  0  0
 18 19  1  6  0  0  0
 20 21  1  1  0  0  0
 20 29  1  0  0  0  0
 22 13  1  0  0  0  0
 22 23  1  6  0  0  0
 24 25  1  1  0  0  0
 24 33  1  0  0  0  0
 26 27  1  1  0  0  0
 26 35  1  0  0  0  0
 28  2  1  1  0  0  0
 28 18  1  0  0  0  0
 29 30  1  0  0  0  0
 29 39  1  6  0  0  0
 31 22  1  0  0  0  0
 31 32  1  1  0  0  0
 31 41  1  0  0  0  0
 33 34  1  6  0  0  0
 33 43  1  0  0  0  0
 35 36  1  0  0  0  0
 35 45  1  6  0  0  0
 37 28  1  0  0  0  0
 37 38  1  1  0  0  0
 39 40  1  0  0  0  0
 41 42  1  0  0  0  0
 41 49  1  1  0  0  0
 43 44  1  0  0  0  0
 43 51  1  1  0  0  0
 45 46  1  0  0  0  0
 47 37  1  0  0  0  0
 47 48  1  1  0  0  0
 49 50  1  0  0  0  0
 51 52  1  0  0  0  0
M  END
>  <CHROM.1>
-154.86630608,-3.80153652,163.54571280,117.66386584,77.97394623,-76.65166173
114.66741653,86.10158502,64.85971857,154.17833569,118.86667170,-139.92232290
3.57837933,11.31812851,8.40626378,2.07030696,-1.18693856,-0.81043840

>  <Name>
2esj_lig

>  <RI>
0

>  <Rbt.Current_Directory>
/home/itssahil/PROJECTS/Mol_Feturizer/New_Systems/rnas/2esj

>  <Rbt.Executable>
rbdock ($Id: //depot/dev/client3/rdock/2013.1/src/exe/rbdock.cxx#4 $)

>  <Rbt.Library>
libRbt.so (2013.1, Build901 2013/11/27)

>  <Rbt.Parameter_File>
/export/apps/rDock/src/rDock_2013.1_src/data/scripts/dock_solv.prm

>  <Rbt.Receptor>
prm/blind_docking_20.prm

>  <SCORE>
43.0787

>  <SCORE.INTER>
13.6074

>  <SCORE.INTER.CONST>
1

>  <SCORE.INTER.POLAR>
-1.79092

>  <SCORE.INTER.ROT>
12

>  <SCORE.INTER.SOLV>
40.0715

>  <SCORE.INTER.VDW>
-9.91587

>  <SCORE.INTER.norm>
0.26168

>  <SCORE.INTRA>
13.5859

>  <SCORE.INTRA.DIHEDRAL>
4.93405

>  <SCORE.INTRA.DIHEDRAL.0>
32.9766

>  <SCORE.INTRA.POLAR>
0

>  <SCORE.INTRA.POLAR.0>
0

>  <SCORE.INTRA.REPUL>
0

>  <SCORE.INTRA.REPUL.0>
0

>  <SCORE.INTRA.SOLV>
1.12313

>  <SCORE.INTRA.SOLV.lig_0>
-114.358

>  <SCORE.INTRA.VDW>
10.5573

>  <SCORE.INTRA.VDW.0>
-8.24257

>  <SCORE.INTRA.norm>
0.261267

>  <SCORE.RESTR>
15.8854

>  <SCORE.RESTR.CAVITY>
15.8854

>  <SCORE.RESTR.norm>
0.305489

>  <SCORE.SYSTEM>
0

>  <SCORE.SYSTEM.CONST>
0

>  <SCORE.SYSTEM.DIHEDRAL>
0

>  <SCORE.SYSTEM.SOLV>
0

>  <SCORE.SYSTEM.norm>
0

>  <SCORE.heavy>
52

>  <SCORE.norm>
0.828436

>  <RMSD>
27.486

$$$$
2esj_lig
 OpenBabel11021811423D
libRbt.so/2013.1/901 2013/11/27
 52 56  0  0  0  0  0  0  0  0999 V2000
    0.5280   13.1451    3.1082 C   0  0  2  0  0  0  0  0  0  0  0  0
    0.9346   12.9990    4.4823 O   0  0  0  0  0  0  0  0  0  0  0  0
    2.0122   16.9486    5.7182 C   0  0  2  0  0  0  0  0  0  0  0  0
    2.1662   18.2176    6.4485 N   0  0  0  0  0  0  0  0  0  0  0  0
    3.0754   13.3216    7.8862 C   0  0  1  0  0  0  0  0  0  0  0  0
    2.7073   11.5872   11.2918 C   0  0  1  0  0  0  0  0  0  0  0  0
    5.5761    8.8240   14.5585 C   0  0  1  0  0  0  0  0  0  0  0  0
   -0.0862   11.7879    2.6545 C   0  0  2  0  0  0  0  0  0  0  0  0
   -1.1956   11.3688    3.5105 N   0  0  0  0  0  0  0  0  0  0  0  0
    0.4817   16.6327    5.4832 C   0  0  0  0  0  0  0  0  0  0  0  0
    3.7197   12.0540    8.4491 C   0  0  2  0  0  0  0  0  0  0  0  0
    2.7712   10.9760    8.6028 O   0  0  0  0  0  0  0  0  0  0  0  0
    2.6830   11.9185   12.8509 C   0  0  2  0  0  0  0  0  0  0  0  0
    3.9982   12.4411   13.3069 N   0  0  0  0  0  0  0  0  0  0  0  0
    6.4499    9.9064   15.1816 C   0  0  1  0  0  0  0  0  0  0  0  0
    7.2099    9.3357   16.2657 O   0  0  0  0  0  0  0  0  0  0  0  0
    1.0030   10.6694    2.6129 C   0  0  0  0  0  0  0  0  0  0  0  0
    0.3382   15.2980    4.6467 C   0  0  2  0  0  0  0  0  0  0  0  0
   -1.0752   14.9745    4.4261 N   0  0  0  0  0  0  0  0  0  0  0  0
    4.2717   12.5787    9.7429 C   0  0  2  0  0  0  0  0  0  0  0  0
    3.2456   12.7283   10.6912 O   0  0  0  0  0  0  0  0  0  0  0  0
    2.1551   10.6419   13.6426 C   0  0  1  0  0  0  0  0  0  0  0  0
    0.9209   10.2130   13.0584 O   0  0  0  0  0  0  0  0  0  0  0  0
    7.4266   10.5839   14.2279 C   0  0  1  0  0  0  0  0  0  0  0  0
    8.3092   11.3832   15.0230 O   0  0  0  0  0  0  0  0  0  0  0  0
    2.1822   11.1487    1.7153 C   0  0  2  0  0  0  0  0  0  0  0  0
    3.1743   10.1483    1.5707 O   0  0  0  0  0  0  0  0  0  0  0  0
    1.0539   14.1272    5.3690 C   0  0  2  0  0  0  0  0  0  0  0  0
    4.7261   14.0241    9.4533 C   0  0  2  0  0  0  0  0  0  0  0  0
    3.8256   14.4166    8.4297 O   0  0  0  0  0  0  0  0  0  0  0  0
    3.1503    9.4182   13.4961 C   0  0  2  0  0  0  0  0  0  0  0  0
    4.3552    9.8682   14.1175 O   0  0  0  0  0  0  0  0  0  0  0  0
    8.2480    9.6041   13.3881 C   0  0  2  0  0  0  0  0  0  0  0  0
    8.8714   10.3706   12.3447 O   0  0  0  0  0  0  0  0  0  0  0  0
    2.7654   12.4462    2.3279 C   0  0  2  0  0  0  0  0  0  0  0  0
    1.7042   13.4435    2.3199 O   0  0  0  0  0  0  0  0  0  0  0  0
    2.5432   14.4194    5.7400 C   0  0  2  0  0  0  0  0  0  0  0  0
    3.0915   13.2908    6.4762 O   0  0  0  0  0  0  0  0  0  0  0  0
    6.1616   14.2006    8.9593 C   0  0  0  0  0  0  0  0  0  0  0  0
    7.0270   13.5583    9.9070 O   0  0  0  0  0  0  0  0  0  0  0  0
    3.4664    9.3217   12.0159 C   0  0  1  0  0  0  0  0  0  0  0  0
    3.5575   10.3604   11.0173 O   0  0  0  0  0  0  0  0  0  0  0  0
    7.3950    8.4431   12.8893 C   0  0  2  0  0  0  0  0  0  0  0  0
    6.2922    7.9420   13.6604 O   0  0  0  0  0  0  0  0  0  0  0  0
    3.8769   13.0254    1.5207 C   0  0  0  0  0  0  0  0  0  0  0  0
    4.4957   14.0165    2.3049 O   0  0  0  0  0  0  0  0  0  0  0  0
    2.6679   15.7698    6.5230 C   0  0  1  0  0  0  0  0  0  0  0  0
    4.0847   16.0603    6.6557 O   0  0  0  0  0  0  0  0  0  0  0  0
    4.3569    8.1199   11.5737 C   0  0  0  0  0  0  0  0  0  0  0  0
    3.9615    7.5452   10.2707 N   0  0  0  0  0  0  0  0  0  0  0  0
    7.9522    7.3067   12.0352 C   0  0  0  0  0  0  0  0  0  0  0  0
    6.8623    6.5447   11.4517 O   0  0  0  0  0  0  0  0  0  0  0  0
  1  2  1  1  0  0  0
  1  8  1  0  0  0  0
  1 36  1  0  0  0  0
  3  4  1  1  0  0  0
  3 10  1  0  0  0  0
  3 47  1  0  0  0  0
  5 11  1  0  0  0  0
  5 30  1  0  0  0  0
  5 38  1  6  0  0  0
  6 21  1  6  0  0  0
  6 42  1  0  0  0  0
  7 15  1  0  0  0  0
  7 44  1  0  0  0  0
  7 32  1  6  0  0  0
  8  9  1  1  0  0  0
  8 17  1  0  0  0  0
 11 12  1  1  0  0  0
 11 20  1  0  0  0  0
 13  6  1  0  0  0  0
 13 14  1  1  0  0  0
 15 16  1  1  0  0  0
 15 24  1  0  0  0  0
 17 26  1  0  0  0  0
 18 10  1  0  0  0  0
 18 19  1  1  0  0  0
 20 21  1  1  0  0  0
 20 29  1  0  0  0  0
 22 13  1  0  0  0  0
 22 23  1  6  0  0  0
 24 25  1  1  0  0  0
 24 33  1  0  0  0  0
 26 27  1  1  0  0  0
 26 35  1  0  0  0  0
 28  2  1  6  0  0  0
 28 18  1  0  0  0  0
 29 30  1  0  0  0  0
 29 39  1  6  0  0  0
 31 22  1  0  0  0  0
 31 32  1  1  0  0  0
 31 41  1  0  0  0  0
 33 34  1  6  0  0  0
 33 43  1  0  0  0  0
 35 36  1  0  0  0  0
 35 45  1  6  0  0  0
 37 28  1  0  0  0  0
 37 38  1  1  0  0  0
 39 40  1  0  0  0  0
 41 42  1  0  0  0  0
 41 49  1  1  0  0  0
 43 44  1  0  0  0  0
 43 51  1  1  0  0  0
 45 46  1  0  0  0  0
 47 37  1  0  0  0  0
 47 48  1  6  0  0  0
 49 50  1  0  0  0  0
 51 52  1  0  0  0  0
M  END
>  <CHROM.1>
-155.48943312,-178.98276989,132.29553858,-177.37371664,73.96952071,13.83916578
-54.15316172,164.39625619,-168.01763701,-94.77187665,142.58082306,-166.11137216
3.72862259,11.89031103,8.77909507,-3.03442827,-1.17988659,0.51487731

>  <Name>
2esj_lig

>  <RI>
0

>  <Rbt.Current_Directory>
/home/itssahil/PROJECTS/Mol_Feturizer/New_Systems/rnas/2esj

>  <Rbt.Executable>
rbdock ($Id: //depot/dev/client3/rdock/2013.1/src/exe/rbdock.cxx#4 $)

>  <Rbt.Library>
libRbt.so (2013.1, Build901 2013/11/27)

>  <Rbt.Parameter_File>
/export/apps/rDock/src/rDock_2013.1_src/data/scripts/dock_solv.prm

>  <Rbt.Receptor>
prm/blind_docking_20.prm

>  <SCORE>
26.7096

>  <SCORE.INTER>
-0.300867

>  <SCORE.INTER.CONST>
1

>  <SCORE.INTER.POLAR>
-2.22477

>  <SCORE.INTER.ROT>
12

>  <SCORE.INTER.SOLV>
33.9386

>  <SCORE.INTER.VDW>
-15.6975

>  <SCORE.INTER.norm>
-0.00578591

>  <SCORE.INTRA>
6.58007

>  <SCORE.INTRA.DIHEDRAL>
-5.12039

>  <SCORE.INTRA.DIHEDRAL.0>
32.9766

>  <SCORE.INTRA.POLAR>
0

>  <SCORE.INTRA.POLAR.0>
0

>  <SCORE.INTRA.REPUL>
0

>  <SCORE.INTRA.REPUL.0>
0

>  <SCORE.INTRA.SOLV>
0.875099

>  <SCORE.INTRA.SOLV.lig_0>
-114.358

>  <SCORE.INTRA.VDW>
8.70272

>  <SCORE.INTRA.VDW.0>
-8.24257

>  <SCORE.INTRA.norm>
0.12654

>  <SCORE.RESTR>
20.4304

>  <SCORE.RESTR.CAVITY>
20.4304

>  <SCORE.RESTR.norm>
0.392892

>  <SCORE.SYSTEM>
0

>  <SCORE.SYSTEM.CONST>
0

>  <SCORE.SYSTEM.DIHEDRAL>
0

>  <SCORE.SYSTEM.SOLV>
0

>  <SCORE.SYSTEM.norm>
0

>  <SCORE.heavy>
52

>  <SCORE.norm>
0.513646

>  <RMSD>
27.495

$$$$
2esj_lig
 OpenBabel11021811423D
libRbt.so/2013.1/901 2013/11/27
 52 56  0  0  0  0  0  0  0  0999 V2000
    5.1016    8.4710   12.1692 C   0  0  2  0  0  0  0  0  0  0  0  0
    5.5282    9.0884   10.9397 O   0  0  0  0  0  0  0  0  0  0  0  0
    6.8452   12.8637   12.4565 C   0  0  2  0  0  0  0  0  0  0  0  0
    7.3940   14.2211   12.6101 N   0  0  0  0  0  0  0  0  0  0  0  0
    3.9201   11.8244    9.1983 C   0  0  1  0  0  0  0  0  0  0  0  0
    3.7269   13.8248    5.4421 C   0  0  1  0  0  0  0  0  0  0  0  0
    0.4937   12.7386    1.3830 C   0  0  1  0  0  0  0  0  0  0  0  0
    4.8368    6.9658   11.8705 C   0  0  2  0  0  0  0  0  0  0  0  0
    6.0088    6.2998   11.3031 N   0  0  0  0  0  0  0  0  0  0  0  0
    7.9195   11.9081   11.8005 C   0  0  0  0  0  0  0  0  0  0  0  0
    3.1321   13.1086    8.9365 C   0  0  2  0  0  0  0  0  0  0  0  0
    1.7608   12.8474    8.5668 O   0  0  0  0  0  0  0  0  0  0  0  0
    2.2407   14.3827    5.2970 C   0  0  2  0  0  0  0  0  0  0  0  0
    1.2422   13.2939    5.4661 N   0  0  0  0  0  0  0  0  0  0  0  0
   -0.7509   12.2643    2.1241 C   0  0  1  0  0  0  0  0  0  0  0  0
   -1.8902   12.3595    1.2458 O   0  0  0  0  0  0  0  0  0  0  0  0
    3.6145    6.7942   10.9137 C   0  0  0  0  0  0  0  0  0  0  0  0
    7.3335   10.4427   11.6982 C   0  0  2  0  0  0  0  0  0  0  0  0
    8.3073    9.5374   11.0794 N   0  0  0  0  0  0  0  0  0  0  0  0
    3.9597   13.7197    7.8430 C   0  0  2  0  0  0  0  0  0  0  0  0
    3.7142   13.0730    6.6200 O   0  0  0  0  0  0  0  0  0  0  0  0
    2.1247   15.1961    3.9332 C   0  0  1  0  0  0  0  0  0  0  0  0
    3.1804   16.1610    3.8788 O   0  0  0  0  0  0  0  0  0  0  0  0
   -0.6867   10.8385    2.6585 C   0  0  1  0  0  0  0  0  0  0  0  0
   -2.0033   10.4933    3.1031 O   0  0  0  0  0  0  0  0  0  0  0  0
    2.3874    7.5308   11.5280 C   0  0  2  0  0  0  0  0  0  0  0  0
    1.2197    7.3504   10.7469 O   0  0  0  0  0  0  0  0  0  0  0  0
    6.0092   10.4447   10.8911 C   0  0  2  0  0  0  0  0  0  0  0  0
    5.4236   13.3588    8.1690 C   0  0  2  0  0  0  0  0  0  0  0  0
    5.2783   12.1193    8.8438 O   0  0  0  0  0  0  0  0  0  0  0  0
    2.3362   14.2535    2.6778 C   0  0  2  0  0  0  0  0  0  0  0  0
    1.2499   13.3284    2.7452 O   0  0  0  0  0  0  0  0  0  0  0  0
   -0.2155    9.8135    1.6254 C   0  0  2  0  0  0  0  0  0  0  0  0
    0.0904    8.6076    2.3443 O   0  0  0  0  0  0  0  0  0  0  0  0
    2.7451    9.0300   11.6814 C   0  0  2  0  0  0  0  0  0  0  0  0
    3.8767    9.1136   12.5943 O   0  0  0  0  0  0  0  0  0  0  0  0
    4.9423   11.4585   11.4155 C   0  0  2  0  0  0  0  0  0  0  0  0
    3.7768   11.4314   10.5452 O   0  0  0  0  0  0  0  0  0  0  0  0
    6.1827   14.3367    9.0652 C   0  0  0  0  0  0  0  0  0  0  0  0
    5.2124   15.0523    9.8436 O   0  0  0  0  0  0  0  0  0  0  0  0
    3.5818   13.4424    2.9792 C   0  0  1  0  0  0  0  0  0  0  0  0
    4.0997   12.9732    4.2426 O   0  0  0  0  0  0  0  0  0  0  0  0
    0.9378   10.3538    0.7873 C   0  0  2  0  0  0  0  0  0  0  0  0
    1.0445   11.7518    0.4774 O   0  0  0  0  0  0  0  0  0  0  0  0
    1.6543    9.8300   12.3079 C   0  0  0  0  0  0  0  0  0  0  0  0
    2.1383   11.1398   12.4818 O   0  0  0  0  0  0  0  0  0  0  0  0
    5.5575   12.8915   11.5573 C   0  0  1  0  0  0  0  0  0  0  0  0
    4.5695   13.7190   12.2269 O   0  0  0  0  0  0  0  0  0  0  0  0
    4.0825   12.4935    1.8472 C   0  0  0  0  0  0  0  0  0  0  0  0
    3.3050   11.2405    1.7454 N   0  0  0  0  0  0  0  0  0  0  0  0
    1.6032    9.5522   -0.3290 C   0  0  0  0  0  0  0  0  0  0  0  0
    2.7972   10.2392   -0.7887 O   0  0  0  0  0  0  0  0  0  0  0  0
  1  2  1  6  0  0  0
  1  8  1  0  0  0  0
  1 36  1  0  0  0  0
  3  4  1  6  0  0  0
  3 10  1  0  0  0  0
  3 47  1  0  0  0  0
  5 11  1  0  0  0  0
  5 30  1  0  0  0  0
  5 38  1  1  0  0  0
  6 21  1  1  0  0  0
  6 42  1  0  0  0  0
  7 15  1  0  0  0  0
  7 44  1  0  0  0  0
  7 32  1  1  0  0  0
  8  9  1  6  0  0  0
  8 17  1  0  0  0  0
 11 12  1  6  0  0  0
 11 20  1  0  0  0  0
 13  6  1  0  0  0  0
 13 14  1  6  0  0  0
 15 16  1  6  0  0  0
 15 24  1  0  0  0  0
 17 26  1  0  0  0  0
 18 10  1  0  0  0  0
 18 19  1  6  0  0  0
 20 21  1  6  0  0  0
 20 29  1  0  0  0  0
 22 13  1  0  0  0  0
 22 23  1  1  0  0  0
 24 25  1  6  0  0  0
 24 33  1  0  0  0  0
 26 27  1  6  0  0  0
 26 35  1  0  0  0  0
 28  2  1  1  0  0  0
 28 18  1  0  0  0  0
 29 30  1  0  0  0  0
 29 39  1  1  0  0  0
 31 22  1  0  0  0  0
 31 32  1  1  0  0  0
 31 41  1  0  0  0  0
 33 34  1  1  0  0  0
 33 43  1  0  0  0  0
 35 36  1  0  0  0  0
 35 45  1  1  0  0  0
 37 28  1  0  0  0  0
 37 38  1  6  0  0  0
 39 40  1  0  0  0  0
 41 42  1  0  0  0  0
 41 49  1  6  0  0  0
 43 44  1  0  0  0  0
 43 51  1  6  0  0  0
 45 46  1  0  0  0  0
 47 37  1  0  0  0  0
 47 48  1  1  0  0  0
 49 50  1  0  0  0  0
 51 52  1  0  0  0  0
M  END
>  <CHROM.1>
-172.48318479,-113.88034029,-87.07336713,-162.15064011,144.64081414,65.89187049
24.30713218,144.48966935,175.64340452,-63.24384111,-78.15117088,-170.69741286
3.28837838,11.53368050,7.21753360,0.83597922,0.96823107,2.34890632

>  <Name>
2esj_lig

>  <RI>
0

>  <Rbt.Current_Directory>
/home/itssahil/PROJECTS/Mol_Feturizer/New_Systems/rnas/2esj

>  <Rbt.Executable>
rbdock ($Id: //depot/dev/client3/rdock/2013.1/src/exe/rbdock.cxx#4 $)

>  <Rbt.Library>
libRbt.so (2013.1, Build901 2013/11/27)

>  <Rbt.Parameter_File>
/export/apps/rDock/src/rDock_2013.1_src/data/scripts/dock_solv.prm

>  <Rbt.Receptor>
prm/blind_docking_20.prm

>  <SCORE>
16.1117

>  <SCORE.INTER>
-4.34388

>  <SCORE.INTER.CONST>
1

>  <SCORE.INTER.POLAR>
-0.931508

>  <SCORE.INTER.ROT>
12

>  <SCORE.INTER.SOLV>
33.3769

>  <SCORE.INTER.VDW>
-22.5165

>  <SCORE.INTER.norm>
-0.0835361

>  <SCORE.INTRA>
6.04977

>  <SCORE.INTRA.DIHEDRAL>
-3.48075

>  <SCORE.INTRA.DIHEDRAL.0>
32.9766

>  <SCORE.INTRA.POLAR>
0

>  <SCORE.INTRA.POLAR.0>
0

>  <SCORE.INTRA.REPUL>
0

>  <SCORE.INTRA.REPUL.0>
0

>  <SCORE.INTRA.SOLV>
8.22912

>  <SCORE.INTRA.SOLV.lig_0>
-114.358

>  <SCORE.INTRA.VDW>
3.67559

>  <SCORE.INTRA.VDW.0>
-8.24257

>  <SCORE.INTRA.norm>
0.116342

>  <SCORE.RESTR>
14.4058

>  <SCORE.RESTR.CAVITY>
14.4058

>  <SCORE.RESTR.norm>
0.277035

>  <SCORE.SYSTEM>
0

>  <SCORE.SYSTEM.CONST>
0

>  <SCORE.SYSTEM.DIHEDRAL>
0

>  <SCORE.SYSTEM.SOLV>
0

>  <SCORE.SYSTEM.norm>
0

>  <SCORE.heavy>
52

>  <SCORE.norm>
0.309841

>  <RMSD>
27.582

$$$$
2esj_lig
 OpenBabel11021811423D
libRbt.so/2013.1/901 2013/11/27
 52 56  0  0  0  0  0  0  0  0999 V2000
    7.0123   11.0974   12.9672 C   0  0  2  0  0  0  0  0  0  0  0  0
    6.0298   10.7536   11.9715 O   0  0  0  0  0  0  0  0  0  0  0  0
    1.8070   10.1043   11.7853 C   0  0  2  0  0  0  0  0  0  0  0  0
    0.3458   10.1990   11.9377 N   0  0  0  0  0  0  0  0  0  0  0  0
    4.2297   12.4969    8.6799 C   0  0  1  0  0  0  0  0  0  0  0  0
    3.3601   13.5487    4.7223 C   0  0  1  0  0  0  0  0  0  0  0  0
   -0.1290   11.9252    1.0857 C   0  0  1  0  0  0  0  0  0  0  0  0
    8.4139   11.0010   12.2954 C   0  0  2  0  0  0  0  0  0  0  0  0
    8.5185   11.8502   11.1092 N   0  0  0  0  0  0  0  0  0  0  0  0
    2.5055   10.0648   13.2023 C   0  0  0  0  0  0  0  0  0  0  0  0
    3.2192   13.6130    8.4120 C   0  0  2  0  0  0  0  0  0  0  0  0
    1.8549   13.1413    8.4506 O   0  0  0  0  0  0  0  0  0  0  0  0
    1.9899   14.2964    4.3986 C   0  0  2  0  0  0  0  0  0  0  0  0
    0.8230   13.4934    4.8508 N   0  0  0  0  0  0  0  0  0  0  0  0
   -1.3280   11.6812    1.9947 C   0  0  1  0  0  0  0  0  0  0  0  0
   -2.5272   11.6384    1.1956 O   0  0  0  0  0  0  0  0  0  0  0  0
    8.7518    9.5229   11.9207 C   0  0  0  0  0  0  0  0  0  0  0  0
    4.0681    9.9034   13.0190 C   0  0  2  0  0  0  0  0  0  0  0  0
    4.7425    9.8777   14.3211 N   0  0  0  0  0  0  0  0  0  0  0  0
    3.6738   14.0748    7.0577 C   0  0  2  0  0  0  0  0  0  0  0  0
    3.2553   13.1735    6.0643 O   0  0  0  0  0  0  0  0  0  0  0  0
    1.9725   14.7001    2.8585 C   0  0  1  0  0  0  0  0  0  0  0  0
    3.1779   15.4085    2.5523 O   0  0  0  0  0  0  0  0  0  0  0  0
   -1.2681   10.4028    2.8222 C   0  0  1  0  0  0  0  0  0  0  0  0
   -2.5573   10.2242    3.4192 O   0  0  0  0  0  0  0  0  0  0  0  0
    8.6107    8.6365   13.1935 C   0  0  2  0  0  0  0  0  0  0  0  0
    8.9785    7.2919   12.9423 O   0  0  0  0  0  0  0  0  0  0  0  0
    4.6314   11.0514   12.1416 C   0  0  2  0  0  0  0  0  0  0  0  0
    5.2106   13.9414    7.0595 C   0  0  2  0  0  0  0  0  0  0  0  0
    5.4110   12.8544    7.9491 O   0  0  0  0  0  0  0  0  0  0  0  0
    1.9749   13.4203    1.9251 C   0  0  2  0  0  0  0  0  0  0  0  0
    0.7468   12.7585    2.2320 O   0  0  0  0  0  0  0  0  0  0  0  0
   -0.9093    9.1581    2.0087 C   0  0  2  0  0  0  0  0  0  0  0  0
   -0.5877    8.1225    2.9514 O   0  0  0  0  0  0  0  0  0  0  0  0
    7.1518    8.7430   13.7029 C   0  0  2  0  0  0  0  0  0  0  0  0
    6.9143   10.1382   14.0463 O   0  0  0  0  0  0  0  0  0  0  0  0
    3.9034   11.2243   10.7701 C   0  0  2  0  0  0  0  0  0  0  0  0
    4.4585   12.3698   10.0658 O   0  0  0  0  0  0  0  0  0  0  0  0
    5.9988   15.1531    7.5558 C   0  0  0  0  0  0  0  0  0  0  0  0
    6.9837   15.4656    6.5598 O   0  0  0  0  0  0  0  0  0  0  0  0
    3.0692   12.5203    2.4660 C   0  0  1  0  0  0  0  0  0  0  0  0
    3.5389   12.3420    3.8196 O   0  0  0  0  0  0  0  0  0  0  0  0
    0.1933    9.4498    0.9970 C   0  0  2  0  0  0  0  0  0  0  0  0
    0.3200   10.7414    0.3826 O   0  0  0  0  0  0  0  0  0  0  0  0
    6.9111    7.9675   14.9531 C   0  0  0  0  0  0  0  0  0  0  0  0
    7.0819    6.6054   14.6441 O   0  0  0  0  0  0  0  0  0  0  0  0
    2.3540   11.3312   10.9711 C   0  0  1  0  0  0  0  0  0  0  0  0
    1.7460   11.2924    9.6527 O   0  0  0  0  0  0  0  0  0  0  0  0
    3.3592   11.2182    1.6578 C   0  0  0  0  0  0  0  0  0  0  0  0
    3.9559   11.4728    0.3297 N   0  0  0  0  0  0  0  0  0  0  0  0
    0.7464    8.3958    0.0405 C   0  0  0  0  0  0  0  0  0  0  0  0
    1.5535    9.0321   -0.9854 O   0  0  0  0  0  0  0  0  0  0  0  0
  1  2  1  6  0  0  0
  1  8  1  0  0  0  0
  1 36  1  0  0  0  0
  3  4  1  1  0  0  0
  3 10  1  0  0  0  0
  3 47  1  0  0  0  0
  5 11  1  0  0  0  0
  5 30  1  0  0  0  0
  5 38  1  1  0  0  0
  6 21  1  1  0  0  0
  6 42  1  0  0  0  0
  7 15  1  0  0  0  0
  7 44  1  0  0  0  0
  7 32  1  1  0  0  0
  8  9  1  6  0  0  0
  8 17  1  0  0  0  0
 11 12  1  6  0  0  0
 11 20  1  0  0  0  0
 13  6  1  0  0  0  0
 13 14  1  6  0  0  0
 15 16  1  6  0  0  0
 15 24  1  0  0  0  0
 17 26  1  0  0  0  0
 18 10  1  0  0  0  0
 18 19  1  1  0  0  0
 20 21  1  6  0  0  0
 20 29  1  0  0  0  0
 22 13  1  0  0  0  0
 22 23  1  6  0  0  0
 24 25  1  6  0  0  0
 24 33  1  0  0  0  0
 26 27  1  6  0  0  0
 26 35  1  0  0  0  0
 28  2  1  6  0  0  0
 28 18  1  0  0  0  0
 29 30  1  0  0  0  0
 29 39  1  1  0  0  0
 31 22  1  0  0  0  0
 31 32  1  1  0  0  0
 31 41  1  0  0  0  0
 33 34  1  1  0  0  0
 33 43  1  0  0  0  0
 35 36  1  0  0  0  0
 35 45  1  1  0  0  0
 37 28  1  0  0  0  0
 37 38  1  1  0  0  0
 39 40  1  0  0  0  0
 41 42  1  0  0  0  0
 41 49  1  1  0  0  0
 43 44  1  0  0  0  0
 43 51  1  6  0  0  0
 45 46  1  0  0  0  0
 47 37  1  0  0  0  0
 47 48  1  6  0  0  0
 49 50  1  0  0  0  0
 51 52  1  0  0  0  0
M  END
>  <CHROM.1>
-164.37323677,107.00219741,-88.26783309,-172.40358455,168.13608030,-82.37617869
-128.36661934,145.80220653,-65.01516559,162.48639674,68.00512223,167.26483710
3.38349456,11.35065904,7.21793891,-0.94559638,-0.68723898,-1.00063065

>  <Name>
2esj_lig

>  <RI>
0

>  <Rbt.Current_Directory>
/home/itssahil/PROJECTS/Mol_Feturizer/New_Systems/rnas/2esj

>  <Rbt.Executable>
rbdock ($Id: //depot/dev/client3/rdock/2013.1/src/exe/rbdock.cxx#4 $)

>  <Rbt.Library>
libRbt.so (2013.1, Build901 2013/11/27)

>  <Rbt.Parameter_File>
/export/apps/rDock/src/rDock_2013.1_src/data/scripts/dock_solv.prm

>  <Rbt.Receptor>
prm/blind_docking_20.prm

>  <SCORE>
30.8455

>  <SCORE.INTER>
12.5278

>  <SCORE.INTER.CONST>
1

>  <SCORE.INTER.POLAR>
-2.02296

>  <SCORE.INTER.ROT>
12

>  <SCORE.INTER.SOLV>
42.9998

>  <SCORE.INTER.VDW>
-10.8382

>  <SCORE.INTER.norm>
0.240919

>  <SCORE.INTRA>
10.3861

>  <SCORE.INTRA.DIHEDRAL>
-3.50666

>  <SCORE.INTRA.DIHEDRAL.0>
32.9766

>  <SCORE.INTRA.POLAR>
0

>  <SCORE.INTRA.POLAR.0>
0

>  <SCORE.INTRA.REPUL>
0.0106238

>  <SCORE.INTRA.REPUL.0>
0

>  <SCORE.INTRA.SOLV>
2.29901

>  <SCORE.INTRA.SOLV.lig_0>
-114.358

>  <SCORE.INTRA.VDW>
10.9368

>  <SCORE.INTRA.VDW.0>
-8.24257

>  <SCORE.INTRA.norm>
0.199733

>  <SCORE.RESTR>
7.93159

>  <SCORE.RESTR.CAVITY>
7.93159

>  <SCORE.RESTR.norm>
0.152531

>  <SCORE.SYSTEM>
0

>  <SCORE.SYSTEM.CONST>
0

>  <SCORE.SYSTEM.DIHEDRAL>
0

>  <SCORE.SYSTEM.SOLV>
0

>  <SCORE.SYSTEM.norm>
0

>  <SCORE.heavy>
52

>  <SCORE.norm>
0.593182

>  <RMSD>
27.623

$$$$
2esj_lig
 OpenBabel11021811423D
libRbt.so/2013.1/901 2013/11/27
 52 56  0  0  0  0  0  0  0  0999 V2000
    6.7406   11.2844   13.1342 C   0  0  2  0  0  0  0  0  0  0  0  0
    5.9675   11.7632   12.0171 O   0  0  0  0  0  0  0  0  0  0  0  0
    1.9175   10.4186   11.7390 C   0  0  2  0  0  0  0  0  0  0  0  0
    0.4514   10.2998   11.8004 N   0  0  0  0  0  0  0  0  0  0  0  0
    4.1046   12.6639    8.3945 C   0  0  1  0  0  0  0  0  0  0  0  0
    2.4330   13.1532    4.5246 C   0  0  1  0  0  0  0  0  0  0  0  0
    0.7986    9.4396    2.6563 C   0  0  1  0  0  0  0  0  0  0  0  0
    8.2354   11.2696   12.6977 C   0  0  2  0  0  0  0  0  0  0  0  0
    8.6914   12.5820   12.2407 N   0  0  0  0  0  0  0  0  0  0  0  0
    2.5041   10.7256   13.1740 C   0  0  0  0  0  0  0  0  0  0  0  0
    3.0580   13.6837    7.9437 C   0  0  2  0  0  0  0  0  0  0  0  0
    1.7112   13.1733    8.0481 O   0  0  0  0  0  0  0  0  0  0  0  0
    1.3004   12.0336    4.4548 C   0  0  2  0  0  0  0  0  0  0  0  0
    1.8747   10.6784    4.6658 N   0  0  0  0  0  0  0  0  0  0  0  0
    0.9867    8.4104    1.5477 C   0  0  1  0  0  0  0  0  0  0  0  0
    0.9014    7.0862    2.1114 O   0  0  0  0  0  0  0  0  0  0  0  0
    8.4793   10.2052   11.5811 C   0  0  0  0  0  0  0  0  0  0  0  0
    4.0826   10.7908   13.0987 C   0  0  2  0  0  0  0  0  0  0  0  0
    4.6522   11.0883   14.4170 N   0  0  0  0  0  0  0  0  0  0  0  0
    3.5130   13.9392    6.5359 C   0  0  2  0  0  0  0  0  0  0  0  0
    3.1401   12.8751    5.6974 O   0  0  0  0  0  0  0  0  0  0  0  0
    0.4787   12.2130    3.1029 C   0  0  1  0  0  0  0  0  0  0  0  0
    0.0437   13.5730    3.0029 O   0  0  0  0  0  0  0  0  0  0  0  0
   -0.0129    8.4989    0.4008 C   0  0  1  0  0  0  0  0  0  0  0  0
    0.1655    7.3304   -0.4073 O   0  0  0  0  0  0  0  0  0  0  0  0
    7.9648    8.8233   12.0824 C   0  0  2  0  0  0  0  0  0  0  0  0
    8.2257    7.7930   11.1461 O   0  0  0  0  0  0  0  0  0  0  0  0
    4.5314   11.8550   12.0637 C   0  0  2  0  0  0  0  0  0  0  0  0
    5.0535   13.8658    6.5697 C   0  0  2  0  0  0  0  0  0  0  0  0
    5.2815   12.9439    7.6238 O   0  0  0  0  0  0  0  0  0  0  0  0
    1.3909   11.9571    1.8333 C   0  0  2  0  0  0  0  0  0  0  0  0
    1.7773   10.5867    1.9480 O   0  0  0  0  0  0  0  0  0  0  0  0
   -1.4703    8.5813    0.8582 C   0  0  2  0  0  0  0  0  0  0  0  0
   -2.2453    8.9703   -0.2876 O   0  0  0  0  0  0  0  0  0  0  0  0
    6.4513    8.9475   12.3868 C   0  0  2  0  0  0  0  0  0  0  0  0
    6.3022    9.9401   13.4420 O   0  0  0  0  0  0  0  0  0  0  0  0
    3.8920   11.6806   10.6489 C   0  0  2  0  0  0  0  0  0  0  0  0
    4.3200   12.7695    9.7843 O   0  0  0  0  0  0  0  0  0  0  0  0
    5.7910   15.1702    6.8701 C   0  0  0  0  0  0  0  0  0  0  0  0
    7.1288   15.0359    6.3682 O   0  0  0  0  0  0  0  0  0  0  0  0
    2.6565   12.7587    2.0695 C   0  0  1  0  0  0  0  0  0  0  0  0
    3.3316   13.0840    3.3036 O   0  0  0  0  0  0  0  0  0  0  0  0
   -1.6270    9.5019    2.0633 C   0  0  2  0  0  0  0  0  0  0  0  0
   -0.5837    9.6363    3.0407 O   0  0  0  0  0  0  0  0  0  0  0  0
    5.8576    7.6892   12.9223 C   0  0  0  0  0  0  0  0  0  0  0  0
    6.0206    6.6945   11.9403 O   0  0  0  0  0  0  0  0  0  0  0  0
    2.3335   11.5674   10.7517 C   0  0  1  0  0  0  0  0  0  0  0  0
    1.8403   11.2151    9.4319 O   0  0  0  0  0  0  0  0  0  0  0  0
    3.6987   12.7675    0.9091 C   0  0  0  0  0  0  0  0  0  0  0  0
    3.7678   11.4876    0.1731 N   0  0  0  0  0  0  0  0  0  0  0  0
   -2.9698    9.7664    2.7405 C   0  0  0  0  0  0  0  0  0  0  0  0
   -4.0380    9.7209    1.7579 O   0  0  0  0  0  0  0  0  0  0  0  0
  1  2  1  6  0  0  0
  1  8  1  0  0  0  0
  1 36  1  0  0  0  0
  3  4  1  1  0  0  0
  3 10  1  0  0  0  0
  3 47  1  0  0  0  0
  5 11  1  0  0  0  0
  5 30  1  0  0  0  0
  5 38  1  1  0  0  0
  6 21  1  1  0  0  0
  6 42  1  0  0  0  0
  7 15  1  0  0  0  0
  7 44  1  0  0  0  0
  7 32  1  6  0  0  0
  8  9  1  6  0  0  0
  8 17  1  0  0  0  0
 11 12  1  6  0  0  0
 11 20  1  0  0  0  0
 13  6  1  0  0  0  0
 13 14  1  6  0  0  0
 15 16  1  1  0  0  0
 15 24  1  0  0  0  0
 17 26  1  0  0  0  0
 18 10  1  0  0  0  0
 18 19  1  1  0  0  0
 20 21  1  6  0  0  0
 20 29  1  0  0  0  0
 22 13  1  0  0  0  0
 22 23  1  6  0  0  0
 24 25  1  6  0  0  0
 24 33  1  0  0  0  0
 26 27  1  6  0  0  0
 26 35  1  0  0  0  0
 28  2  1  6  0  0  0
 28 18  1  0  0  0  0
 29 30  1  0  0  0  0
 29 39  1  1  0  0  0
 31 22  1  0  0  0  0
 31 32  1  1  0  0  0
 31 41  1  0  0  0  0
 33 34  1  6  0  0  0
 33 43  1  0  0  0  0
 35 36  1  0  0  0  0
 35 45  1  1  0  0  0
 37 28  1  0  0  0  0
 37 38  1  6  0  0  0
 39 40  1  0  0  0  0
 41 42  1  0  0  0  0
 41 49  1  6  0  0  0
 43 44  1  0  0  0  0
 43 51  1  1  0  0  0
 45 46  1  0  0  0  0
 47 37  1  0  0  0  0
 47 48  1  6  0  0  0
 49 50  1  0  0  0  0
 51 52  1  0  0  0  0
M  END
>  <CHROM.1>
177.65300398,111.86374830,-137.38706842,133.40026826,127.40799461,-26.29660975
-158.35213011,31.21805145,-61.06956470,166.39295882,-35.08803822,-32.49897078
3.08031033,11.02155930,6.93785754,-0.81296332,-0.77895198,-1.03112985

>  <Name>
2esj_lig

>  <RI>
0

>  <Rbt.Current_Directory>
/home/itssahil/PROJECTS/Mol_Feturizer/New_Systems/rnas/2esj

>  <Rbt.Executable>
rbdock ($Id: //depot/dev/client3/rdock/2013.1/src/exe/rbdock.cxx#4 $)

>  <Rbt.Library>
libRbt.so (2013.1, Build901 2013/11/27)

>  <Rbt.Parameter_File>
/export/apps/rDock/src/rDock_2013.1_src/data/scripts/dock_solv.prm

>  <Rbt.Receptor>
prm/blind_docking_20.prm

>  <SCORE>
64.438

>  <SCORE.INTER>
33.3728

>  <SCORE.INTER.CONST>
1

>  <SCORE.INTER.POLAR>
-1.52384

>  <SCORE.INTER.ROT>
12

>  <SCORE.INTER.SOLV>
43.6244

>  <SCORE.INTER.VDW>
1.18656

>  <SCORE.INTER.norm>
0.641785

>  <SCORE.INTRA>
22.9388

>  <SCORE.INTRA.DIHEDRAL>
8.13338

>  <SCORE.INTRA.DIHEDRAL.0>
32.9766

>  <SCORE.INTRA.POLAR>
0

>  <SCORE.INTRA.POLAR.0>
0

>  <SCORE.INTRA.REPUL>
0

>  <SCORE.INTRA.REPUL.0>
0

>  <SCORE.INTRA.SOLV>
2.56842

>  <SCORE.INTRA.SOLV.lig_0>
-114.358

>  <SCORE.INTRA.VDW>
17.5879

>  <SCORE.INTRA.VDW.0>
-8.24257

>  <SCORE.INTRA.norm>
0.441131

>  <SCORE.RESTR>
8.12641

>  <SCORE.RESTR.CAVITY>
8.12641

>  <SCORE.RESTR.norm>
0.156277

>  <SCORE.SYSTEM>
0

>  <SCORE.SYSTEM.CONST>
0

>  <SCORE.SYSTEM.DIHEDRAL>
0

>  <SCORE.SYSTEM.SOLV>
0

>  <SCORE.SYSTEM.norm>
0

>  <SCORE.heavy>
52

>  <SCORE.norm>
1.23919

>  <RMSD>
27.753

$$$$
2esj_lig
 OpenBabel11021811423D
libRbt.so/2013.1/901 2013/11/27
 52 56  0  0  0  0  0  0  0  0999 V2000
    0.9798   11.6880    1.5058 C   0  0  2  0  0  0  0  0  0  0  0  0
    1.7339   12.0186    2.6876 O   0  0  0  0  0  0  0  0  0  0  0  0
    0.3927   15.8144    4.1303 C   0  0  2  0  0  0  0  0  0  0  0  0
   -0.1493   16.9160    4.9427 N   0  0  0  0  0  0  0  0  0  0  0  0
    3.5029   13.1546    5.8427 C   0  0  1  0  0  0  0  0  0  0  0  0
    4.8932   12.8216    9.7231 C   0  0  1  0  0  0  0  0  0  0  0  0
    5.2432    8.7191   11.9889 C   0  0  1  0  0  0  0  0  0  0  0  0
    0.3675   10.2725    1.7213 C   0  0  2  0  0  0  0  0  0  0  0  0
   -0.4533   10.2029    2.9299 N   0  0  0  0  0  0  0  0  0  0  0  0
   -0.6635   14.6443    4.0174 C   0  0  0  0  0  0  0  0  0  0  0  0
    4.4284   14.0613    6.6551 C   0  0  2  0  0  0  0  0  0  0  0  0
    5.7881   13.5757    6.6845 O   0  0  0  0  0  0  0  0  0  0  0  0
    5.4838   11.3412    9.7535 C   0  0  2  0  0  0  0  0  0  0  0  0
    4.3948   10.3301    9.7006 N   0  0  0  0  0  0  0  0  0  0  0  0
    4.1433    8.0456   12.8014 C   0  0  1  0  0  0  0  0  0  0  0  0
    3.7685    6.8107   12.1588 O   0  0  0  0  0  0  0  0  0  0  0  0
    1.4860    9.1840    1.7767 C   0  0  0  0  0  0  0  0  0  0  0  0
   -0.0874   13.4973    3.0933 C   0  0  2  0  0  0  0  0  0  0  0  0
   -1.0443   12.3914    2.9829 N   0  0  0  0  0  0  0  0  0  0  0  0
    3.7360   14.0367    7.9870 C   0  0  2  0  0  0  0  0  0  0  0  0
    3.9939   12.8268    8.6535 O   0  0  0  0  0  0  0  0  0  0  0  0
    6.4700   11.2034   10.9959 C   0  0  1  0  0  0  0  0  0  0  0  0
    7.4204   12.2728   10.9529 O   0  0  0  0  0  0  0  0  0  0  0  0
    4.5021    7.7328   14.2491 C   0  0  1  0  0  0  0  0  0  0  0  0
    3.4589    6.9044   14.7743 O   0  0  0  0  0  0  0  0  0  0  0  0
    2.3591    9.2940    0.4917 C   0  0  2  0  0  0  0  0  0  0  0  0
    3.3494    8.2827    0.4396 O   0  0  0  0  0  0  0  0  0  0  0  0
    1.2678   12.9857    3.6472 C   0  0  2  0  0  0  0  0  0  0  0  0
    2.2260   13.9779    7.6774 C   0  0  2  0  0  0  0  0  0  0  0  0
    2.2056   13.2824    6.4409 O   0  0  0  0  0  0  0  0  0  0  0  0
    5.6971   11.3678   12.3689 C   0  0  2  0  0  0  0  0  0  0  0  0
    4.7848   10.2689   12.3929 O   0  0  0  0  0  0  0  0  0  0  0  0
    5.8457    7.0196   14.4110 C   0  0  2  0  0  0  0  0  0  0  0  0
    6.1827    7.0777   15.8066 O   0  0  0  0  0  0  0  0  0  0  0  0
    2.9866   10.7094    0.4480 C   0  0  2  0  0  0  0  0  0  0  0  0
    1.8909   11.6665    0.3818 O   0  0  0  0  0  0  0  0  0  0  0  0
    2.3223   14.1110    3.8969 C   0  0  2  0  0  0  0  0  0  0  0  0
    3.5211   13.5325    4.4840 O   0  0  0  0  0  0  0  0  0  0  0  0
    1.5113   15.3190    7.5153 C   0  0  0  0  0  0  0  0  0  0  0  0
    0.1873   15.0478    7.0326 O   0  0  0  0  0  0  0  0  0  0  0  0
    4.8381   12.6076   12.2100 C   0  0  1  0  0  0  0  0  0  0  0  0
    4.2012   13.1500   11.0332 O   0  0  0  0  0  0  0  0  0  0  0  0
    6.9053    7.6061   13.4849 C   0  0  2  0  0  0  0  0  0  0  0  0
    6.5574    8.1494   12.2021 O   0  0  0  0  0  0  0  0  0  0  0  0
    3.8106   10.9461   -0.7716 C   0  0  0  0  0  0  0  0  0  0  0  0
    4.2563   12.2801   -0.7272 O   0  0  0  0  0  0  0  0  0  0  0  0
    1.7152   15.2597    4.7711 C   0  0  1  0  0  0  0  0  0  0  0  0
    2.6835   16.3419    4.7912 O   0  0  0  0  0  0  0  0  0  0  0  0
    4.0392   13.0640   13.4694 C   0  0  0  0  0  0  0  0  0  0  0  0
    2.5735   12.9988   13.2897 N   0  0  0  0  0  0  0  0  0  0  0  0
    8.3391    7.0845   13.4237 C   0  0  0  0  0  0  0  0  0  0  0  0
    8.6609    6.3742   14.6488 O   0  0  0  0  0  0  0  0  0  0  0  0
  1  2  1  1  0  0  0
  1  8  1  0  0  0  0
  1 36  1  0  0  0  0
  3  4  1  1  0  0  0
  3 10  1  0  0  0  0
  3 47  1  0  0  0  0
  5 11  1  0  0  0  0
  5 30  1  0  0  0  0
  5 38  1  6  0  0  0
  6 21  1  6  0  0  0
  6 42  1  0  0  0  0
  7 15  1  0  0  0  0
  7 44  1  0  0  0  0
  7 32  1  1  0  0  0
  8  9  1  1  0  0  0
  8 17  1  0  0  0  0
 11 12  1  1  0  0  0
 11 20  1  0  0  0  0
 13  6  1  0  0  0  0
 13 14  1  1  0  0  0
 15 16  1  6  0  0  0
 15 24  1  0  0  0  0
 17 26  1  0  0  0  0
 18 10  1  0  0  0  0
 18 19  1  1  0  0  0
 20 21  1  1  0  0  0
 20 29  1  0  0  0  0
 22 13  1  0  0  0  0
 22 23  1  6  0  0  0
 24 25  1  6  0  0  0
 24 33  1  0  0  0  0
 26 27  1  1  0  0  0
 26 35  1  0  0  0  0
 28  2  1  6  0  0  0
 28 18  1  0  0  0  0
 29 30  1  0  0  0  0
 29 39  1  6  0  0  0
 31 22  1  0  0  0  0
 31 32  1  6  0  0  0
 31 41  1  0  0  0  0
 33 34  1  1  0  0  0
 33 43  1  0  0  0  0
 35 36  1  0  0  0  0
 35 45  1  6  0  0  0
 37 28  1  0  0  0  0
 37 38  1  1  0  0  0
 39 40  1  0  0  0  0
 41 42  1  0  0  0  0
 41 49  1  1  0  0  0
 43 44  1  0  0  0  0
 43 51  1  6  0  0  0
 45 46  1  0  0  0  0
 47 37  1  0  0  0  0
 47 48  1  6  0  0  0
 49 50  1  0  0  0  0
 51 52  1  0  0  0  0
M  END
>  <CHROM.1>
-106.61490390,-112.18311823,-152.84416599,155.41937573,105.04496895,-0.48918551
171.20131355,45.55375586,176.72798849,-75.26511191,-116.11350407,-21.52424862
3.46941992,11.51999303,7.56168318,-2.54892521,-1.15794559,0.96361878

>  <Name>
2esj_lig

>  <RI>
0

>  <Rbt.Current_Directory>
/home/itssahil/PROJECTS/Mol_Feturizer/New_Systems/rnas/2esj

>  <Rbt.Executable>
rbdock ($Id: //depot/dev/client3/rdock/2013.1/src/exe/rbdock.cxx#4 $)

>  <Rbt.Library>
libRbt.so (2013.1, Build901 2013/11/27)

>  <Rbt.Parameter_File>
/export/apps/rDock/src/rDock_2013.1_src/data/scripts/dock_solv.prm

>  <Rbt.Receptor>
prm/blind_docking_20.prm

>  <SCORE>
38.5695

>  <SCORE.INTER>
4.75081

>  <SCORE.INTER.CONST>
1

>  <SCORE.INTER.POLAR>
-0.803264

>  <SCORE.INTER.ROT>
12

>  <SCORE.INTER.SOLV>
29.6521

>  <SCORE.INTER.VDW>
-15.6393

>  <SCORE.INTER.norm>
0.0913618

>  <SCORE.INTRA>
20.3919

>  <SCORE.INTRA.DIHEDRAL>
7.64702

>  <SCORE.INTRA.DIHEDRAL.0>
32.9766

>  <SCORE.INTRA.POLAR>
0

>  <SCORE.INTRA.POLAR.0>
0

>  <SCORE.INTRA.REPUL>
0

>  <SCORE.INTRA.REPUL.0>
0

>  <SCORE.INTRA.SOLV>
6.24799

>  <SCORE.INTRA.SOLV.lig_0>
-114.358

>  <SCORE.INTRA.VDW>
13.4444

>  <SCORE.INTRA.VDW.0>
-8.24257

>  <SCORE.INTRA.norm>
0.392152

>  <SCORE.RESTR>
13.4267

>  <SCORE.RESTR.CAVITY>
13.4267

>  <SCORE.RESTR.norm>
0.258206

>  <SCORE.SYSTEM>
0

>  <SCORE.SYSTEM.CONST>
0

>  <SCORE.SYSTEM.DIHEDRAL>
0

>  <SCORE.SYSTEM.SOLV>
0

>  <SCORE.SYSTEM.norm>
0

>  <SCORE.heavy>
52

>  <SCORE.norm>
0.74172

>  <RMSD>
27.808

$$$$
2esj_lig
 OpenBabel11021811423D
libRbt.so/2013.1/901 2013/11/27
 52 56  0  0  0  0  0  0  0  0999 V2000
    2.5221   11.3500    2.4637 C   0  0  2  0  0  0  0  0  0  0  0  0
    1.6729   12.4682    2.1422 O   0  0  0  0  0  0  0  0  0  0  0  0
   -0.3007   15.8351    3.8906 C   0  0  2  0  0  0  0  0  0  0  0  0
   -1.0608   16.7392    4.7694 N   0  0  0  0  0  0  0  0  0  0  0  0
    2.9672   13.3530    5.5843 C   0  0  1  0  0  0  0  0  0  0  0  0
    3.4699   12.3718    9.7007 C   0  0  1  0  0  0  0  0  0  0  0  0
    6.2704    8.6074   11.1797 C   0  0  1  0  0  0  0  0  0  0  0  0
    3.3108   10.9747    1.1745 C   0  0  2  0  0  0  0  0  0  0  0  0
    4.0733   12.1044    0.6437 N   0  0  0  0  0  0  0  0  0  0  0  0
   -1.1728   14.5713    3.5168 C   0  0  0  0  0  0  0  0  0  0  0  0
    3.9205   14.0588    6.5496 C   0  0  2  0  0  0  0  0  0  0  0  0
    5.2421   13.4768    6.5422 O   0  0  0  0  0  0  0  0  0  0  0  0
    4.9624   11.8425    9.8839 C   0  0  2  0  0  0  0  0  0  0  0  0
    5.2551   10.7313    8.9402 N   0  0  0  0  0  0  0  0  0  0  0  0
    5.9695    7.5577   12.2432 C   0  0  1  0  0  0  0  0  0  0  0  0
    6.8348    6.4217   12.0455 O   0  0  0  0  0  0  0  0  0  0  0  0
    2.3502   10.4201    0.0751 C   0  0  0  0  0  0  0  0  0  0  0  0
   -0.3625   13.6422    2.5259 C   0  0  2  0  0  0  0  0  0  0  0  0
   -1.1455   12.4533    2.1735 N   0  0  0  0  0  0  0  0  0  0  0  0
    3.1781   13.8862    7.8430 C   0  0  2  0  0  0  0  0  0  0  0  0
    3.3280   12.5750    8.3254 O   0  0  0  0  0  0  0  0  0  0  0  0
    5.2052   11.5019   11.4202 C   0  0  1  0  0  0  0  0  0  0  0  0
    4.8238   12.6326   12.2106 O   0  0  0  0  0  0  0  0  0  0  0  0
    6.1301    8.0264   13.6843 C   0  0  1  0  0  0  0  0  0  0  0  0
    6.0419    6.8664   14.5191 O   0  0  0  0  0  0  0  0  0  0  0  0
    1.5342    9.2350    0.6712 C   0  0  2  0  0  0  0  0  0  0  0  0
    0.6952    8.6329   -0.2981 O   0  0  0  0  0  0  0  0  0  0  0  0
    0.9922   13.2290    3.1576 C   0  0  2  0  0  0  0  0  0  0  0  0
    1.6803   13.9841    7.4870 C   0  0  2  0  0  0  0  0  0  0  0  0
    1.6598   13.4841    6.1594 O   0  0  0  0  0  0  0  0  0  0  0  0
    4.2819   10.3079   11.9009 C   0  0  2  0  0  0  0  0  0  0  0  0
    4.7121    9.1932   11.1181 O   0  0  0  0  0  0  0  0  0  0  0  0
    7.4524    8.7463   13.9548 C   0  0  2  0  0  0  0  0  0  0  0  0
    7.3231    9.3890   15.2335 O   0  0  0  0  0  0  0  0  0  0  0  0
    0.7221    9.7615    1.8805 C   0  0  2  0  0  0  0  0  0  0  0  0
    1.6786   10.2453    2.8664 O   0  0  0  0  0  0  0  0  0  0  0  0
    1.8560   14.4297    3.6607 C   0  0  2  0  0  0  0  0  0  0  0  0
    3.0624   13.9269    4.2995 O   0  0  0  0  0  0  0  0  0  0  0  0
    1.0648   15.3828    7.5104 C   0  0  0  0  0  0  0  0  0  0  0  0
    1.2860   15.9307    8.8182 O   0  0  0  0  0  0  0  0  0  0  0  0
    2.8883   10.6415   11.4040 C   0  0  1  0  0  0  0  0  0  0  0  0
    2.4720   11.3523   10.2182 O   0  0  0  0  0  0  0  0  0  0  0  0
    7.8200    9.6882   12.8137 C   0  0  2  0  0  0  0  0  0  0  0  0
    7.4535    9.3953   11.4566 O   0  0  0  0  0  0  0  0  0  0  0  0
   -0.0658    8.6962    2.5638 C   0  0  0  0  0  0  0  0  0  0  0  0
   -1.3312    9.2339    2.8634 O   0  0  0  0  0  0  0  0  0  0  0  0
    1.0195   15.3635    4.5991 C   0  0  1  0  0  0  0  0  0  0  0  0
    1.8254   16.5430    4.8608 O   0  0  0  0  0  0  0  0  0  0  0  0
    1.7473    9.6687   11.8334 C   0  0  0  0  0  0  0  0  0  0  0  0
    0.4077   10.2931   11.8189 N   0  0  0  0  0  0  0  0  0  0  0  0
    9.0934   10.5308   12.8065 C   0  0  0  0  0  0  0  0  0  0  0  0
    8.7699   11.9156   12.5126 O   0  0  0  0  0  0  0  0  0  0  0  0
  1  2  1  6  0  0  0
  1  8  1  0  0  0  0
  1 36  1  0  0  0  0
  3  4  1  1  0  0  0
  3 10  1  0  0  0  0
  3 47  1  0  0  0  0
  5 11  1  0  0  0  0
  5 30  1  0  0  0  0
  5 38  1  6  0  0  0
  6 21  1  6  0  0  0
  6 42  1  0  0  0  0
  7 15  1  0  0  0  0
  7 44  1  0  0  0  0
  7 32  1  1  0  0  0
  8  9  1  6  0  0  0
  8 17  1  0  0  0  0
 11 12  1  1  0  0  0
 11 20  1  0  0  0  0
 13  6  1  0  0  0  0
 13 14  1  6  0  0  0
 15 16  1  6  0  0  0
 15 24  1  0  0  0  0
 17 26  1  0  0  0  0
 18 10  1  0  0  0  0
 18 19  1  1  0  0  0
 20 21  1  6  0  0  0
 20 29  1  0  0  0  0
 22 13  1  0  0  0  0
 22 23  1  1  0  0  0
 24 25  1  1  0  0  0
 24 33  1  0  0  0  0
 26 27  1  6  0  0  0
 26 35  1  0  0  0  0
 28  2  1  6  0  0  0
 28 18  1  0  0  0  0
 29 30  1  0  0  0  0
 29 39  1  6  0  0  0
 31 22  1  0  0  0  0
 31 32  1  6  0  0  0
 31 41  1  0  0  0  0
 33 34  1  1  0  0  0
 33 43  1  0  0  0  0
 35 36  1  0  0  0  0
 35 45  1  1  0  0  0
 37 28  1  0  0  0  0
 37 38  1  1  0  0  0
 39 40  1  0  0  0  0
 41 42  1  0  0  0  0
 41 49  1  6  0  0  0
 43 44  1  0  0  0  0
 43 51  1  6  0  0  0
 45 46  1  0  0  0  0
 47 37  1  0  0  0  0
 47 48  1  6  0  0  0
 49 50  1  0  0  0  0
 51 52  1  0  0  0  0
M  END
>  <CHROM.1>
-168.18280490,-124.69933030,-112.59969117,93.47700152,141.88458004,-145.28560133
-56.59172729,60.65259332,-137.79126596,-74.61110072,156.23796941,-129.45981910
3.20604647,11.59297083,7.38588724,-2.76189312,-1.06520038,0.71611786

>  <Name>
2esj_lig

>  <RI>
0

>  <Rbt.Current_Directory>
/home/itssahil/PROJECTS/Mol_Feturizer/New_Systems/rnas/2esj

>  <Rbt.Executable>
rbdock ($Id: //depot/dev/client3/rdock/2013.1/src/exe/rbdock.cxx#4 $)

>  <Rbt.Library>
libRbt.so (2013.1, Build901 2013/11/27)

>  <Rbt.Parameter_File>
/export/apps/rDock/src/rDock_2013.1_src/data/scripts/dock_solv.prm

>  <Rbt.Receptor>
prm/blind_docking_20.prm

>  <SCORE>
22.1592

>  <SCORE.INTER>
2.83359

>  <SCORE.INTER.CONST>
1

>  <SCORE.INTER.POLAR>
-1.54638

>  <SCORE.INTER.ROT>
12

>  <SCORE.INTER.SOLV>
39.7143

>  <SCORE.INTER.VDW>
-17.7944

>  <SCORE.INTER.norm>
0.0544921

>  <SCORE.INTRA>
7.24646

>  <SCORE.INTRA.DIHEDRAL>
7.07379

>  <SCORE.INTRA.DIHEDRAL.0>
32.9766

>  <SCORE.INTRA.POLAR>
0

>  <SCORE.INTRA.POLAR.0>
0

>  <SCORE.INTRA.REPUL>
0

>  <SCORE.INTRA.REPUL.0>
0

>  <SCORE.INTRA.SOLV>
0.468746

>  <SCORE.INTRA.SOLV.lig_0>
-114.358

>  <SCORE.INTRA.VDW>
3.47519

>  <SCORE.INTRA.VDW.0>
-8.24257

>  <SCORE.INTRA.norm>
0.139355

>  <SCORE.RESTR>
12.0792

>  <SCORE.RESTR.CAVITY>
12.0792

>  <SCORE.RESTR.norm>
0.232292

>  <SCORE.SYSTEM>
0

>  <SCORE.SYSTEM.CONST>
0

>  <SCORE.SYSTEM.DIHEDRAL>
0

>  <SCORE.SYSTEM.SOLV>
0

>  <SCORE.SYSTEM.norm>
0

>  <SCORE.heavy>
52

>  <SCORE.norm>
0.426139

>  <RMSD>
27.860

$$$$
2esj_lig
 OpenBabel11021811423D
libRbt.so/2013.1/901 2013/11/27
 52 56  0  0  0  0  0  0  0  0999 V2000
    2.5731   11.2834    2.5298 C   0  0  2  0  0  0  0  0  0  0  0  0
    1.7319   12.4324    2.3129 O   0  0  0  0  0  0  0  0  0  0  0  0
    0.1106   15.8586    4.2929 C   0  0  2  0  0  0  0  0  0  0  0  0
   -0.5075   16.7836    5.2572 N   0  0  0  0  0  0  0  0  0  0  0  0
    3.4795   13.3607    5.6458 C   0  0  1  0  0  0  0  0  0  0  0  0
    4.6463   12.9153    9.7040 C   0  0  1  0  0  0  0  0  0  0  0  0
    5.0280    8.6186   11.8695 C   0  0  1  0  0  0  0  0  0  0  0  0
    3.5125   11.1505    1.2950 C   0  0  2  0  0  0  0  0  0  0  0  0
    4.2952   12.3638    1.0620 N   0  0  0  0  0  0  0  0  0  0  0  0
   -0.8506   14.6362    4.0113 C   0  0  0  0  0  0  0  0  0  0  0  0
    4.3897   14.2760    6.4656 C   0  0  2  0  0  0  0  0  0  0  0  0
    5.7740   13.8686    6.4105 O   0  0  0  0  0  0  0  0  0  0  0  0
    5.4581   11.5475    9.8109 C   0  0  2  0  0  0  0  0  0  0  0  0
    4.6335   10.3991    9.3504 N   0  0  0  0  0  0  0  0  0  0  0  0
    4.0378    7.8314   12.7200 C   0  0  1  0  0  0  0  0  0  0  0  0
    3.9873    6.4696   12.2495 O   0  0  0  0  0  0  0  0  0  0  0  0
    2.6984   10.7903    0.0117 C   0  0  0  0  0  0  0  0  0  0  0  0
   -0.1962   13.6853    2.9300 C   0  0  2  0  0  0  0  0  0  0  0  0
   -1.0634   12.5339    2.6601 N   0  0  0  0  0  0  0  0  0  0  0  0
    3.7615   14.1430    7.8227 C   0  0  2  0  0  0  0  0  0  0  0  0
    4.1160   12.9172    8.4112 O   0  0  0  0  0  0  0  0  0  0  0  0
    6.0430   11.4074   11.2851 C   0  0  1  0  0  0  0  0  0  0  0  0
    6.7555   12.6039   11.6159 O   0  0  0  0  0  0  0  0  0  0  0  0
    4.3412    7.8023   14.2132 C   0  0  1  0  0  0  0  0  0  0  0  0
    3.4618    6.8399   14.8053 O   0  0  0  0  0  0  0  0  0  0  0  0
    1.8569    9.5102    0.2926 C   0  0  2  0  0  0  0  0  0  0  0  0
    1.1505    9.0814   -0.8577 O   0  0  0  0  0  0  0  0  0  0  0  0
    1.2019   13.2095    3.4031 C   0  0  2  0  0  0  0  0  0  0  0  0
    2.2444   14.0134    7.5753 C   0  0  2  0  0  0  0  0  0  0  0  0
    2.2058   13.3826    6.3050 O   0  0  0  0  0  0  0  0  0  0  0  0
    4.8841   11.2845   12.3580 C   0  0  2  0  0  0  0  0  0  0  0  0
    4.2184   10.0669   12.0191 O   0  0  0  0  0  0  0  0  0  0  0  0
    5.7895    7.4349   14.5410 C   0  0  2  0  0  0  0  0  0  0  0  0
    5.9965    7.7522   15.9270 O   0  0  0  0  0  0  0  0  0  0  0  0
    0.8987    9.8058    1.4731 C   0  0  2  0  0  0  0  0  0  0  0  0
    1.7235   10.1165    2.6325 O   0  0  0  0  0  0  0  0  0  0  0  0
    2.1666   14.3678    3.8137 C   0  0  2  0  0  0  0  0  0  0  0  0
    3.4145   13.8085    4.3100 O   0  0  0  0  0  0  0  0  0  0  0  0
    1.4501   15.3178    7.5167 C   0  0  0  0  0  0  0  0  0  0  0  0
    0.0598   14.9737    7.4257 O   0  0  0  0  0  0  0  0  0  0  0  0
    3.9014   12.3917   12.0287 C   0  0  1  0  0  0  0  0  0  0  0  0
    3.5522   12.9731   10.7541 O   0  0  0  0  0  0  0  0  0  0  0  0
    6.7679    8.1139   13.5892 C   0  0  2  0  0  0  0  0  0  0  0  0
    6.4130    8.3899   12.2255 O   0  0  0  0  0  0  0  0  0  0  0  0
    0.0716    8.6285    1.8635 C   0  0  0  0  0  0  0  0  0  0  0  0
    0.9314    7.5177    1.9464 O   0  0  0  0  0  0  0  0  0  0  0  0
    1.4806   15.3250    4.8459 C   0  0  1  0  0  0  0  0  0  0  0  0
    2.3599   16.4672    5.0230 O   0  0  0  0  0  0  0  0  0  0  0  0
    2.6989   12.5655   13.0067 C   0  0  0  0  0  0  0  0  0  0  0  0
    2.4777   13.9669   13.4212 N   0  0  0  0  0  0  0  0  0  0  0  0
    8.2805    7.9217   13.6725 C   0  0  0  0  0  0  0  0  0  0  0  0
    8.6820    7.7440   15.0567 O   0  0  0  0  0  0  0  0  0  0  0  0
  1  2  1  6  0  0  0
  1  8  1  0  0  0  0
  1 36  1  0  0  0  0
  3  4  1  1  0  0  0
  3 10  1  0  0  0  0
  3 47  1  0  0  0  0
  5 11  1  0  0  0  0
  5 30  1  0  0  0  0
  5 38  1  6  0  0  0
  6 21  1  6  0  0  0
  6 42  1  0  0  0  0
  7 15  1  0  0  0  0
  7 44  1  0  0  0  0
  7 32  1  1  0  0  0
  8  9  1  6  0  0  0
  8 17  1  0  0  0  0
 11 12  1  1  0  0  0
 11 20  1  0  0  0  0
 13  6  1  0  0  0  0
 13 14  1  1  0  0  0
 15 16  1  6  0  0  0
 15 24  1  0  0  0  0
 17 26  1  0  0  0  0
 18 10  1  0  0  0  0
 18 19  1  1  0  0  0
 20 21  1  6  0  0  0
 20 29  1  0  0  0  0
 22 13  1  0  0  0  0
 22 23  1  1  0  0  0
 24 25  1  1  0  0  0
 24 33  1  0  0  0  0
 26 27  1  6  0  0  0
 26 35  1  0  0  0  0
 28  2  1  6  0  0  0
 28 18  1  0  0  0  0
 29 30  1  0  0  0  0
 29 39  1  6  0  0  0
 31 22  1  0  0  0  0
 31 32  1  6  0  0  0
 31 41  1  0  0  0  0
 33 34  1  1  0  0  0
 33 43  1  0  0  0  0
 35 36  1  0  0  0  0
 35 45  1  1  0  0  0
 37 28  1  0  0  0  0
 37 38  1  1  0  0  0
 39 40  1  0  0  0  0
 41 42  1  0  0  0  0
 41 49  1  6  0  0  0
 43 44  1  0  0  0  0
 43 51  1  6  0  0  0
 45 46  1  0  0  0  0
 47 37  1  0  0  0  0
 47 48  1  6  0  0  0
 49 50  1  0  0  0  0
 51 52  1  0  0  0  0
M  END
>  <CHROM.1>
-151.30138876,-111.13968125,-157.42541425,132.26876530,128.30902317,-145.83239722
-173.90121611,54.00717489,46.75301902,-81.62338534,132.16185250,-33.30871409
3.26842210,11.55560612,7.62641850,-2.78831701,-1.19789529,0.67311180

>  <Name>
2esj_lig

>  <RI>
0

>  <Rbt.Current_Directory>
/home/itssahil/PROJECTS/Mol_Feturizer/New_Systems/rnas/2esj

>  <Rbt.Executable>
rbdock ($Id: //depot/dev/client3/rdock/2013.1/src/exe/rbdock.cxx#4 $)

>  <Rbt.Library>
libRbt.so (2013.1, Build901 2013/11/27)

>  <Rbt.Parameter_File>
/export/apps/rDock/src/rDock_2013.1_src/data/scripts/dock_solv.prm

>  <Rbt.Receptor>
prm/blind_docking_20.prm

>  <SCORE>
31.1723

>  <SCORE.INTER>
6.22928

>  <SCORE.INTER.CONST>
1

>  <SCORE.INTER.POLAR>
-0.403799

>  <SCORE.INTER.ROT>
12

>  <SCORE.INTER.SOLV>
33.1631

>  <SCORE.INTER.VDW>
-17.1555

>  <SCORE.INTER.norm>
0.119794

>  <SCORE.INTRA>
10.9628

>  <SCORE.INTRA.DIHEDRAL>
5.72278

>  <SCORE.INTRA.DIHEDRAL.0>
32.9766

>  <SCORE.INTRA.POLAR>
0

>  <SCORE.INTRA.POLAR.0>
0

>  <SCORE.INTRA.REPUL>
0

>  <SCORE.INTRA.REPUL.0>
0

>  <SCORE.INTRA.SOLV>
1.60746

>  <SCORE.INTRA.SOLV.lig_0>
-114.358

>  <SCORE.INTRA.VDW>
7.29771

>  <SCORE.INTRA.VDW.0>
-8.24257

>  <SCORE.INTRA.norm>
0.210824

>  <SCORE.RESTR>
13.9802

>  <SCORE.RESTR.CAVITY>
13.9802

>  <SCORE.RESTR.norm>
0.268851

>  <SCORE.SYSTEM>
0

>  <SCORE.SYSTEM.CONST>
0

>  <SCORE.SYSTEM.DIHEDRAL>
0

>  <SCORE.SYSTEM.SOLV>
0

>  <SCORE.SYSTEM.norm>
0

>  <SCORE.heavy>
52

>  <SCORE.norm>
0.599468

>  <RMSD>
27.872

$$$$
2esj_lig
 OpenBabel11021811423D
libRbt.so/2013.1/901 2013/11/27
 52 56  0  0  0  0  0  0  0  0999 V2000
    2.6221   11.6785    2.6883 C   0  0  2  0  0  0  0  0  0  0  0  0
    1.5215   12.5414    2.3435 O   0  0  0  0  0  0  0  0  0  0  0  0
   -0.3741   16.0530    3.8809 C   0  0  2  0  0  0  0  0  0  0  0  0
   -1.1009   17.0299    4.7084 N   0  0  0  0  0  0  0  0  0  0  0  0
    2.8985   13.5018    5.5888 C   0  0  1  0  0  0  0  0  0  0  0  0
    3.3686   12.2201    9.6210 C   0  0  1  0  0  0  0  0  0  0  0  0
    6.3134    8.4599   11.1217 C   0  0  1  0  0  0  0  0  0  0  0  0
    3.8058   12.0264    1.7381 C   0  0  2  0  0  0  0  0  0  0  0  0
    4.1765   13.4394    1.8104 N   0  0  0  0  0  0  0  0  0  0  0  0
   -1.2663   14.7725    3.6324 C   0  0  0  0  0  0  0  0  0  0  0  0
    3.9356   14.0763    6.5546 C   0  0  2  0  0  0  0  0  0  0  0  0
    5.2111   13.4065    6.4551 O   0  0  0  0  0  0  0  0  0  0  0  0
    4.8838   11.7957    9.8765 C   0  0  2  0  0  0  0  0  0  0  0  0
    5.3341   10.7928    8.8753 N   0  0  0  0  0  0  0  0  0  0  0  0
    5.9164    7.5104   12.2462 C   0  0  1  0  0  0  0  0  0  0  0  0
    6.7837    6.3590   12.2221 O   0  0  0  0  0  0  0  0  0  0  0  0
    3.4676   11.6419    0.2627 C   0  0  0  0  0  0  0  0  0  0  0  0
   -0.4928   13.7613    2.6938 C   0  0  2  0  0  0  0  0  0  0  0  0
   -1.2948   12.5563    2.4581 N   0  0  0  0  0  0  0  0  0  0  0  0
    3.2324   13.8718    7.8652 C   0  0  2  0  0  0  0  0  0  0  0  0
    3.3067   12.5249    8.2586 O   0  0  0  0  0  0  0  0  0  0  0  0
    5.0463   11.3490   11.3961 C   0  0  1  0  0  0  0  0  0  0  0  0
    4.5169   12.3770   12.2397 O   0  0  0  0  0  0  0  0  0  0  0  0
    5.9637    8.1059   13.6481 C   0  0  1  0  0  0  0  0  0  0  0  0
    5.7964    7.0256   14.5729 O   0  0  0  0  0  0  0  0  0  0  0  0
    3.0542   10.1410    0.2161 C   0  0  2  0  0  0  0  0  0  0  0  0
    2.8073    9.7036   -1.1082 O   0  0  0  0  0  0  0  0  0  0  0  0
    0.8771   13.3853    3.3160 C   0  0  2  0  0  0  0  0  0  0  0  0
    1.7330   14.0953    7.5797 C   0  0  2  0  0  0  0  0  0  0  0  0
    1.6265   13.6849    6.2257 O   0  0  0  0  0  0  0  0  0  0  0  0
    4.1951   10.0508   11.7116 C   0  0  2  0  0  0  0  0  0  0  0  0
    4.7711    9.0418   10.8806 O   0  0  0  0  0  0  0  0  0  0  0  0
    7.2667    8.8437   13.9610 C   0  0  2  0  0  0  0  0  0  0  0  0
    7.0401    9.5987   15.1623 O   0  0  0  0  0  0  0  0  0  0  0  0
    1.8119    9.9490    1.1212 C   0  0  2  0  0  0  0  0  0  0  0  0
    2.2043   10.3094    2.4766 O   0  0  0  0  0  0  0  0  0  0  0  0
    1.7643   14.6131    3.6984 C   0  0  2  0  0  0  0  0  0  0  0  0
    2.9855   14.1498    4.3391 O   0  0  0  0  0  0  0  0  0  0  0  0
    1.2201   15.5285    7.7158 C   0  0  0  0  0  0  0  0  0  0  0  0
    2.1698   16.3905    7.0719 O   0  0  0  0  0  0  0  0  0  0  0  0
    2.8167   10.3145   11.1367 C   0  0  1  0  0  0  0  0  0  0  0  0
    2.4260   11.0865    9.9808 O   0  0  0  0  0  0  0  0  0  0  0  0
    7.7354    9.6786   12.7745 C   0  0  2  0  0  0  0  0  0  0  0  0
    7.4778    9.2663   11.4234 O   0  0  0  0  0  0  0  0  0  0  0  0
    1.3532    8.5323    1.1913 C   0  0  0  0  0  0  0  0  0  0  0  0
    1.0615    8.1179   -0.1215 O   0  0  0  0  0  0  0  0  0  0  0  0
    0.9632   15.6251    4.5852 C   0  0  1  0  0  0  0  0  0  0  0  0
    1.7853   16.8135    4.7305 O   0  0  0  0  0  0  0  0  0  0  0  0
    1.7342    9.2233   11.4015 C   0  0  0  0  0  0  0  0  0  0  0  0
    2.2066    7.8498   11.1273 N   0  0  0  0  0  0  0  0  0  0  0  0
    9.0135   10.5139   12.7967 C   0  0  0  0  0  0  0  0  0  0  0  0
    8.6909   11.9185   12.6180 O   0  0  0  0  0  0  0  0  0  0  0  0
  1  2  1  6  0  0  0
  1  8  1  0  0  0  0
  1 36  1  0  0  0  0
  3  4  1  1  0  0  0
  3 10  1  0  0  0  0
  3 47  1  0  0  0  0
  5 11  1  0  0  0  0
  5 30  1  0  0  0  0
  5 38  1  6  0  0  0
  6 21  1  6  0  0  0
  6 42  1  0  0  0  0
  7 15  1  0  0  0  0
  7 44  1  0  0  0  0
  7 32  1  1  0  0  0
  8  9  1  6  0  0  0
  8 17  1  0  0  0  0
 11 12  1  1  0  0  0
 11 20  1  0  0  0  0
 13  6  1  0  0  0  0
 13 14  1  6  0  0  0
 15 16  1  1  0  0  0
 15 24  1  0  0  0  0
 17 26  1  0  0  0  0
 18 10  1  0  0  0  0
 18 19  1  1  0  0  0
 20 21  1  6  0  0  0
 20 29  1  0  0  0  0
 22 13  1  0  0  0  0
 22 23  1  1  0  0  0
 24 25  1  1  0  0  0
 24 33  1  0  0  0  0
 26 27  1  6  0  0  0
 26 35  1  0  0  0  0
 28  2  1  6  0  0  0
 28 18  1  0  0  0  0
 29 30  1  0  0  0  0
 29 39  1  6  0  0  0
 31 22  1  0  0  0  0
 31 32  1  6  0  0  0
 31 41  1  0  0  0  0
 33 34  1  1  0  0  0
 33 43  1  0  0  0  0
 35 36  1  0  0  0  0
 35 45  1  1  0  0  0
 37 28  1  0  0  0  0
 37 38  1  1  0  0  0
 39 40  1  0  0  0  0
 41 42  1  0  0  0  0
 41 49  1  6  0  0  0
 43 44  1  0  0  0  0
 43 51  1  6  0  0  0
 45 46  1  0  0  0  0
 47 37  1  0  0  0  0
 47 48  1  6  0  0  0
 49 50  1  0  0  0  0
 51 52  1  0  0  0  0
M  END
>  <CHROM.1>
-124.83127268,-133.05762359,-105.50762671,80.50411401,147.40148205,-161.57471422
44.63899878,67.40688397,-58.40195476,-65.54882502,-47.23215719,-118.08788611
3.41962385,11.65971843,7.22960982,-2.60770080,-1.08926379,0.91956252

>  <Name>
2esj_lig

>  <RI>
0

>  <Rbt.Current_Directory>
/home/itssahil/PROJECTS/Mol_Feturizer/New_Systems/rnas/2esj

>  <Rbt.Executable>
rbdock ($Id: //depot/dev/client3/rdock/2013.1/src/exe/rbdock.cxx#4 $)

>  <Rbt.Library>
libRbt.so (2013.1, Build901 2013/11/27)

>  <Rbt.Parameter_File>
/export/apps/rDock/src/rDock_2013.1_src/data/scripts/dock_solv.prm

>  <Rbt.Receptor>
prm/blind_docking_20.prm

>  <SCORE>
13.0014

>  <SCORE.INTER>
-4.85202

>  <SCORE.INTER.CONST>
1

>  <SCORE.INTER.POLAR>
-2.08464

>  <SCORE.INTER.ROT>
12

>  <SCORE.INTER.SOLV>
34.491

>  <SCORE.INTER.VDW>
-19.3829

>  <SCORE.INTER.norm>
-0.093308

>  <SCORE.INTRA>
5.91984

>  <SCORE.INTRA.DIHEDRAL>
1.70596

>  <SCORE.INTRA.DIHEDRAL.0>
32.9766

>  <SCORE.INTRA.POLAR>
0

>  <SCORE.INTRA.POLAR.0>
0

>  <SCORE.INTRA.REPUL>
0

>  <SCORE.INTRA.REPUL.0>
0

>  <SCORE.INTRA.SOLV>
3.44817

>  <SCORE.INTRA.SOLV.lig_0>
-114.358

>  <SCORE.INTRA.VDW>
3.34277

>  <SCORE.INTRA.VDW.0>
-8.24257

>  <SCORE.INTRA.norm>
0.113843

>  <SCORE.RESTR>
11.9336

>  <SCORE.RESTR.CAVITY>
11.9336

>  <SCORE.RESTR.norm>
0.229492

>  <SCORE.SYSTEM>
0

>  <SCORE.SYSTEM.CONST>
0

>  <SCORE.SYSTEM.DIHEDRAL>
0

>  <SCORE.SYSTEM.SOLV>
0

>  <SCORE.SYSTEM.norm>
0

>  <SCORE.heavy>
52

>  <SCORE.norm>
0.250027

>  <RMSD>
27.892

$$$$
2esj_lig
 OpenBabel11021811423D
libRbt.so/2013.1/901 2013/11/27
 52 56  0  0  0  0  0  0  0  0999 V2000
    2.6295   11.6822    2.7593 C   0  0  2  0  0  0  0  0  0  0  0  0
    1.5434   12.5473    2.3763 O   0  0  0  0  0  0  0  0  0  0  0  0
   -0.4135   16.0620    3.8273 C   0  0  2  0  0  0  0  0  0  0  0  0
   -1.1652   17.0435    4.6267 N   0  0  0  0  0  0  0  0  0  0  0  0
    2.8448   13.5379    5.6210 C   0  0  1  0  0  0  0  0  0  0  0  0
    3.2452   12.2154    9.6468 C   0  0  1  0  0  0  0  0  0  0  0  0
    6.2845    8.4705   11.3319 C   0  0  1  0  0  0  0  0  0  0  0  0
    3.8475   12.0299    1.8534 C   0  0  2  0  0  0  0  0  0  0  0  0
    4.2174   13.4422    1.9415 N   0  0  0  0  0  0  0  0  0  0  0  0
   -1.2891   14.7702    3.5787 C   0  0  0  0  0  0  0  0  0  0  0  0
    3.8771   14.0926    6.6035 C   0  0  2  0  0  0  0  0  0  0  0  0
    5.1462   13.4097    6.5124 O   0  0  0  0  0  0  0  0  0  0  0  0
    4.7747   11.8861    9.9526 C   0  0  2  0  0  0  0  0  0  0  0  0
    5.3242   10.9274    8.9577 N   0  0  0  0  0  0  0  0  0  0  0  0
    5.7587    7.7082   12.5427 C   0  0  1  0  0  0  0  0  0  0  0  0
    6.5372    6.5079   12.7213 O   0  0  0  0  0  0  0  0  0  0  0  0
    3.5626   11.6483    0.3660 C   0  0  0  0  0  0  0  0  0  0  0  0
   -0.4882   13.7535    2.6697 C   0  0  2  0  0  0  0  0  0  0  0  0
   -1.2746   12.5382    2.4347 N   0  0  0  0  0  0  0  0  0  0  0  0
    3.1568   13.8842    7.9042 C   0  0  2  0  0  0  0  0  0  0  0  0
    3.2120   12.5332    8.2864 O   0  0  0  0  0  0  0  0  0  0  0  0
    4.9118   11.4312   11.4722 C   0  0  1  0  0  0  0  0  0  0  0  0
    4.2874   12.4120   12.3069 O   0  0  0  0  0  0  0  0  0  0  0  0
    5.7767    8.4804   13.8564 C   0  0  1  0  0  0  0  0  0  0  0  0
    5.4803    7.5466   14.9006 O   0  0  0  0  0  0  0  0  0  0  0  0
    3.1489   10.1481    0.3019 C   0  0  2  0  0  0  0  0  0  0  0  0
    2.9496    9.7133   -1.0313 O   0  0  0  0  0  0  0  0  0  0  0  0
    0.8723   13.3985    3.3241 C   0  0  2  0  0  0  0  0  0  0  0  0
    1.6633   14.1267    7.6039 C   0  0  2  0  0  0  0  0  0  0  0  0
    1.5677   13.7294    6.2452 O   0  0  0  0  0  0  0  0  0  0  0  0
    4.1359   10.0769   11.7428 C   0  0  2  0  0  0  0  0  0  0  0  0
    4.8051    9.1179   10.9226 O   0  0  0  0  0  0  0  0  0  0  0  0
    7.1132    9.1636   14.1516 C   0  0  2  0  0  0  0  0  0  0  0  0
    6.8809   10.0854   15.2292 O   0  0  0  0  0  0  0  0  0  0  0  0
    1.8743    9.9565    1.1608 C   0  0  2  0  0  0  0  0  0  0  0  0
    2.2176   10.3140    2.5302 O   0  0  0  0  0  0  0  0  0  0  0  0
    1.7408   14.6393    3.7071 C   0  0  2  0  0  0  0  0  0  0  0  0
    2.9530   14.1959    4.3782 O   0  0  0  0  0  0  0  0  0  0  0  0
    1.1645   15.5642    7.7469 C   0  0  0  0  0  0  0  0  0  0  0  0
    2.1190   16.4193    7.1010 O   0  0  0  0  0  0  0  0  0  0  0  0
    2.7645   10.2588   11.1212 C   0  0  1  0  0  0  0  0  0  0  0  0
    2.3659   11.0189    9.9602 O   0  0  0  0  0  0  0  0  0  0  0  0
    7.7050    9.7996   12.8988 C   0  0  2  0  0  0  0  0  0  0  0  0
    7.4887    9.2295   11.5988 O   0  0  0  0  0  0  0  0  0  0  0  0
    1.4112    8.5404    1.2118 C   0  0  0  0  0  0  0  0  0  0  0  0
    1.1839    8.1229   -0.1127 O   0  0  0  0  0  0  0  0  0  0  0  0
    0.9132   15.6559    4.5638 C   0  0  1  0  0  0  0  0  0  0  0  0
    1.7217   16.8536    4.7091 O   0  0  0  0  0  0  0  0  0  0  0  0
    1.7463    9.0968   11.3351 C   0  0  0  0  0  0  0  0  0  0  0  0
    2.3740    7.7587   11.3307 N   0  0  0  0  0  0  0  0  0  0  0  0
    9.0392   10.5423   12.8923 C   0  0  0  0  0  0  0  0  0  0  0  0
    8.8260   11.9418   12.5690 O   0  0  0  0  0  0  0  0  0  0  0  0
  1  2  1  6  0  0  0
  1  8  1  0  0  0  0
  1 36  1  0  0  0  0
  3  4  1  1  0  0  0
  3 10  1  0  0  0  0
  3 47  1  0  0  0  0
  5 11  1  0  0  0  0
  5 30  1  0  0  0  0
  5 38  1  6  0  0  0
  6 21  1  6  0  0  0
  6 42  1  0  0  0  0
  7 15  1  0  0  0  0
  7 44  1  0  0  0  0
  7 32  1  1  0  0  0
  8  9  1  6  0  0  0
  8 17  1  0  0  0  0
 11 12  1  1  0  0  0
 11 20  1  0  0  0  0
 13  6  1  0  0  0  0
 13 14  1  6  0  0  0
 15 16  1  1  0  0  0
 15 24  1  0  0  0  0
 17 26  1  0  0  0  0
 18 10  1  0  0  0  0
 18 19  1  1  0  0  0
 20 21  1  6  0  0  0
 20 29  1  0  0  0  0
 22 13  1  0  0  0  0
 22 23  1  1  0  0  0
 24 25  1  1  0  0  0
 24 33  1  0  0  0  0
 26 27  1  6  0  0  0
 26 35  1  0  0  0  0
 28  2  1  6  0  0  0
 28 18  1  0  0  0  0
 29 30  1  0  0  0  0
 29 39  1  6  0  0  0
 31 22  1  0  0  0  0
 31 32  1  6  0  0  0
 31 41  1  0  0  0  0
 33 34  1  1  0  0  0
 33 43  1  0  0  0  0
 35 36  1  0  0  0  0
 35 45  1  1  0  0  0
 37 28  1  0  0  0  0
 37 38  1  1  0  0  0
 39 40  1  0  0  0  0
 41 42  1  0  0  0  0
 41 49  1  6  0  0  0
 43 44  1  0  0  0  0
 43 51  1  1  0  0  0
 45 46  1  0  0  0  0
 47 37  1  0  0  0  0
 47 48  1  6  0  0  0
 49 50  1  0  0  0  0
 51 52  1  0  0  0  0
M  END
>  <CHROM.1>
-124.33076259,-135.04966585,-101.19845040,67.16131642,147.86821739,-160.48305276
45.62971460,76.37277122,-57.62835432,-64.17159019,-35.66927728,-115.71107582
3.38424467,11.71311939,7.29690567,-2.56387138,-1.08870937,0.94991832

>  <Name>
2esj_lig

>  <RI>
0

>  <Rbt.Current_Directory>
/home/itssahil/PROJECTS/Mol_Feturizer/New_Systems/rnas/2esj

>  <Rbt.Executable>
rbdock ($Id: //depot/dev/client3/rdock/2013.1/src/exe/rbdock.cxx#4 $)

>  <Rbt.Library>
libRbt.so (2013.1, Build901 2013/11/27)

>  <Rbt.Parameter_File>
/export/apps/rDock/src/rDock_2013.1_src/data/scripts/dock_solv.prm

>  <Rbt.Receptor>
prm/blind_docking_20.prm

>  <SCORE>
14.0682

>  <SCORE.INTER>
-3.42898

>  <SCORE.INTER.CONST>
1

>  <SCORE.INTER.POLAR>
-1.78112

>  <SCORE.INTER.ROT>
12

>  <SCORE.INTER.SOLV>
33.365

>  <SCORE.INTER.VDW>
-19.0706

>  <SCORE.INTER.norm>
-0.0659418

>  <SCORE.INTRA>
5.24185

>  <SCORE.INTRA.DIHEDRAL>
0.078947

>  <SCORE.INTRA.DIHEDRAL.0>
32.9766

>  <SCORE.INTRA.POLAR>
0

>  <SCORE.INTRA.POLAR.0>
0

>  <SCORE.INTRA.REPUL>
0

>  <SCORE.INTRA.REPUL.0>
0

>  <SCORE.INTRA.SOLV>
3.81741

>  <SCORE.INTRA.SOLV.lig_0>
-114.358

>  <SCORE.INTRA.VDW>
3.29367

>  <SCORE.INTRA.VDW.0>
-8.24257

>  <SCORE.INTRA.norm>
0.100805

>  <SCORE.RESTR>
12.2553

>  <SCORE.RESTR.CAVITY>
12.2553

>  <SCORE.RESTR.norm>
0.235678

>  <SCORE.SYSTEM>
0

>  <SCORE.SYSTEM.CONST>
0

>  <SCORE.SYSTEM.DIHEDRAL>
0

>  <SCORE.SYSTEM.SOLV>
0

>  <SCORE.SYSTEM.norm>
0

>  <SCORE.heavy>
52

>  <SCORE.norm>
0.270541

>  <RMSD>
27.932

$$$$
2esj_lig
 OpenBabel11021811423D
libRbt.so/2013.1/901 2013/11/27
 52 56  0  0  0  0  0  0  0  0999 V2000
    2.5392   11.2196    2.5787 C   0  0  2  0  0  0  0  0  0  0  0  0
    1.6968   12.3502    2.2838 O   0  0  0  0  0  0  0  0  0  0  0  0
   -0.0097   15.8154    4.1192 C   0  0  2  0  0  0  0  0  0  0  0  0
   -0.6943   16.7541    5.0233 N   0  0  0  0  0  0  0  0  0  0  0  0
    3.1137   13.1862    5.7849 C   0  0  1  0  0  0  0  0  0  0  0  0
    3.0617   12.4217    9.8875 C   0  0  1  0  0  0  0  0  0  0  0  0
    6.2084   10.4192   13.7313 C   0  0  1  0  0  0  0  0  0  0  0  0
    3.3891   10.9244    1.3076 C   0  0  2  0  0  0  0  0  0  0  0  0
    4.1660   12.0871    0.8791 N   0  0  0  0  0  0  0  0  0  0  0  0
   -0.9755   14.6276    3.7271 C   0  0  0  0  0  0  0  0  0  0  0  0
    4.1080   13.9287    6.6785 C   0  0  2  0  0  0  0  0  0  0  0  0
    5.4080   13.3002    6.6964 O   0  0  0  0  0  0  0  0  0  0  0  0
    4.1374   13.1832   10.7842 C   0  0  2  0  0  0  0  0  0  0  0  0
    5.5215   12.7965   10.4023 N   0  0  0  0  0  0  0  0  0  0  0  0
    7.4080   10.1710   12.8242 C   0  0  1  0  0  0  0  0  0  0  0  0
    8.6160   10.2336   13.6087 O   0  0  0  0  0  0  0  0  0  0  0  0
    2.4842   10.4300    0.1347 C   0  0  0  0  0  0  0  0  0  0  0  0
   -0.2434   13.6626    2.7100 C   0  0  2  0  0  0  0  0  0  0  0  0
   -1.1148   12.5425    2.3401 N   0  0  0  0  0  0  0  0  0  0  0  0
    3.3829   13.8827    7.9923 C   0  0  2  0  0  0  0  0  0  0  0  0
    3.4953   12.6078    8.5721 O   0  0  0  0  0  0  0  0  0  0  0  0
    3.7776   12.9655   12.3198 C   0  0  1  0  0  0  0  0  0  0  0  0
    2.4054   13.3159   12.5276 O   0  0  0  0  0  0  0  0  0  0  0  0
    7.3981    8.8405   12.0812 C   0  0  1  0  0  0  0  0  0  0  0  0
    8.6879    8.6815   11.4801 O   0  0  0  0  0  0  0  0  0  0  0  0
    1.6512    9.2078    0.6227 C   0  0  2  0  0  0  0  0  0  0  0  0
    0.8623    8.6589   -0.4178 O   0  0  0  0  0  0  0  0  0  0  0  0
    1.0817   13.1373    3.3209 C   0  0  2  0  0  0  0  0  0  0  0  0
    1.8835   14.0074    7.6521 C   0  0  2  0  0  0  0  0  0  0  0  0
    1.8219   13.4084    6.3675 O   0  0  0  0  0  0  0  0  0  0  0  0
    3.9010   11.4410   12.7324 C   0  0  2  0  0  0  0  0  0  0  0  0
    5.2841   11.1368   12.5455 O   0  0  0  0  0  0  0  0  0  0  0  0
    7.1045    7.6360   12.9773 C   0  0  2  0  0  0  0  0  0  0  0  0
    6.8208    6.5284   12.1071 O   0  0  0  0  0  0  0  0  0  0  0  0
    0.7805    9.6584    1.8217 C   0  0  2  0  0  0  0  0  0  0  0  0
    1.6870   10.0889    2.8771 O   0  0  0  0  0  0  0  0  0  0  0  0
    2.0355   14.2601    3.8409 C   0  0  2  0  0  0  0  0  0  0  0  0
    3.2062   13.6562    4.4584 O   0  0  0  0  0  0  0  0  0  0  0  0
    1.3179   15.4252    7.5767 C   0  0  0  0  0  0  0  0  0  0  0  0
   -0.1008   15.3154    7.3899 O   0  0  0  0  0  0  0  0  0  0  0  0
    3.1640   10.6646   11.6581 C   0  0  1  0  0  0  0  0  0  0  0  0
    3.0053   10.9495   10.2516 O   0  0  0  0  0  0  0  0  0  0  0  0
    6.0001    7.9428   13.9825 C   0  0  2  0  0  0  0  0  0  0  0  0
    5.8210    9.2644   14.5145 O   0  0  0  0  0  0  0  0  0  0  0  0
   -0.0294    8.5509    2.4049 C   0  0  0  0  0  0  0  0  0  0  0  0
   -1.2241    9.1130    2.8917 O   0  0  0  0  0  0  0  0  0  0  0  0
    1.2773   15.2328    4.8059 C   0  0  1  0  0  0  0  0  0  0  0  0
    2.1701   16.3438    5.0847 O   0  0  0  0  0  0  0  0  0  0  0  0
    3.0409    9.1250   11.8760 C   0  0  0  0  0  0  0  0  0  0  0  0
    2.5413    8.4025   10.6873 N   0  0  0  0  0  0  0  0  0  0  0  0
    5.5052    6.9290   15.0117 C   0  0  0  0  0  0  0  0  0  0  0  0
    4.1765    7.2953   15.4691 O   0  0  0  0  0  0  0  0  0  0  0  0
  1  2  1  6  0  0  0
  1  8  1  0  0  0  0
  1 36  1  0  0  0  0
  3  4  1  1  0  0  0
  3 10  1  0  0  0  0
  3 47  1  0  0  0  0
  5 11  1  0  0  0  0
  5 30  1  0  0  0  0
  5 38  1  6  0  0  0
  6 21  1  6  0  0  0
  6 42  1  0  0  0  0
  7 15  1  0  0  0  0
  7 44  1  0  0  0  0
  7 32  1  6  0  0  0
  8  9  1  6  0  0  0
  8 17  1  0  0  0  0
 11 12  1  1  0  0  0
 11 20  1  0  0  0  0
 13  6  1  0  0  0  0
 13 14  1  1  0  0  0
 15 16  1  1  0  0  0
 15 24  1  0  0  0  0
 17 26  1  0  0  0  0
 18 10  1  0  0  0  0
 18 19  1  1  0  0  0
 20 21  1  6  0  0  0
 20 29  1  0  0  0  0
 22 13  1  0  0  0  0
 22 23  1  6  0  0  0
 24 25  1  1  0  0  0
 24 33  1  0  0  0  0
 26 27  1  6  0  0  0
 26 35  1  0  0  0  0
 28  2  1  6  0  0  0
 28 18  1  0  0  0  0
 29 30  1  0  0  0  0
 29 39  1  6  0  0  0
 31 22  1  0  0  0  0
 31 32  1  6  0  0  0
 31 41  1  0  0  0  0
 33 34  1  6  0  0  0
 33 43  1  0  0  0  0
 35 36  1  0  0  0  0
 35 45  1  1  0  0  0
 37 28  1  0  0  0  0
 37 38  1  1  0  0  0
 39 40  1  0  0  0  0
 41 42  1  0  0  0  0
 41 49  1  6  0  0  0
 43 44  1  0  0  0  0
 43 51  1  1  0  0  0
 45 46  1  0  0  0  0
 47 37  1  0  0  0  0
 47 48  1  6  0  0  0
 49 50  1  0  0  0  0
 51 52  1  0  0  0  0
M  END
>  <CHROM.1>
-161.19353991,-119.35360904,-71.26405510,170.53939067,170.41240200,-149.65625618
-174.12708300,128.65331483,-147.93852813,-81.02999721,-169.25514925,-158.92295470
3.14294667,11.58289887,7.62592815,-2.65518263,-1.10486803,0.80845766

>  <Name>
2esj_lig

>  <RI>
0

>  <Rbt.Current_Directory>
/home/itssahil/PROJECTS/Mol_Feturizer/New_Systems/rnas/2esj

>  <Rbt.Executable>
rbdock ($Id: //depot/dev/client3/rdock/2013.1/src/exe/rbdock.cxx#4 $)

>  <Rbt.Library>
libRbt.so (2013.1, Build901 2013/11/27)

>  <Rbt.Parameter_File>
/export/apps/rDock/src/rDock_2013.1_src/data/scripts/dock_solv.prm

>  <Rbt.Receptor>
prm/blind_docking_20.prm

>  <SCORE>
19.3979

>  <SCORE.INTER>
0.370888

>  <SCORE.INTER.CONST>
1

>  <SCORE.INTER.POLAR>
-1.22028

>  <SCORE.INTER.ROT>
12

>  <SCORE.INTER.SOLV>
31.5914

>  <SCORE.INTER.VDW>
-17.8156

>  <SCORE.INTER.norm>
0.00713246

>  <SCORE.INTRA>
6.66348

>  <SCORE.INTRA.DIHEDRAL>
-2.27772

>  <SCORE.INTRA.DIHEDRAL.0>
32.9766

>  <SCORE.INTRA.POLAR>
0

>  <SCORE.INTRA.POLAR.0>
0

>  <SCORE.INTRA.REPUL>
0

>  <SCORE.INTRA.REPUL.0>
0

>  <SCORE.INTRA.SOLV>
1.45872

>  <SCORE.INTRA.SOLV.lig_0>
-114.358

>  <SCORE.INTRA.VDW>
7.07298

>  <SCORE.INTRA.VDW.0>
-8.24257

>  <SCORE.INTRA.norm>
0.128144

>  <SCORE.RESTR>
12.3635

>  <SCORE.RESTR.CAVITY>
12.3635

>  <SCORE.RESTR.norm>
0.23776

>  <SCORE.SYSTEM>
0

>  <SCORE.SYSTEM.CONST>
0

>  <SCORE.SYSTEM.DIHEDRAL>
0

>  <SCORE.SYSTEM.SOLV>
0

>  <SCORE.SYSTEM.norm>
0

>  <SCORE.heavy>
52

>  <SCORE.norm>
0.373036

>  <RMSD>
27.940

$$$$
2esj_lig
 OpenBabel11021811423D
libRbt.so/2013.1/901 2013/11/27
 52 56  0  0  0  0  0  0  0  0999 V2000
    4.2720   15.2439    1.8980 C   0  0  2  0  0  0  0  0  0  0  0  0
    2.8688   14.9388    2.0117 O   0  0  0  0  0  0  0  0  0  0  0  0
    0.1368   11.7351    2.7598 C   0  0  2  0  0  0  0  0  0  0  0  0
   -0.4921   10.4705    3.1753 N   0  0  0  0  0  0  0  0  0  0  0  0
    1.7323   14.0957    6.0021 C   0  0  1  0  0  0  0  0  0  0  0  0
    2.6596   12.6253    9.8810 C   0  0  1  0  0  0  0  0  0  0  0  0
    5.9949    8.8968   11.1608 C   0  0  1  0  0  0  0  0  0  0  0  0
    5.0555   14.1399    2.6676 C   0  0  2  0  0  0  0  0  0  0  0  0
    4.7470   12.7975    2.1757 N   0  0  0  0  0  0  0  0  0  0  0  0
    1.3854   11.4491    1.8342 C   0  0  0  0  0  0  0  0  0  0  0  0
    3.1373   14.1464    6.6036 C   0  0  2  0  0  0  0  0  0  0  0  0
    3.9389   13.0058    6.2270 O   0  0  0  0  0  0  0  0  0  0  0  0
    4.2284   12.3558    9.9667 C   0  0  2  0  0  0  0  0  0  0  0  0
    4.6697   11.4226    8.8964 N   0  0  0  0  0  0  0  0  0  0  0  0
    5.4626    7.7771   12.0476 C   0  0  1  0  0  0  0  0  0  0  0  0
    6.2912    6.6088   11.8838 O   0  0  0  0  0  0  0  0  0  0  0  0
    4.7708   14.2209    4.2011 C   0  0  0  0  0  0  0  0  0  0  0  0
    2.0114   12.8186    1.3502 C   0  0  2  0  0  0  0  0  0  0  0  0
    3.1819   12.5810    0.4993 N   0  0  0  0  0  0  0  0  0  0  0  0
    2.8067   14.2115    8.0667 C   0  0  2  0  0  0  0  0  0  0  0  0
    2.4235   12.9457    8.5415 O   0  0  0  0  0  0  0  0  0  0  0  0
    4.5949   11.9019   11.4481 C   0  0  1  0  0  0  0  0  0  0  0  0
    4.0561   12.8547   12.3705 O   0  0  0  0  0  0  0  0  0  0  0  0
    5.3949    8.1012   13.5352 C   0  0  1  0  0  0  0  0  0  0  0  0
    5.1060    6.8785   14.2221 O   0  0  0  0  0  0  0  0  0  0  0  0
    5.0843   15.6642    4.6954 C   0  0  2  0  0  0  0  0  0  0  0  0
    4.9210   15.7880    6.0969 O   0  0  0  0  0  0  0  0  0  0  0  0
    2.3984   13.6970    2.5683 C   0  0  2  0  0  0  0  0  0  0  0  0
    1.5196   15.0551    8.1720 C   0  0  2  0  0  0  0  0  0  0  0  0
    0.8817   14.7751    6.9360 O   0  0  0  0  0  0  0  0  0  0  0  0
    3.9177   10.5172   11.8131 C   0  0  2  0  0  0  0  0  0  0  0  0
    4.5019    9.5880   10.8990 O   0  0  0  0  0  0  0  0  0  0  0  0
    6.6849    8.7040   14.0941 C   0  0  2  0  0  0  0  0  0  0  0  0
    6.3688    9.2351   15.3914 O   0  0  0  0  0  0  0  0  0  0  0  0
    4.1732   16.6521    3.9254 C   0  0  2  0  0  0  0  0  0  0  0  0
    4.5036   16.5335    2.5120 O   0  0  0  0  0  0  0  0  0  0  0  0
    1.2376   13.9211    3.5897 C   0  0  2  0  0  0  0  0  0  0  0  0
    1.7287   14.6899    4.7229 O   0  0  0  0  0  0  0  0  0  0  0  0
    1.7050   16.5654    8.3148 C   0  0  0  0  0  0  0  0  0  0  0  0
    3.1154   16.8304    8.3072 O   0  0  0  0  0  0  0  0  0  0  0  0
    2.4666   10.6466   11.3913 C   0  0  1  0  0  0  0  0  0  0  0  0
    1.8799   11.3939   10.3041 O   0  0  0  0  0  0  0  0  0  0  0  0
    7.2908    9.7192   13.1315 C   0  0  2  0  0  0  0  0  0  0  0  0
    7.1502    9.5759   11.7097 O   0  0  0  0  0  0  0  0  0  0  0  0
    4.4211   18.0775    4.2851 C   0  0  0  0  0  0  0  0  0  0  0  0
    4.1764   18.2132    5.6642 O   0  0  0  0  0  0  0  0  0  0  0  0
    0.5994   12.5562    4.0163 C   0  0  1  0  0  0  0  0  0  0  0  0
   -0.5823   12.8618    4.8034 O   0  0  0  0  0  0  0  0  0  0  0  0
    1.5343    9.4446   11.7356 C   0  0  0  0  0  0  0  0  0  0  0  0
    1.9247    8.1879   11.0626 N   0  0  0  0  0  0  0  0  0  0  0  0
    8.5868   10.4726   13.4223 C   0  0  0  0  0  0  0  0  0  0  0  0
    8.6145   11.7178   12.6757 O   0  0  0  0  0  0  0  0  0  0  0  0
  1  2  1  1  0  0  0
  1  8  1  0  0  0  0
  1 36  1  0  0  0  0
  3  4  1  1  0  0  0
  3 10  1  0  0  0  0
  3 47  1  0  0  0  0
  5 11  1  0  0  0  0
  5 30  1  0  0  0  0
  5 38  1  6  0  0  0
  6 21  1  6  0  0  0
  6 42  1  0  0  0  0
  7 15  1  0  0  0  0
  7 44  1  0  0  0  0
  7 32  1  1  0  0  0
  8  9  1  6  0  0  0
  8 17  1  0  0  0  0
 11 12  1  1  0  0  0
 11 20  1  0  0  0  0
 13  6  1  0  0  0  0
 13 14  1  6  0  0  0
 15 16  1  1  0  0  0
 15 24  1  0  0  0  0
 17 26  1  0  0  0  0
 18 10  1  0  0  0  0
 18 19  1  1  0  0  0
 20 21  1  6  0  0  0
 20 29  1  0  0  0  0
 22 13  1  0  0  0  0
 22 23  1  1  0  0  0
 24 25  1  1  0  0  0
 24 33  1  0  0  0  0
 26 27  1  1  0  0  0
 26 35  1  0  0  0  0
 28  2  1  6  0  0  0
 28 18  1  0  0  0  0
 29 30  1  0  0  0  0
 29 39  1  6  0  0  0
 31 22  1  0  0  0  0
 31 32  1  6  0  0  0
 31 41  1  0  0  0  0
 33 34  1  1  0  0  0
 33 43  1  0  0  0  0
 35 36  1  0  0  0  0
 35 45  1  1  0  0  0
 37 28  1  0  0  0  0
 37 38  1  1  0  0  0
 39 40  1  0  0  0  0
 41 42  1  0  0  0  0
 41 49  1  6  0  0  0
 43 44  1  0  0  0  0
 43 51  1  6  0  0  0
 45 46  1  0  0  0  0
 47 37  1  0  0  0  0
 47 48  1  1  0  0  0
 49 50  1  0  0  0  0
 51 52  1  0  0  0  0
M  END
>  <CHROM.1>
-8.93371684,124.65657682,-74.76654533,84.41522253,151.09458811,-101.26009166
0.30143383,81.82945524,-59.84532674,-116.56101765,-62.85073847,-155.52900566
3.69542243,12.49936103,7.73397959,-1.99966363,0.90919844,2.42660350

>  <Name>
2esj_lig

>  <RI>
0

>  <Rbt.Current_Directory>
/home/itssahil/PROJECTS/Mol_Feturizer/New_Systems/rnas/2esj

>  <Rbt.Executable>
rbdock ($Id: //depot/dev/client3/rdock/2013.1/src/exe/rbdock.cxx#4 $)

>  <Rbt.Library>
libRbt.so (2013.1, Build901 2013/11/27)

>  <Rbt.Parameter_File>
/export/apps/rDock/src/rDock_2013.1_src/data/scripts/dock_solv.prm

>  <Rbt.Receptor>
prm/blind_docking_20.prm

>  <SCORE>
67.525

>  <SCORE.INTER>
18.378

>  <SCORE.INTER.CONST>
1

>  <SCORE.INTER.POLAR>
-1.58986

>  <SCORE.INTER.ROT>
12

>  <SCORE.INTER.SOLV>
37.3511

>  <SCORE.INTER.VDW>
-6.4988

>  <SCORE.INTER.norm>
0.353424

>  <SCORE.INTRA>
25.7972

>  <SCORE.INTRA.DIHEDRAL>
13.104

>  <SCORE.INTRA.DIHEDRAL.0>
32.9766

>  <SCORE.INTRA.POLAR>
0

>  <SCORE.INTRA.POLAR.0>
0

>  <SCORE.INTRA.REPUL>
0.0451908

>  <SCORE.INTRA.REPUL.0>
0

>  <SCORE.INTRA.SOLV>
8.54491

>  <SCORE.INTRA.SOLV.lig_0>
-114.358

>  <SCORE.INTRA.VDW>
14.7468

>  <SCORE.INTRA.VDW.0>
-8.24257

>  <SCORE.INTRA.norm>
0.496099

>  <SCORE.RESTR>
23.3498

>  <SCORE.RESTR.CAVITY>
23.3498

>  <SCORE.RESTR.norm>
0.449035

>  <SCORE.SYSTEM>
0

>  <SCORE.SYSTEM.CONST>
0

>  <SCORE.SYSTEM.DIHEDRAL>
0

>  <SCORE.SYSTEM.SOLV>
0

>  <SCORE.SYSTEM.norm>
0

>  <SCORE.heavy>
52

>  <SCORE.norm>
1.29856

>  <RMSD>
28.004

$$$$
2esj_lig
 OpenBabel11021811423D
libRbt.so/2013.1/901 2013/11/27
 52 56  0  0  0  0  0  0  0  0999 V2000
    0.9689   11.7004    1.4181 C   0  0  2  0  0  0  0  0  0  0  0  0
    1.6677   12.0122    2.6385 O   0  0  0  0  0  0  0  0  0  0  0  0
    0.3166   15.8202    4.0392 C   0  0  2  0  0  0  0  0  0  0  0  0
   -0.2483   16.9252    4.8310 N   0  0  0  0  0  0  0  0  0  0  0  0
    3.2893   13.0949    5.8887 C   0  0  1  0  0  0  0  0  0  0  0  0
    3.1366   12.5577    9.9967 C   0  0  1  0  0  0  0  0  0  0  0  0
    4.6037    8.6002   12.7914 C   0  0  1  0  0  0  0  0  0  0  0  0
    0.3604   10.2759    1.5774 C   0  0  2  0  0  0  0  0  0  0  0  0
   -0.5117   10.1743    2.7471 N   0  0  0  0  0  0  0  0  0  0  0  0
   -0.7516   14.6689    3.8630 C   0  0  0  0  0  0  0  0  0  0  0  0
    4.2689   13.9034    6.7402 C   0  0  2  0  0  0  0  0  0  0  0  0
    5.5763   13.2934    6.8040 O   0  0  0  0  0  0  0  0  0  0  0  0
    4.3874   12.7400   10.9680 C   0  0  2  0  0  0  0  0  0  0  0  0
    5.5256   11.8842   10.5403 N   0  0  0  0  0  0  0  0  0  0  0  0
    4.7898    8.7537   14.2965 C   0  0  1  0  0  0  0  0  0  0  0  0
    4.1579    7.6451   14.9674 O   0  0  0  0  0  0  0  0  0  0  0  0
    1.4851    9.1954    1.6593 C   0  0  0  0  0  0  0  0  0  0  0  0
   -0.1475   13.5186    2.9611 C   0  0  2  0  0  0  0  0  0  0  0  0
   -1.1155   12.4298    2.7930 N   0  0  0  0  0  0  0  0  0  0  0  0
    3.5363   13.9294    8.0504 C   0  0  2  0  0  0  0  0  0  0  0  0
    3.6604   12.6941    8.7084 O   0  0  0  0  0  0  0  0  0  0  0  0
    3.9104   12.5231   12.4715 C   0  0  1  0  0  0  0  0  0  0  0  0
    2.7761   13.3592   12.7222 O   0  0  0  0  0  0  0  0  0  0  0  0
    6.2367    8.8271   14.7695 C   0  0  1  0  0  0  0  0  0  0  0  0
    6.2206    8.7295   16.1979 O   0  0  0  0  0  0  0  0  0  0  0  0
    2.4125    9.3394    0.4164 C   0  0  2  0  0  0  0  0  0  0  0  0
    3.4131    8.3373    0.3869 O   0  0  0  0  0  0  0  0  0  0  0  0
    1.1686   12.9804    3.5801 C   0  0  2  0  0  0  0  0  0  0  0  0
    2.0376   14.0142    7.6949 C   0  0  2  0  0  0  0  0  0  0  0  0
    1.9913   13.3364    6.4494 O   0  0  0  0  0  0  0  0  0  0  0  0
    3.4139   11.0383   12.7122 C   0  0  2  0  0  0  0  0  0  0  0  0
    4.5755   10.2379   12.4874 O   0  0  0  0  0  0  0  0  0  0  0  0
    7.1294    7.7251   14.1961 C   0  0  2  0  0  0  0  0  0  0  0  0
    8.4879    8.1044   14.4705 O   0  0  0  0  0  0  0  0  0  0  0  0
    3.0286   10.7604    0.4294 C   0  0  2  0  0  0  0  0  0  0  0  0
    1.9284   11.7099    0.3349 O   0  0  0  0  0  0  0  0  0  0  0  0
    2.2273   14.0861    3.8925 C   0  0  2  0  0  0  0  0  0  0  0  0
    3.3844   13.4834    4.5362 O   0  0  0  0  0  0  0  0  0  0  0  0
    1.4554   15.4175    7.5291 C   0  0  0  0  0  0  0  0  0  0  0  0
    0.1092   15.2736    7.0528 O   0  0  0  0  0  0  0  0  0  0  0  0
    2.4760   10.7279   11.5615 C   0  0  1  0  0  0  0  0  0  0  0  0
    2.4969   11.1960   10.1958 O   0  0  0  0  0  0  0  0  0  0  0  0
    6.8333    7.4763   12.7214 C   0  0  2  0  0  0  0  0  0  0  0  0
    5.5123    7.6490   12.1857 O   0  0  0  0  0  0  0  0  0  0  0  0
    3.9030   11.0292   -0.7477 C   0  0  0  0  0  0  0  0  0  0  0  0
    4.3394   12.3637   -0.6531 O   0  0  0  0  0  0  0  0  0  0  0  0
    1.5949   15.2388    4.7431 C   0  0  1  0  0  0  0  0  0  0  0  0
    2.5786   16.3044    4.8214 O   0  0  0  0  0  0  0  0  0  0  0  0
    1.7544    9.3459   11.6081 C   0  0  0  0  0  0  0  0  0  0  0  0
    2.3910    8.3228   10.7520 N   0  0  0  0  0  0  0  0  0  0  0  0
    7.5653    6.4247   11.8907 C   0  0  0  0  0  0  0  0  0  0  0  0
    7.0776    6.4457   10.5230 O   0  0  0  0  0  0  0  0  0  0  0  0
  1  2  1  1  0  0  0
  1  8  1  0  0  0  0
  1 36  1  0  0  0  0
  3  4  1  1  0  0  0
  3 10  1  0  0  0  0
  3 47  1  0  0  0  0
  5 11  1  0  0  0  0
  5 30  1  0  0  0  0
  5 38  1  6  0  0  0
  6 21  1  6  0  0  0
  6 42  1  0  0  0  0
  7 15  1  0  0  0  0
  7 44  1  0  0  0  0
  7 32  1  6  0  0  0
  8  9  1  1  0  0  0
  8 17  1  0  0  0  0
 11 12  1  1  0  0  0
 11 20  1  0  0  0  0
 13  6  1  0  0  0  0
 13 14  1  6  0  0  0
 15 16  1  1  0  0  0
 15 24  1  0  0  0  0
 17 26  1  0  0  0  0
 18 10  1  0  0  0  0
 18 19  1  1  0  0  0
 20 21  1  6  0  0  0
 20 29  1  0  0  0  0
 22 13  1  0  0  0  0
 22 23  1  6  0  0  0
 24 25  1  1  0  0  0
 24 33  1  0  0  0  0
 26 27  1  1  0  0  0
 26 35  1  0  0  0  0
 28  2  1  6  0  0  0
 28 18  1  0  0  0  0
 29 30  1  0  0  0  0
 29 39  1  6  0  0  0
 31 22  1  0  0  0  0
 31 32  1  6  0  0  0
 31 41  1  0  0  0  0
 33 34  1  6  0  0  0
 33 43  1  0  0  0  0
 35 36  1  0  0  0  0
 35 45  1  6  0  0  0
 37 28  1  0  0  0  0
 37 38  1  1  0  0  0
 39 40  1  0  0  0  0
 41 42  1  0  0  0  0
 41 49  1  6  0  0  0
 43 44  1  0  0  0  0
 43 51  1  1  0  0  0
 45 46  1  0  0  0  0
 47 37  1  0  0  0  0
 47 48  1  6  0  0  0
 49 50  1  0  0  0  0
 51 52  1  0  0  0  0
M  END
>  <CHROM.1>
-108.24066863,-116.75643627,-98.83018431,-79.23764792,174.83893819,-0.61948983
173.40935505,172.83364255,176.99160587,-75.17606003,-99.68171952,-178.98309896
3.17833631,11.47302307,7.52294397,-2.28553879,-1.07097734,1.23619354

>  <Name>
2esj_lig

>  <RI>
0

>  <Rbt.Current_Directory>
/home/itssahil/PROJECTS/Mol_Feturizer/New_Systems/rnas/2esj

>  <Rbt.Executable>
rbdock ($Id: //depot/dev/client3/rdock/2013.1/src/exe/rbdock.cxx#4 $)

>  <Rbt.Library>
libRbt.so (2013.1, Build901 2013/11/27)

>  <Rbt.Parameter_File>
/export/apps/rDock/src/rDock_2013.1_src/data/scripts/dock_solv.prm

>  <Rbt.Receptor>
prm/blind_docking_20.prm

>  <SCORE>
20.9715

>  <SCORE.INTER>
-6.5737

>  <SCORE.INTER.CONST>
1

>  <SCORE.INTER.POLAR>
-1.38295

>  <SCORE.INTER.ROT>
12

>  <SCORE.INTER.SOLV>
28.484

>  <SCORE.INTER.VDW>
-20.8673

>  <SCORE.INTER.norm>
-0.126417

>  <SCORE.INTRA>
16.8092

>  <SCORE.INTRA.DIHEDRAL>
1.58785

>  <SCORE.INTRA.DIHEDRAL.0>
32.9766

>  <SCORE.INTRA.POLAR>
0

>  <SCORE.INTRA.POLAR.0>
0

>  <SCORE.INTRA.REPUL>
0

>  <SCORE.INTRA.REPUL.0>
0

>  <SCORE.INTRA.SOLV>
6.6328

>  <SCORE.INTRA.SOLV.lig_0>
-114.358

>  <SCORE.INTRA.VDW>
12.6989

>  <SCORE.INTRA.VDW.0>
-8.24257

>  <SCORE.INTRA.norm>
0.323254

>  <SCORE.RESTR>
10.736

>  <SCORE.RESTR.CAVITY>
10.736

>  <SCORE.RESTR.norm>
0.206461

>  <SCORE.SYSTEM>
0

>  <SCORE.SYSTEM.CONST>
0

>  <SCORE.SYSTEM.DIHEDRAL>
0

>  <SCORE.SYSTEM.SOLV>
0

>  <SCORE.SYSTEM.norm>
0

>  <SCORE.heavy>
52

>  <SCORE.norm>
0.403297

>  <RMSD>
28.012

$$$$
2esj_lig
 OpenBabel11021811423D
libRbt.so/2013.1/901 2013/11/27
 52 56  0  0  0  0  0  0  0  0999 V2000
    2.4254   11.3494    2.5395 C   0  0  2  0  0  0  0  0  0  0  0  0
    1.5763   12.4570    2.1830 O   0  0  0  0  0  0  0  0  0  0  0  0
   -0.3406   15.9069    3.8297 C   0  0  2  0  0  0  0  0  0  0  0  0
   -1.0860   16.8491    4.6805 N   0  0  0  0  0  0  0  0  0  0  0  0
    2.8800   13.4170    5.6012 C   0  0  1  0  0  0  0  0  0  0  0  0
    2.8258   12.4610    9.6772 C   0  0  1  0  0  0  0  0  0  0  0  0
    6.1190   10.4763   12.9120 C   0  0  1  0  0  0  0  0  0  0  0  0
    3.2238   10.9422    1.2660 C   0  0  2  0  0  0  0  0  0  0  0  0
    3.9877   12.0592    0.7111 N   0  0  0  0  0  0  0  0  0  0  0  0
   -1.2342   14.6485    3.4903 C   0  0  0  0  0  0  0  0  0  0  0  0
    3.8604   14.1172    6.5429 C   0  0  2  0  0  0  0  0  0  0  0  0
    5.1623   13.4922    6.5463 O   0  0  0  0  0  0  0  0  0  0  0  0
    4.1084   12.7916   10.5643 C   0  0  2  0  0  0  0  0  0  0  0  0
    5.3186   12.1146   10.0275 N   0  0  0  0  0  0  0  0  0  0  0  0
    7.0310    9.7320   11.9437 C   0  0  1  0  0  0  0  0  0  0  0  0
    8.3632   10.2755   12.0351 O   0  0  0  0  0  0  0  0  0  0  0  0
    2.2719   10.3570    0.1749 C   0  0  0  0  0  0  0  0  0  0  0  0
   -0.4387   13.6772    2.5284 C   0  0  2  0  0  0  0  0  0  0  0  0
   -1.2420   12.4926    2.2084 N   0  0  0  0  0  0  0  0  0  0  0  0
    3.1191   14.0042    7.8436 C   0  0  2  0  0  0  0  0  0  0  0  0
    3.2285   12.7024    8.3610 O   0  0  0  0  0  0  0  0  0  0  0  0
    3.7790   12.4715   12.0888 C   0  0  1  0  0  0  0  0  0  0  0  0
    2.5622   13.1340   12.4482 O   0  0  0  0  0  0  0  0  0  0  0  0
    7.1211    8.2264   12.1610 C   0  0  1  0  0  0  0  0  0  0  0  0
    8.1838    7.7418   11.3326 O   0  0  0  0  0  0  0  0  0  0  0  0
    1.4541    9.1861    0.7961 C   0  0  2  0  0  0  0  0  0  0  0  0
    0.6230    8.5572   -0.1629 O   0  0  0  0  0  0  0  0  0  0  0  0
    0.9074   13.2584    3.1747 C   0  0  2  0  0  0  0  0  0  0  0  0
    1.6236   14.1413    7.4909 C   0  0  2  0  0  0  0  0  0  0  0  0
    1.5803   13.6063    6.1775 O   0  0  0  0  0  0  0  0  0  0  0  0
    3.5109   10.9261   12.3105 C   0  0  2  0  0  0  0  0  0  0  0  0
    4.7516   10.3022   11.9764 O   0  0  0  0  0  0  0  0  0  0  0  0
    7.3888    7.8281   13.6135 C   0  0  2  0  0  0  0  0  0  0  0  0
    7.1358    6.4170   13.7121 O   0  0  0  0  0  0  0  0  0  0  0  0
    0.6326    9.7423    1.9856 C   0  0  2  0  0  0  0  0  0  0  0  0
    1.5813   10.2537    2.9651 O   0  0  0  0  0  0  0  0  0  0  0  0
    1.7914   14.4577    3.6450 C   0  0  2  0  0  0  0  0  0  0  0  0
    2.9876   13.9523    4.3008 O   0  0  0  0  0  0  0  0  0  0  0  0
    1.0541   15.5595    7.4785 C   0  0  0  0  0  0  0  0  0  0  0  0
    2.1450   16.4614    7.2419 O   0  0  0  0  0  0  0  0  0  0  0  0
    2.5417   10.5173   11.2181 C   0  0  1  0  0  0  0  0  0  0  0  0
    2.3963   11.0186    9.8719 O   0  0  0  0  0  0  0  0  0  0  0  0
    6.5795    8.6798   14.5852 C   0  0  2  0  0  0  0  0  0  0  0  0
    6.2553   10.0467   14.2883 O   0  0  0  0  0  0  0  0  0  0  0  0
   -0.1579    8.6935    2.6911 C   0  0  0  0  0  0  0  0  0  0  0  0
   -1.1186    8.2082    1.7846 O   0  0  0  0  0  0  0  0  0  0  0  0
    0.9699   15.4327    4.5544 C   0  0  1  0  0  0  0  0  0  0  0  0
    1.7961   16.6048    4.7840 O   0  0  0  0  0  0  0  0  0  0  0  0
    2.0227    9.0472   11.2656 C   0  0  0  0  0  0  0  0  0  0  0  0
    3.0616    8.0476   10.9396 N   0  0  0  0  0  0  0  0  0  0  0  0
    6.6535    8.5118   16.1011 C   0  0  0  0  0  0  0  0  0  0  0  0
    5.3375    8.6996   16.6855 O   0  0  0  0  0  0  0  0  0  0  0  0
  1  2  1  6  0  0  0
  1  8  1  0  0  0  0
  1 36  1  0  0  0  0
  3  4  1  1  0  0  0
  3 10  1  0  0  0  0
  3 47  1  0  0  0  0
  5 11  1  0  0  0  0
  5 30  1  0  0  0  0
  5 38  1  6  0  0  0
  6 21  1  6  0  0  0
  6 42  1  0  0  0  0
  7 15  1  0  0  0  0
  7 44  1  0  0  0  0
  7 32  1  6  0  0  0
  8  9  1  6  0  0  0
  8 17  1  0  0  0  0
 11 12  1  1  0  0  0
 11 20  1  0  0  0  0
 13  6  1  0  0  0  0
 13 14  1  6  0  0  0
 15 16  1  1  0  0  0
 15 24  1  0  0  0  0
 17 26  1  0  0  0  0
 18 10  1  0  0  0  0
 18 19  1  1  0  0  0
 20 21  1  6  0  0  0
 20 29  1  0  0  0  0
 22 13  1  0  0  0  0
 22 23  1  6  0  0  0
 24 25  1  6  0  0  0
 24 33  1  0  0  0  0
 26 27  1  6  0  0  0
 26 35  1  0  0  0  0
 28  2  1  6  0  0  0
 28 18  1  0  0  0  0
 29 30  1  0  0  0  0
 29 39  1  6  0  0  0
 31 22  1  0  0  0  0
 31 32  1  6  0  0  0
 31 41  1  0  0  0  0
 33 34  1  6  0  0  0
 33 43  1  0  0  0  0
 35 36  1  0  0  0  0
 35 45  1  1  0  0  0
 37 28  1  0  0  0  0
 37 38  1  1  0  0  0
 39 40  1  0  0  0  0
 41 42  1  0  0  0  0
 41 49  1  6  0  0  0
 43 44  1  0  0  0  0
 43 51  1  1  0  0  0
 45 46  1  0  0  0  0
 47 37  1  0  0  0  0
 47 48  1  6  0  0  0
 49 50  1  0  0  0  0
 51 52  1  0  0  0  0
M  END
>  <CHROM.1>
-166.96937056,-125.64564175,-86.69443181,-174.15984433,168.02025756,-146.49587138
24.36181451,68.91998016,-64.77494266,-74.59459311,-69.75612163,-142.33174830
3.06631606,11.63150301,7.51475971,-2.73398022,-1.10790966,0.72996281

>  <Name>
2esj_lig

>  <RI>
0

>  <Rbt.Current_Directory>
/home/itssahil/PROJECTS/Mol_Feturizer/New_Systems/rnas/2esj

>  <Rbt.Executable>
rbdock ($Id: //depot/dev/client3/rdock/2013.1/src/exe/rbdock.cxx#4 $)

>  <Rbt.Library>
libRbt.so (2013.1, Build901 2013/11/27)

>  <Rbt.Parameter_File>
/export/apps/rDock/src/rDock_2013.1_src/data/scripts/dock_solv.prm

>  <Rbt.Receptor>
prm/blind_docking_20.prm

>  <SCORE>
10.4822

>  <SCORE.INTER>
-5.16629

>  <SCORE.INTER.CONST>
1

>  <SCORE.INTER.POLAR>
-1.50357

>  <SCORE.INTER.ROT>
12

>  <SCORE.INTER.SOLV>
29.875

>  <SCORE.INTER.VDW>
-19.9906

>  <SCORE.INTER.norm>
-0.0993517

>  <SCORE.INTRA>
3.83598

>  <SCORE.INTRA.DIHEDRAL>
-6.08884

>  <SCORE.INTRA.DIHEDRAL.0>
32.9766

>  <SCORE.INTRA.POLAR>
0

>  <SCORE.INTRA.POLAR.0>
0

>  <SCORE.INTRA.REPUL>
0

>  <SCORE.INTRA.REPUL.0>
0

>  <SCORE.INTRA.SOLV>
2.28448

>  <SCORE.INTRA.SOLV.lig_0>
-114.358

>  <SCORE.INTRA.VDW>
5.73817

>  <SCORE.INTRA.VDW.0>
-8.24257

>  <SCORE.INTRA.norm>
0.0737689

>  <SCORE.RESTR>
11.8125

>  <SCORE.RESTR.CAVITY>
11.8125

>  <SCORE.RESTR.norm>
0.227164

>  <SCORE.SYSTEM>
0

>  <SCORE.SYSTEM.CONST>
0

>  <SCORE.SYSTEM.DIHEDRAL>
0

>  <SCORE.SYSTEM.SOLV>
0

>  <SCORE.SYSTEM.norm>
0

>  <SCORE.heavy>
52

>  <SCORE.norm>
0.201581

>  <RMSD>
28.041

$$$$
2esj_lig
 OpenBabel11021811423D
libRbt.so/2013.1/901 2013/11/27
 52 56  0  0  0  0  0  0  0  0999 V2000
    0.2843   12.7910    2.4179 C   0  0  2  0  0  0  0  0  0  0  0  0
    0.8256   12.8376    3.7520 O   0  0  0  0  0  0  0  0  0  0  0  0
    2.0165   16.9399    3.9523 C   0  0  2  0  0  0  0  0  0  0  0  0
    2.3797   18.2948    4.3992 N   0  0  0  0  0  0  0  0  0  0  0  0
    3.5276   13.0538    5.8427 C   0  0  1  0  0  0  0  0  0  0  0  0
    3.3501   12.5424    9.9583 C   0  0  1  0  0  0  0  0  0  0  0  0
    6.1686   10.4267   13.9759 C   0  0  1  0  0  0  0  0  0  0  0  0
   -0.4168   11.4114    2.2445 C   0  0  2  0  0  0  0  0  0  0  0  0
   -1.4448   11.1816    3.2591 N   0  0  0  0  0  0  0  0  0  0  0  0
    0.5779   16.5547    4.4811 C   0  0  0  0  0  0  0  0  0  0  0  0
    4.4285   13.9385    6.7054 C   0  0  2  0  0  0  0  0  0  0  0  0
    5.7758   13.4272    6.7988 O   0  0  0  0  0  0  0  0  0  0  0  0
    4.3775   13.2989   10.9140 C   0  0  2  0  0  0  0  0  0  0  0  0
    5.7768   12.8836   10.6301 N   0  0  0  0  0  0  0  0  0  0  0  0
    7.4469   10.2354   13.1680 C   0  0  1  0  0  0  0  0  0  0  0  0
    8.5749   10.2088   14.0654 O   0  0  0  0  0  0  0  0  0  0  0  0
    0.6259   10.2490    2.2735 C   0  0  0  0  0  0  0  0  0  0  0  0
    0.1812   15.1216    3.9423 C   0  0  2  0  0  0  0  0  0  0  0  0
   -1.1463   14.7339    4.4305 N   0  0  0  0  0  0  0  0  0  0  0  0
    3.6708   13.9198    8.0014 C   0  0  2  0  0  0  0  0  0  0  0  0
    3.8729   12.7018    8.6722 O   0  0  0  0  0  0  0  0  0  0  0  0
    3.9132   13.1099   12.4252 C   0  0  1  0  0  0  0  0  0  0  0  0
    2.5367   13.4862   12.5367 O   0  0  0  0  0  0  0  0  0  0  0  0
    7.4949    8.9738   12.3145 C   0  0  1  0  0  0  0  0  0  0  0  0
    8.8346    8.8436   11.8263 O   0  0  0  0  0  0  0  0  0  0  0  0
    1.7209   10.5284    1.2018 C   0  0  2  0  0  0  0  0  0  0  0  0
    2.6602    9.4714    1.1205 O   0  0  0  0  0  0  0  0  0  0  0  0
    1.2407   14.0716    4.3668 C   0  0  2  0  0  0  0  0  0  0  0  0
    2.1770   13.8912    7.6173 C   0  0  2  0  0  0  0  0  0  0  0  0
    2.2049   13.2028    6.3770 O   0  0  0  0  0  0  0  0  0  0  0  0
    3.9821   11.5898   12.8657 C   0  0  2  0  0  0  0  0  0  0  0  0
    5.3690   11.2598   12.7751 O   0  0  0  0  0  0  0  0  0  0  0  0
    7.1052    7.7025   13.0708 C   0  0  2  0  0  0  0  0  0  0  0  0
    6.8951    6.6788   12.0846 O   0  0  0  0  0  0  0  0  0  0  0  0
    2.4057   11.8750    1.5438 C   0  0  2  0  0  0  0  0  0  0  0  0
    1.3819   12.9089    1.4823 O   0  0  0  0  0  0  0  0  0  0  0  0
    2.7063   14.4494    3.9793 C   0  0  2  0  0  0  0  0  0  0  0  0
    3.6199   13.4385    4.4890 O   0  0  0  0  0  0  0  0  0  0  0  0
    1.4963   15.2464    7.4286 C   0  0  0  0  0  0  0  0  0  0  0  0
    2.0326   16.1407    8.4147 O   0  0  0  0  0  0  0  0  0  0  0  0
    3.3041   10.8101   11.7555 C   0  0  1  0  0  0  0  0  0  0  0  0
    3.2438   11.0769   10.3379 O   0  0  0  0  0  0  0  0  0  0  0  0
    5.9127    7.9420   13.9901 C   0  0  2  0  0  0  0  0  0  0  0  0
    5.6966    9.2163   14.6157 O   0  0  0  0  0  0  0  0  0  0  0  0
    3.4460   12.2702    0.5519 C   0  0  0  0  0  0  0  0  0  0  0  0
    4.3385   11.1899    0.4235 O   0  0  0  0  0  0  0  0  0  0  0  0
    3.0607   15.8909    4.4781 C   0  0  1  0  0  0  0  0  0  0  0  0
    4.3541   16.2348    3.9140 O   0  0  0  0  0  0  0  0  0  0  0  0
    3.1398    9.2762   11.9856 C   0  0  0  0  0  0  0  0  0  0  0  0
    2.6724    8.5499   10.7861 N   0  0  0  0  0  0  0  0  0  0  0  0
    5.3118    6.8530   14.8759 C   0  0  0  0  0  0  0  0  0  0  0  0
    3.9759    7.2370   15.2962 O   0  0  0  0  0  0  0  0  0  0  0  0
  1  2  1  1  0  0  0
  1  8  1  0  0  0  0
  1 36  1  0  0  0  0
  3  4  1  1  0  0  0
  3 10  1  0  0  0  0
  3 47  1  0  0  0  0
  5 11  1  0  0  0  0
  5 30  1  0  0  0  0
  5 38  1  6  0  0  0
  6 21  1  6  0  0  0
  6 42  1  0  0  0  0
  7 15  1  0  0  0  0
  7 44  1  0  0  0  0
  7 32  1  6  0  0  0
  8  9  1  1  0  0  0
  8 17  1  0  0  0  0
 11 12  1  1  0  0  0
 11 20  1  0  0  0  0
 13  6  1  0  0  0  0
 13 14  1  1  0  0  0
 15 16  1  1  0  0  0
 15 24  1  0  0  0  0
 17 26  1  0  0  0  0
 18 10  1  0  0  0  0
 18 19  1  1  0  0  0
 20 21  1  6  0  0  0
 20 29  1  0  0  0  0
 22 13  1  0  0  0  0
 22 23  1  6  0  0  0
 24 25  1  1  0  0  0
 24 33  1  0  0  0  0
 26 27  1  1  0  0  0
 26 35  1  0  0  0  0
 28  2  1  6  0  0  0
 28 18  1  0  0  0  0
 29 30  1  0  0  0  0
 29 39  1  6  0  0  0
 31 22  1  0  0  0  0
 31 32  1  6  0  0  0
 31 41  1  0  0  0  0
 33 34  1  6  0  0  0
 33 43  1  0  0  0  0
 35 36  1  0  0  0  0
 35 45  1  6  0  0  0
 37 28  1  0  0  0  0
 37 38  1  1  0  0  0
 39 40  1  0  0  0  0
 41 42  1  0  0  0  0
 41 49  1  6  0  0  0
 43 44  1  0  0  0  0
 43 51  1  1  0  0  0
 45 46  1  0  0  0  0
 47 37  1  0  0  0  0
 47 48  1  6  0  0  0
 49 50  1  0  0  0  0
 51 52  1  0  0  0  0
M  END
>  <CHROM.1>
-164.05409826,-89.88080276,-79.32033012,171.52668661,174.05297516,39.50290387
-37.33766084,134.07079389,-53.28361425,-50.22576882,-170.79551717,-162.04205091
3.48085356,12.08780845,7.80632411,-2.85065719,-1.19660078,0.69275286

>  <Name>
2esj_lig

>  <RI>
0

>  <Rbt.Current_Directory>
/home/itssahil/PROJECTS/Mol_Feturizer/New_Systems/rnas/2esj

>  <Rbt.Executable>
rbdock ($Id: //depot/dev/client3/rdock/2013.1/src/exe/rbdock.cxx#4 $)

>  <Rbt.Library>
libRbt.so (2013.1, Build901 2013/11/27)

>  <Rbt.Parameter_File>
/export/apps/rDock/src/rDock_2013.1_src/data/scripts/dock_solv.prm

>  <Rbt.Receptor>
prm/blind_docking_20.prm

>  <SCORE>
19.1913

>  <SCORE.INTER>
-1.21068

>  <SCORE.INTER.CONST>
1

>  <SCORE.INTER.POLAR>
-1.09641

>  <SCORE.INTER.ROT>
12

>  <SCORE.INTER.SOLV>
29.5033

>  <SCORE.INTER.VDW>
-18.5868

>  <SCORE.INTER.norm>
-0.0232824

>  <SCORE.INTRA>
1.85507

>  <SCORE.INTRA.DIHEDRAL>
-10.7111

>  <SCORE.INTRA.DIHEDRAL.0>
32.9766

>  <SCORE.INTRA.POLAR>
0

>  <SCORE.INTRA.POLAR.0>
0

>  <SCORE.INTRA.REPUL>
0

>  <SCORE.INTRA.REPUL.0>
0

>  <SCORE.INTRA.SOLV>
-0.480755

>  <SCORE.INTRA.SOLV.lig_0>
-114.358

>  <SCORE.INTRA.VDW>
7.45097

>  <SCORE.INTRA.VDW.0>
-8.24257

>  <SCORE.INTRA.norm>
0.0356743

>  <SCORE.RESTR>
18.547

>  <SCORE.RESTR.CAVITY>
18.547

>  <SCORE.RESTR.norm>
0.356672

>  <SCORE.SYSTEM>
0

>  <SCORE.SYSTEM.CONST>
0

>  <SCORE.SYSTEM.DIHEDRAL>
0

>  <SCORE.SYSTEM.SOLV>
0

>  <SCORE.SYSTEM.norm>
0

>  <SCORE.heavy>
52

>  <SCORE.norm>
0.369064

>  <RMSD>
28.057

$$$$
2esj_lig
 OpenBabel11021811423D
libRbt.so/2013.1/901 2013/11/27
 52 56  0  0  0  0  0  0  0  0999 V2000
    2.6192   11.5546    2.5923 C   0  0  2  0  0  0  0  0  0  0  0  0
    1.4937   12.3972    2.2790 O   0  0  0  0  0  0  0  0  0  0  0  0
   -0.2383   15.9673    3.8735 C   0  0  2  0  0  0  0  0  0  0  0  0
   -0.9251   16.9619    4.7140 N   0  0  0  0  0  0  0  0  0  0  0  0
    2.9048   13.3800    5.6459 C   0  0  1  0  0  0  0  0  0  0  0  0
    2.8144   12.5180    9.7270 C   0  0  1  0  0  0  0  0  0  0  0  0
    5.4300    9.4323   13.2444 C   0  0  1  0  0  0  0  0  0  0  0  0
    3.7951   11.9790    1.6638 C   0  0  2  0  0  0  0  0  0  0  0  0
    4.1217   13.3983    1.7981 N   0  0  0  0  0  0  0  0  0  0  0  0
   -1.1923   14.7415    3.5828 C   0  0  0  0  0  0  0  0  0  0  0  0
    3.9005   14.0913    6.5630 C   0  0  2  0  0  0  0  0  0  0  0  0
    5.1943   13.4498    6.5739 O   0  0  0  0  0  0  0  0  0  0  0  0
    4.0666   12.8632   10.6511 C   0  0  2  0  0  0  0  0  0  0  0  0
    5.2925   12.1727   10.1700 N   0  0  0  0  0  0  0  0  0  0  0  0
    6.8142   10.0079   12.9682 C   0  0  1  0  0  0  0  0  0  0  0  0
    7.5984    9.9560   14.1768 O   0  0  0  0  0  0  0  0  0  0  0  0
    3.4745   11.6476    0.1717 C   0  0  0  0  0  0  0  0  0  0  0  0
   -0.4590   13.7129    2.6310 C   0  0  2  0  0  0  0  0  0  0  0  0
   -1.3193   12.5574    2.3561 N   0  0  0  0  0  0  0  0  0  0  0  0
    3.1667   14.0214    7.8709 C   0  0  2  0  0  0  0  0  0  0  0  0
    3.2630   12.7320    8.4210 O   0  0  0  0  0  0  0  0  0  0  0  0
    3.6839   12.5745   12.1694 C   0  0  1  0  0  0  0  0  0  0  0  0
    2.4574   13.2469   12.4733 O   0  0  0  0  0  0  0  0  0  0  0  0
    7.6017    9.3095   11.8661 C   0  0  1  0  0  0  0  0  0  0  0  0
    8.9383    9.8210   11.9115 O   0  0  0  0  0  0  0  0  0  0  0  0
    3.1078   10.1381    0.0591 C   0  0  2  0  0  0  0  0  0  0  0  0
    2.8796    9.7503   -1.2839 O   0  0  0  0  0  0  0  0  0  0  0  0
    0.8801   13.2513    3.2624 C   0  0  2  0  0  0  0  0  0  0  0  0
    1.6707   14.1689    7.5245 C   0  0  2  0  0  0  0  0  0  0  0  0
    1.6116   13.6010    6.2257 O   0  0  0  0  0  0  0  0  0  0  0  0
    3.4034   11.0345   12.4125 C   0  0  2  0  0  0  0  0  0  0  0  0
    4.6530   10.4010   12.1339 O   0  0  0  0  0  0  0  0  0  0  0  0
    7.6368    7.7864   12.0039 C   0  0  2  0  0  0  0  0  0  0  0  0
    8.1274    7.2664   10.7574 O   0  0  0  0  0  0  0  0  0  0  0  0
    1.8687    9.8696    0.9488 C   0  0  2  0  0  0  0  0  0  0  0  0
    2.2446   10.1836    2.3203 O   0  0  0  0  0  0  0  0  0  0  0  0
    1.8245   14.4217    3.6857 C   0  0  2  0  0  0  0  0  0  0  0  0
    3.0104   13.8803    4.3315 O   0  0  0  0  0  0  0  0  0  0  0  0
    1.1194   15.5935    7.4793 C   0  0  0  0  0  0  0  0  0  0  0  0
   -0.3117   15.5017    7.4231 O   0  0  0  0  0  0  0  0  0  0  0  0
    2.4712   10.6062   11.2955 C   0  0  1  0  0  0  0  0  0  0  0  0
    2.3739   11.0808    9.9354 O   0  0  0  0  0  0  0  0  0  0  0  0
    6.2805    7.2314   12.4246 C   0  0  2  0  0  0  0  0  0  0  0  0
    5.3944    7.9848   13.2667 O   0  0  0  0  0  0  0  0  0  0  0  0
    1.4538    8.4377    0.9562 C   0  0  0  0  0  0  0  0  0  0  0  0
    0.2089    8.3626    1.6080 O   0  0  0  0  0  0  0  0  0  0  0  0
    1.0644   15.4537    4.5853 C   0  0  1  0  0  0  0  0  0  0  0  0
    1.9452   16.5937    4.7697 O   0  0  0  0  0  0  0  0  0  0  0  0
    1.9463    9.1386   11.3544 C   0  0  0  0  0  0  0  0  0  0  0  0
    2.9329    8.1436   10.8838 N   0  0  0  0  0  0  0  0  0  0  0  0
    6.0227    5.7432   12.6489 C   0  0  0  0  0  0  0  0  0  0  0  0
    6.5845    5.3292   13.9224 O   0  0  0  0  0  0  0  0  0  0  0  0
  1  2  1  6  0  0  0
  1  8  1  0  0  0  0
  1 36  1  0  0  0  0
  3  4  1  1  0  0  0
  3 10  1  0  0  0  0
  3 47  1  0  0  0  0
  5 11  1  0  0  0  0
  5 30  1  0  0  0  0
  5 38  1  6  0  0  0
  6 21  1  6  0  0  0
  6 42  1  0  0  0  0
  7 15  1  0  0  0  0
  7 44  1  0  0  0  0
  7 32  1  6  0  0  0
  8  9  1  6  0  0  0
  8 17  1  0  0  0  0
 11 12  1  1  0  0  0
 11 20  1  0  0  0  0
 13  6  1  0  0  0  0
 13 14  1  6  0  0  0
 15 16  1  1  0  0  0
 15 24  1  0  0  0  0
 17 26  1  0  0  0  0
 18 10  1  0  0  0  0
 18 19  1  1  0  0  0
 20 21  1  6  0  0  0
 20 29  1  0  0  0  0
 22 13  1  0  0  0  0
 22 23  1  6  0  0  0
 24 25  1  1  0  0  0
 24 33  1  0  0  0  0
 26 27  1  6  0  0  0
 26 35  1  0  0  0  0
 28  2  1  6  0  0  0
 28 18  1  0  0  0  0
 29 30  1  0  0  0  0
 29 39  1  6  0  0  0
 31 22  1  0  0  0  0
 31 32  1  6  0  0  0
 31 41  1  0  0  0  0
 33 34  1  6  0  0  0
 33 43  1  0  0  0  0
 35 36  1  0  0  0  0
 35 45  1  1  0  0  0
 37 28  1  0  0  0  0
 37 38  1  1  0  0  0
 39 40  1  0  0  0  0
 41 42  1  0  0  0  0
 41 49  1  6  0  0  0
 43 44  1  0  0  0  0
 43 51  1  1  0  0  0
 45 46  1  0  0  0  0
 47 37  1  0  0  0  0
 47 48  1  6  0  0  0
 49 50  1  0  0  0  0
 51 52  1  0  0  0  0
M  END
>  <CHROM.1>
-120.29135574,-123.79157087,-87.14393734,-137.23392256,170.65944393,-167.06585600
-168.15607459,123.61106585,-170.46303538,-74.48373744,-78.62208528,76.44400188
3.23275379,11.61140830,7.27535212,-2.42233588,-1.03000025,1.16156405

>  <Name>
2esj_lig

>  <RI>
0

>  <Rbt.Current_Directory>
/home/itssahil/PROJECTS/Mol_Feturizer/New_Systems/rnas/2esj

>  <Rbt.Executable>
rbdock ($Id: //depot/dev/client3/rdock/2013.1/src/exe/rbdock.cxx#4 $)

>  <Rbt.Library>
libRbt.so (2013.1, Build901 2013/11/27)

>  <Rbt.Parameter_File>
/export/apps/rDock/src/rDock_2013.1_src/data/scripts/dock_solv.prm

>  <Rbt.Receptor>
prm/blind_docking_20.prm

>  <SCORE>
15.4236

>  <SCORE.INTER>
-7.01295

>  <SCORE.INTER.CONST>
1

>  <SCORE.INTER.POLAR>
-1.87652

>  <SCORE.INTER.ROT>
12

>  <SCORE.INTER.SOLV>
31.684

>  <SCORE.INTER.VDW>
-20.5816

>  <SCORE.INTER.norm>
-0.134864

>  <SCORE.INTRA>
8.50869

>  <SCORE.INTRA.DIHEDRAL>
5.28664

>  <SCORE.INTRA.DIHEDRAL.0>
32.9766

>  <SCORE.INTRA.POLAR>
0

>  <SCORE.INTRA.POLAR.0>
0

>  <SCORE.INTRA.REPUL>
0

>  <SCORE.INTRA.REPUL.0>
0

>  <SCORE.INTRA.SOLV>
3.63779

>  <SCORE.INTRA.SOLV.lig_0>
-114.358

>  <SCORE.INTRA.VDW>
4.04647

>  <SCORE.INTRA.VDW.0>
-8.24257

>  <SCORE.INTRA.norm>
0.163629

>  <SCORE.RESTR>
13.9279

>  <SCORE.RESTR.CAVITY>
13.9279

>  <SCORE.RESTR.norm>
0.267844

>  <SCORE.SYSTEM>
0

>  <SCORE.SYSTEM.CONST>
0

>  <SCORE.SYSTEM.DIHEDRAL>
0

>  <SCORE.SYSTEM.SOLV>
0

>  <SCORE.SYSTEM.norm>
0

>  <SCORE.heavy>
52

>  <SCORE.norm>
0.296608

>  <RMSD>
28.059

$$$$
2esj_lig
 OpenBabel11021811423D
libRbt.so/2013.1/901 2013/11/27
 52 56  0  0  0  0  0  0  0  0999 V2000
    2.9774   10.8594    1.7047 C   0  0  2  0  0  0  0  0  0  0  0  0
    2.1536   12.0104    1.4372 O   0  0  0  0  0  0  0  0  0  0  0  0
   -0.8189   14.6282    3.0494 C   0  0  2  0  0  0  0  0  0  0  0  0
   -1.8766   15.2478    3.8647 N   0  0  0  0  0  0  0  0  0  0  0  0
    2.8025   13.2454    5.1090 C   0  0  1  0  0  0  0  0  0  0  0  0
    3.2539   12.7390    9.3133 C   0  0  1  0  0  0  0  0  0  0  0  0
    5.7360    8.9562   11.5137 C   0  0  1  0  0  0  0  0  0  0  0  0
    3.6761   10.4630    0.3707 C   0  0  2  0  0  0  0  0  0  0  0  0
    4.4486   11.5667   -0.1987 N   0  0  0  0  0  0  0  0  0  0  0  0
   -1.2747   13.1988    2.5529 C   0  0  0  0  0  0  0  0  0  0  0  0
    3.7472   14.0733    5.9811 C   0  0  2  0  0  0  0  0  0  0  0  0
    5.0792   13.5177    6.0310 O   0  0  0  0  0  0  0  0  0  0  0  0
    4.7125   12.1824    9.6359 C   0  0  2  0  0  0  0  0  0  0  0  0
    5.0077   10.9628    8.8383 N   0  0  0  0  0  0  0  0  0  0  0  0
    5.1168    7.5815   11.7383 C   0  0  1  0  0  0  0  0  0  0  0  0
    6.0745    6.5661   11.3776 O   0  0  0  0  0  0  0  0  0  0  0  0
    2.6338    9.9512   -0.6737 C   0  0  0  0  0  0  0  0  0  0  0  0
   -0.1512   12.5746    1.6310 C   0  0  2  0  0  0  0  0  0  0  0  0
   -0.5442   11.2400    1.1671 N   0  0  0  0  0  0  0  0  0  0  0  0
    3.0143   14.0359    7.2909 C   0  0  2  0  0  0  0  0  0  0  0  0
    3.1906   12.7911    7.9183 O   0  0  0  0  0  0  0  0  0  0  0  0
    4.8627   12.0086   11.2115 C   0  0  1  0  0  0  0  0  0  0  0  0
    4.4875   13.2335   11.8499 O   0  0  0  0  0  0  0  0  0  0  0  0
    4.6491    7.3029   13.1617 C   0  0  1  0  0  0  0  0  0  0  0  0
    4.3245    5.9103   13.2357 O   0  0  0  0  0  0  0  0  0  0  0  0
    1.8096    8.7936   -0.0362 C   0  0  2  0  0  0  0  0  0  0  0  0
    0.8943    8.2291   -0.9580 O   0  0  0  0  0  0  0  0  0  0  0  0
    1.1977   12.5060    2.3931 C   0  0  2  0  0  0  0  0  0  0  0  0
    1.5133   14.0660    6.9363 C   0  0  2  0  0  0  0  0  0  0  0  0
    1.4956   13.4179    5.6744 O   0  0  0  0  0  0  0  0  0  0  0  0
    3.8685   10.9089   11.7694 C   0  0  2  0  0  0  0  0  0  0  0  0
    4.2925    9.6990   11.1396 O   0  0  0  0  0  0  0  0  0  0  0  0
    5.6916    7.6378   14.2299 C   0  0  2  0  0  0  0  0  0  0  0  0
    5.0108    7.6245   15.4953 O   0  0  0  0  0  0  0  0  0  0  0  0
    1.0886    9.3425    1.2200 C   0  0  2  0  0  0  0  0  0  0  0  0
    2.1177    9.7844    2.1510 O   0  0  0  0  0  0  0  0  0  0  0  0
    1.6503   13.8657    3.0156 C   0  0  2  0  0  0  0  0  0  0  0  0
    2.8809   13.6709    3.7666 O   0  0  0  0  0  0  0  0  0  0  0  0
    0.8722   15.4471    6.8046 C   0  0  0  0  0  0  0  0  0  0  0  0
   -0.4888   15.2545    6.3921 O   0  0  0  0  0  0  0  0  0  0  0  0
    2.5167   11.2324   11.1626 C   0  0  1  0  0  0  0  0  0  0  0  0
    2.1904   11.8193    9.8844 O   0  0  0  0  0  0  0  0  0  0  0  0
    6.4112    8.9454   13.9186 C   0  0  2  0  0  0  0  0  0  0  0  0
    6.6435    9.3657   12.5654 O   0  0  0  0  0  0  0  0  0  0  0  0
    0.3020    8.3030    1.9433 C   0  0  0  0  0  0  0  0  0  0  0  0
    1.0329    7.1021    1.8820 O   0  0  0  0  0  0  0  0  0  0  0  0
    0.5056   14.4902    3.8826 C   0  0  1  0  0  0  0  0  0  0  0  0
    0.9317   15.8267    4.2586 O   0  0  0  0  0  0  0  0  0  0  0  0
    1.3168   10.3540   11.6333 C   0  0  0  0  0  0  0  0  0  0  0  0
    1.3299   10.0722   13.0842 N   0  0  0  0  0  0  0  0  0  0  0  0
    7.5107    9.5231   14.8068 C   0  0  0  0  0  0  0  0  0  0  0  0
    8.5589    8.5373   15.0025 O   0  0  0  0  0  0  0  0  0  0  0  0
  1  2  1  6  0  0  0
  1  8  1  0  0  0  0
  1 36  1  0  0  0  0
  3  4  1  1  0  0  0
  3 10  1  0  0  0  0
  3 47  1  0  0  0  0
  5 11  1  0  0  0  0
  5 30  1  0  0  0  0
  5 38  1  6  0  0  0
  6 21  1  6  0  0  0
  6 42  1  0  0  0  0
  7 15  1  0  0  0  0
  7 44  1  0  0  0  0
  7 32  1  1  0  0  0
  8  9  1  6  0  0  0
  8 17  1  0  0  0  0
 11 12  1  1  0  0  0
 11 20  1  0  0  0  0
 13  6  1  0  0  0  0
 13 14  1  6  0  0  0
 15 16  1  1  0  0  0
 15 24  1  0  0  0  0
 17 26  1  0  0  0  0
 18 10  1  0  0  0  0
 18 19  1  1  0  0  0
 20 21  1  6  0  0  0
 20 29  1  0  0  0  0
 22 13  1  0  0  0  0
 22 23  1  1  0  0  0
 24 25  1  6  0  0  0
 24 33  1  0  0  0  0
 26 27  1  6  0  0  0
 26 35  1  0  0  0  0
 28  2  1  6  0  0  0
 28 18  1  0  0  0  0
 29 30  1  0  0  0  0
 29 39  1  6  0  0  0
 31 22  1  0  0  0  0
 31 32  1  6  0  0  0
 31 41  1  0  0  0  0
 33 34  1  1  0  0  0
 33 43  1  0  0  0  0
 35 36  1  0  0  0  0
 35 45  1  1  0  0  0
 37 28  1  0  0  0  0
 37 38  1  1  0  0  0
 39 40  1  0  0  0  0
 41 42  1  0  0  0  0
 41 49  1  6  0  0  0
 43 44  1  0  0  0  0
 43 51  1  1  0  0  0
 45 46  1  0  0  0  0
 47 37  1  0  0  0  0
 47 48  1  6  0  0  0
 49 50  1  0  0  0  0
 51 52  1  0  0  0  0
M  END
>  <CHROM.1>
169.50628287,-134.67952209,-117.48677778,129.36687723,146.08775297,-126.21805820
176.41991509,69.45339226,37.41465018,-85.72691085,41.27952618,54.69303902
2.91193858,11.17910792,7.01969846,-2.48221365,-1.12801150,0.95161298

>  <Name>
2esj_lig

>  <RI>
0

>  <Rbt.Current_Directory>
/home/itssahil/PROJECTS/Mol_Feturizer/New_Systems/rnas/2esj

>  <Rbt.Executable>
rbdock ($Id: //depot/dev/client3/rdock/2013.1/src/exe/rbdock.cxx#4 $)

>  <Rbt.Library>
libRbt.so (2013.1, Build901 2013/11/27)

>  <Rbt.Parameter_File>
/export/apps/rDock/src/rDock_2013.1_src/data/scripts/dock_solv.prm

>  <Rbt.Receptor>
prm/blind_docking_20.prm

>  <SCORE>
41.0858

>  <SCORE.INTER>
13.6787

>  <SCORE.INTER.CONST>
1

>  <SCORE.INTER.POLAR>
-2.26387

>  <SCORE.INTER.ROT>
12

>  <SCORE.INTER.SOLV>
41.1984

>  <SCORE.INTER.VDW>
-8.66742

>  <SCORE.INTER.norm>
0.263052

>  <SCORE.INTRA>
19.8615

>  <SCORE.INTRA.DIHEDRAL>
8.70226

>  <SCORE.INTRA.DIHEDRAL.0>
32.9766

>  <SCORE.INTRA.POLAR>
0

>  <SCORE.INTRA.POLAR.0>
0

>  <SCORE.INTRA.REPUL>
0

>  <SCORE.INTRA.REPUL.0>
0

>  <SCORE.INTRA.SOLV>
3.85078

>  <SCORE.INTRA.SOLV.lig_0>
-114.358

>  <SCORE.INTRA.VDW>
13.5849

>  <SCORE.INTRA.VDW.0>
-8.24257

>  <SCORE.INTRA.norm>
0.381951

>  <SCORE.RESTR>
7.5456

>  <SCORE.RESTR.CAVITY>
7.5456

>  <SCORE.RESTR.norm>
0.145108

>  <SCORE.SYSTEM>
0

>  <SCORE.SYSTEM.CONST>
0

>  <SCORE.SYSTEM.DIHEDRAL>
0

>  <SCORE.SYSTEM.SOLV>
0

>  <SCORE.SYSTEM.norm>
0

>  <SCORE.heavy>
52

>  <SCORE.norm>
0.790111

>  <RMSD>
28.059

$$$$
2esj_lig
 OpenBabel11021811423D
libRbt.so/2013.1/901 2013/11/27
 52 56  0  0  0  0  0  0  0  0999 V2000
    2.5524   11.5409    2.5875 C   0  0  2  0  0  0  0  0  0  0  0  0
    1.4558   12.4141    2.2562 O   0  0  0  0  0  0  0  0  0  0  0  0
   -0.3326   15.9600    3.8425 C   0  0  2  0  0  0  0  0  0  0  0  0
   -1.0354   16.9454    4.6806 N   0  0  0  0  0  0  0  0  0  0  0  0
    2.8417   13.3926    5.6092 C   0  0  1  0  0  0  0  0  0  0  0  0
    2.7918   12.4377    9.6806 C   0  0  1  0  0  0  0  0  0  0  0  0
    6.0796   10.5257   13.0225 C   0  0  1  0  0  0  0  0  0  0  0  0
    3.7332   11.8890    1.6337 C   0  0  2  0  0  0  0  0  0  0  0  0
    4.1139   13.2988    1.7160 N   0  0  0  0  0  0  0  0  0  0  0  0
   -1.2673   14.7190    3.5533 C   0  0  0  0  0  0  0  0  0  0  0  0
    3.8478   14.0710    6.5398 C   0  0  2  0  0  0  0  0  0  0  0  0
    5.1351   13.4166    6.5299 O   0  0  0  0  0  0  0  0  0  0  0  0
    4.0538   12.8165   10.5778 C   0  0  2  0  0  0  0  0  0  0  0  0
    5.2889   12.1668   10.0647 N   0  0  0  0  0  0  0  0  0  0  0  0
    7.0277    9.7915   12.0815 C   0  0  1  0  0  0  0  0  0  0  0  0
    8.3562   10.3310   12.2318 O   0  0  0  0  0  0  0  0  0  0  0  0
    3.3843   11.5194    0.1570 C   0  0  0  0  0  0  0  0  0  0  0  0
   -0.5174   13.7001    2.6041 C   0  0  2  0  0  0  0  0  0  0  0  0
   -1.3595   12.5310    2.3307 N   0  0  0  0  0  0  0  0  0  0  0  0
    3.1179   13.9759    7.8483 C   0  0  2  0  0  0  0  0  0  0  0  0
    3.2033   12.6724    8.3659 O   0  0  0  0  0  0  0  0  0  0  0  0
    3.7152   12.5081   12.1027 C   0  0  1  0  0  0  0  0  0  0  0  0
    2.4760   13.1407   12.4386 O   0  0  0  0  0  0  0  0  0  0  0  0
    7.1069    8.2831   12.2837 C   0  0  1  0  0  0  0  0  0  0  0  0
    8.2004    7.8065   11.4916 O   0  0  0  0  0  0  0  0  0  0  0  0
    2.9604   10.0218    0.0999 C   0  0  2  0  0  0  0  0  0  0  0  0
    2.7033    9.5974   -1.2267 O   0  0  0  0  0  0  0  0  0  0  0  0
    0.8282   13.2605    3.2375 C   0  0  2  0  0  0  0  0  0  0  0  0
    1.6223   14.1467    7.5115 C   0  0  2  0  0  0  0  0  0  0  0  0
    1.5529   13.6119    6.1992 O   0  0  0  0  0  0  0  0  0  0  0  0
    3.4880   10.9589   12.3429 C   0  0  2  0  0  0  0  0  0  0  0  0
    4.7498   10.3659   12.0320 O   0  0  0  0  0  0  0  0  0  0  0  0
    7.3168    7.8664   13.7405 C   0  0  2  0  0  0  0  0  0  0  0  0
    7.0580    6.4548   13.8117 O   0  0  0  0  0  0  0  0  0  0  0  0
    1.7219    9.8304    1.0102 C   0  0  2  0  0  0  0  0  0  0  0  0
    2.1241   10.1765    2.3664 O   0  0  0  0  0  0  0  0  0  0  0  0
    1.7541   14.4461    3.6594 C   0  0  2  0  0  0  0  0  0  0  0  0
    2.9476   13.9243    4.3072 O   0  0  0  0  0  0  0  0  0  0  0  0
    1.0851   15.5775    7.5037 C   0  0  0  0  0  0  0  0  0  0  0  0
    2.1755   16.4469    7.1650 O   0  0  0  0  0  0  0  0  0  0  0  0
    2.5439   10.5079   11.2450 C   0  0  1  0  0  0  0  0  0  0  0  0
    2.4007   10.9865    9.8904 O   0  0  0  0  0  0  0  0  0  0  0  0
    6.4714    8.7078   14.6902 C   0  0  2  0  0  0  0  0  0  0  0  0
    6.1613   10.0790   14.3977 O   0  0  0  0  0  0  0  0  0  0  0  0
    1.2540    8.4162    1.0708 C   0  0  0  0  0  0  0  0  0  0  0  0
   -0.0651    8.4290    1.5607 O   0  0  0  0  0  0  0  0  0  0  0  0
    0.9773   15.4680    4.5564 C   0  0  1  0  0  0  0  0  0  0  0  0
    1.8402   16.6217    4.7394 O   0  0  0  0  0  0  0  0  0  0  0  0
    2.0660    9.0245   11.3071 C   0  0  0  0  0  0  0  0  0  0  0  0
    3.0868    8.0597   10.8469 N   0  0  0  0  0  0  0  0  0  0  0  0
    6.4858    8.5212   16.2056 C   0  0  0  0  0  0  0  0  0  0  0  0
    6.0906    7.1649   16.5418 O   0  0  0  0  0  0  0  0  0  0  0  0
  1  2  1  6  0  0  0
  1  8  1  0  0  0  0
  1 36  1  0  0  0  0
  3  4  1  1  0  0  0
  3 10  1  0  0  0  0
  3 47  1  0  0  0  0
  5 11  1  0  0  0  0
  5 30  1  0  0  0  0
  5 38  1  6  0  0  0
  6 21  1  6  0  0  0
  6 42  1  0  0  0  0
  7 15  1  0  0  0  0
  7 44  1  0  0  0  0
  7 32  1  6  0  0  0
  8  9  1  6  0  0  0
  8 17  1  0  0  0  0
 11 12  1  1  0  0  0
 11 20  1  0  0  0  0
 13  6  1  0  0  0  0
 13 14  1  6  0  0  0
 15 16  1  1  0  0  0
 15 24  1  0  0  0  0
 17 26  1  0  0  0  0
 18 10  1  0  0  0  0
 18 19  1  1  0  0  0
 20 21  1  6  0  0  0
 20 29  1  0  0  0  0
 22 13  1  0  0  0  0
 22 23  1  6  0  0  0
 24 25  1  6  0  0  0
 24 33  1  0  0  0  0
 26 27  1  6  0  0  0
 26 35  1  0  0  0  0
 28  2  1  6  0  0  0
 28 18  1  0  0  0  0
 29 30  1  0  0  0  0
 29 39  1  6  0  0  0
 31 22  1  0  0  0  0
 31 32  1  6  0  0  0
 31 41  1  0  0  0  0
 33 34  1  6  0  0  0
 33 43  1  0  0  0  0
 35 36  1  0  0  0  0
 35 45  1  1  0  0  0
 37 28  1  0  0  0  0
 37 38  1  1  0  0  0
 39 40  1  0  0  0  0
 41 42  1  0  0  0  0
 41 49  1  6  0  0  0
 43 44  1  0  0  0  0
 43 51  1  1  0  0  0
 45 46  1  0  0  0  0
 47 37  1  0  0  0  0
 47 48  1  6  0  0  0
 49 50  1  0  0  0  0
 51 52  1  0  0  0  0
M  END
>  <CHROM.1>
-124.41873493,-126.15523744,-83.93817736,-175.85682342,168.90400097,-163.97676069
28.20420276,72.19690722,-162.17607496,-72.82891953,-76.86149925,-58.92758277
3.24482893,11.71206150,7.47113212,-2.43758020,-1.06681398,1.07758745

>  <Name>
2esj_lig

>  <RI>
0

>  <Rbt.Current_Directory>
/home/itssahil/PROJECTS/Mol_Feturizer/New_Systems/rnas/2esj

>  <Rbt.Executable>
rbdock ($Id: //depot/dev/client3/rdock/2013.1/src/exe/rbdock.cxx#4 $)

>  <Rbt.Library>
libRbt.so (2013.1, Build901 2013/11/27)

>  <Rbt.Parameter_File>
/export/apps/rDock/src/rDock_2013.1_src/data/scripts/dock_solv.prm

>  <Rbt.Receptor>
prm/blind_docking_20.prm

>  <SCORE>
10.7855

>  <SCORE.INTER>
-5.26696

>  <SCORE.INTER.CONST>
1

>  <SCORE.INTER.POLAR>
-1.54246

>  <SCORE.INTER.ROT>
12

>  <SCORE.INTER.SOLV>
29.8593

>  <SCORE.INTER.VDW>
-19.9229

>  <SCORE.INTER.norm>
-0.101288

>  <SCORE.INTRA>
4.31681

>  <SCORE.INTRA.DIHEDRAL>
-4.03577

>  <SCORE.INTRA.DIHEDRAL.0>
32.9766

>  <SCORE.INTRA.POLAR>
0

>  <SCORE.INTRA.POLAR.0>
0

>  <SCORE.INTRA.REPUL>
0

>  <SCORE.INTRA.REPUL.0>
0

>  <SCORE.INTRA.SOLV>
2.38994

>  <SCORE.INTRA.SOLV.lig_0>
-114.358

>  <SCORE.INTRA.VDW>
5.13972

>  <SCORE.INTRA.VDW.0>
-8.24257

>  <SCORE.INTRA.norm>
0.0830155

>  <SCORE.RESTR>
11.7357

>  <SCORE.RESTR.CAVITY>
11.7357

>  <SCORE.RESTR.norm>
0.225686

>  <SCORE.SYSTEM>
0

>  <SCORE.SYSTEM.CONST>
0

>  <SCORE.SYSTEM.DIHEDRAL>
0

>  <SCORE.SYSTEM.SOLV>
0

>  <SCORE.SYSTEM.norm>
0

>  <SCORE.heavy>
52

>  <SCORE.norm>
0.207414

>  <RMSD>
28.059

$$$$
2esj_lig
 OpenBabel11021811423D
libRbt.so/2013.1/901 2013/11/27
 52 56  0  0  0  0  0  0  0  0999 V2000
    3.0576   11.3642    1.8821 C   0  0  2  0  0  0  0  0  0  0  0  0
    2.2385   12.5297    1.6686 O   0  0  0  0  0  0  0  0  0  0  0  0
   -0.7708   15.0413    3.3784 C   0  0  2  0  0  0  0  0  0  0  0  0
   -1.8545   15.6039    4.2009 N   0  0  0  0  0  0  0  0  0  0  0  0
    2.7507   13.4424    5.4546 C   0  0  1  0  0  0  0  0  0  0  0  0
    2.7414   12.4880    9.5576 C   0  0  1  0  0  0  0  0  0  0  0  0
    6.0050    9.9555   12.8170 C   0  0  1  0  0  0  0  0  0  0  0  0
    3.5451   10.8721    0.4874 C   0  0  2  0  0  0  0  0  0  0  0  0
    4.2600   11.9145   -0.2484 N   0  0  0  0  0  0  0  0  0  0  0  0
   -1.2202   13.6650    2.7450 C   0  0  0  0  0  0  0  0  0  0  0  0
    3.7568   14.0945    6.4038 C   0  0  2  0  0  0  0  0  0  0  0  0
    5.0299   13.4129    6.4097 O   0  0  0  0  0  0  0  0  0  0  0  0
    4.0901   12.8029   10.3470 C   0  0  2  0  0  0  0  0  0  0  0  0
    5.2447   12.0912    9.7376 N   0  0  0  0  0  0  0  0  0  0  0  0
    6.9051    9.3219   11.7625 C   0  0  1  0  0  0  0  0  0  0  0  0
    8.2837    9.5349   12.1267 O   0  0  0  0  0  0  0  0  0  0  0  0
    2.3485   10.3457   -0.3672 C   0  0  0  0  0  0  0  0  0  0  0  0
   -0.0666   13.1059    1.8186 C   0  0  2  0  0  0  0  0  0  0  0  0
   -0.4536   11.8204    1.2281 N   0  0  0  0  0  0  0  0  0  0  0  0
    3.0055   14.0085    7.7008 C   0  0  2  0  0  0  0  0  0  0  0  0
    3.0553   12.7009    8.2126 O   0  0  0  0  0  0  0  0  0  0  0  0
    3.8623   12.5127   11.8958 C   0  0  1  0  0  0  0  0  0  0  0  0
    2.6882   13.2075   12.3289 O   0  0  0  0  0  0  0  0  0  0  0  0
    6.7013    7.8274   11.5454 C   0  0  1  0  0  0  0  0  0  0  0  0
    7.7728    7.3705   10.7127 O   0  0  0  0  0  0  0  0  0  0  0  0
    1.5906    9.2551    0.4463 C   0  0  2  0  0  0  0  0  0  0  0  0
    0.5358    8.6777   -0.3022 O   0  0  0  0  0  0  0  0  0  0  0  0
    1.2497   12.9556    2.6246 C   0  0  2  0  0  0  0  0  0  0  0  0
    1.5191   14.2129    7.3425 C   0  0  2  0  0  0  0  0  0  0  0  0
    1.4580   13.6863    6.0265 O   0  0  0  0  0  0  0  0  0  0  0  0
    3.5777   10.9772   12.1609 C   0  0  2  0  0  0  0  0  0  0  0  0
    4.7782   10.3208   11.7507 O   0  0  0  0  0  0  0  0  0  0  0  0
    6.6830    7.0131   12.8402 C   0  0  2  0  0  0  0  0  0  0  0  0
    6.1785    5.7099   12.5060 O   0  0  0  0  0  0  0  0  0  0  0  0
    1.0745    9.8960    1.7585 C   0  0  2  0  0  0  0  0  0  0  0  0
    2.2395   10.3473    2.5070 O   0  0  0  0  0  0  0  0  0  0  0  0
    1.6901   14.2518    3.3774 C   0  0  2  0  0  0  0  0  0  0  0  0
    2.8874   13.9782    4.1572 O   0  0  0  0  0  0  0  0  0  0  0  0
    1.0126   15.6549    7.3342 C   0  0  0  0  0  0  0  0  0  0  0  0
    2.0841   16.4868    6.8658 O   0  0  0  0  0  0  0  0  0  0  0  0
    2.5253   10.5740   11.1460 C   0  0  1  0  0  0  0  0  0  0  0  0
    2.2961   11.0586    9.8054 O   0  0  0  0  0  0  0  0  0  0  0  0
    5.9011    7.7258   13.9380 C   0  0  2  0  0  0  0  0  0  0  0  0
    5.8644    9.1590   14.0182 O   0  0  0  0  0  0  0  0  0  0  0  0
    0.3695    8.9265    2.6448 C   0  0  0  0  0  0  0  0  0  0  0  0
   -0.8877    8.6658    2.0691 O   0  0  0  0  0  0  0  0  0  0  0  0
    0.5175   14.8161    4.2485 C   0  0  1  0  0  0  0  0  0  0  0  0
    0.9412   16.1105    4.7528 O   0  0  0  0  0  0  0  0  0  0  0  0
    1.9799    9.1167   11.2538 C   0  0  0  0  0  0  0  0  0  0  0  0
    2.9266    8.0977   10.7538 N   0  0  0  0  0  0  0  0  0  0  0  0
    5.7248    7.1518   15.3420 C   0  0  0  0  0  0  0  0  0  0  0  0
    6.5880    7.8526   16.2761 O   0  0  0  0  0  0  0  0  0  0  0  0
  1  2  1  6  0  0  0
  1  8  1  0  0  0  0
  1 36  1  0  0  0  0
  3  4  1  1  0  0  0
  3 10  1  0  0  0  0
  3 47  1  0  0  0  0
  5 11  1  0  0  0  0
  5 30  1  0  0  0  0
  5 38  1  6  0  0  0
  6 21  1  6  0  0  0
  6 42  1  0  0  0  0
  7 15  1  0  0  0  0
  7 44  1  0  0  0  0
  7 32  1  6  0  0  0
  8  9  1  6  0  0  0
  8 17  1  0  0  0  0
 11 12  1  1  0  0  0
 11 20  1  0  0  0  0
 13  6  1  0  0  0  0
 13 14  1  6  0  0  0
 15 16  1  1  0  0  0
 15 24  1  0  0  0  0
 17 26  1  0  0  0  0
 18 10  1  0  0  0  0
 18 19  1  1  0  0  0
 20 21  1  6  0  0  0
 20 29  1  0  0  0  0
 22 13  1  0  0  0  0
 22 23  1  6  0  0  0
 24 25  1  6  0  0  0
 24 33  1  0  0  0  0
 26 27  1  6  0  0  0
 26 35  1  0  0  0  0
 28  2  1  6  0  0  0
 28 18  1  0  0  0  0
 29 30  1  0  0  0  0
 29 39  1  6  0  0  0
 31 22  1  0  0  0  0
 31 32  1  6  0  0  0
 31 41  1  0  0  0  0
 33 34  1  6  0  0  0
 33 43  1  0  0  0  0
 35 36  1  0  0  0  0
 35 45  1  1  0  0  0
 37 28  1  0  0  0  0
 37 38  1  1  0  0  0
 39 40  1  0  0  0  0
 41 42  1  0  0  0  0
 41 49  1  6  0  0  0
 43 44  1  0  0  0  0
 43 51  1  1  0  0  0
 45 46  1  0  0  0  0
 47 37  1  0  0  0  0
 47 48  1  6  0  0  0
 49 50  1  0  0  0  0
 51 52  1  0  0  0  0
M  END
>  <CHROM.1>
156.92387059,-139.76372473,-83.36597752,-179.59462811,162.83196653,-127.45437101
34.79027536,93.87725341,-73.91803995,-85.73453775,-75.11056338,104.52867713
3.02820589,11.39693605,7.17808877,-2.57154686,-1.10421295,0.93041595

>  <Name>
2esj_lig

>  <RI>
0

>  <Rbt.Current_Directory>
/home/itssahil/PROJECTS/Mol_Feturizer/New_Systems/rnas/2esj

>  <Rbt.Executable>
rbdock ($Id: //depot/dev/client3/rdock/2013.1/src/exe/rbdock.cxx#4 $)

>  <Rbt.Library>
libRbt.so (2013.1, Build901 2013/11/27)

>  <Rbt.Parameter_File>
/export/apps/rDock/src/rDock_2013.1_src/data/scripts/dock_solv.prm

>  <Rbt.Receptor>
prm/blind_docking_20.prm

>  <SCORE>
24.2142

>  <SCORE.INTER>
-2.35203

>  <SCORE.INTER.CONST>
1

>  <SCORE.INTER.POLAR>
-2.19711

>  <SCORE.INTER.ROT>
12

>  <SCORE.INTER.SOLV>
34.3219

>  <SCORE.INTER.VDW>
-17.2849

>  <SCORE.INTER.norm>
-0.0452313

>  <SCORE.INTRA>
16.6087

>  <SCORE.INTRA.DIHEDRAL>
1.20585

>  <SCORE.INTRA.DIHEDRAL.0>
32.9766

>  <SCORE.INTRA.POLAR>
0

>  <SCORE.INTRA.POLAR.0>
0

>  <SCORE.INTRA.REPUL>
0

>  <SCORE.INTRA.REPUL.0>
0

>  <SCORE.INTRA.SOLV>
5.56247

>  <SCORE.INTRA.SOLV.lig_0>
-114.358

>  <SCORE.INTRA.VDW>
13.2245

>  <SCORE.INTRA.VDW.0>
-8.24257

>  <SCORE.INTRA.norm>
0.319398

>  <SCORE.RESTR>
9.95759

>  <SCORE.RESTR.CAVITY>
9.95759

>  <SCORE.RESTR.norm>
0.191492

>  <SCORE.SYSTEM>
0

>  <SCORE.SYSTEM.CONST>
0

>  <SCORE.SYSTEM.DIHEDRAL>
0

>  <SCORE.SYSTEM.SOLV>
0

>  <SCORE.SYSTEM.norm>
0

>  <SCORE.heavy>
52

>  <SCORE.norm>
0.465658

>  <RMSD>
28.063

$$$$
2esj_lig
 OpenBabel11021811423D
libRbt.so/2013.1/901 2013/11/27
 52 56  0  0  0  0  0  0  0  0999 V2000
    3.1101   11.2092    1.7083 C   0  0  2  0  0  0  0  0  0  0  0  0
    2.2080   12.3020    1.4495 O   0  0  0  0  0  0  0  0  0  0  0  0
   -0.8905   14.7313    3.1186 C   0  0  2  0  0  0  0  0  0  0  0  0
   -1.9913   15.2696    3.9346 N   0  0  0  0  0  0  0  0  0  0  0  0
    2.7044   13.3327    5.2110 C   0  0  1  0  0  0  0  0  0  0  0  0
    2.9958   12.5561    9.3820 C   0  0  1  0  0  0  0  0  0  0  0  0
    6.2692    9.3303   11.9726 C   0  0  1  0  0  0  0  0  0  0  0  0
    3.7709   10.8163    0.3541 C   0  0  2  0  0  0  0  0  0  0  0  0
    4.4499   11.9466   -0.2788 N   0  0  0  0  0  0  0  0  0  0  0  0
   -1.2875   13.3229    2.5217 C   0  0  0  0  0  0  0  0  0  0  0  0
    3.6531   14.0859    6.1444 C   0  0  2  0  0  0  0  0  0  0  0  0
    4.9721   13.4991    6.1792 O   0  0  0  0  0  0  0  0  0  0  0  0
    4.5215   12.5716    9.8437 C   0  0  2  0  0  0  0  0  0  0  0  0
    5.3363   11.6320    9.0286 N   0  0  0  0  0  0  0  0  0  0  0  0
    5.4551    8.2323   12.6473 C   0  0  1  0  0  0  0  0  0  0  0  0
    6.2881    7.0701   12.8311 O   0  0  0  0  0  0  0  0  0  0  0  0
    2.7153   10.2149   -0.6273 C   0  0  0  0  0  0  0  0  0  0  0  0
   -0.1177   12.7883    1.6012 C   0  0  2  0  0  0  0  0  0  0  0  0
   -0.4558   11.4742    1.0447 N   0  0  0  0  0  0  0  0  0  0  0  0
    2.8998   13.9864    7.4392 C   0  0  2  0  0  0  0  0  0  0  0  0
    3.0401   12.7027    7.9930 O   0  0  0  0  0  0  0  0  0  0  0  0
    4.5883   12.3302   11.4160 C   0  0  1  0  0  0  0  0  0  0  0  0
    3.7123   13.2582   12.0642 O   0  0  0  0  0  0  0  0  0  0  0  0
    4.8584    8.6021   13.9999 C   0  0  1  0  0  0  0  0  0  0  0  0
    4.3432    7.3981   14.5789 O   0  0  0  0  0  0  0  0  0  0  0  0
    1.9910    9.0298    0.0774 C   0  0  2  0  0  0  0  0  0  0  0  0
    1.0707    8.3867   -0.7861 O   0  0  0  0  0  0  0  0  0  0  0  0
    1.2083   12.7109    2.4017 C   0  0  2  0  0  0  0  0  0  0  0  0
    1.4053   14.0709    7.0663 C   0  0  2  0  0  0  0  0  0  0  0  0
    1.3930   13.4999    5.7675 O   0  0  0  0  0  0  0  0  0  0  0  0
    4.0546   10.8900   11.8033 C   0  0  2  0  0  0  0  0  0  0  0  0
    4.9689    9.9937   11.1699 O   0  0  0  0  0  0  0  0  0  0  0  0
    5.8618    9.2387   14.9632 C   0  0  2  0  0  0  0  0  0  0  0  0
    5.1013    9.8063   16.0422 O   0  0  0  0  0  0  0  0  0  0  0  0
    1.2954    9.5713    1.3510 C   0  0  2  0  0  0  0  0  0  0  0  0
    2.3368   10.0990    2.2216 O   0  0  0  0  0  0  0  0  0  0  0  0
    1.6003   14.0419    3.1199 C   0  0  2  0  0  0  0  0  0  0  0  0
    2.8122   13.8359    3.8979 O   0  0  0  0  0  0  0  0  0  0  0  0
    0.7957   15.4712    7.0090 C   0  0  0  0  0  0  0  0  0  0  0  0
   -0.5343   15.3427    6.4854 O   0  0  0  0  0  0  0  0  0  0  0  0
    2.7423   10.7257   11.0609 C   0  0  1  0  0  0  0  0  0  0  0  0
    2.3274   11.2539    9.7828 O   0  0  0  0  0  0  0  0  0  0  0  0
    6.7719   10.2308   14.2476 C   0  0  2  0  0  0  0  0  0  0  0  0
    7.1505   10.0410   12.8756 O   0  0  0  0  0  0  0  0  0  0  0  0
    0.6052    8.5088    2.1366 C   0  0  0  0  0  0  0  0  0  0  0  0
   -0.3433    7.9066    1.2894 O   0  0  0  0  0  0  0  0  0  0  0  0
    0.4109   14.5795    3.9850 C   0  0  1  0  0  0  0  0  0  0  0  0
    0.7848   15.9019    4.4550 O   0  0  0  0  0  0  0  0  0  0  0  0
    1.9416    9.4184   11.3483 C   0  0  0  0  0  0  0  0  0  0  0  0
    0.8049    9.6179   12.2718 N   0  0  0  0  0  0  0  0  0  0  0  0
    7.8770   11.0094   14.9577 C   0  0  0  0  0  0  0  0  0  0  0  0
    8.2246   12.1905   14.1877 O   0  0  0  0  0  0  0  0  0  0  0  0
  1  2  1  6  0  0  0
  1  8  1  0  0  0  0
  1 36  1  0  0  0  0
  3  4  1  1  0  0  0
  3 10  1  0  0  0  0
  3 47  1  0  0  0  0
  5 11  1  0  0  0  0
  5 30  1  0  0  0  0
  5 38  1  6  0  0  0
  6 21  1  6  0  0  0
  6 42  1  0  0  0  0
  7 15  1  0  0  0  0
  7 44  1  0  0  0  0
  7 32  1  1  0  0  0
  8  9  1  6  0  0  0
  8 17  1  0  0  0  0
 11 12  1  1  0  0  0
 11 20  1  0  0  0  0
 13  6  1  0  0  0  0
 13 14  1  6  0  0  0
 15 16  1  1  0  0  0
 15 24  1  0  0  0  0
 17 26  1  0  0  0  0
 18 10  1  0  0  0  0
 18 19  1  1  0  0  0
 20 21  1  6  0  0  0
 20 29  1  0  0  0  0
 22 13  1  0  0  0  0
 22 23  1  1  0  0  0
 24 25  1  1  0  0  0
 24 33  1  0  0  0  0
 26 27  1  6  0  0  0
 26 35  1  0  0  0  0
 28  2  1  6  0  0  0
 28 18  1  0  0  0  0
 29 30  1  0  0  0  0
 29 39  1  6  0  0  0
 31 22  1  0  0  0  0
 31 32  1  6  0  0  0
 31 41  1  0  0  0  0
 33 34  1  1  0  0  0
 33 43  1  0  0  0  0
 35 36  1  0  0  0  0
 35 45  1  1  0  0  0
 37 28  1  0  0  0  0
 37 38  1  1  0  0  0
 39 40  1  0  0  0  0
 41 42  1  0  0  0  0
 41 49  1  6  0  0  0
 43 44  1  0  0  0  0
 43 51  1  1  0  0  0
 45 46  1  0  0  0  0
 47 37  1  0  0  0  0
 47 48  1  6  0  0  0
 49 50  1  0  0  0  0
 51 52  1  0  0  0  0
M  END
>  <CHROM.1>
165.31536554,-137.59822107,-95.19584805,81.05523651,150.11320703,-129.96662255
172.79054640,95.95162266,-58.42617695,-86.02716341,101.82461972,-158.86328888
2.93354612,11.56257996,7.16637409,-2.41367901,-1.09156526,0.94612674

>  <Name>
2esj_lig

>  <RI>
0

>  <Rbt.Current_Directory>
/home/itssahil/PROJECTS/Mol_Feturizer/New_Systems/rnas/2esj

>  <Rbt.Executable>
rbdock ($Id: //depot/dev/client3/rdock/2013.1/src/exe/rbdock.cxx#4 $)

>  <Rbt.Library>
libRbt.so (2013.1, Build901 2013/11/27)

>  <Rbt.Parameter_File>
/export/apps/rDock/src/rDock_2013.1_src/data/scripts/dock_solv.prm

>  <Rbt.Receptor>
prm/blind_docking_20.prm

>  <SCORE>
32.6492

>  <SCORE.INTER>
8.23721

>  <SCORE.INTER.CONST>
1

>  <SCORE.INTER.POLAR>
-1.69687

>  <SCORE.INTER.ROT>
12

>  <SCORE.INTER.SOLV>
40.4557

>  <SCORE.INTER.VDW>
-13.9375

>  <SCORE.INTER.norm>
0.158408

>  <SCORE.INTRA>
16.0679

>  <SCORE.INTRA.DIHEDRAL>
3.42468

>  <SCORE.INTRA.DIHEDRAL.0>
32.9766

>  <SCORE.INTRA.POLAR>
0

>  <SCORE.INTRA.POLAR.0>
0

>  <SCORE.INTRA.REPUL>
0

>  <SCORE.INTRA.REPUL.0>
0

>  <SCORE.INTRA.SOLV>
3.16696

>  <SCORE.INTRA.SOLV.lig_0>
-114.358

>  <SCORE.INTRA.VDW>
12.7721

>  <SCORE.INTRA.VDW.0>
-8.24257

>  <SCORE.INTRA.norm>
0.308998

>  <SCORE.RESTR>
8.34413

>  <SCORE.RESTR.CAVITY>
8.34413

>  <SCORE.RESTR.norm>
0.160464

>  <SCORE.SYSTEM>
0

>  <SCORE.SYSTEM.CONST>
0

>  <SCORE.SYSTEM.DIHEDRAL>
0

>  <SCORE.SYSTEM.SOLV>
0

>  <SCORE.SYSTEM.norm>
0

>  <SCORE.heavy>
52

>  <SCORE.norm>
0.62787

>  <RMSD>
28.189

$$$$
2esj_lig
 OpenBabel11021811423D
libRbt.so/2013.1/901 2013/11/27
 52 56  0  0  0  0  0  0  0  0999 V2000
    1.7905    9.1174   -0.3699 C   0  0  2  0  0  0  0  0  0  0  0  0
    2.0933    9.1754    1.0372 O   0  0  0  0  0  0  0  0  0  0  0  0
   -1.8390    9.8610    2.5719 C   0  0  2  0  0  0  0  0  0  0  0  0
   -3.0149   10.0464    3.4379 N   0  0  0  0  0  0  0  0  0  0  0  0
    1.8708   12.1286    3.4271 C   0  0  1  0  0  0  0  0  0  0  0  0
    3.1925   13.5604    7.1114 C   0  0  1  0  0  0  0  0  0  0  0  0
    5.0011   10.5862   10.5738 C   0  0  1  0  0  0  0  0  0  0  0  0
    2.2328    7.7167   -0.8870 C   0  0  2  0  0  0  0  0  0  0  0  0
    1.5971    6.6273   -0.1464 N   0  0  0  0  0  0  0  0  0  0  0  0
   -1.1591    8.4639    2.8609 C   0  0  0  0  0  0  0  0  0  0  0  0
    2.9304   13.2311    3.4378 C   0  0  2  0  0  0  0  0  0  0  0  0
    4.2687   12.7099    3.2864 O   0  0  0  0  0  0  0  0  0  0  0  0
    4.7356   13.7494    7.4642 C   0  0  2  0  0  0  0  0  0  0  0  0
    5.5123   12.5239    7.1389 N   0  0  0  0  0  0  0  0  0  0  0  0
    4.8002   11.2017   11.9538 C   0  0  1  0  0  0  0  0  0  0  0  0
    3.9034   10.3701   12.7172 O   0  0  0  0  0  0  0  0  0  0  0  0
    3.7858    7.5645   -0.8247 C   0  0  0  0  0  0  0  0  0  0  0  0
    0.0653    8.2573    1.8813 C   0  0  2  0  0  0  0  0  0  0  0  0
    0.7232    6.9720    2.1383 N   0  0  0  0  0  0  0  0  0  0  0  0
    2.6605   13.8577    4.7752 C   0  0  2  0  0  0  0  0  0  0  0  0
    3.1819   13.0591    5.8071 O   0  0  0  0  0  0  0  0  0  0  0  0
    4.8642   14.2471    8.9711 C   0  0  1  0  0  0  0  0  0  0  0  0
    4.0195   15.3878    9.1553 O   0  0  0  0  0  0  0  0  0  0  0  0
    6.0716   11.3966   12.7711 C   0  0  1  0  0  0  0  0  0  0  0  0
    5.6709   11.7529   14.0988 O   0  0  0  0  0  0  0  0  0  0  0  0
    4.4387    8.7473   -1.5996 C   0  0  2  0  0  0  0  0  0  0  0  0
    5.8494    8.6298   -1.6489 O   0  0  0  0  0  0  0  0  0  0  0  0
    1.0788    9.4219    2.0287 C   0  0  2  0  0  0  0  0  0  0  0  0
    1.1332   13.7795    4.9779 C   0  0  2  0  0  0  0  0  0  0  0  0
    0.7991   12.6075    4.2515 O   0  0  0  0  0  0  0  0  0  0  0  0
    4.3391   13.1524    9.9886 C   0  0  2  0  0  0  0  0  0  0  0  0
    5.2229   12.0458    9.8020 O   0  0  0  0  0  0  0  0  0  0  0  0
    6.9649   10.1561   12.8269 C   0  0  2  0  0  0  0  0  0  0  0  0
    8.2353   10.5804   13.3473 O   0  0  0  0  0  0  0  0  0  0  0  0
    3.9999   10.0720   -0.9276 C   0  0  2  0  0  0  0  0  0  0  0  0
    2.5499   10.1530   -1.0369 O   0  0  0  0  0  0  0  0  0  0  0  0
    0.4475   10.8425    1.8731 C   0  0  2  0  0  0  0  0  0  0  0  0
    1.4661   11.8552    2.1040 O   0  0  0  0  0  0  0  0  0  0  0  0
    0.3146   14.9552    4.4457 C   0  0  0  0  0  0  0  0  0  0  0  0
    1.0896   16.1467    4.6439 O   0  0  0  0  0  0  0  0  0  0  0  0
    2.9974   12.6987    9.4464 C   0  0  1  0  0  0  0  0  0  0  0  0
    2.5342   12.5980    8.0826 O   0  0  0  0  0  0  0  0  0  0  0  0
    7.0426    9.4614   11.4720 C   0  0  2  0  0  0  0  0  0  0  0  0
    5.9338    9.4784   10.5597 O   0  0  0  0  0  0  0  0  0  0  0  0
    4.5302   11.2817   -1.6188 C   0  0  0  0  0  0  0  0  0  0  0  0
    3.9479   12.4069   -1.0062 O   0  0  0  0  0  0  0  0  0  0  0  0
   -0.7929   11.0073    2.8147 C   0  0  1  0  0  0  0  0  0  0  0  0
   -1.4298   12.2662    2.4698 O   0  0  0  0  0  0  0  0  0  0  0  0
    2.2023   11.6831   10.3235 C   0  0  0  0  0  0  0  0  0  0  0  0
    2.3020   11.9560   11.7728 N   0  0  0  0  0  0  0  0  0  0  0  0
    7.8545    8.1905   11.2328 C   0  0  0  0  0  0  0  0  0  0  0  0
    8.2292    7.5952   12.5032 O   0  0  0  0  0  0  0  0  0  0  0  0
  1  2  1  1  0  0  0
  1  8  1  0  0  0  0
  1 36  1  0  0  0  0
  3  4  1  1  0  0  0
  3 10  1  0  0  0  0
  3 47  1  0  0  0  0
  5 11  1  0  0  0  0
  5 30  1  0  0  0  0
  5 38  1  6  0  0  0
  6 21  1  6  0  0  0
  6 42  1  0  0  0  0
  7 15  1  0  0  0  0
  7 44  1  0  0  0  0
  7 32  1  6  0  0  0
  8  9  1  1  0  0  0
  8 17  1  0  0  0  0
 11 12  1  1  0  0  0
 11 20  1  0  0  0  0
 13  6  1  0  0  0  0
 13 14  1  1  0  0  0
 15 16  1  1  0  0  0
 15 24  1  0  0  0  0
 17 26  1  0  0  0  0
 18 10  1  0  0  0  0
 18 19  1  1  0  0  0
 20 21  1  1  0  0  0
 20 29  1  0  0  0  0
 22 13  1  0  0  0  0
 22 23  1  6  0  0  0
 24 25  1  1  0  0  0
 24 33  1  0  0  0  0
 26 27  1  1  0  0  0
 26 35  1  0  0  0  0
 28  2  1  6  0  0  0
 28 18  1  0  0  0  0
 29 30  1  0  0  0  0
 29 39  1  6  0  0  0
 31 22  1  0  0  0  0
 31 32  1  6  0  0  0
 31 41  1  0  0  0  0
 33 34  1  6  0  0  0
 33 43  1  0  0  0  0
 35 36  1  0  0  0  0
 35 45  1  6  0  0  0
 37 28  1  0  0  0  0
 37 38  1  1  0  0  0
 39 40  1  0  0  0  0
 41 42  1  0  0  0  0
 41 49  1  6  0  0  0
 43 44  1  0  0  0  0
 43 51  1  1  0  0  0
 45 46  1  0  0  0  0
 47 37  1  0  0  0  0
 47 48  1  6  0  0  0
 49 50  1  0  0  0  0
 51 52  1  0  0  0  0
M  END
>  <CHROM.1>
-121.55988070,-179.30382045,-112.97931241,-48.52241468,171.36645580,60.49483156
-35.75035195,-174.99319094,173.74676677,-76.31035340,38.67130220,14.16985877
3.15290659,11.12270635,5.55839976,-2.03549875,-0.77860910,1.12004327

>  <Name>
2esj_lig

>  <RI>
0

>  <Rbt.Current_Directory>
/home/itssahil/PROJECTS/Mol_Feturizer/New_Systems/rnas/2esj

>  <Rbt.Executable>
rbdock ($Id: //depot/dev/client3/rdock/2013.1/src/exe/rbdock.cxx#4 $)

>  <Rbt.Library>
libRbt.so (2013.1, Build901 2013/11/27)

>  <Rbt.Parameter_File>
/export/apps/rDock/src/rDock_2013.1_src/data/scripts/dock_solv.prm

>  <Rbt.Receptor>
prm/blind_docking_20.prm

>  <SCORE>
46.1217

>  <SCORE.INTER>
26.3497

>  <SCORE.INTER.CONST>
1

>  <SCORE.INTER.POLAR>
-0.989873

>  <SCORE.INTER.ROT>
12

>  <SCORE.INTER.SOLV>
36.9667

>  <SCORE.INTER.VDW>
-3.05618

>  <SCORE.INTER.norm>
0.506725

>  <SCORE.INTRA>
6.92983

>  <SCORE.INTRA.DIHEDRAL>
-8.15086

>  <SCORE.INTRA.DIHEDRAL.0>
32.9766

>  <SCORE.INTRA.POLAR>
0

>  <SCORE.INTRA.POLAR.0>
0

>  <SCORE.INTRA.REPUL>
0

>  <SCORE.INTRA.REPUL.0>
0

>  <SCORE.INTRA.SOLV>
5.03091

>  <SCORE.INTRA.SOLV.lig_0>
-114.358

>  <SCORE.INTRA.VDW>
8.48981

>  <SCORE.INTRA.VDW.0>
-8.24257

>  <SCORE.INTRA.norm>
0.133266

>  <SCORE.RESTR>
12.8422

>  <SCORE.RESTR.CAVITY>
12.8422

>  <SCORE.RESTR.norm>
0.246966

>  <SCORE.SYSTEM>
0

>  <SCORE.SYSTEM.CONST>
0

>  <SCORE.SYSTEM.DIHEDRAL>
0

>  <SCORE.SYSTEM.SOLV>
0

>  <SCORE.SYSTEM.norm>
0

>  <SCORE.heavy>
52

>  <SCORE.norm>
0.886957

>  <RMSD>
28.192

$$$$
2esj_lig
 OpenBabel11021811423D
libRbt.so/2013.1/901 2013/11/27
 52 56  0  0  0  0  0  0  0  0999 V2000
   -0.5619   12.9016    2.4518 C   0  0  2  0  0  0  0  0  0  0  0  0
   -0.3988   13.1053    3.8684 O   0  0  0  0  0  0  0  0  0  0  0  0
    1.1439   17.0938    3.8604 C   0  0  2  0  0  0  0  0  0  0  0  0
    1.5500   18.4620    4.2218 N   0  0  0  0  0  0  0  0  0  0  0  0
    2.2511   13.6985    6.4987 C   0  0  1  0  0  0  0  0  0  0  0  0
    3.2736   13.3371   10.6142 C   0  0  1  0  0  0  0  0  0  0  0  0
    4.3484    8.5843   12.3037 C   0  0  1  0  0  0  0  0  0  0  0  0
   -0.7867   11.3781    2.2203 C   0  0  2  0  0  0  0  0  0  0  0  0
   -1.9261   10.8651    2.9804 N   0  0  0  0  0  0  0  0  0  0  0  0
   -0.4018   16.8930    4.1210 C   0  0  0  0  0  0  0  0  0  0  0  0
    3.5159   13.0644    7.0791 C   0  0  2  0  0  0  0  0  0  0  0  0
    3.3525   11.6546    7.3457 O   0  0  0  0  0  0  0  0  0  0  0  0
    4.7395   12.7364   10.4358 C   0  0  2  0  0  0  0  0  0  0  0  0
    4.7369   11.5944    9.4835 N   0  0  0  0  0  0  0  0  0  0  0  0
    5.0384    8.7576   13.6518 C   0  0  1  0  0  0  0  0  0  0  0  0
    4.3663    7.9459   14.6356 O   0  0  0  0  0  0  0  0  0  0  0  0
    0.4979   10.5647    2.5770 C   0  0  0  0  0  0  0  0  0  0  0  0
   -0.8307   15.4384    3.6719 C   0  0  2  0  0  0  0  0  0  0  0  0
   -2.2604   15.2213    3.9161 N   0  0  0  0  0  0  0  0  0  0  0  0
    3.7052   13.9062    8.3078 C   0  0  2  0  0  0  0  0  0  0  0  0
    2.8009   13.5215    9.3122 O   0  0  0  0  0  0  0  0  0  0  0  0
    5.3440   12.4128   11.8727 C   0  0  1  0  0  0  0  0  0  0  0  0
    5.2232   13.5759   12.6981 O   0  0  0  0  0  0  0  0  0  0  0  0
    6.5189    8.3973   13.6764 C   0  0  1  0  0  0  0  0  0  0  0  0
    6.9307    8.3922   15.0478 O   0  0  0  0  0  0  0  0  0  0  0  0
    1.6996   11.1444    1.7736 C   0  0  2  0  0  0  0  0  0  0  0  0
    2.8860   10.4020    1.9915 O   0  0  0  0  0  0  0  0  0  0  0  0
    0.0127   14.3714    4.4169 C   0  0  2  0  0  0  0  0  0  0  0  0
    3.2500   15.3282    7.9202 C   0  0  2  0  0  0  0  0  0  0  0  0
    2.2598   15.0635    6.9392 O   0  0  0  0  0  0  0  0  0  0  0  0
    4.5185   11.2763   12.6049 C   0  0  2  0  0  0  0  0  0  0  0  0
    4.6890   10.1267   11.7743 O   0  0  0  0  0  0  0  0  0  0  0  0
    6.8334    7.0387   13.0478 C   0  0  2  0  0  0  0  0  0  0  0  0
    8.2573    6.9845   12.8630 O   0  0  0  0  0  0  0  0  0  0  0  0
    1.8773   12.6319    2.1671 C   0  0  2  0  0  0  0  0  0  0  0  0
    0.6539   13.3276    1.7927 O   0  0  0  0  0  0  0  0  0  0  0  0
    1.5566   14.5807    4.3001 C   0  0  2  0  0  0  0  0  0  0  0  0
    2.2452   13.5746    5.0938 O   0  0  0  0  0  0  0  0  0  0  0  0
    4.3174   16.2468    7.3264 C   0  0  0  0  0  0  0  0  0  0  0  0
    5.0097   15.5054    6.3112 O   0  0  0  0  0  0  0  0  0  0  0  0
    3.0611   11.6706   12.4611 C   0  0  1  0  0  0  0  0  0  0  0  0
    2.3929   12.3793   11.3953 O   0  0  0  0  0  0  0  0  0  0  0  0
    6.0265    6.8116   11.7742 C   0  0  2  0  0  0  0  0  0  0  0  0
    4.7095    7.3616   11.6169 O   0  0  0  0  0  0  0  0  0  0  0  0
    2.9765   13.3070    1.4198 C   0  0  0  0  0  0  0  0  0  0  0  0
    4.1900   12.7389    1.8500 O   0  0  0  0  0  0  0  0  0  0  0  0
    1.9528   16.0418    4.7007 C   0  0  1  0  0  0  0  0  0  0  0  0
    3.3595   16.2086    4.3804 O   0  0  0  0  0  0  0  0  0  0  0  0
    2.0220   10.7650   13.1911 C   0  0  0  0  0  0  0  0  0  0  0  0
    1.3296    9.8215   12.2882 N   0  0  0  0  0  0  0  0  0  0  0  0
    6.1279    5.5366   10.9400 C   0  0  0  0  0  0  0  0  0  0  0  0
    7.5219    5.1721   10.7592 O   0  0  0  0  0  0  0  0  0  0  0  0
  1  2  1  1  0  0  0
  1  8  1  0  0  0  0
  1 36  1  0  0  0  0
  3  4  1  1  0  0  0
  3 10  1  0  0  0  0
  3 47  1  0  0  0  0
  5 11  1  0  0  0  0
  5 30  1  0  0  0  0
  5 38  1  6  0  0  0
  6 21  1  6  0  0  0
  6 42  1  0  0  0  0
  7 15  1  0  0  0  0
  7 44  1  0  0  0  0
  7 32  1  6  0  0  0
  8  9  1  1  0  0  0
  8 17  1  0  0  0  0
 11 12  1  1  0  0  0
 11 20  1  0  0  0  0
 13  6  1  0  0  0  0
 13 14  1  6  0  0  0
 15 16  1  1  0  0  0
 15 24  1  0  0  0  0
 17 26  1  0  0  0  0
 18 10  1  0  0  0  0
 18 19  1  1  0  0  0
 20 21  1  1  0  0  0
 20 29  1  0  0  0  0
 22 13  1  0  0  0  0
 22 23  1  1  0  0  0
 24 25  1  1  0  0  0
 24 33  1  0  0  0  0
 26 27  1  1  0  0  0
 26 35  1  0  0  0  0
 28  2  1  6  0  0  0
 28 18  1  0  0  0  0
 29 30  1  0  0  0  0
 29 39  1  6  0  0  0
 31 22  1  0  0  0  0
 31 32  1  6  0  0  0
 31 41  1  0  0  0  0
 33 34  1  6  0  0  0
 33 43  1  0  0  0  0
 35 36  1  0  0  0  0
 35 45  1  6  0  0  0
 37 28  1  0  0  0  0
 37 38  1  1  0  0  0
 39 40  1  0  0  0  0
 41 42  1  0  0  0  0
 41 49  1  6  0  0  0
 43 44  1  0  0  0  0
 43 51  1  1  0  0  0
 45 46  1  0  0  0  0
 47 37  1  0  0  0  0
 47 48  1  6  0  0  0
 49 50  1  0  0  0  0
 51 52  1  0  0  0  0
M  END
>  <CHROM.1>
171.13162284,-150.99944124,-34.97670443,-44.86996026,133.25582723,44.89833717
47.65228833,163.77811768,-68.00846905,-74.47850450,-101.62315504,-45.43187915
3.08084818,12.06008387,7.79039870,-3.13155679,-1.17741747,0.54562091

>  <Name>
2esj_lig

>  <RI>
0

>  <Rbt.Current_Directory>
/home/itssahil/PROJECTS/Mol_Feturizer/New_Systems/rnas/2esj

>  <Rbt.Executable>
rbdock ($Id: //depot/dev/client3/rdock/2013.1/src/exe/rbdock.cxx#4 $)

>  <Rbt.Library>
libRbt.so (2013.1, Build901 2013/11/27)

>  <Rbt.Parameter_File>
/export/apps/rDock/src/rDock_2013.1_src/data/scripts/dock_solv.prm

>  <Rbt.Receptor>
prm/blind_docking_20.prm

>  <SCORE>
54.3784

>  <SCORE.INTER>
26.5871

>  <SCORE.INTER.CONST>
1

>  <SCORE.INTER.POLAR>
-1.10144

>  <SCORE.INTER.ROT>
12

>  <SCORE.INTER.SOLV>
32.4544

>  <SCORE.INTER.VDW>
-1.02195

>  <SCORE.INTER.norm>
0.51129

>  <SCORE.INTRA>
6.68077

>  <SCORE.INTRA.DIHEDRAL>
-9.77576

>  <SCORE.INTRA.DIHEDRAL.0>
32.9766

>  <SCORE.INTRA.POLAR>
0

>  <SCORE.INTRA.POLAR.0>
0

>  <SCORE.INTRA.REPUL>
0

>  <SCORE.INTRA.REPUL.0>
0

>  <SCORE.INTRA.SOLV>
2.74776

>  <SCORE.INTRA.SOLV.lig_0>
-114.358

>  <SCORE.INTRA.VDW>
10.1948

>  <SCORE.INTRA.VDW.0>
-8.24257

>  <SCORE.INTRA.norm>
0.128476

>  <SCORE.RESTR>
21.1105

>  <SCORE.RESTR.CAVITY>
21.1105

>  <SCORE.RESTR.norm>
0.405971

>  <SCORE.SYSTEM>
0

>  <SCORE.SYSTEM.CONST>
0

>  <SCORE.SYSTEM.DIHEDRAL>
0

>  <SCORE.SYSTEM.SOLV>
0

>  <SCORE.SYSTEM.norm>
0

>  <SCORE.heavy>
52

>  <SCORE.norm>
1.04574

>  <RMSD>
28.299

$$$$
2esj_lig
 OpenBabel11021811423D
libRbt.so/2013.1/901 2013/11/27
 52 56  0  0  0  0  0  0  0  0999 V2000
    2.5571   11.6944    2.7085 C   0  0  2  0  0  0  0  0  0  0  0  0
    1.4466   12.5295    2.3287 O   0  0  0  0  0  0  0  0  0  0  0  0
   -0.4431   16.0750    3.7937 C   0  0  2  0  0  0  0  0  0  0  0  0
   -1.1889   17.0634    4.5900 N   0  0  0  0  0  0  0  0  0  0  0  0
    2.6922   13.5714    5.7160 C   0  0  1  0  0  0  0  0  0  0  0  0
    4.1411   12.3487    9.1006 C   0  0  1  0  0  0  0  0  0  0  0  0
    3.4339   10.1251   13.2366 C   0  0  1  0  0  0  0  0  0  0  0  0
    3.7711   12.0964    1.8198 C   0  0  2  0  0  0  0  0  0  0  0  0
    4.0933   13.5185    1.9337 N   0  0  0  0  0  0  0  0  0  0  0  0
   -1.3512   14.8184    3.4879 C   0  0  0  0  0  0  0  0  0  0  0  0
    3.7431   14.1777    6.6469 C   0  0  2  0  0  0  0  0  0  0  0  0
    4.9782   13.4293    6.6444 O   0  0  0  0  0  0  0  0  0  0  0  0
    3.6665   11.0241    9.8498 C   0  0  2  0  0  0  0  0  0  0  0  0
    2.4416   11.2749   10.6546 N   0  0  0  0  0  0  0  0  0  0  0  0
    4.4229    9.8372   14.3602 C   0  0  1  0  0  0  0  0  0  0  0  0
    3.7253    9.2136   15.4569 O   0  0  0  0  0  0  0  0  0  0  0  0
    3.5124   11.7296    0.3240 C   0  0  0  0  0  0  0  0  0  0  0  0
   -0.5537   13.7955    2.5828 C   0  0  2  0  0  0  0  0  0  0  0  0
   -1.3707   12.6120    2.2952 N   0  0  0  0  0  0  0  0  0  0  0  0
    3.0042   14.1434    7.9534 C   0  0  2  0  0  0  0  0  0  0  0  0
    2.9908   12.8396    8.4772 O   0  0  0  0  0  0  0  0  0  0  0  0
    4.8951   10.4224   10.6644 C   0  0  1  0  0  0  0  0  0  0  0  0
    6.0161   10.2948    9.7836 O   0  0  0  0  0  0  0  0  0  0  0  0
    5.5974    8.9433   13.9805 C   0  0  1  0  0  0  0  0  0  0  0  0
    6.2733    8.5943   15.1935 O   0  0  0  0  0  0  0  0  0  0  0  0
    3.1490   10.2179    0.2323 C   0  0  2  0  0  0  0  0  0  0  0  0
    2.9763    9.7982   -1.1094 O   0  0  0  0  0  0  0  0  0  0  0  0
    0.7721   13.3818    3.2730 C   0  0  2  0  0  0  0  0  0  0  0  0
    1.5265   14.4234    7.6107 C   0  0  2  0  0  0  0  0  0  0  0  0
    1.4214   13.8888    6.3006 O   0  0  0  0  0  0  0  0  0  0  0  0
    5.3613   11.4041   11.8169 C   0  0  2  0  0  0  0  0  0  0  0  0
    4.2343   11.4806   12.6913 O   0  0  0  0  0  0  0  0  0  0  0  0
    5.1878    7.6671   13.2432 C   0  0  2  0  0  0  0  0  0  0  0  0
    6.3871    7.1037   12.6875 O   0  0  0  0  0  0  0  0  0  0  0  0
    1.8737    9.9707    1.0759 C   0  0  2  0  0  0  0  0  0  0  0  0
    2.1927   10.3174    2.4540 O   0  0  0  0  0  0  0  0  0  0  0  0
    1.6670   14.5849    3.7119 C   0  0  2  0  0  0  0  0  0  0  0  0
    2.8413   14.0875    4.4119 O   0  0  0  0  0  0  0  0  0  0  0  0
    1.0972   15.8901    7.5945 C   0  0  0  0  0  0  0  0  0  0  0  0
    1.8055   16.5595    8.6479 O   0  0  0  0  0  0  0  0  0  0  0  0
    5.4700   12.7721   11.1713 C   0  0  1  0  0  0  0  0  0  0  0  0
    4.7084   13.3503   10.0895 O   0  0  0  0  0  0  0  0  0  0  0  0
    4.0905    7.9398   12.2205 C   0  0  2  0  0  0  0  0  0  0  0  0
    3.1070    8.9636   12.4358 O   0  0  0  0  0  0  0  0  0  0  0  0
    1.4572    8.5395    1.1002 C   0  0  0  0  0  0  0  0  0  0  0  0
    0.1432    8.4910    1.6014 O   0  0  0  0  0  0  0  0  0  0  0  0
    0.8446   15.6097    4.5637 C   0  0  1  0  0  0  0  0  0  0  0  0
    1.6860   16.7767    4.7620 O   0  0  0  0  0  0  0  0  0  0  0  0
    6.0178   13.9223   12.0712 C   0  0  0  0  0  0  0  0  0  0  0  0
    7.4924   13.9375   12.1706 N   0  0  0  0  0  0  0  0  0  0  0  0
    3.4787    6.8491   11.3443 C   0  0  0  0  0  0  0  0  0  0  0  0
    4.1526    6.8098   10.0586 O   0  0  0  0  0  0  0  0  0  0  0  0
  1  2  1  6  0  0  0
  1  8  1  0  0  0  0
  1 36  1  0  0  0  0
  3  4  1  1  0  0  0
  3 10  1  0  0  0  0
  3 47  1  0  0  0  0
  5 11  1  0  0  0  0
  5 30  1  0  0  0  0
  5 38  1  6  0  0  0
  6 21  1  1  0  0  0
  6 42  1  0  0  0  0
  7 15  1  0  0  0  0
  7 44  1  0  0  0  0
  7 32  1  6  0  0  0
  8  9  1  6  0  0  0
  8 17  1  0  0  0  0
 11 12  1  1  0  0  0
 11 20  1  0  0  0  0
 13  6  1  0  0  0  0
 13 14  1  1  0  0  0
 15 16  1  1  0  0  0
 15 24  1  0  0  0  0
 17 26  1  0  0  0  0
 18 10  1  0  0  0  0
 18 19  1  1  0  0  0
 20 21  1  6  0  0  0
 20 29  1  0  0  0  0
 22 13  1  0  0  0  0
 22 23  1  6  0  0  0
 24 25  1  1  0  0  0
 24 33  1  0  0  0  0
 26 27  1  6  0  0  0
 26 35  1  0  0  0  0
 28  2  1  6  0  0  0
 28 18  1  0  0  0  0
 29 30  1  0  0  0  0
 29 39  1  6  0  0  0
 31 22  1  0  0  0  0
 31 32  1  1  0  0  0
 31 41  1  0  0  0  0
 33 34  1  6  0  0  0
 33 43  1  0  0  0  0
 35 36  1  0  0  0  0
 35 45  1  1  0  0  0
 37 28  1  0  0  0  0
 37 38  1  1  0  0  0
 39 40  1  0  0  0  0
 41 42  1  0  0  0  0
 41 49  1  1  0  0  0
 43 44  1  0  0  0  0
 43 51  1  1  0  0  0
 45 46  1  0  0  0  0
 47 37  1  0  0  0  0
 47 48  1  6  0  0  0
 49 50  1  0  0  0  0
 51 52  1  0  0  0  0
M  END
>  <CHROM.1>
-121.88246194,-131.57927392,167.27455206,82.11272786,77.41188010,-165.21510213
-36.58251746,48.75749074,-165.79414060,-72.73696681,81.30490388,-95.01627263
3.04734819,11.91049784,7.36797997,-2.68912869,-1.22092400,0.76023910

>  <Name>
2esj_lig

>  <RI>
0

>  <Rbt.Current_Directory>
/home/itssahil/PROJECTS/Mol_Feturizer/New_Systems/rnas/2esj

>  <Rbt.Executable>
rbdock ($Id: //depot/dev/client3/rdock/2013.1/src/exe/rbdock.cxx#4 $)

>  <Rbt.Library>
libRbt.so (2013.1, Build901 2013/11/27)

>  <Rbt.Parameter_File>
/export/apps/rDock/src/rDock_2013.1_src/data/scripts/dock_solv.prm

>  <Rbt.Receptor>
prm/blind_docking_20.prm

>  <SCORE>
10.9089

>  <SCORE.INTER>
-9.05465

>  <SCORE.INTER.CONST>
1

>  <SCORE.INTER.POLAR>
-2.00519

>  <SCORE.INTER.ROT>
12

>  <SCORE.INTER.SOLV>
28.9545

>  <SCORE.INTER.VDW>
-20.6039

>  <SCORE.INTER.norm>
-0.174128

>  <SCORE.INTRA>
2.68172

>  <SCORE.INTRA.DIHEDRAL>
-4.47227

>  <SCORE.INTRA.DIHEDRAL.0>
32.9766

>  <SCORE.INTRA.POLAR>
0

>  <SCORE.INTRA.POLAR.0>
0

>  <SCORE.INTRA.REPUL>
0

>  <SCORE.INTRA.REPUL.0>
0

>  <SCORE.INTRA.SOLV>
1.01897

>  <SCORE.INTRA.SOLV.lig_0>
-114.358

>  <SCORE.INTRA.VDW>
4.40838

>  <SCORE.INTRA.VDW.0>
-8.24257

>  <SCORE.INTRA.norm>
0.0515716

>  <SCORE.RESTR>
17.2818

>  <SCORE.RESTR.CAVITY>
17.2818

>  <SCORE.RESTR.norm>
0.332342

>  <SCORE.SYSTEM>
0

>  <SCORE.SYSTEM.CONST>
0

>  <SCORE.SYSTEM.DIHEDRAL>
0

>  <SCORE.SYSTEM.SOLV>
0

>  <SCORE.SYSTEM.norm>
0

>  <SCORE.heavy>
52

>  <SCORE.norm>
0.209786

>  <RMSD>
28.329

$$$$
2esj_lig
 OpenBabel11021811423D
libRbt.so/2013.1/901 2013/11/27
 52 56  0  0  0  0  0  0  0  0999 V2000
   -0.2365   10.7757    2.2101 C   0  0  2  0  0  0  0  0  0  0  0  0
    0.3564   10.3471    0.9693 O   0  0  0  0  0  0  0  0  0  0  0  0
    4.5031   10.9241    0.0977 C   0  0  2  0  0  0  0  0  0  0  0  0
    5.7915   11.3929   -0.4387 N   0  0  0  0  0  0  0  0  0  0  0  0
    1.8708   12.6680    3.6624 C   0  0  1  0  0  0  0  0  0  0  0  0
    2.6969   13.6213    7.7123 C   0  0  1  0  0  0  0  0  0  0  0  0
    6.4504   11.8729   11.1148 C   0  0  1  0  0  0  0  0  0  0  0  0
    0.1748    9.7482    3.3056 C   0  0  2  0  0  0  0  0  0  0  0  0
    1.6264    9.6066    3.4144 N   0  0  0  0  0  0  0  0  0  0  0  0
    3.5497   10.4734   -1.0794 C   0  0  0  0  0  0  0  0  0  0  0  0
    2.8311   13.7896    4.0605 C   0  0  2  0  0  0  0  0  0  0  0  0
    4.2061   13.3498    4.0973 O   0  0  0  0  0  0  0  0  0  0  0  0
    4.2044   14.0900    7.9339 C   0  0  2  0  0  0  0  0  0  0  0  0
    5.1610   13.0727    7.4231 N   0  0  0  0  0  0  0  0  0  0  0  0
    6.4192   10.4090   10.6909 C   0  0  1  0  0  0  0  0  0  0  0  0
    7.7345    9.8412   10.8524 O   0  0  0  0  0  0  0  0  0  0  0  0
   -0.4749    8.3541    3.0341 C   0  0  0  0  0  0  0  0  0  0  0  0
    2.1949    9.9181   -0.4813 C   0  0  2  0  0  0  0  0  0  0  0  0
    1.2855    9.5050   -1.5551 N   0  0  0  0  0  0  0  0  0  0  0  0
    2.2692   14.1689    5.4000 C   0  0  2  0  0  0  0  0  0  0  0  0
    2.6379   13.2251    6.3736 O   0  0  0  0  0  0  0  0  0  0  0  0
    4.4017   14.4915    9.4620 C   0  0  1  0  0  0  0  0  0  0  0  0
    3.3793   15.4226    9.8313 O   0  0  0  0  0  0  0  0  0  0  0  0
    5.4315    9.5320   11.4510 C   0  0  1  0  0  0  0  0  0  0  0  0
    5.7077    8.1738   11.0916 O   0  0  0  0  0  0  0  0  0  0  0  0
   -2.0159    8.5350    2.8993 C   0  0  2  0  0  0  0  0  0  0  0  0
   -2.6787    7.2950    2.7281 O   0  0  0  0  0  0  0  0  0  0  0  0
    1.5206   10.9885    0.4158 C   0  0  2  0  0  0  0  0  0  0  0  0
    0.7403   14.0030    5.2793 C   0  0  2  0  0  0  0  0  0  0  0  0
    0.6316   12.9609    4.3226 O   0  0  0  0  0  0  0  0  0  0  0  0
    4.2132   13.2420   10.4173 C   0  0  2  0  0  0  0  0  0  0  0  0
    5.2667   12.3522   10.0449 O   0  0  0  0  0  0  0  0  0  0  0  0
    5.5171    9.6817   12.9709 C   0  0  2  0  0  0  0  0  0  0  0  0
    4.3463    9.0535   13.5181 O   0  0  0  0  0  0  0  0  0  0  0  0
   -2.2926    9.4975    1.7177 C   0  0  2  0  0  0  0  0  0  0  0  0
   -1.6743   10.7745    2.0461 O   0  0  0  0  0  0  0  0  0  0  0  0
    2.4503   11.5667    1.5303 C   0  0  2  0  0  0  0  0  0  0  0  0
    1.7452   12.6100    2.2589 O   0  0  0  0  0  0  0  0  0  0  0  0
   -0.0405   15.2223    4.7900 C   0  0  0  0  0  0  0  0  0  0  0  0
   -1.4020   15.0628    5.2148 O   0  0  0  0  0  0  0  0  0  0  0  0
    2.9318   12.5690    9.9641 C   0  0  1  0  0  0  0  0  0  0  0  0
    2.3479   12.4777    8.6468 O   0  0  0  0  0  0  0  0  0  0  0  0
    5.6960   11.1394   13.3802 C   0  0  2  0  0  0  0  0  0  0  0  0
    6.4135   12.0652   12.5496 O   0  0  0  0  0  0  0  0  0  0  0  0
   -3.7428    9.7832    1.5238 C   0  0  0  0  0  0  0  0  0  0  0  0
   -3.8661   10.5723    0.3653 O   0  0  0  0  0  0  0  0  0  0  0  0
    3.8055   12.0639    0.9231 C   0  0  1  0  0  0  0  0  0  0  0  0
    4.6769   12.4000    2.0353 O   0  0  0  0  0  0  0  0  0  0  0  0
    2.4492   11.3529   10.8133 C   0  0  0  0  0  0  0  0  0  0  0  0
    3.0171   10.0635   10.3666 N   0  0  0  0  0  0  0  0  0  0  0  0
    5.8217   11.5868   14.8347 C   0  0  0  0  0  0  0  0  0  0  0  0
    5.1537   10.6358   15.7054 O   0  0  0  0  0  0  0  0  0  0  0  0
  1  2  1  6  0  0  0
  1  8  1  0  0  0  0
  1 36  1  0  0  0  0
  3  4  1  6  0  0  0
  3 10  1  0  0  0  0
  3 47  1  0  0  0  0
  5 11  1  0  0  0  0
  5 30  1  0  0  0  0
  5 38  1  6  0  0  0
  6 21  1  6  0  0  0
  6 42  1  0  0  0  0
  7 15  1  0  0  0  0
  7 44  1  0  0  0  0
  7 32  1  6  0  0  0
  8  9  1  6  0  0  0
  8 17  1  0  0  0  0
 11 12  1  1  0  0  0
 11 20  1  0  0  0  0
 13  6  1  0  0  0  0
 13 14  1  1  0  0  0
 15 16  1  1  0  0  0
 15 24  1  0  0  0  0
 17 26  1  0  0  0  0
 18 10  1  0  0  0  0
 18 19  1  6  0  0  0
 20 21  1  1  0  0  0
 20 29  1  0  0  0  0
 22 13  1  0  0  0  0
 22 23  1  1  0  0  0
 24 25  1  1  0  0  0
 24 33  1  0  0  0  0
 26 27  1  6  0  0  0
 26 35  1  0  0  0  0
 28  2  1  1  0  0  0
 28 18  1  0  0  0  0
 29 30  1  0  0  0  0
 29 39  1  6  0  0  0
 31 22  1  0  0  0  0
 31 32  1  6  0  0  0
 31 41  1  0  0  0  0
 33 34  1  1  0  0  0
 33 43  1  0  0  0  0
 35 36  1  0  0  0  0
 35 45  1  1  0  0  0
 37 28  1  0  0  0  0
 37 38  1  6  0  0  0
 39 40  1  0  0  0  0
 41 42  1  0  0  0  0
 41 49  1  6  0  0  0
 43 44  1  0  0  0  0
 43 51  1  1  0  0  0
 45 46  1  0  0  0  0
 47 37  1  0  0  0  0
 47 48  1  1  0  0  0
 49 50  1  0  0  0  0
 51 52  1  0  0  0  0
M  END
>  <CHROM.1>
-103.67013603,102.99873797,-91.53986565,136.57449082,154.71534893,155.16958127
-158.60469464,119.07567264,-175.28457672,138.36499653,-88.34846139,-26.42349563
2.58701349,11.50411245,6.03986656,2.04066113,-0.41346771,-1.42508943

>  <Name>
2esj_lig

>  <RI>
0

>  <Rbt.Current_Directory>
/home/itssahil/PROJECTS/Mol_Feturizer/New_Systems/rnas/2esj

>  <Rbt.Executable>
rbdock ($Id: //depot/dev/client3/rdock/2013.1/src/exe/rbdock.cxx#4 $)

>  <Rbt.Library>
libRbt.so (2013.1, Build901 2013/11/27)

>  <Rbt.Parameter_File>
/export/apps/rDock/src/rDock_2013.1_src/data/scripts/dock_solv.prm

>  <Rbt.Receptor>
prm/blind_docking_20.prm

>  <SCORE>
78.7461

>  <SCORE.INTER>
54.3053

>  <SCORE.INTER.CONST>
1

>  <SCORE.INTER.POLAR>
-1.5632

>  <SCORE.INTER.ROT>
12

>  <SCORE.INTER.SOLV>
45.635

>  <SCORE.INTER.VDW>
14.6025

>  <SCORE.INTER.norm>
1.04433

>  <SCORE.INTRA>
13.4596

>  <SCORE.INTRA.DIHEDRAL>
13.8324

>  <SCORE.INTRA.DIHEDRAL.0>
32.9766

>  <SCORE.INTRA.POLAR>
0

>  <SCORE.INTRA.POLAR.0>
0

>  <SCORE.INTRA.REPUL>
0

>  <SCORE.INTRA.REPUL.0>
0

>  <SCORE.INTRA.SOLV>
5.45769

>  <SCORE.INTRA.SOLV.lig_0>
-114.358

>  <SCORE.INTRA.VDW>
3.81457

>  <SCORE.INTRA.VDW.0>
-8.24257

>  <SCORE.INTRA.norm>
0.258839

>  <SCORE.RESTR>
10.9812

>  <SCORE.RESTR.CAVITY>
10.9812

>  <SCORE.RESTR.norm>
0.211177

>  <SCORE.SYSTEM>
0

>  <SCORE.SYSTEM.CONST>
0

>  <SCORE.SYSTEM.DIHEDRAL>
0

>  <SCORE.SYSTEM.SOLV>
0

>  <SCORE.SYSTEM.norm>
0

>  <SCORE.heavy>
52

>  <SCORE.norm>
1.51435

>  <RMSD>
28.414

$$$$
2esj_lig
 OpenBabel11021811423D
libRbt.so/2013.1/901 2013/11/27
 52 56  0  0  0  0  0  0  0  0999 V2000
    2.9686   11.4393    1.8645 C   0  0  2  0  0  0  0  0  0  0  0  0
    1.8852   12.2801    1.4241 O   0  0  0  0  0  0  0  0  0  0  0  0
   -1.2549   14.8192    2.8317 C   0  0  2  0  0  0  0  0  0  0  0  0
   -2.3626   15.4237    3.5899 N   0  0  0  0  0  0  0  0  0  0  0  0
    2.3831   13.6891    5.0293 C   0  0  1  0  0  0  0  0  0  0  0  0
    3.5567   13.4931    8.9320 C   0  0  1  0  0  0  0  0  0  0  0  0
    4.4517    9.4459   11.4747 C   0  0  1  0  0  0  0  0  0  0  0  0
    4.2627   11.9302    1.1508 C   0  0  2  0  0  0  0  0  0  0  0  0
    4.5319   13.3452    1.4045 N   0  0  0  0  0  0  0  0  0  0  0  0
   -1.6255   13.3449    2.3996 C   0  0  0  0  0  0  0  0  0  0  0  0
    3.0689   14.7161    5.9312 C   0  0  2  0  0  0  0  0  0  0  0  0
    4.4800   14.4536    6.0905 O   0  0  0  0  0  0  0  0  0  0  0  0
    4.3133   12.0903    8.9619 C   0  0  2  0  0  0  0  0  0  0  0  0
    3.3469   10.9609    8.9264 N   0  0  0  0  0  0  0  0  0  0  0  0
    3.7071    8.8619   12.6697 C   0  0  1  0  0  0  0  0  0  0  0  0
    3.4757    7.4571   12.4431 O   0  0  0  0  0  0  0  0  0  0  0  0
    4.1821   11.6735   -0.3877 C   0  0  0  0  0  0  0  0  0  0  0  0
   -0.4493   12.7337    1.5367 C   0  0  2  0  0  0  0  0  0  0  0  0
   -0.7628   11.3589    1.1338 N   0  0  0  0  0  0  0  0  0  0  0  0
    2.2660   14.5550    7.1896 C   0  0  2  0  0  0  0  0  0  0  0  0
    2.6508   13.3892    7.8731 O   0  0  0  0  0  0  0  0  0  0  0  0
    5.3228   12.0736   10.1931 C   0  0  1  0  0  0  0  0  0  0  0  0
    6.1439   13.2444   10.1341 O   0  0  0  0  0  0  0  0  0  0  0  0
    4.4117    9.0121   14.0126 C   0  0  1  0  0  0  0  0  0  0  0  0
    3.6950    8.2112   14.9587 O   0  0  0  0  0  0  0  0  0  0  0  0
    3.8721   10.1667   -0.6307 C   0  0  2  0  0  0  0  0  0  0  0  0
    3.8612    9.8471   -2.0106 O   0  0  0  0  0  0  0  0  0  0  0  0
    0.8819   12.7735    2.3314 C   0  0  2  0  0  0  0  0  0  0  0  0
    0.8215   14.2617    6.7346 C   0  0  2  0  0  0  0  0  0  0  0  0
    1.0311   13.5962    5.4992 O   0  0  0  0  0  0  0  0  0  0  0  0
    4.5518   12.1562   11.5744 C   0  0  2  0  0  0  0  0  0  0  0  0
    3.7717   10.9603   11.6141 O   0  0  0  0  0  0  0  0  0  0  0  0
    5.8789    8.5796   13.9908 C   0  0  2  0  0  0  0  0  0  0  0  0
    6.4745    9.0650   15.2051 O   0  0  0  0  0  0  0  0  0  0  0  0
    2.5179    9.8325    0.0428 C   0  0  2  0  0  0  0  0  0  0  0  0
    2.6720   10.0791    1.4699 O   0  0  0  0  0  0  0  0  0  0  0  0
    1.2497   14.1843    2.8927 C   0  0  2  0  0  0  0  0  0  0  0  0
    2.4693   14.0915    3.6803 O   0  0  0  0  0  0  0  0  0  0  0  0
   -0.0810   15.4742    6.5093 C   0  0  0  0  0  0  0  0  0  0  0  0
   -0.2957   16.0964    7.7846 O   0  0  0  0  0  0  0  0  0  0  0  0
    3.5546   13.2885   11.4202 C   0  0  1  0  0  0  0  0  0  0  0  0
    2.8465   13.7477   10.2487 O   0  0  0  0  0  0  0  0  0  0  0  0
    6.5800    9.0440   12.7191 C   0  0  2  0  0  0  0  0  0  0  0  0
    5.8713    9.1593   11.4756 O   0  0  0  0  0  0  0  0  0  0  0  0
    2.1400    8.3961   -0.0854 C   0  0  0  0  0  0  0  0  0  0  0  0
    0.7954    8.3489   -0.4977 O   0  0  0  0  0  0  0  0  0  0  0  0
    0.0536   14.7920    3.7004 C   0  0  1  0  0  0  0  0  0  0  0  0
    0.4023   16.1660    4.0162 O   0  0  0  0  0  0  0  0  0  0  0  0
    2.7229   13.6577   12.6870 C   0  0  0  0  0  0  0  0  0  0  0  0
    2.2460   12.4785   13.4398 N   0  0  0  0  0  0  0  0  0  0  0  0
    8.0477    8.7464   12.4209 C   0  0  0  0  0  0  0  0  0  0  0  0
    8.5761    9.7345   11.4973 O   0  0  0  0  0  0  0  0  0  0  0  0
  1  2  1  6  0  0  0
  1  8  1  0  0  0  0
  1 36  1  0  0  0  0
  3  4  1  1  0  0  0
  3 10  1  0  0  0  0
  3 47  1  0  0  0  0
  5 11  1  0  0  0  0
  5 30  1  0  0  0  0
  5 38  1  6  0  0  0
  6 21  1  6  0  0  0
  6 42  1  0  0  0  0
  7 15  1  0  0  0  0
  7 44  1  0  0  0  0
  7 32  1  1  0  0  0
  8  9  1  6  0  0  0
  8 17  1  0  0  0  0
 11 12  1  1  0  0  0
 11 20  1  0  0  0  0
 13  6  1  0  0  0  0
 13 14  1  1  0  0  0
 15 16  1  6  0  0  0
 15 24  1  0  0  0  0
 17 26  1  0  0  0  0
 18 10  1  0  0  0  0
 18 19  1  1  0  0  0
 20 21  1  1  0  0  0
 20 29  1  0  0  0  0
 22 13  1  0  0  0  0
 22 23  1  6  0  0  0
 24 25  1  1  0  0  0
 24 33  1  0  0  0  0
 26 27  1  6  0  0  0
 26 35  1  0  0  0  0
 28  2  1  6  0  0  0
 28 18  1  0  0  0  0
 29 30  1  0  0  0  0
 29 39  1  6  0  0  0
 31 22  1  0  0  0  0
 31 32  1  6  0  0  0
 31 41  1  0  0  0  0
 33 34  1  1  0  0  0
 33 43  1  0  0  0  0
 35 36  1  0  0  0  0
 35 45  1  1  0  0  0
 37 28  1  0  0  0  0
 37 38  1  1  0  0  0
 39 40  1  0  0  0  0
 41 42  1  0  0  0  0
 41 49  1  1  0  0  0
 43 44  1  0  0  0  0
 43 51  1  6  0  0  0
 45 46  1  0  0  0  0
 47 37  1  0  0  0  0
 47 48  1  6  0  0  0
 49 50  1  0  0  0  0
 51 52  1  0  0  0  0
M  END
>  <CHROM.1>
-137.95996924,-126.22738030,-151.76470008,132.16186459,97.76922949,-142.27096374
-66.62567593,56.54070401,-132.92529770,-83.70517324,-41.92105085,-155.86749053
2.94577459,11.95701977,6.78812850,-2.07687609,-0.92190078,1.33679993

>  <Name>
2esj_lig

>  <RI>
0

>  <Rbt.Current_Directory>
/home/itssahil/PROJECTS/Mol_Feturizer/New_Systems/rnas/2esj

>  <Rbt.Executable>
rbdock ($Id: //depot/dev/client3/rdock/2013.1/src/exe/rbdock.cxx#4 $)

>  <Rbt.Library>
libRbt.so (2013.1, Build901 2013/11/27)

>  <Rbt.Parameter_File>
/export/apps/rDock/src/rDock_2013.1_src/data/scripts/dock_solv.prm

>  <Rbt.Receptor>
prm/blind_docking_20.prm

>  <SCORE>
69.9582

>  <SCORE.INTER>
41.0159

>  <SCORE.INTER.CONST>
1

>  <SCORE.INTER.POLAR>
-1.97845

>  <SCORE.INTER.ROT>
12

>  <SCORE.INTER.SOLV>
40.5387

>  <SCORE.INTER.VDW>
8.82585

>  <SCORE.INTER.norm>
0.788767

>  <SCORE.INTRA>
15.8522

>  <SCORE.INTRA.DIHEDRAL>
12.0987

>  <SCORE.INTRA.DIHEDRAL.0>
32.9766

>  <SCORE.INTRA.POLAR>
0

>  <SCORE.INTRA.POLAR.0>
0

>  <SCORE.INTRA.REPUL>
0

>  <SCORE.INTRA.REPUL.0>
0

>  <SCORE.INTRA.SOLV>
2.29329

>  <SCORE.INTRA.SOLV.lig_0>
-114.358

>  <SCORE.INTRA.VDW>
8.6562

>  <SCORE.INTRA.VDW.0>
-8.24257

>  <SCORE.INTRA.norm>
0.30485

>  <SCORE.RESTR>
13.0901

>  <SCORE.RESTR.CAVITY>
13.0901

>  <SCORE.RESTR.norm>
0.251733

>  <SCORE.SYSTEM>
0

>  <SCORE.SYSTEM.CONST>
0

>  <SCORE.SYSTEM.DIHEDRAL>
0

>  <SCORE.SYSTEM.SOLV>
0

>  <SCORE.SYSTEM.norm>
0

>  <SCORE.heavy>
52

>  <SCORE.norm>
1.34535

>  <RMSD>
28.580

$$$$
2esj_lig
 OpenBabel11021811423D
libRbt.so/2013.1/901 2013/11/27
 52 56  0  0  0  0  0  0  0  0999 V2000
    3.4535   11.2590    0.5634 C   0  0  2  0  0  0  0  0  0  0  0  0
    3.0027   10.6098    1.7676 O   0  0  0  0  0  0  0  0  0  0  0  0
   -1.2314   11.1787    1.5743 C   0  0  2  0  0  0  0  0  0  0  0  0
   -2.6671   11.2862    1.8818 N   0  0  0  0  0  0  0  0  0  0  0  0
    1.9101   13.1123    4.1495 C   0  0  1  0  0  0  0  0  0  0  0  0
    3.2964   13.8764    7.9496 C   0  0  1  0  0  0  0  0  0  0  0  0
    4.0899   10.5894   11.2631 C   0  0  1  0  0  0  0  0  0  0  0  0
    2.4518   10.8909   -0.5706 C   0  0  2  0  0  0  0  0  0  0  0  0
    1.0764   11.2580   -0.2347 N   0  0  0  0  0  0  0  0  0  0  0  0
   -0.6889    9.7503    1.9777 C   0  0  0  0  0  0  0  0  0  0  0  0
    2.6696   14.3109    4.7198 C   0  0  2  0  0  0  0  0  0  0  0  0
    4.0864   14.0586    4.8396 O   0  0  0  0  0  0  0  0  0  0  0  0
    4.0289   12.5183    8.3496 C   0  0  2  0  0  0  0  0  0  0  0  0
    3.0431   11.4361    8.6108 N   0  0  0  0  0  0  0  0  0  0  0  0
    3.0578   10.0797   12.2623 C   0  0  1  0  0  0  0  0  0  0  0  0
    2.8145    8.6796   12.0193 O   0  0  0  0  0  0  0  0  0  0  0  0
    2.5267    9.3678   -0.9077 C   0  0  0  0  0  0  0  0  0  0  0  0
    0.8390    9.6332    1.5858 C   0  0  2  0  0  0  0  0  0  0  0  0
    1.3711    8.3196    1.9625 N   0  0  0  0  0  0  0  0  0  0  0  0
    1.9613   14.4849    6.0321 C   0  0  2  0  0  0  0  0  0  0  0  0
    2.3863   13.5128    6.9534 O   0  0  0  0  0  0  0  0  0  0  0  0
    5.0408   12.8091    9.5440 C   0  0  1  0  0  0  0  0  0  0  0  0
    5.8818   13.9087    9.1804 O   0  0  0  0  0  0  0  0  0  0  0  0
    3.4356   10.2439   13.7295 C   0  0  1  0  0  0  0  0  0  0  0  0
    2.4777    9.5079   14.4983 O   0  0  0  0  0  0  0  0  0  0  0  0
    4.0030    8.9979   -1.2387 C   0  0  2  0  0  0  0  0  0  0  0  0
    4.1313    7.6427   -1.6299 O   0  0  0  0  0  0  0  0  0  0  0  0
    1.6590   10.7624    2.2622 C   0  0  2  0  0  0  0  0  0  0  0  0
    0.4846   14.1269    5.7660 C   0  0  2  0  0  0  0  0  0  0  0  0
    0.5962   13.1732    4.7215 O   0  0  0  0  0  0  0  0  0  0  0  0
    4.2746   13.2659   10.8530 C   0  0  2  0  0  0  0  0  0  0  0  0
    3.4743   12.1363   11.2047 O   0  0  0  0  0  0  0  0  0  0  0  0
    4.8432    9.7464   14.0630 C   0  0  2  0  0  0  0  0  0  0  0  0
    5.1624   10.2457   15.3721 O   0  0  0  0  0  0  0  0  0  0  0  0
    4.8757    9.3191   -0.0000 C   0  0  2  0  0  0  0  0  0  0  0  0
    4.7703   10.7509    0.2440 O   0  0  0  0  0  0  0  0  0  0  0  0
    1.1041   12.1995    2.0020 C   0  0  2  0  0  0  0  0  0  0  0  0
    1.8990   13.1688    2.7403 O   0  0  0  0  0  0  0  0  0  0  0  0
   -0.4223   15.2703    5.3123 C   0  0  0  0  0  0  0  0  0  0  0  0
   -0.7279   16.0644    6.4679 O   0  0  0  0  0  0  0  0  0  0  0  0
    3.2967   14.3346   10.4038 C   0  0  1  0  0  0  0  0  0  0  0  0
    2.5938   14.4810    9.1512 O   0  0  0  0  0  0  0  0  0  0  0  0
    5.8449   10.1360   12.9817 C   0  0  2  0  0  0  0  0  0  0  0  0
    5.4534   10.2404   11.6042 O   0  0  0  0  0  0  0  0  0  0  0  0
    6.3250    9.0474   -0.2198 C   0  0  0  0  0  0  0  0  0  0  0  0
    6.4934    7.6505   -0.2446 O   0  0  0  0  0  0  0  0  0  0  0  0
   -0.4209   12.2793    2.3485 C   0  0  1  0  0  0  0  0  0  0  0  0
   -0.8965   13.5757    1.8988 O   0  0  0  0  0  0  0  0  0  0  0  0
    2.4745   15.0387   11.5267 C   0  0  0  0  0  0  0  0  0  0  0  0
    1.1709   15.5573   11.0617 N   0  0  0  0  0  0  0  0  0  0  0  0
    7.3246    9.7638   13.0438 C   0  0  0  0  0  0  0  0  0  0  0  0
    7.4924    8.3498   12.7588 O   0  0  0  0  0  0  0  0  0  0  0  0
  1  2  1  1  0  0  0
  1  8  1  0  0  0  0
  1 36  1  0  0  0  0
  3  4  1  1  0  0  0
  3 10  1  0  0  0  0
  3 47  1  0  0  0  0
  5 11  1  0  0  0  0
  5 30  1  0  0  0  0
  5 38  1  6  0  0  0
  6 21  1  6  0  0  0
  6 42  1  0  0  0  0
  7 15  1  0  0  0  0
  7 44  1  0  0  0  0
  7 32  1  1  0  0  0
  8  9  1  1  0  0  0
  8 17  1  0  0  0  0
 11 12  1  1  0  0  0
 11 20  1  0  0  0  0
 13  6  1  0  0  0  0
 13 14  1  1  0  0  0
 15 16  1  6  0  0  0
 15 24  1  0  0  0  0
 17 26  1  0  0  0  0
 18 10  1  0  0  0  0
 18 19  1  1  0  0  0
 20 21  1  1  0  0  0
 20 29  1  0  0  0  0
 22 13  1  0  0  0  0
 22 23  1  6  0  0  0
 24 25  1  1  0  0  0
 24 33  1  0  0  0  0
 26 27  1  1  0  0  0
 26 35  1  0  0  0  0
 28  2  1  6  0  0  0
 28 18  1  0  0  0  0
 29 30  1  0  0  0  0
 29 39  1  6  0  0  0
 31 22  1  0  0  0  0
 31 32  1  6  0  0  0
 31 41  1  0  0  0  0
 33 34  1  1  0  0  0
 33 43  1  0  0  0  0
 35 36  1  0  0  0  0
 35 45  1  6  0  0  0
 37 28  1  0  0  0  0
 37 38  1  1  0  0  0
 39 40  1  0  0  0  0
 41 42  1  0  0  0  0
 41 49  1  1  0  0  0
 43 44  1  0  0  0  0
 43 51  1  6  0  0  0
 45 46  1  0  0  0  0
 47 37  1  0  0  0  0
 47 48  1  6  0  0  0
 49 50  1  0  0  0  0
 51 52  1  0  0  0  0
M  END
>  <CHROM.1>
-53.10094671,-173.41135323,-155.37573328,154.69502779,102.42328333,89.12098799
-76.61225543,47.80351726,-72.07921765,-63.48556600,-153.02015200,73.78692622
2.86565288,11.60792983,6.15446346,-1.82724388,-0.81306400,1.32230519

>  <Name>
2esj_lig

>  <RI>
0

>  <Rbt.Current_Directory>
/home/itssahil/PROJECTS/Mol_Feturizer/New_Systems/rnas/2esj

>  <Rbt.Executable>
rbdock ($Id: //depot/dev/client3/rdock/2013.1/src/exe/rbdock.cxx#4 $)

>  <Rbt.Library>
libRbt.so (2013.1, Build901 2013/11/27)

>  <Rbt.Parameter_File>
/export/apps/rDock/src/rDock_2013.1_src/data/scripts/dock_solv.prm

>  <Rbt.Receptor>
prm/blind_docking_20.prm

>  <SCORE>
22.5327

>  <SCORE.INTER>
-9.16943

>  <SCORE.INTER.CONST>
1

>  <SCORE.INTER.POLAR>
-1.96949

>  <SCORE.INTER.ROT>
12

>  <SCORE.INTER.SOLV>
38.9457

>  <SCORE.INTER.VDW>
-24.1299

>  <SCORE.INTER.norm>
-0.176335

>  <SCORE.INTRA>
9.28517

>  <SCORE.INTRA.DIHEDRAL>
-10.8114

>  <SCORE.INTRA.DIHEDRAL.0>
32.9766

>  <SCORE.INTRA.POLAR>
0

>  <SCORE.INTRA.POLAR.0>
0

>  <SCORE.INTRA.REPUL>
0

>  <SCORE.INTRA.REPUL.0>
0

>  <SCORE.INTRA.SOLV>
5.50026

>  <SCORE.INTRA.SOLV.lig_0>
-114.358

>  <SCORE.INTRA.VDW>
11.9407

>  <SCORE.INTRA.VDW.0>
-8.24257

>  <SCORE.INTRA.norm>
0.178561

>  <SCORE.RESTR>
22.417

>  <SCORE.RESTR.CAVITY>
22.417

>  <SCORE.RESTR.norm>
0.431096

>  <SCORE.SYSTEM>
0

>  <SCORE.SYSTEM.CONST>
0

>  <SCORE.SYSTEM.DIHEDRAL>
0

>  <SCORE.SYSTEM.SOLV>
0

>  <SCORE.SYSTEM.norm>
0

>  <SCORE.heavy>
52

>  <SCORE.norm>
0.433322

>  <RMSD>
28.613

$$$$
2esj_lig
 OpenBabel11021811423D
libRbt.so/2013.1/901 2013/11/27
 52 56  0  0  0  0  0  0  0  0999 V2000
   -0.5444    9.0508    3.1396 C   0  0  2  0  0  0  0  0  0  0  0  0
    0.6810    8.8830    2.4012 O   0  0  0  0  0  0  0  0  0  0  0  0
    3.3930   11.3296    0.1770 C   0  0  2  0  0  0  0  0  0  0  0  0
    4.0205   12.2145   -0.8183 N   0  0  0  0  0  0  0  0  0  0  0  0
    0.6984   12.3404    4.0026 C   0  0  1  0  0  0  0  0  0  0  0  0
    2.7171   14.2280    7.1194 C   0  0  1  0  0  0  0  0  0  0  0  0
    5.6362   11.1970   10.1271 C   0  0  1  0  0  0  0  0  0  0  0  0
   -1.4655    7.8420    2.7999 C   0  0  2  0  0  0  0  0  0  0  0  0
   -0.8248    6.5595    3.0896 N   0  0  0  0  0  0  0  0  0  0  0  0
    2.7980   10.0460   -0.5272 C   0  0  0  0  0  0  0  0  0  0  0  0
    1.8340   13.3640    3.9721 C   0  0  2  0  0  0  0  0  0  0  0  0
    3.1296   12.7548    4.1614 O   0  0  0  0  0  0  0  0  0  0  0  0
    3.9125   13.1792    7.0090 C   0  0  2  0  0  0  0  0  0  0  0  0
    3.4349   11.7951    7.2683 N   0  0  0  0  0  0  0  0  0  0  0  0
    4.6954   10.1691   10.7451 C   0  0  1  0  0  0  0  0  0  0  0  0
    5.2313    8.8479   10.5314 O   0  0  0  0  0  0  0  0  0  0  0  0
   -1.9128    7.8853    1.3042 C   0  0  0  0  0  0  0  0  0  0  0  0
    2.1815    9.0806    0.5634 C   0  0  2  0  0  0  0  0  0  0  0  0
    1.6095    7.8859   -0.0662 N   0  0  0  0  0  0  0  0  0  0  0  0
    1.4120   14.2747    5.0886 C   0  0  2  0  0  0  0  0  0  0  0  0
    1.6941   13.6894    6.3345 O   0  0  0  0  0  0  0  0  0  0  0  0
    5.1117   13.6623    7.9383 C   0  0  1  0  0  0  0  0  0  0  0  0
    5.4214   15.0238    7.6234 O   0  0  0  0  0  0  0  0  0  0  0  0
    4.4380   10.3367   12.2377 C   0  0  1  0  0  0  0  0  0  0  0  0
    3.7405    9.1674   12.6810 O   0  0  0  0  0  0  0  0  0  0  0  0
   -2.5699    9.2674    1.0154 C   0  0  2  0  0  0  0  0  0  0  0  0
   -3.0698    9.3468   -0.3075 O   0  0  0  0  0  0  0  0  0  0  0  0
    1.1025    9.8222    1.3946 C   0  0  2  0  0  0  0  0  0  0  0  0
   -0.1291   14.3199    5.0375 C   0  0  2  0  0  0  0  0  0  0  0  0
   -0.4444   13.0384    4.5166 O   0  0  0  0  0  0  0  0  0  0  0  0
    4.6972   13.6564    9.4672 C   0  0  2  0  0  0  0  0  0  0  0  0
    4.4293   12.2829    9.7538 O   0  0  0  0  0  0  0  0  0  0  0  0
    5.7113   10.5124   13.0671 C   0  0  2  0  0  0  0  0  0  0  0  0
    5.3021   10.9647   14.3681 O   0  0  0  0  0  0  0  0  0  0  0  0
   -1.5229   10.3736    1.2968 C   0  0  2  0  0  0  0  0  0  0  0  0
   -1.1662   10.2834    2.7058 O   0  0  0  0  0  0  0  0  0  0  0  0
    1.5914   11.1666    2.0228 C   0  0  2  0  0  0  0  0  0  0  0  0
    0.4848   11.8117    2.7126 O   0  0  0  0  0  0  0  0  0  0  0  0
   -0.7497   15.3950    4.1461 C   0  0  0  0  0  0  0  0  0  0  0  0
   -0.2933   16.6691    4.6238 O   0  0  0  0  0  0  0  0  0  0  0  0
    3.3529   14.3558    9.5303 C   0  0  1  0  0  0  0  0  0  0  0  0
    2.2813   14.3946    8.5635 O   0  0  0  0  0  0  0  0  0  0  0  0
    6.7107   11.4288   12.3701 C   0  0  2  0  0  0  0  0  0  0  0  0
    6.8016   11.4824   10.9381 O   0  0  0  0  0  0  0  0  0  0  0  0
   -2.0594   11.7503    1.0982 C   0  0  0  0  0  0  0  0  0  0  0  0
   -3.4255   11.7233    1.4346 O   0  0  0  0  0  0  0  0  0  0  0  0
    2.2435   12.0853    0.9352 C   0  0  1  0  0  0  0  0  0  0  0  0
    2.8396   13.2143    1.6277 O   0  0  0  0  0  0  0  0  0  0  0  0
    2.7547   14.5819   10.9529 C   0  0  0  0  0  0  0  0  0  0  0  0
    2.8083   13.3787   11.8097 N   0  0  0  0  0  0  0  0  0  0  0  0
    8.0752   11.7761   12.9611 C   0  0  0  0  0  0  0  0  0  0  0  0
    8.0183   11.7123   14.4107 O   0  0  0  0  0  0  0  0  0  0  0  0
  1  2  1  6  0  0  0
  1  8  1  0  0  0  0
  1 36  1  0  0  0  0
  3  4  1  6  0  0  0
  3 10  1  0  0  0  0
  3 47  1  0  0  0  0
  5 11  1  0  0  0  0
  5 30  1  0  0  0  0
  5 38  1  6  0  0  0
  6 21  1  6  0  0  0
  6 42  1  0  0  0  0
  7 15  1  0  0  0  0
  7 44  1  0  0  0  0
  7 32  1  1  0  0  0
  8  9  1  6  0  0  0
  8 17  1  0  0  0  0
 11 12  1  1  0  0  0
 11 20  1  0  0  0  0
 13  6  1  0  0  0  0
 13 14  1  1  0  0  0
 15 16  1  1  0  0  0
 15 24  1  0  0  0  0
 17 26  1  0  0  0  0
 18 10  1  0  0  0  0
 18 19  1  6  0  0  0
 20 21  1  1  0  0  0
 20 29  1  0  0  0  0
 22 13  1  0  0  0  0
 22 23  1  6  0  0  0
 24 25  1  1  0  0  0
 24 33  1  0  0  0  0
 26 27  1  6  0  0  0
 26 35  1  0  0  0  0
 28  2  1  1  0  0  0
 28 18  1  0  0  0  0
 29 30  1  0  0  0  0
 29 39  1  6  0  0  0
 31 22  1  0  0  0  0
 31 32  1  6  0  0  0
 31 41  1  0  0  0  0
 33 34  1  1  0  0  0
 33 43  1  0  0  0  0
 35 36  1  0  0  0  0
 35 45  1  1  0  0  0
 37 28  1  0  0  0  0
 37 38  1  6  0  0  0
 39 40  1  0  0  0  0
 41 42  1  0  0  0  0
 41 49  1  1  0  0  0
 43 44  1  0  0  0  0
 43 51  1  1  0  0  0
 45 46  1  0  0  0  0
 47 37  1  0  0  0  0
 47 48  1  1  0  0  0
 49 50  1  0  0  0  0
 51 52  1  0  0  0  0
M  END
>  <CHROM.1>
117.02673476,57.19459044,-106.41268296,162.15347484,109.68527585,-162.97678931
-59.21125043,82.77689142,32.02853299,134.29298065,-47.07806214,-28.13754581
2.24493039,11.66251971,5.83783580,-2.96654158,-1.06662725,0.06830034

>  <Name>
2esj_lig

>  <RI>
0

>  <Rbt.Current_Directory>
/home/itssahil/PROJECTS/Mol_Feturizer/New_Systems/rnas/2esj

>  <Rbt.Executable>
rbdock ($Id: //depot/dev/client3/rdock/2013.1/src/exe/rbdock.cxx#4 $)

>  <Rbt.Library>
libRbt.so (2013.1, Build901 2013/11/27)

>  <Rbt.Parameter_File>
/export/apps/rDock/src/rDock_2013.1_src/data/scripts/dock_solv.prm

>  <Rbt.Receptor>
prm/blind_docking_20.prm

>  <SCORE>
61.9884

>  <SCORE.INTER>
34.9451

>  <SCORE.INTER.CONST>
1

>  <SCORE.INTER.POLAR>
-1.02486

>  <SCORE.INTER.ROT>
12

>  <SCORE.INTER.SOLV>
39.002

>  <SCORE.INTER.VDW>
2.11228

>  <SCORE.INTER.norm>
0.672022

>  <SCORE.INTRA>
13.5229

>  <SCORE.INTRA.DIHEDRAL>
6.30464

>  <SCORE.INTRA.DIHEDRAL.0>
32.9766

>  <SCORE.INTRA.POLAR>
0

>  <SCORE.INTRA.POLAR.0>
0

>  <SCORE.INTRA.REPUL>
0.00933418

>  <SCORE.INTRA.REPUL.0>
0

>  <SCORE.INTRA.SOLV>
2.68488

>  <SCORE.INTRA.SOLV.lig_0>
-114.358

>  <SCORE.INTRA.VDW>
8.98151

>  <SCORE.INTRA.VDW.0>
-8.24257

>  <SCORE.INTRA.norm>
0.260057

>  <SCORE.RESTR>
13.5203

>  <SCORE.RESTR.CAVITY>
13.5203

>  <SCORE.RESTR.norm>
0.260006

>  <SCORE.SYSTEM>
0

>  <SCORE.SYSTEM.CONST>
0

>  <SCORE.SYSTEM.DIHEDRAL>
0

>  <SCORE.SYSTEM.SOLV>
0

>  <SCORE.SYSTEM.norm>
0

>  <SCORE.heavy>
52

>  <SCORE.norm>
1.19208

>  <RMSD>
28.716

$$$$
2esj_lig
 OpenBabel11021811423D
libRbt.so/2013.1/901 2013/11/27
 52 56  0  0  0  0  0  0  0  0999 V2000
    3.5549   10.2242    0.6933 C   0  0  2  0  0  0  0  0  0  0  0  0
    2.2095   10.6229    0.3682 O   0  0  0  0  0  0  0  0  0  0  0  0
   -1.8292   10.4041    1.7573 C   0  0  2  0  0  0  0  0  0  0  0  0
   -3.0466   10.2594    2.5724 N   0  0  0  0  0  0  0  0  0  0  0  0
    1.2793   13.1937    3.1425 C   0  0  1  0  0  0  0  0  0  0  0  0
    3.1363   14.5987    6.5674 C   0  0  1  0  0  0  0  0  0  0  0  0
    4.3232   11.7283    9.9896 C   0  0  1  0  0  0  0  0  0  0  0  0
    4.5075   10.9129   -0.3280 C   0  0  2  0  0  0  0  0  0  0  0  0
    4.3553   12.3676   -0.3329 N   0  0  0  0  0  0  0  0  0  0  0  0
   -0.9257    9.1139    1.8861 C   0  0  0  0  0  0  0  0  0  0  0  0
    2.1791   14.4103    3.3633 C   0  0  2  0  0  0  0  0  0  0  0  0
    3.5811   14.0639    3.3715 O   0  0  0  0  0  0  0  0  0  0  0  0
    3.9518   13.3152    7.0459 C   0  0  2  0  0  0  0  0  0  0  0  0
    3.0359   12.2557    7.5455 N   0  0  0  0  0  0  0  0  0  0  0  0
    3.2585   11.1928   10.9398 C   0  0  1  0  0  0  0  0  0  0  0  0
    3.0102    9.8048   10.6391 O   0  0  0  0  0  0  0  0  0  0  0  0
    4.2809   10.3514   -1.7676 C   0  0  0  0  0  0  0  0  0  0  0  0
    0.3467    9.2628    0.9585 C   0  0  2  0  0  0  0  0  0  0  0  0
    1.2100    8.0826    1.0700 N   0  0  0  0  0  0  0  0  0  0  0  0
    1.6576   14.9009    4.6829 C   0  0  2  0  0  0  0  0  0  0  0  0
    2.1359   14.0964    5.7310 O   0  0  0  0  0  0  0  0  0  0  0  0
    5.0772   13.7718    8.0753 C   0  0  1  0  0  0  0  0  0  0  0  0
    5.8376   14.8332    7.4887 O   0  0  0  0  0  0  0  0  0  0  0  0
    3.5954   11.3001   12.4222 C   0  0  1  0  0  0  0  0  0  0  0  0
    2.6096   10.5461   13.1362 O   0  0  0  0  0  0  0  0  0  0  0  0
    4.4251    8.8011   -1.7314 C   0  0  2  0  0  0  0  0  0  0  0  0
    4.3073    8.2309   -3.0226 O   0  0  0  0  0  0  0  0  0  0  0  0
    1.1363   10.5462    1.3251 C   0  0  2  0  0  0  0  0  0  0  0  0
    0.1395   14.6277    4.6653 C   0  0  2  0  0  0  0  0  0  0  0  0
    0.0561   13.4806    3.8345 O   0  0  0  0  0  0  0  0  0  0  0  0
    4.4431   14.3740    9.3961 C   0  0  2  0  0  0  0  0  0  0  0  0
    3.7228   13.2822    9.9701 O   0  0  0  0  0  0  0  0  0  0  0  0
    4.9885   10.7773   12.7772 C   0  0  2  0  0  0  0  0  0  0  0  0
    5.2743   11.2258   14.1121 O   0  0  0  0  0  0  0  0  0  0  0  0
    3.3611    8.2348   -0.7586 C   0  0  2  0  0  0  0  0  0  0  0  0
    3.6430    8.7861    0.5595 O   0  0  0  0  0  0  0  0  0  0  0  0
    0.2722   11.8479    1.3344 C   0  0  2  0  0  0  0  0  0  0  0  0
    1.0908   12.9718    1.7625 O   0  0  0  0  0  0  0  0  0  0  0  0
   -0.7449   15.7338    4.0909 C   0  0  0  0  0  0  0  0  0  0  0  0
   -2.0988   15.2580    4.1089 O   0  0  0  0  0  0  0  0  0  0  0  0
    3.3879   15.3595    8.9319 C   0  0  1  0  0  0  0  0  0  0  0  0
    2.5489   15.3352    7.7572 O   0  0  0  0  0  0  0  0  0  0  0  0
    6.0242   11.1961   11.7396 C   0  0  2  0  0  0  0  0  0  0  0  0
    5.6733   11.3541   10.3563 O   0  0  0  0  0  0  0  0  0  0  0  0
    3.4369    6.7537   -0.6072 C   0  0  0  0  0  0  0  0  0  0  0  0
    3.0429    6.1837   -1.8320 O   0  0  0  0  0  0  0  0  0  0  0  0
   -1.0074   11.6611    2.2175 C   0  0  1  0  0  0  0  0  0  0  0  0
   -1.8427   12.8322    2.0167 O   0  0  0  0  0  0  0  0  0  0  0  0
    2.6699   16.1827   10.0453 C   0  0  0  0  0  0  0  0  0  0  0  0
    2.0259   15.3399   11.0747 N   0  0  0  0  0  0  0  0  0  0  0  0
    7.4982   10.8077   11.8300 C   0  0  0  0  0  0  0  0  0  0  0  0
    8.0658   11.3018   13.0720 O   0  0  0  0  0  0  0  0  0  0  0  0
  1  2  1  6  0  0  0
  1  8  1  0  0  0  0
  1 36  1  0  0  0  0
  3  4  1  1  0  0  0
  3 10  1  0  0  0  0
  3 47  1  0  0  0  0
  5 11  1  0  0  0  0
  5 30  1  0  0  0  0
  5 38  1  6  0  0  0
  6 21  1  6  0  0  0
  6 42  1  0  0  0  0
  7 15  1  0  0  0  0
  7 44  1  0  0  0  0
  7 32  1  1  0  0  0
  8  9  1  6  0  0  0
  8 17  1  0  0  0  0
 11 12  1  1  0  0  0
 11 20  1  0  0  0  0
 13  6  1  0  0  0  0
 13 14  1  1  0  0  0
 15 16  1  6  0  0  0
 15 24  1  0  0  0  0
 17 26  1  0  0  0  0
 18 10  1  0  0  0  0
 18 19  1  1  0  0  0
 20 21  1  1  0  0  0
 20 29  1  0  0  0  0
 22 13  1  0  0  0  0
 22 23  1  6  0  0  0
 24 25  1  1  0  0  0
 24 33  1  0  0  0  0
 26 27  1  6  0  0  0
 26 35  1  0  0  0  0
 28  2  1  6  0  0  0
 28 18  1  0  0  0  0
 29 30  1  0  0  0  0
 29 39  1  6  0  0  0
 31 22  1  0  0  0  0
 31 32  1  1  0  0  0
 31 41  1  0  0  0  0
 33 34  1  1  0  0  0
 33 43  1  0  0  0  0
 35 36  1  0  0  0  0
 35 45  1  1  0  0  0
 37 28  1  0  0  0  0
 37 38  1  1  0  0  0
 39 40  1  0  0  0  0
 41 42  1  0  0  0  0
 41 49  1  1  0  0  0
 43 44  1  0  0  0  0
 43 51  1  6  0  0  0
 45 46  1  0  0  0  0
 47 37  1  0  0  0  0
 47 48  1  6  0  0  0
 49 50  1  0  0  0  0
 51 52  1  0  0  0  0
M  END
>  <CHROM.1>
-159.25495143,179.38839530,-150.32936489,169.28409411,105.95144630,-101.17575812
177.33824022,40.61591330,-68.35039113,-83.09918505,-56.22653499,-58.69782222
2.68246603,11.88281596,5.22006043,-1.88707267,-0.77026071,1.12444806

>  <Name>
2esj_lig

>  <RI>
0

>  <Rbt.Current_Directory>
/home/itssahil/PROJECTS/Mol_Feturizer/New_Systems/rnas/2esj

>  <Rbt.Executable>
rbdock ($Id: //depot/dev/client3/rdock/2013.1/src/exe/rbdock.cxx#4 $)

>  <Rbt.Library>
libRbt.so (2013.1, Build901 2013/11/27)

>  <Rbt.Parameter_File>
/export/apps/rDock/src/rDock_2013.1_src/data/scripts/dock_solv.prm

>  <Rbt.Receptor>
prm/blind_docking_20.prm

>  <SCORE>
24.3979

>  <SCORE.INTER>
0.326483

>  <SCORE.INTER.CONST>
1

>  <SCORE.INTER.POLAR>
-2.07003

>  <SCORE.INTER.ROT>
12

>  <SCORE.INTER.SOLV>
35.5965

>  <SCORE.INTER.VDW>
-16.3477

>  <SCORE.INTER.norm>
0.00627852

>  <SCORE.INTRA>
2.03069

>  <SCORE.INTRA.DIHEDRAL>
-6.23451

>  <SCORE.INTRA.DIHEDRAL.0>
32.9766

>  <SCORE.INTRA.POLAR>
0

>  <SCORE.INTRA.POLAR.0>
0

>  <SCORE.INTRA.REPUL>
0

>  <SCORE.INTRA.REPUL.0>
0

>  <SCORE.INTRA.SOLV>
2.75418

>  <SCORE.INTRA.SOLV.lig_0>
-114.358

>  <SCORE.INTRA.VDW>
3.77085

>  <SCORE.INTRA.VDW.0>
-8.24257

>  <SCORE.INTRA.norm>
0.0390516

>  <SCORE.RESTR>
22.0407

>  <SCORE.RESTR.CAVITY>
22.0407

>  <SCORE.RESTR.norm>
0.42386

>  <SCORE.SYSTEM>
0

>  <SCORE.SYSTEM.CONST>
0

>  <SCORE.SYSTEM.DIHEDRAL>
0

>  <SCORE.SYSTEM.SOLV>
0

>  <SCORE.SYSTEM.norm>
0

>  <SCORE.heavy>
52

>  <SCORE.norm>
0.46919

>  <RMSD>
29.072

$$$$
