lig.pdb
 OpenBabel03061811583D
libRbt.so/2013.1/901 2013/11/27
 46 49  0  0  0  0  0  0  0  0999 V2000
   10.9300  -10.8341    5.0640 C   0  0  1  0  0  0  0  0  0  0  0  0
   13.3608  -11.2536    5.6322 C   0  0  1  0  0  0  0  0  0  0  0  0
   13.2516  -12.4756    6.5937 C   0  0  1  0  0  0  0  0  0  0  0  0
   14.5393  -12.4903    7.5656 C   0  0  2  0  0  0  0  0  0  0  0  0
   11.3940  -13.1448    8.1873 C   0  0  2  0  0  0  0  0  0  0  0  0
   10.4416  -12.4504    9.2019 C   0  0  1  0  0  0  0  0  0  0  0  0
    9.5308  -13.6243    9.4690 C   0  0  1  0  0  0  0  0  0  0  0  0
    9.2148  -14.2109    8.0565 C   0  0  1  0  0  0  0  0  0  0  0  0
    8.0789  -13.5068    7.2345 C   0  0  0  0  0  0  0  0  0  0  0  0
    9.4961  -15.6298   10.9044 C   0  0  1  0  0  0  0  0  0  0  0  0
   10.2802  -16.6235   11.7085 C   0  0  1  0  0  0  0  0  0  0  0  0
    9.9218  -11.3342    4.0025 C   0  0  1  0  0  0  0  0  0  0  0  0
    9.2941  -17.7238   12.2390 C   0  0  0  0  0  0  0  0  0  0  0  0
    8.6068  -18.4581   11.2158 C   0  0  0  0  0  0  0  0  0  0  0  0
    7.8087  -17.5342   10.4384 C   0  0  2  0  0  0  0  0  0  0  0  0
    7.0327  -18.2858    9.2861 C   0  0  0  0  0  0  0  0  0  0  0  0
   19.3243  -14.1796    8.7015 C   0  0  2  0  0  0  0  0  0  0  0  0
   18.3109  -13.0667    6.8884 C   0  0  0  0  0  0  0  0  0  0  0  0
   20.4301  -14.3516    9.5125 C   0  0  0  0  0  0  0  0  0  0  0  0
   19.4726  -13.0294    7.9985 C   0  0  1  0  0  0  0  0  0  0  0  0
   10.1580  -10.6081    2.6008 C   0  0  0  0  0  0  0  0  0  0  0  0
   10.0132   -9.0266    2.8249 C   0  0  0  0  0  0  0  0  0  0  0  0
   11.1023   -8.5815    3.9073 C   0  0  1  0  0  0  0  0  0  0  0  0
   11.0354   -7.0779    4.2012 C   0  0  0  0  0  0  0  0  0  0  0  0
   15.8362  -12.6759    6.6631 C   0  0  1  0  0  0  0  0  0  0  0  0
   15.9091  -11.3702    5.7061 C   0  0  0  0  0  0  0  0  0  0  0  0
   14.6433  -11.3201    4.7663 C   0  0  2  0  0  0  0  0  0  0  0  0
   18.1254  -14.2005    9.5090 F   0  0  0  0  0  0  0  0  0  0  0  0
    7.9741  -18.8512    8.1842 N   0  0  0  0  0  0  0  0  0  0  0  0
   10.0557  -12.8344    3.8972 N   0  0  0  0  0  0  0  0  0  0  0  0
   11.2485  -17.3160   10.9761 N   0  0  0  0  0  0  0  0  0  0  0  0
   21.8085  -14.4448    9.2081 N   0  0  0  0  0  0  0  0  0  0  0  0
   12.1668   -6.6525    4.9293 N   0  0  0  0  0  0  0  0  0  0  0  0
   17.0375  -12.7079    7.5164 N   0  0  0  0  0  0  0  0  0  0  0  0
   14.6900  -10.1253    3.8948 N   0  0  0  0  0  0  0  0  0  0  0  0
   12.2610  -11.2302    4.7315 O   0  0  0  0  0  0  0  0  0  0  0  0
   11.9803  -12.3004    7.3722 O   0  0  0  0  0  0  0  0  0  0  0  0
   14.4195  -13.5768    8.4029 O   0  0  0  0  0  0  0  0  0  0  0  0
   11.1953  -12.0498   10.3059 O   0  0  0  0  0  0  0  0  0  0  0  0
   10.5574  -14.1708    7.5448 O   0  0  0  0  0  0  0  0  0  0  0  0
    7.8561  -14.2939    6.0475 O   0  0  0  0  0  0  0  0  0  0  0  0
   10.2601  -14.6323   10.3385 O   0  0  0  0  0  0  0  0  0  0  0  0
   19.3279  -11.8460    8.8139 O   0  0  0  0  0  0  0  0  0  0  0  0
   18.4875  -13.3427    5.6904 O   0  0  0  0  0  0  0  0  0  0  0  0
    8.6792  -16.4395    9.8677 O   0  0  0  0  0  0  0  0  0  0  0  0
   10.8775   -9.3397    5.2052 O   0  0  0  0  0  0  0  0  0  0  0  0
  1 36  1  6  0  0  0
  2 36  1  6  0  0  0
  2  3  1  0  0  0  0
  3 37  1  1  0  0  0
  3  4  1  0  0  0  0
  4 38  1  1  0  0  0
  5 37  1  6  0  0  0
  5  6  1  0  0  0  0
  6  7  1  0  0  0  0
  6 39  1  1  0  0  0
  7 42  1  1  0  0  0
  8  9  1  6  0  0  0
  8  7  1  0  0  0  0
 10 42  1  6  0  0  0
 10 11  1  0  0  0  0
 11 31  1  6  0  0  0
 11 13  1  0  0  0  0
 12 30  1  6  0  0  0
 12  1  1  0  0  0  0
 14 13  1  0  0  0  0
 15 16  1  6  0  0  0
 15 14  1  0  0  0  0
 17 19  1  1  0  0  0
 17 28  1  0  0  0  0
 18 34  1  0  0  0  0
 19 32  1  0  0  0  0
 20 18  1  6  0  0  0
 20 17  1  0  0  0  0
 20 43  1  0  0  0  0
 21 12  1  0  0  0  0
 22 21  1  0  0  0  0
 22 23  1  0  0  0  0
 23 24  1  1  0  0  0
 23 46  1  0  0  0  0
 24 33  1  0  0  0  0
 25 34  1  1  0  0  0
 25  4  1  0  0  0  0
 26 25  1  0  0  0  0
 27 35  1  6  0  0  0
 27 26  1  0  0  0  0
 27  2  1  0  0  0  0
 29 16  1  0  0  0  0
 40  8  1  0  0  0  0
 40  5  1  0  0  0  0
 41  9  1  0  0  0  0
 44 18  2  0  0  0  0
 45 15  1  0  0  0  0
 45 10  1  0  0  0  0
 46  1  1  0  0  0  0
M  END
>  <CHROM.1>
-162.47326527,75.33449627,171.60084391,157.70368376,167.12249562,-173.65545896
177.78356755,-67.67245843,-58.07976377,77.71138512,168.89055518,-167.53949963
171.27535274,12.59648532,-13.16417407,7.47784470,2.68245369,0.09419297,2.40956419

>  <Name>
lig.pdb

>  <RI>
0

>  <Rbt.Current_Directory>
/home/afrankz/demos/rdock_decoys_rna/rnas/3wru

>  <Rbt.Executable>
rbdock ($Id: //depot/dev/client3/rdock/2013.1/src/exe/rbdock.cxx#4 $)

>  <Rbt.Library>
libRbt.so (2013.1, Build901 2013/11/27)

>  <Rbt.Parameter_File>
/export/apps/rDock/src/rDock_2013.1_src/data/scripts/dock_solv.prm

>  <Rbt.Receptor>
prm/pocket_docking_2.prm

>  <SCORE>
-7.52991

>  <SCORE.INTER>
-2.34721

>  <SCORE.INTER.CONST>
1

>  <SCORE.INTER.POLAR>
0

>  <SCORE.INTER.ROT>
13

>  <SCORE.INTER.SOLV>
21.8765

>  <SCORE.INTER.VDW>
-21.1236

>  <SCORE.INTER.norm>
-0.0510263

>  <SCORE.INTRA>
-5.1858

>  <SCORE.INTRA.DIHEDRAL>
-11.1523

>  <SCORE.INTRA.DIHEDRAL.0>
19.7146

>  <SCORE.INTRA.POLAR>
0

>  <SCORE.INTRA.POLAR.0>
0

>  <SCORE.INTRA.REPUL>
0

>  <SCORE.INTRA.REPUL.0>
0

>  <SCORE.INTRA.SOLV>
-0.567421

>  <SCORE.INTRA.SOLV.lig_0>
-116.697

>  <SCORE.INTRA.VDW>
0.67408

>  <SCORE.INTRA.VDW.0>
-7.06424

>  <SCORE.INTRA.norm>
-0.112735

>  <SCORE.RESTR>
0.00310465

>  <SCORE.RESTR.CAVITY>
0.00310465

>  <SCORE.RESTR.norm>
6.74923e-05

>  <SCORE.SYSTEM>
0

>  <SCORE.SYSTEM.CONST>
0

>  <SCORE.SYSTEM.DIHEDRAL>
0

>  <SCORE.SYSTEM.SOLV>
0

>  <SCORE.SYSTEM.norm>
0

>  <SCORE.heavy>
46

>  <SCORE.norm>
-0.163694

>  <RMSD>
0.821

$$$$
lig.pdb
 OpenBabel03061811583D
libRbt.so/2013.1/901 2013/11/27
 46 49  0  0  0  0  0  0  0  0999 V2000
   11.0597  -10.6935    5.1930 C   0  0  1  0  0  0  0  0  0  0  0  0
   13.4988  -11.1506    5.6924 C   0  0  1  0  0  0  0  0  0  0  0  0
   13.4160  -12.3640    6.6673 C   0  0  1  0  0  0  0  0  0  0  0  0
   14.7353  -12.3769    7.5959 C   0  0  2  0  0  0  0  0  0  0  0  0
   11.5609  -13.0411    8.2604 C   0  0  2  0  0  0  0  0  0  0  0  0
   10.5594  -12.3746    9.2461 C   0  0  1  0  0  0  0  0  0  0  0  0
    9.6504  -13.5619    9.4534 C   0  0  1  0  0  0  0  0  0  0  0  0
    9.4005  -14.1257    8.0185 C   0  0  1  0  0  0  0  0  0  0  0  0
    8.2929  -13.4178    7.1619 C   0  0  0  0  0  0  0  0  0  0  0  0
    9.5748  -15.5893   10.8561 C   0  0  1  0  0  0  0  0  0  0  0  0
   10.3414  -16.6154   11.6361 C   0  0  1  0  0  0  0  0  0  0  0  0
   10.0275  -11.0713    4.1043 C   0  0  1  0  0  0  0  0  0  0  0  0
    9.3410  -17.7261   12.1155 C   0  0  0  0  0  0  0  0  0  0  0  0
    8.6628  -18.4203   11.0587 C   0  0  0  0  0  0  0  0  0  0  0  0
    7.8813  -17.4648   10.3028 C   0  0  2  0  0  0  0  0  0  0  0  0
    7.1162  -18.1712    9.1152 C   0  0  0  0  0  0  0  0  0  0  0  0
   19.7586  -14.0922    8.3202 C   0  0  2  0  0  0  0  0  0  0  0  0
   18.4996  -12.8366    6.7737 C   0  0  0  0  0  0  0  0  0  0  0  0
   21.0083  -14.2989    8.8730 C   0  0  0  0  0  0  0  0  0  0  0  0
   19.6935  -12.8219    7.8496 C   0  0  1  0  0  0  0  0  0  0  0  0
   10.2969  -10.2634    2.7543 C   0  0  0  0  0  0  0  0  0  0  0  0
   10.2285   -8.6958    3.0861 C   0  0  0  0  0  0  0  0  0  0  0  0
   11.3389   -8.3781    4.1915 C   0  0  1  0  0  0  0  0  0  0  0  0
   11.3447   -6.8966    4.5873 C   0  0  0  0  0  0  0  0  0  0  0  0
   16.0006  -12.5763    6.6525 C   0  0  1  0  0  0  0  0  0  0  0  0
   16.0476  -11.2789    5.6826 C   0  0  0  0  0  0  0  0  0  0  0  0
   14.7515  -11.2305    4.7850 C   0  0  2  0  0  0  0  0  0  0  0  0
   18.7409  -14.3857    9.3039 F   0  0  0  0  0  0  0  0  0  0  0  0
    8.0722  -18.7976    8.0598 N   0  0  0  0  0  0  0  0  0  0  0  0
   10.0891  -12.5654    3.8966 N   0  0  0  0  0  0  0  0  0  0  0  0
   11.3149  -17.2893   10.8934 N   0  0  0  0  0  0  0  0  0  0  0  0
   21.6358  -13.7309   10.0065 N   0  0  0  0  0  0  0  0  0  0  0  0
   11.5975   -6.0737    3.4693 N   0  0  0  0  0  0  0  0  0  0  0  0
   17.2295  -12.6071    7.4656 N   0  0  0  0  0  0  0  0  0  0  0  0
   14.7746  -10.0431    3.9024 N   0  0  0  0  0  0  0  0  0  0  0  0
   12.3698  -11.1293    4.8286 O   0  0  0  0  0  0  0  0  0  0  0  0
   12.1722  -12.1763    7.4861 O   0  0  0  0  0  0  0  0  0  0  0  0
   14.6384  -13.4559    8.4459 O   0  0  0  0  0  0  0  0  0  0  0  0
   11.2617  -11.9869   10.3879 O   0  0  0  0  0  0  0  0  0  0  0  0
   10.7629  -14.0632    7.5649 O   0  0  0  0  0  0  0  0  0  0  0  0
    7.0614  -13.4889    7.9078 O   0  0  0  0  0  0  0  0  0  0  0  0
   10.3530  -14.5786   10.3349 O   0  0  0  0  0  0  0  0  0  0  0  0
   19.4072  -11.8514    8.8804 O   0  0  0  0  0  0  0  0  0  0  0  0
   18.6518  -13.0019    5.5522 O   0  0  0  0  0  0  0  0  0  0  0  0
    8.7667  -16.3574    9.7815 O   0  0  0  0  0  0  0  0  0  0  0  0
   11.0793   -9.2114    5.4358 O   0  0  0  0  0  0  0  0  0  0  0  0
  1 36  1  6  0  0  0
  2 36  1  6  0  0  0
  2  3  1  0  0  0  0
  3 37  1  1  0  0  0
  3  4  1  0  0  0  0
  4 38  1  1  0  0  0
  5 37  1  6  0  0  0
  5  6  1  0  0  0  0
  6  7  1  0  0  0  0
  6 39  1  1  0  0  0
  7 42  1  1  0  0  0
  8  9  1  6  0  0  0
  8  7  1  0  0  0  0
 10 42  1  6  0  0  0
 10 11  1  0  0  0  0
 11 31  1  6  0  0  0
 11 13  1  0  0  0  0
 12 30  1  6  0  0  0
 12  1  1  0  0  0  0
 14 13  1  0  0  0  0
 15 16  1  6  0  0  0
 15 14  1  0  0  0  0
 17 19  1  1  0  0  0
 17 28  1  0  0  0  0
 18 34  1  0  0  0  0
 19 32  1  0  0  0  0
 20 18  1  6  0  0  0
 20 17  1  0  0  0  0
 20 43  1  0  0  0  0
 21 12  1  0  0  0  0
 22 21  1  0  0  0  0
 22 23  1  0  0  0  0
 23 24  1  1  0  0  0
 23 46  1  0  0  0  0
 24 33  1  0  0  0  0
 25 34  1  1  0  0  0
 25  4  1  0  0  0  0
 26 25  1  0  0  0  0
 27 35  1  6  0  0  0
 27 26  1  0  0  0  0
 27  2  1  0  0  0  0
 29 16  1  0  0  0  0
 40  8  1  0  0  0  0
 40  5  1  0  0  0  0
 41  9  1  0  0  0  0
 44 18  2  0  0  0  0
 45 15  1  0  0  0  0
 45 10  1  0  0  0  0
 46  1  1  0  0  0  0
M  END
>  <CHROM.1>
-168.57110529,76.93623085,166.67747090,163.42734965,166.77137743,-57.65274264
175.84099424,-63.41721134,65.88628559,86.21774411,159.17297635,-59.32299730
177.65645767,12.71954102,-13.01523544,7.49720528,2.68888044,0.07295372,2.43259712

>  <Name>
lig.pdb

>  <RI>
0

>  <Rbt.Current_Directory>
/home/afrankz/demos/rdock_decoys_rna/rnas/3wru

>  <Rbt.Executable>
rbdock ($Id: //depot/dev/client3/rdock/2013.1/src/exe/rbdock.cxx#4 $)

>  <Rbt.Library>
libRbt.so (2013.1, Build901 2013/11/27)

>  <Rbt.Parameter_File>
/export/apps/rDock/src/rDock_2013.1_src/data/scripts/dock_solv.prm

>  <Rbt.Receptor>
prm/pocket_docking_2.prm

>  <SCORE>
-7.83546

>  <SCORE.INTER>
-2.49439

>  <SCORE.INTER.CONST>
1

>  <SCORE.INTER.POLAR>
0

>  <SCORE.INTER.ROT>
13

>  <SCORE.INTER.SOLV>
21.3814

>  <SCORE.INTER.VDW>
-21.0567

>  <SCORE.INTER.norm>
-0.0542259

>  <SCORE.INTRA>
-5.35154

>  <SCORE.INTRA.DIHEDRAL>
-11.596

>  <SCORE.INTRA.DIHEDRAL.0>
19.7146

>  <SCORE.INTRA.POLAR>
0

>  <SCORE.INTRA.POLAR.0>
0

>  <SCORE.INTRA.REPUL>
0

>  <SCORE.INTRA.REPUL.0>
0

>  <SCORE.INTRA.SOLV>
-0.504795

>  <SCORE.INTRA.SOLV.lig_0>
-116.697

>  <SCORE.INTRA.VDW>
0.698867

>  <SCORE.INTRA.VDW.0>
-7.06424

>  <SCORE.INTRA.norm>
-0.116338

>  <SCORE.RESTR>
0.010476

>  <SCORE.RESTR.CAVITY>
0.010476

>  <SCORE.RESTR.norm>
0.000227739

>  <SCORE.SYSTEM>
0

>  <SCORE.SYSTEM.CONST>
0

>  <SCORE.SYSTEM.DIHEDRAL>
0

>  <SCORE.SYSTEM.SOLV>
0

>  <SCORE.SYSTEM.norm>
0

>  <SCORE.heavy>
46

>  <SCORE.norm>
-0.170336

>  <RMSD>
0.833

$$$$
lig.pdb
 OpenBabel03061811583D
libRbt.so/2013.1/901 2013/11/27
 46 49  0  0  0  0  0  0  0  0999 V2000
   11.2205  -10.3011    5.2177 C   0  0  1  0  0  0  0  0  0  0  0  0
   13.5698  -11.0523    5.7876 C   0  0  1  0  0  0  0  0  0  0  0  0
   13.4907  -12.2925    6.7284 C   0  0  1  0  0  0  0  0  0  0  0  0
   14.8187  -12.3376    7.6435 C   0  0  2  0  0  0  0  0  0  0  0  0
   11.6526  -13.0041    8.3263 C   0  0  2  0  0  0  0  0  0  0  0  0
   10.5485  -12.3782    9.2251 C   0  0  1  0  0  0  0  0  0  0  0  0
    9.7065  -13.6170    9.4132 C   0  0  1  0  0  0  0  0  0  0  0  0
    9.5869  -14.2363    7.9844 C   0  0  1  0  0  0  0  0  0  0  0  0
    8.4937  -13.6280    7.0375 C   0  0  0  0  0  0  0  0  0  0  0  0
    9.6812  -15.6238   10.8470 C   0  0  1  0  0  0  0  0  0  0  0  0
   10.4479  -16.5425   11.7509 C   0  0  1  0  0  0  0  0  0  0  0  0
   10.0820  -10.7642    4.2782 C   0  0  1  0  0  0  0  0  0  0  0  0
    9.5087  -17.7296   12.1671 C   0  0  0  0  0  0  0  0  0  0  0  0
    9.0225  -18.5223   11.0745 C   0  0  0  0  0  0  0  0  0  0  0  0
    8.2450  -17.6744   10.1961 C   0  0  2  0  0  0  0  0  0  0  0  0
    7.6888  -18.4923    8.9646 C   0  0  0  0  0  0  0  0  0  0  0  0
   19.5261  -13.9953    8.6605 C   0  0  2  0  0  0  0  0  0  0  0  0
   18.5514  -12.9369    6.7943 C   0  0  0  0  0  0  0  0  0  0  0  0
   20.6627  -14.2480    9.4051 C   0  0  0  0  0  0  0  0  0  0  0  0
   19.7601  -12.9306    7.8537 C   0  0  1  0  0  0  0  0  0  0  0  0
   10.3795  -10.3447    2.7672 C   0  0  0  0  0  0  0  0  0  0  0  0
   10.5507   -8.7510    2.7138 C   0  0  0  0  0  0  0  0  0  0  0  0
   11.7592   -8.3534    3.6819 C   0  0  1  0  0  0  0  0  0  0  0  0
   11.9957   -6.8386    3.7095 C   0  0  0  0  0  0  0  0  0  0  0  0
   16.0739  -12.5155    6.6825 C   0  0  1  0  0  0  0  0  0  0  0  0
   16.1177  -11.1914    5.7494 C   0  0  0  0  0  0  0  0  0  0  0  0
   14.8133  -11.1118    4.8662 C   0  0  2  0  0  0  0  0  0  0  0  0
   18.4016  -13.7989    9.5473 F   0  0  0  0  0  0  0  0  0  0  0  0
    6.6780  -19.6015    9.3749 N   0  0  0  0  0  0  0  0  0  0  0  0
    9.9217  -12.2572    4.4345 N   0  0  0  0  0  0  0  0  0  0  0  0
   11.5581  -17.1420   11.1495 N   0  0  0  0  0  0  0  0  0  0  0  0
   21.9741  -14.6105    9.0175 N   0  0  0  0  0  0  0  0  0  0  0  0
   10.8222   -6.1486    4.0811 N   0  0  0  0  0  0  0  0  0  0  0  0
   17.3105  -12.5748    7.4825 N   0  0  0  0  0  0  0  0  0  0  0  0
   14.8335   -9.9000    4.0174 N   0  0  0  0  0  0  0  0  0  0  0  0
   12.4326  -11.0015    4.9357 O   0  0  0  0  0  0  0  0  0  0  0  0
   12.2556  -12.1227    7.5643 O   0  0  0  0  0  0  0  0  0  0  0  0
   14.7250  -13.4399    8.4634 O   0  0  0  0  0  0  0  0  0  0  0  0
   11.1488  -11.9127   10.3956 O   0  0  0  0  0  0  0  0  0  0  0  0
   10.9690  -14.0962    7.6155 O   0  0  0  0  0  0  0  0  0  0  0  0
    7.2164  -13.8162    7.6788 O   0  0  0  0  0  0  0  0  0  0  0  0
   10.4147  -14.5595   10.3695 O   0  0  0  0  0  0  0  0  0  0  0  0
   19.7756  -11.6742    8.5662 O   0  0  0  0  0  0  0  0  0  0  0  0
   18.6732  -13.1947    5.5855 O   0  0  0  0  0  0  0  0  0  0  0  0
    9.0755  -16.5035    9.7258 O   0  0  0  0  0  0  0  0  0  0  0  0
   11.4615   -8.8236    5.0963 O   0  0  0  0  0  0  0  0  0  0  0  0
  1 36  1  6  0  0  0
  2 36  1  6  0  0  0
  2  3  1  0  0  0  0
  3 37  1  1  0  0  0
  3  4  1  0  0  0  0
  4 38  1  1  0  0  0
  5 37  1  6  0  0  0
  5  6  1  0  0  0  0
  6  7  1  0  0  0  0
  6 39  1  1  0  0  0
  7 42  1  1  0  0  0
  8  9  1  6  0  0  0
  8  7  1  0  0  0  0
 10 42  1  6  0  0  0
 10 11  1  0  0  0  0
 11 31  1  6  0  0  0
 11 13  1  0  0  0  0
 12 30  1  6  0  0  0
 12  1  1  0  0  0  0
 14 13  1  0  0  0  0
 15 16  1  6  0  0  0
 15 14  1  0  0  0  0
 17 19  1  1  0  0  0
 17 28  1  0  0  0  0
 18 34  1  0  0  0  0
 19 32  1  0  0  0  0
 20 18  1  6  0  0  0
 20 17  1  0  0  0  0
 20 43  1  0  0  0  0
 21 12  1  0  0  0  0
 22 21  1  0  0  0  0
 22 23  1  0  0  0  0
 23 24  1  1  0  0  0
 23 46  1  0  0  0  0
 24 33  1  0  0  0  0
 25 34  1  1  0  0  0
 25  4  1  0  0  0  0
 26 25  1  0  0  0  0
 27 35  1  1  0  0  0
 27 26  1  0  0  0  0
 27  2  1  0  0  0  0
 29 16  1  0  0  0  0
 40  8  1  0  0  0  0
 40  5  1  0  0  0  0
 41  9  1  0  0  0  0
 44 18  2  0  0  0  0
 45 15  1  0  0  0  0
 45 10  1  0  0  0  0
 46  1  1  0  0  0  0
M  END
>  <CHROM.1>
-164.69380014,91.94989911,167.15529487,169.83943421,168.35115928,-60.28960110
178.10945324,64.50122726,-61.85230419,69.72467944,166.57272403,56.19131084
171.02274997,12.79505984,-13.01685891,7.51788607,0.56554514,-0.07483260,-0.69885551

>  <Name>
lig.pdb

>  <RI>
0

>  <Rbt.Current_Directory>
/home/afrankz/demos/rdock_decoys_rna/rnas/3wru

>  <Rbt.Executable>
rbdock ($Id: //depot/dev/client3/rdock/2013.1/src/exe/rbdock.cxx#4 $)

>  <Rbt.Library>
libRbt.so (2013.1, Build901 2013/11/27)

>  <Rbt.Parameter_File>
/export/apps/rDock/src/rDock_2013.1_src/data/scripts/dock_solv.prm

>  <Rbt.Receptor>
prm/pocket_docking_2.prm

>  <SCORE>
-5.55033

>  <SCORE.INTER>
-1.44217

>  <SCORE.INTER.CONST>
1

>  <SCORE.INTER.POLAR>
0

>  <SCORE.INTER.ROT>
13

>  <SCORE.INTER.SOLV>
21.9702

>  <SCORE.INTER.VDW>
-20.5515

>  <SCORE.INTER.norm>
-0.0313514

>  <SCORE.INTRA>
-4.11815

>  <SCORE.INTRA.DIHEDRAL>
-10.8218

>  <SCORE.INTRA.DIHEDRAL.0>
19.7146

>  <SCORE.INTRA.POLAR>
0

>  <SCORE.INTRA.POLAR.0>
0

>  <SCORE.INTRA.REPUL>
0

>  <SCORE.INTRA.REPUL.0>
0

>  <SCORE.INTRA.SOLV>
0.771569

>  <SCORE.INTRA.SOLV.lig_0>
-116.697

>  <SCORE.INTRA.VDW>
0.906969

>  <SCORE.INTRA.VDW.0>
-7.06424

>  <SCORE.INTRA.norm>
-0.0895251

>  <SCORE.RESTR>
0.00998679

>  <SCORE.RESTR.CAVITY>
0.00998679

>  <SCORE.RESTR.norm>
0.000217104

>  <SCORE.SYSTEM>
0

>  <SCORE.SYSTEM.CONST>
0

>  <SCORE.SYSTEM.DIHEDRAL>
0

>  <SCORE.SYSTEM.SOLV>
0

>  <SCORE.SYSTEM.norm>
0

>  <SCORE.heavy>
46

>  <SCORE.norm>
-0.120659

>  <RMSD>
0.871

$$$$
lig.pdb
 OpenBabel03061811583D
libRbt.so/2013.1/901 2013/11/27
 46 49  0  0  0  0  0  0  0  0999 V2000
   10.9673  -10.6347    5.0420 C   0  0  1  0  0  0  0  0  0  0  0  0
   13.4188  -10.9786    5.5707 C   0  0  1  0  0  0  0  0  0  0  0  0
   13.3794  -12.2132    6.5214 C   0  0  1  0  0  0  0  0  0  0  0  0
   14.6834  -12.1812    7.4709 C   0  0  2  0  0  0  0  0  0  0  0  0
   11.5341  -13.0090    8.0704 C   0  0  2  0  0  0  0  0  0  0  0  0
   10.5457  -12.4031    9.1071 C   0  0  1  0  0  0  0  0  0  0  0  0
    9.6584  -13.6121    9.2796 C   0  0  1  0  0  0  0  0  0  0  0  0
    9.3842  -14.1139    7.8263 C   0  0  1  0  0  0  0  0  0  0  0  0
    8.2478  -13.3845    7.0273 C   0  0  0  0  0  0  0  0  0  0  0  0
    9.6317  -15.6648   10.6469 C   0  0  1  0  0  0  0  0  0  0  0  0
   10.4225  -16.6990   11.3912 C   0  0  1  0  0  0  0  0  0  0  0  0
    9.9642  -11.1021    3.9609 C   0  0  1  0  0  0  0  0  0  0  0  0
    9.4351  -17.8051   11.9068 C   0  0  0  0  0  0  0  0  0  0  0  0
    8.7098  -18.4906   10.8759 C   0  0  0  0  0  0  0  0  0  0  0  0
    7.9046  -17.5269   10.1561 C   0  0  2  0  0  0  0  0  0  0  0  0
    7.0869  -18.2235    8.9980 C   0  0  0  0  0  0  0  0  0  0  0  0
   20.2549  -14.1490    7.9056 C   0  0  2  0  0  0  0  0  0  0  0  0
   18.2262  -13.2786    7.0811 C   0  0  0  0  0  0  0  0  0  0  0  0
   21.4972  -13.8810    8.4486 C   0  0  0  0  0  0  0  0  0  0  0  0
   19.4514  -13.0741    8.1011 C   0  0  1  0  0  0  0  0  0  0  0  0
   10.1853  -10.3097    2.5931 C   0  0  0  0  0  0  0  0  0  0  0  0
   10.0165   -8.7424    2.8887 C   0  0  0  0  0  0  0  0  0  0  0  0
   11.1015   -8.3297    3.9880 C   0  0  1  0  0  0  0  0  0  0  0  0
   11.0121   -6.8422    4.3497 C   0  0  0  0  0  0  0  0  0  0  0  0
   15.9711  -12.3016    6.5446 C   0  0  1  0  0  0  0  0  0  0  0  0
   15.9706  -10.9850    5.5999 C   0  0  0  0  0  0  0  0  0  0  0  0
   14.6876  -10.9812    4.6824 C   0  0  2  0  0  0  0  0  0  0  0  0
   19.7273  -15.3644    8.4836 F   0  0  0  0  0  0  0  0  0  0  0  0
    7.9951  -18.8867    7.9230 N   0  0  0  0  0  0  0  0  0  0  0  0
   10.1210  -12.5936    3.7876 N   0  0  0  0  0  0  0  0  0  0  0  0
   11.3605  -17.3763   10.6068 N   0  0  0  0  0  0  0  0  0  0  0  0
   21.9287  -13.7767    9.7919 N   0  0  0  0  0  0  0  0  0  0  0  0
   12.2053   -6.3948    4.9556 N   0  0  0  0  0  0  0  0  0  0  0  0
   17.1875  -12.2896    7.3768 N   0  0  0  0  0  0  0  0  0  0  0  0
   14.6673   -9.7772    3.8224 N   0  0  0  0  0  0  0  0  0  0  0  0
   12.3034  -10.9945    4.6892 O   0  0  0  0  0  0  0  0  0  0  0  0
   12.1156  -12.1009    7.3233 O   0  0  0  0  0  0  0  0  0  0  0  0
   14.6254  -13.2797    8.2990 O   0  0  0  0  0  0  0  0  0  0  0  0
   11.2679  -12.0571   10.2499 O   0  0  0  0  0  0  0  0  0  0  0  0
   10.7350  -14.0104    7.3464 O   0  0  0  0  0  0  0  0  0  0  0  0
    7.0271  -13.5384    7.7785 O   0  0  0  0  0  0  0  0  0  0  0  0
   10.3947  -14.6571   10.0982 O   0  0  0  0  0  0  0  0  0  0  0  0
   18.9490  -12.9822    9.4522 O   0  0  0  0  0  0  0  0  0  0  0  0
   18.1913  -14.1346    6.1818 O   0  0  0  0  0  0  0  0  0  0  0  0
    8.7754  -16.4233    9.6033 O   0  0  0  0  0  0  0  0  0  0  0  0
   10.8920   -9.1493    5.2507 O   0  0  0  0  0  0  0  0  0  0  0  0
  1 36  1  6  0  0  0
  2 36  1  6  0  0  0
  2  3  1  0  0  0  0
  3 37  1  1  0  0  0
  3  4  1  0  0  0  0
  4 38  1  1  0  0  0
  5 37  1  6  0  0  0
  5  6  1  0  0  0  0
  6  7  1  0  0  0  0
  6 39  1  1  0  0  0
  7 42  1  1  0  0  0
  8  9  1  6  0  0  0
  8  7  1  0  0  0  0
 10 42  1  6  0  0  0
 10 11  1  0  0  0  0
 11 31  1  6  0  0  0
 11 13  1  0  0  0  0
 12 30  1  6  0  0  0
 12  1  1  0  0  0  0
 14 13  1  0  0  0  0
 15 16  1  6  0  0  0
 15 14  1  0  0  0  0
 17 19  1  1  0  0  0
 17 28  1  0  0  0  0
 18 34  1  0  0  0  0
 19 32  1  0  0  0  0
 20 18  1  6  0  0  0
 20 17  1  0  0  0  0
 20 43  1  0  0  0  0
 21 12  1  0  0  0  0
 22 21  1  0  0  0  0
 22 23  1  0  0  0  0
 23 24  1  1  0  0  0
 23 46  1  0  0  0  0
 24 33  1  0  0  0  0
 25 34  1  1  0  0  0
 25  4  1  0  0  0  0
 26 25  1  0  0  0  0
 27 35  1  1  0  0  0
 27 26  1  0  0  0  0
 27  2  1  0  0  0  0
 29 16  1  0  0  0  0
 40  8  1  0  0  0  0
 40  5  1  0  0  0  0
 41  9  1  0  0  0  0
 44 18  2  0  0  0  0
 45 15  1  0  0  0  0
 45 10  1  0  0  0  0
 46  1  1  0  0  0  0
M  END
>  <CHROM.1>
-165.72644444,76.63015524,166.60595796,160.20216498,163.54564014,-59.14417194
177.37508718,-61.79531824,71.28993676,170.36272011,163.29465431,-160.65029440
134.64826058,12.71919989,-13.07937111,7.39443822,2.81119258,0.05977535,2.46940697

>  <Name>
lig.pdb

>  <RI>
0

>  <Rbt.Current_Directory>
/home/afrankz/demos/rdock_decoys_rna/rnas/3wru

>  <Rbt.Executable>
rbdock ($Id: //depot/dev/client3/rdock/2013.1/src/exe/rbdock.cxx#4 $)

>  <Rbt.Library>
libRbt.so (2013.1, Build901 2013/11/27)

>  <Rbt.Parameter_File>
/export/apps/rDock/src/rDock_2013.1_src/data/scripts/dock_solv.prm

>  <Rbt.Receptor>
prm/pocket_docking_2.prm

>  <SCORE>
-4.81874

>  <SCORE.INTER>
-1.01333

>  <SCORE.INTER.CONST>
1

>  <SCORE.INTER.POLAR>
0

>  <SCORE.INTER.ROT>
13

>  <SCORE.INTER.SOLV>
23.4074

>  <SCORE.INTER.VDW>
-20.7447

>  <SCORE.INTER.norm>
-0.022029

>  <SCORE.INTRA>
-3.81718

>  <SCORE.INTRA.DIHEDRAL>
-8.84864

>  <SCORE.INTRA.DIHEDRAL.0>
19.7146

>  <SCORE.INTRA.POLAR>
0

>  <SCORE.INTRA.POLAR.0>
0

>  <SCORE.INTRA.REPUL>
0

>  <SCORE.INTRA.REPUL.0>
0

>  <SCORE.INTRA.SOLV>
-0.524612

>  <SCORE.INTRA.SOLV.lig_0>
-116.697

>  <SCORE.INTRA.VDW>
0.869443

>  <SCORE.INTRA.VDW.0>
-7.06424

>  <SCORE.INTRA.norm>
-0.0829823

>  <SCORE.RESTR>
0.0117774

>  <SCORE.RESTR.CAVITY>
0.0117774

>  <SCORE.RESTR.norm>
0.00025603

>  <SCORE.SYSTEM>
0

>  <SCORE.SYSTEM.CONST>
0

>  <SCORE.SYSTEM.DIHEDRAL>
0

>  <SCORE.SYSTEM.SOLV>
0

>  <SCORE.SYSTEM.norm>
0

>  <SCORE.heavy>
46

>  <SCORE.norm>
-0.104755

>  <RMSD>
0.875

$$$$
lig.pdb
 OpenBabel03061811583D
libRbt.so/2013.1/901 2013/11/27
 46 49  0  0  0  0  0  0  0  0999 V2000
   10.9963  -10.5967    5.0464 C   0  0  1  0  0  0  0  0  0  0  0  0
   13.4327  -11.0317    5.5779 C   0  0  1  0  0  0  0  0  0  0  0  0
   13.3832  -12.2717    6.5211 C   0  0  1  0  0  0  0  0  0  0  0  0
   14.6919  -12.2611    7.4644 C   0  0  2  0  0  0  0  0  0  0  0  0
   11.5879  -13.0216    8.1498 C   0  0  2  0  0  0  0  0  0  0  0  0
   10.5800  -12.3809    9.1459 C   0  0  1  0  0  0  0  0  0  0  0  0
    9.7476  -13.6103    9.4190 C   0  0  1  0  0  0  0  0  0  0  0  0
    9.4872  -14.2341    8.0111 C   0  0  1  0  0  0  0  0  0  0  0  0
    8.3152  -13.6185    7.1689 C   0  0  0  0  0  0  0  0  0  0  0  0
    9.8571  -15.6516   10.7992 C   0  0  1  0  0  0  0  0  0  0  0  0
   10.6671  -16.5117   11.7228 C   0  0  1  0  0  0  0  0  0  0  0  0
    9.9976  -10.8987    3.9041 C   0  0  1  0  0  0  0  0  0  0  0  0
    9.7921  -17.7421   12.1528 C   0  0  0  0  0  0  0  0  0  0  0  0
    9.3581  -18.5781   11.0705 C   0  0  0  0  0  0  0  0  0  0  0  0
    8.5411  -17.7888   10.1736 C   0  0  2  0  0  0  0  0  0  0  0  0
    8.0394  -18.6561    8.9524 C   0  0  0  0  0  0  0  0  0  0  0  0
   19.6087  -14.5350    8.7072 C   0  0  2  0  0  0  0  0  0  0  0  0
   18.1276  -13.5136    7.1853 C   0  0  0  0  0  0  0  0  0  0  0  0
   20.5998  -15.1595    7.9739 C   0  0  0  0  0  0  0  0  0  0  0  0
   19.3776  -13.3093    8.1747 C   0  0  1  0  0  0  0  0  0  0  0  0
   10.3221  -10.0199    2.6118 C   0  0  0  0  0  0  0  0  0  0  0  0
   10.2605   -8.4726    3.0294 C   0  0  0  0  0  0  0  0  0  0  0  0
   11.3361   -8.2325    4.1876 C   0  0  1  0  0  0  0  0  0  0  0  0
   11.3454   -6.7759    4.6666 C   0  0  0  0  0  0  0  0  0  0  0  0
   15.9737  -12.3910    6.5311 C   0  0  1  0  0  0  0  0  0  0  0  0
   15.9843  -11.0685    5.5947 C   0  0  0  0  0  0  0  0  0  0  0  0
   14.6971  -11.0436    4.6835 C   0  0  2  0  0  0  0  0  0  0  0  0
   19.9965  -14.4851   10.0988 F   0  0  0  0  0  0  0  0  0  0  0  0
    7.0989  -17.8724    7.9925 N   0  0  0  0  0  0  0  0  0  0  0  0
   10.0490  -12.3795    3.6142 N   0  0  0  0  0  0  0  0  0  0  0  0
   11.8129  -17.0584   11.1381 N   0  0  0  0  0  0  0  0  0  0  0  0
   21.9975  -14.9478    7.9188 N   0  0  0  0  0  0  0  0  0  0  0  0
   11.8527   -5.9168    3.6688 N   0  0  0  0  0  0  0  0  0  0  0  0
   17.1941  -12.3985    7.3575 N   0  0  0  0  0  0  0  0  0  0  0  0
   14.6869   -9.8341    3.8312 N   0  0  0  0  0  0  0  0  0  0  0  0
   12.3130  -11.0288    4.7018 O   0  0  0  0  0  0  0  0  0  0  0  0
   12.1246  -12.1495    7.3297 O   0  0  0  0  0  0  0  0  0  0  0  0
   14.6249  -13.3641    8.2859 O   0  0  0  0  0  0  0  0  0  0  0  0
   11.2930  -11.9168   10.2520 O   0  0  0  0  0  0  0  0  0  0  0  0
   10.8294  -14.1095    7.5123 O   0  0  0  0  0  0  0  0  0  0  0  0
    8.0934  -14.4882    6.0408 O   0  0  0  0  0  0  0  0  0  0  0  0
   10.5339  -14.5561   10.3086 O   0  0  0  0  0  0  0  0  0  0  0  0
   19.0529  -12.3132    9.1690 O   0  0  0  0  0  0  0  0  0  0  0  0
   17.9996  -14.4642    6.3962 O   0  0  0  0  0  0  0  0  0  0  0  0
    9.3088  -16.5815    9.6891 O   0  0  0  0  0  0  0  0  0  0  0  0
   11.0246   -9.1310    5.3733 O   0  0  0  0  0  0  0  0  0  0  0  0
  1 36  1  6  0  0  0
  2 36  1  6  0  0  0
  2  3  1  0  0  0  0
  3 37  1  1  0  0  0
  3  4  1  0  0  0  0
  4 38  1  1  0  0  0
  5 37  1  6  0  0  0
  5  6  1  0  0  0  0
  6  7  1  0  0  0  0
  6 39  1  1  0  0  0
  7 42  1  1  0  0  0
  8  9  1  6  0  0  0
  8  7  1  0  0  0  0
 10 42  1  6  0  0  0
 10 11  1  0  0  0  0
 11 31  1  6  0  0  0
 11 13  1  0  0  0  0
 12 30  1  6  0  0  0
 12  1  1  0  0  0  0
 14 13  1  0  0  0  0
 15 16  1  6  0  0  0
 15 14  1  0  0  0  0
 17 19  1  6  0  0  0
 17 28  1  0  0  0  0
 18 34  1  0  0  0  0
 19 32  1  0  0  0  0
 20 18  1  6  0  0  0
 20 17  1  0  0  0  0
 20 43  1  0  0  0  0
 21 12  1  0  0  0  0
 22 21  1  0  0  0  0
 22 23  1  0  0  0  0
 23 24  1  1  0  0  0
 23 46  1  0  0  0  0
 24 33  1  0  0  0  0
 25 34  1  1  0  0  0
 25  4  1  0  0  0  0
 26 25  1  0  0  0  0
 27 35  1  1  0  0  0
 27 26  1  0  0  0  0
 27  2  1  0  0  0  0
 29 16  1  0  0  0  0
 40  8  1  0  0  0  0
 40  5  1  0  0  0  0
 41  9  1  0  0  0  0
 44 18  2  0  0  0  0
 45 15  1  0  0  0  0
 45 10  1  0  0  0  0
 46  1  1  0  0  0  0
M  END
>  <CHROM.1>
-172.90197728,79.70927302,172.09007978,160.60243054,171.81310207,-169.51208946
-177.23285091,177.21070727,74.02297055,136.84497510,95.65746635,-68.79557699
125.79912221,12.81560861,-13.10891573,7.40518559,2.75895830,0.05639623,2.45923596

>  <Name>
lig.pdb

>  <RI>
0

>  <Rbt.Current_Directory>
/home/afrankz/demos/rdock_decoys_rna/rnas/3wru

>  <Rbt.Executable>
rbdock ($Id: //depot/dev/client3/rdock/2013.1/src/exe/rbdock.cxx#4 $)

>  <Rbt.Library>
libRbt.so (2013.1, Build901 2013/11/27)

>  <Rbt.Parameter_File>
/export/apps/rDock/src/rDock_2013.1_src/data/scripts/dock_solv.prm

>  <Rbt.Receptor>
prm/pocket_docking_2.prm

>  <SCORE>
-5.75253

>  <SCORE.INTER>
-2.38819

>  <SCORE.INTER.CONST>
1

>  <SCORE.INTER.POLAR>
0

>  <SCORE.INTER.ROT>
13

>  <SCORE.INTER.SOLV>
20.4556

>  <SCORE.INTER.VDW>
-20.6773

>  <SCORE.INTER.norm>
-0.0519172

>  <SCORE.INTRA>
-3.36437

>  <SCORE.INTRA.DIHEDRAL>
-7.44341

>  <SCORE.INTRA.DIHEDRAL.0>
19.7146

>  <SCORE.INTRA.POLAR>
0

>  <SCORE.INTRA.POLAR.0>
0

>  <SCORE.INTRA.REPUL>
0

>  <SCORE.INTRA.REPUL.0>
0

>  <SCORE.INTRA.SOLV>
-1.72209

>  <SCORE.INTRA.SOLV.lig_0>
-116.697

>  <SCORE.INTRA.VDW>
1.21838

>  <SCORE.INTRA.VDW.0>
-7.06424

>  <SCORE.INTRA.norm>
-0.0731385

>  <SCORE.RESTR>
2.69475e-05

>  <SCORE.RESTR.CAVITY>
2.69475e-05

>  <SCORE.RESTR.norm>
5.85815e-07

>  <SCORE.SYSTEM>
0

>  <SCORE.SYSTEM.CONST>
0

>  <SCORE.SYSTEM.DIHEDRAL>
0

>  <SCORE.SYSTEM.SOLV>
0

>  <SCORE.SYSTEM.norm>
0

>  <SCORE.heavy>
46

>  <SCORE.norm>
-0.125055

>  <RMSD>
0.949

$$$$
lig.pdb
 OpenBabel03061811583D
libRbt.so/2013.1/901 2013/11/27
 46 49  0  0  0  0  0  0  0  0999 V2000
   11.1576  -10.0099    5.1940 C   0  0  1  0  0  0  0  0  0  0  0  0
   13.4667  -10.8734    5.7687 C   0  0  1  0  0  0  0  0  0  0  0  0
   13.4629  -12.1350    6.6841 C   0  0  1  0  0  0  0  0  0  0  0  0
   14.8267  -12.1574    7.5458 C   0  0  2  0  0  0  0  0  0  0  0  0
   11.7139  -12.9365    8.3384 C   0  0  2  0  0  0  0  0  0  0  0  0
   10.6395  -12.3613    9.3045 C   0  0  1  0  0  0  0  0  0  0  0  0
    9.8387  -13.6258    9.5016 C   0  0  1  0  0  0  0  0  0  0  0  0
    9.6653  -14.2137    8.0651 C   0  0  1  0  0  0  0  0  0  0  0  0
    8.5127  -13.6116    7.1873 C   0  0  0  0  0  0  0  0  0  0  0  0
    9.9254  -15.6512   10.9065 C   0  0  1  0  0  0  0  0  0  0  0  0
   10.7424  -16.5406   11.7956 C   0  0  1  0  0  0  0  0  0  0  0  0
   10.0174  -10.3446    4.2034 C   0  0  1  0  0  0  0  0  0  0  0  0
    9.8482  -17.7485   12.2489 C   0  0  0  0  0  0  0  0  0  0  0  0
    9.3525  -18.5642   11.1776 C   0  0  0  0  0  0  0  0  0  0  0  0
    8.5274  -17.7456   10.3150 C   0  0  2  0  0  0  0  0  0  0  0  0
    7.9583  -18.5896    9.1072 C   0  0  0  0  0  0  0  0  0  0  0  0
   19.5098  -13.6913    8.5194 C   0  0  2  0  0  0  0  0  0  0  0  0
   18.5086  -12.7954    6.5834 C   0  0  0  0  0  0  0  0  0  0  0  0
   20.6808  -13.9743    9.1967 C   0  0  0  0  0  0  0  0  0  0  0  0
   19.7637  -12.7408    7.5859 C   0  0  1  0  0  0  0  0  0  0  0  0
   10.4262   -9.9620    2.7086 C   0  0  0  0  0  0  0  0  0  0  0  0
   10.7752   -8.3971    2.6693 C   0  0  0  0  0  0  0  0  0  0  0  0
   11.9763   -8.1353    3.6914 C   0  0  1  0  0  0  0  0  0  0  0  0
   12.3777   -6.6560    3.7356 C   0  0  0  0  0  0  0  0  0  0  0  0
   16.0479  -12.2755    6.5332 C   0  0  1  0  0  0  0  0  0  0  0  0
   16.0142  -10.9313    5.6288 C   0  0  0  0  0  0  0  0  0  0  0  0
   14.6742  -10.8744    4.7987 C   0  0  2  0  0  0  0  0  0  0  0  0
   18.4881  -13.3000    9.4642 F   0  0  0  0  0  0  0  0  0  0  0  0
    7.1223  -17.7390    8.1082 N   0  0  0  0  0  0  0  0  0  0  0  0
    9.6858  -11.8106    4.3463 N   0  0  0  0  0  0  0  0  0  0  0  0
   11.8508  -17.1155   11.1674 N   0  0  0  0  0  0  0  0  0  0  0  0
   21.9100  -14.5172    8.7543 N   0  0  0  0  0  0  0  0  0  0  0  0
   11.2967   -5.8491    4.1495 N   0  0  0  0  0  0  0  0  0  0  0  0
   17.3163  -12.3125    7.2832 N   0  0  0  0  0  0  0  0  0  0  0  0
   14.6237   -9.6450    3.9768 N   0  0  0  0  0  0  0  0  0  0  0  0
   12.2958  -10.8407    4.9629 O   0  0  0  0  0  0  0  0  0  0  0  0
   12.2570  -12.0218    7.5708 O   0  0  0  0  0  0  0  0  0  0  0  0
   14.7992  -13.2790    8.3441 O   0  0  0  0  0  0  0  0  0  0  0  0
   11.2841  -11.9084   10.4563 O   0  0  0  0  0  0  0  0  0  0  0  0
   11.0239  -14.0288    7.6340 O   0  0  0  0  0  0  0  0  0  0  0  0
    8.6928  -14.1040    5.8445 O   0  0  0  0  0  0  0  0  0  0  0  0
   10.6157  -14.5720   10.3989 O   0  0  0  0  0  0  0  0  0  0  0  0
   19.8807  -11.4149    8.1467 O   0  0  0  0  0  0  0  0  0  0  0  0
   18.5643  -13.1749    5.4021 O   0  0  0  0  0  0  0  0  0  0  0  0
    9.3119  -16.5573    9.8109 O   0  0  0  0  0  0  0  0  0  0  0  0
   11.5659   -8.5684    5.0894 O   0  0  0  0  0  0  0  0  0  0  0  0
  1 36  1  6  0  0  0
  2 36  1  6  0  0  0
  2  3  1  0  0  0  0
  3 37  1  1  0  0  0
  3  4  1  0  0  0  0
  4 38  1  1  0  0  0
  5 37  1  6  0  0  0
  5  6  1  0  0  0  0
  6  7  1  0  0  0  0
  6 39  1  1  0  0  0
  7 42  1  1  0  0  0
  8  9  1  6  0  0  0
  8  7  1  0  0  0  0
 10 42  1  6  0  0  0
 10 11  1  0  0  0  0
 11 31  1  6  0  0  0
 11 13  1  0  0  0  0
 12 30  1  6  0  0  0
 12  1  1  0  0  0  0
 14 13  1  0  0  0  0
 15 16  1  6  0  0  0
 15 14  1  0  0  0  0
 17 19  1  1  0  0  0
 17 28  1  0  0  0  0
 18 34  1  0  0  0  0
 19 32  1  0  0  0  0
 20 18  1  6  0  0  0
 20 17  1  0  0  0  0
 20 43  1  0  0  0  0
 21 12  1  0  0  0  0
 22 21  1  0  0  0  0
 22 23  1  0  0  0  0
 23 24  1  1  0  0  0
 23 46  1  0  0  0  0
 24 33  1  0  0  0  0
 25 34  1  1  0  0  0
 25  4  1  0  0  0  0
 26 25  1  0  0  0  0
 27 35  1  1  0  0  0
 27 26  1  0  0  0  0
 27  2  1  0  0  0  0
 29 16  1  0  0  0  0
 40  8  1  0  0  0  0
 40  5  1  0  0  0  0
 41  9  1  0  0  0  0
 44 18  2  0  0  0  0
 45 15  1  0  0  0  0
 45 10  1  0  0  0  0
 46  1  1  0  0  0  0
M  END
>  <CHROM.1>
-174.17707507,102.98823579,167.34596758,169.09902629,167.04815157,169.29658634
-179.41939020,-177.07321780,-63.01022583,68.47674930,163.53455174,60.33219629
162.93291430,12.91673490,-12.83710214,7.41000467,0.66649426,-0.08162799,-0.69859294

>  <Name>
lig.pdb

>  <RI>
0

>  <Rbt.Current_Directory>
/home/afrankz/demos/rdock_decoys_rna/rnas/3wru

>  <Rbt.Executable>
rbdock ($Id: //depot/dev/client3/rdock/2013.1/src/exe/rbdock.cxx#4 $)

>  <Rbt.Library>
libRbt.so (2013.1, Build901 2013/11/27)

>  <Rbt.Parameter_File>
/export/apps/rDock/src/rDock_2013.1_src/data/scripts/dock_solv.prm

>  <Rbt.Receptor>
prm/pocket_docking_2.prm

>  <SCORE>
-4.3994

>  <SCORE.INTER>
-1.32668

>  <SCORE.INTER.CONST>
1

>  <SCORE.INTER.POLAR>
0

>  <SCORE.INTER.ROT>
13

>  <SCORE.INTER.SOLV>
22.4641

>  <SCORE.INTER.VDW>
-20.6391

>  <SCORE.INTER.norm>
-0.0288409

>  <SCORE.INTRA>
-3.08994

>  <SCORE.INTRA.DIHEDRAL>
-8.93763

>  <SCORE.INTRA.DIHEDRAL.0>
19.7146

>  <SCORE.INTRA.POLAR>
0

>  <SCORE.INTRA.POLAR.0>
0

>  <SCORE.INTRA.REPUL>
0

>  <SCORE.INTRA.REPUL.0>
0

>  <SCORE.INTRA.SOLV>
1.8962

>  <SCORE.INTRA.SOLV.lig_0>
-116.697

>  <SCORE.INTRA.VDW>
0.430773

>  <SCORE.INTRA.VDW.0>
-7.06424

>  <SCORE.INTRA.norm>
-0.0671727

>  <SCORE.RESTR>
0.0172287

>  <SCORE.RESTR.CAVITY>
0.0172287

>  <SCORE.RESTR.norm>
0.000374537

>  <SCORE.SYSTEM>
0

>  <SCORE.SYSTEM.CONST>
0

>  <SCORE.SYSTEM.DIHEDRAL>
0

>  <SCORE.SYSTEM.SOLV>
0

>  <SCORE.SYSTEM.norm>
0

>  <SCORE.heavy>
46

>  <SCORE.norm>
-0.095639

>  <RMSD>
0.956

$$$$
lig.pdb
 OpenBabel03061811583D
libRbt.so/2013.1/901 2013/11/27
 46 49  0  0  0  0  0  0  0  0999 V2000
   11.1786  -10.0836    5.1798 C   0  0  1  0  0  0  0  0  0  0  0  0
   13.4848  -10.9570    5.7510 C   0  0  1  0  0  0  0  0  0  0  0  0
   13.4387  -12.2145    6.6710 C   0  0  1  0  0  0  0  0  0  0  0  0
   14.7912  -12.2674    7.5489 C   0  0  2  0  0  0  0  0  0  0  0  0
   11.6230  -12.9778    8.2706 C   0  0  2  0  0  0  0  0  0  0  0  0
   10.5384  -12.3834    9.2135 C   0  0  1  0  0  0  0  0  0  0  0  0
    9.6848  -13.6205    9.3544 C   0  0  1  0  0  0  0  0  0  0  0  0
    9.5387  -14.1697    7.8998 C   0  0  1  0  0  0  0  0  0  0  0  0
    8.4399  -13.5051    6.9983 C   0  0  0  0  0  0  0  0  0  0  0  0
    9.6577  -15.6964   10.6862 C   0  0  1  0  0  0  0  0  0  0  0  0
   10.3601  -16.5568   11.6938 C   0  0  1  0  0  0  0  0  0  0  0  0
   10.0165  -10.4578    4.2297 C   0  0  1  0  0  0  0  0  0  0  0  0
    9.4298  -17.7711   12.0464 C   0  0  0  0  0  0  0  0  0  0  0  0
    9.0939  -18.6132   10.9344 C   0  0  0  0  0  0  0  0  0  0  0  0
    8.3809  -17.8233    9.9532 C   0  0  2  0  0  0  0  0  0  0  0  0
    7.9910  -18.6972    8.6965 C   0  0  0  0  0  0  0  0  0  0  0  0
   19.5298  -14.0005    8.4411 C   0  0  2  0  0  0  0  0  0  0  0  0
   18.4808  -12.9428    6.6152 C   0  0  0  0  0  0  0  0  0  0  0  0
   20.7115  -14.2795    9.1013 C   0  0  0  0  0  0  0  0  0  0  0  0
   19.7222  -12.9263    7.6359 C   0  0  1  0  0  0  0  0  0  0  0  0
   10.3746  -10.0973    2.7165 C   0  0  0  0  0  0  0  0  0  0  0  0
   10.6936   -8.5275    2.6373 C   0  0  0  0  0  0  0  0  0  0  0  0
   11.9188   -8.2245    3.6185 C   0  0  1  0  0  0  0  0  0  0  0  0
   12.2941   -6.7377    3.6227 C   0  0  0  0  0  0  0  0  0  0  0  0
   16.0210  -12.4200    6.5513 C   0  0  1  0  0  0  0  0  0  0  0  0
   16.0316  -11.0790    5.6416 C   0  0  0  0  0  0  0  0  0  0  0  0
   14.7032  -10.9920    4.7954 C   0  0  2  0  0  0  0  0  0  0  0  0
   18.4721  -13.8037    9.4066 F   0  0  0  0  0  0  0  0  0  0  0  0
    6.7817  -19.6398    8.9599 N   0  0  0  0  0  0  0  0  0  0  0  0
    9.7162  -11.9264    4.4102 N   0  0  0  0  0  0  0  0  0  0  0  0
   11.5506  -17.1243   11.2312 N   0  0  0  0  0  0  0  0  0  0  0  0
   21.4710  -13.5201   10.0220 N   0  0  0  0  0  0  0  0  0  0  0  0
   11.2292   -5.9469    4.1040 N   0  0  0  0  0  0  0  0  0  0  0  0
   17.2791  -12.4857    7.3164 N   0  0  0  0  0  0  0  0  0  0  0  0
   14.6932   -9.7650    3.9685 N   0  0  0  0  0  0  0  0  0  0  0  0
   12.3247  -10.8983    4.9312 O   0  0  0  0  0  0  0  0  0  0  0  0
   12.2257  -12.0677    7.5428 O   0  0  0  0  0  0  0  0  0  0  0  0
   14.7264  -13.3848    8.3509 O   0  0  0  0  0  0  0  0  0  0  0  0
   11.1599  -11.9807   10.3962 O   0  0  0  0  0  0  0  0  0  0  0  0
   10.9171  -14.0272    7.5184 O   0  0  0  0  0  0  0  0  0  0  0  0
    7.1793  -13.6447    7.6835 O   0  0  0  0  0  0  0  0  0  0  0  0
   10.3949  -14.6151   10.2549 O   0  0  0  0  0  0  0  0  0  0  0  0
   19.7417  -11.6753    8.3576 O   0  0  0  0  0  0  0  0  0  0  0  0
   18.5525  -13.2778    5.4214 O   0  0  0  0  0  0  0  0  0  0  0  0
    9.2095  -16.6312    9.5359 O   0  0  0  0  0  0  0  0  0  0  0  0
   11.5572   -8.6373    5.0358 O   0  0  0  0  0  0  0  0  0  0  0  0
  1 36  1  6  0  0  0
  2 36  1  6  0  0  0
  2  3  1  0  0  0  0
  3 37  1  1  0  0  0
  3  4  1  0  0  0  0
  4 38  1  1  0  0  0
  5 37  1  6  0  0  0
  5  6  1  0  0  0  0
  6  7  1  0  0  0  0
  6 39  1  1  0  0  0
  7 42  1  1  0  0  0
  8  9  1  6  0  0  0
  8  7  1  0  0  0  0
 10 42  1  6  0  0  0
 10 11  1  0  0  0  0
 11 31  1  6  0  0  0
 11 13  1  0  0  0  0
 12 30  1  6  0  0  0
 12  1  1  0  0  0  0
 14 13  1  0  0  0  0
 15 16  1  6  0  0  0
 15 14  1  0  0  0  0
 17 19  1  1  0  0  0
 17 28  1  0  0  0  0
 18 34  1  0  0  0  0
 19 32  1  0  0  0  0
 20 18  1  6  0  0  0
 20 17  1  0  0  0  0
 20 43  1  0  0  0  0
 21 12  1  0  0  0  0
 22 21  1  0  0  0  0
 22 23  1  0  0  0  0
 23 24  1  1  0  0  0
 23 46  1  0  0  0  0
 24 33  1  0  0  0  0
 25 34  1  1  0  0  0
 25  4  1  0  0  0  0
 26 25  1  0  0  0  0
 27 35  1  1  0  0  0
 27 26  1  0  0  0  0
 27  2  1  0  0  0  0
 29 16  1  0  0  0  0
 40  8  1  0  0  0  0
 40  5  1  0  0  0  0
 41  9  1  0  0  0  0
 44 18  2  0  0  0  0
 45 15  1  0  0  0  0
 45 10  1  0  0  0  0
 46  1  1  0  0  0  0
M  END
>  <CHROM.1>
-169.92758119,99.92311370,164.67289566,170.56602634,168.66842490,-57.17599489
-173.36380640,76.29877509,62.46953199,74.87787539,163.83738817,62.71100482
165.68753630,12.78971105,-12.94188201,7.43797413,0.63706440,-0.08989800,-0.68470590

>  <Name>
lig.pdb

>  <RI>
0

>  <Rbt.Current_Directory>
/home/afrankz/demos/rdock_decoys_rna/rnas/3wru

>  <Rbt.Executable>
rbdock ($Id: //depot/dev/client3/rdock/2013.1/src/exe/rbdock.cxx#4 $)

>  <Rbt.Library>
libRbt.so (2013.1, Build901 2013/11/27)

>  <Rbt.Parameter_File>
/export/apps/rDock/src/rDock_2013.1_src/data/scripts/dock_solv.prm

>  <Rbt.Receptor>
prm/pocket_docking_2.prm

>  <SCORE>
-3.84129

>  <SCORE.INTER>
-0.8903

>  <SCORE.INTER.CONST>
1

>  <SCORE.INTER.POLAR>
0

>  <SCORE.INTER.ROT>
13

>  <SCORE.INTER.SOLV>
23.8672

>  <SCORE.INTER.VDW>
-20.8159

>  <SCORE.INTER.norm>
-0.0193544

>  <SCORE.INTRA>
-2.95867

>  <SCORE.INTRA.DIHEDRAL>
-8.30777

>  <SCORE.INTRA.DIHEDRAL.0>
19.7146

>  <SCORE.INTRA.POLAR>
0

>  <SCORE.INTRA.POLAR.0>
0

>  <SCORE.INTRA.REPUL>
0

>  <SCORE.INTRA.REPUL.0>
0

>  <SCORE.INTRA.SOLV>
1.69267

>  <SCORE.INTRA.SOLV.lig_0>
-116.697

>  <SCORE.INTRA.VDW>
0.348876

>  <SCORE.INTRA.VDW.0>
-7.06424

>  <SCORE.INTRA.norm>
-0.064319

>  <SCORE.RESTR>
0.00767882

>  <SCORE.RESTR.CAVITY>
0.00767882

>  <SCORE.RESTR.norm>
0.000166931

>  <SCORE.SYSTEM>
0

>  <SCORE.SYSTEM.CONST>
0

>  <SCORE.SYSTEM.DIHEDRAL>
0

>  <SCORE.SYSTEM.SOLV>
0

>  <SCORE.SYSTEM.norm>
0

>  <SCORE.heavy>
46

>  <SCORE.norm>
-0.0835064

>  <RMSD>
0.974

$$$$
lig.pdb
 OpenBabel03061811583D
libRbt.so/2013.1/901 2013/11/27
 46 49  0  0  0  0  0  0  0  0999 V2000
   10.9422  -10.7018    4.7419 C   0  0  1  0  0  0  0  0  0  0  0  0
   13.3476  -11.1429    5.3955 C   0  0  1  0  0  0  0  0  0  0  0  0
   13.2870  -12.4955    6.1679 C   0  0  1  0  0  0  0  0  0  0  0  0
   14.5265  -12.5626    7.1985 C   0  0  2  0  0  0  0  0  0  0  0  0
   11.5646  -13.3487    7.8242 C   0  0  2  0  0  0  0  0  0  0  0  0
   11.0614  -12.6228    9.1042 C   0  0  1  0  0  0  0  0  0  0  0  0
   10.1394  -13.7064    9.6089 C   0  0  1  0  0  0  0  0  0  0  0  0
    9.3367  -14.1629    8.3494 C   0  0  1  0  0  0  0  0  0  0  0  0
    8.0989  -13.2887    7.9426 C   0  0  0  0  0  0  0  0  0  0  0  0
   10.2839  -15.8565   10.8089 C   0  0  1  0  0  0  0  0  0  0  0  0
   11.1628  -16.8682   11.4818 C   0  0  1  0  0  0  0  0  0  0  0  0
    9.9792  -11.2097    3.6429 C   0  0  1  0  0  0  0  0  0  0  0  0
   10.2513  -17.9860   12.1015 C   0  0  0  0  0  0  0  0  0  0  0  0
    9.4419  -18.6955   11.1527 C   0  0  0  0  0  0  0  0  0  0  0  0
    8.5524  -17.7543   10.5062 C   0  0  2  0  0  0  0  0  0  0  0  0
    7.6390  -18.4780    9.4400 C   0  0  0  0  0  0  0  0  0  0  0  0
   19.1599  -14.1724    8.6120 C   0  0  2  0  0  0  0  0  0  0  0  0
   18.3011  -13.0835    6.7069 C   0  0  0  0  0  0  0  0  0  0  0  0
   20.2136  -14.3745    9.4832 C   0  0  0  0  0  0  0  0  0  0  0  0
   19.4165  -13.0707    7.8640 C   0  0  1  0  0  0  0  0  0  0  0  0
   10.2433  -10.4605    2.2584 C   0  0  0  0  0  0  0  0  0  0  0  0
   10.0568   -8.8855    2.4973 C   0  0  0  0  0  0  0  0  0  0  0  0
   11.1013   -8.4311    3.6191 C   0  0  1  0  0  0  0  0  0  0  0  0
   10.9922   -6.9333    3.9292 C   0  0  0  0  0  0  0  0  0  0  0  0
   15.8735  -12.5272    6.3529 C   0  0  1  0  0  0  0  0  0  0  0  0
   15.8914  -11.0952    5.5946 C   0  0  0  0  0  0  0  0  0  0  0  0
   14.6696  -10.9963    4.6019 C   0  0  2  0  0  0  0  0  0  0  0  0
   17.9267  -14.0757    9.3601 F   0  0  0  0  0  0  0  0  0  0  0  0
    6.6323  -19.4784   10.0771 N   0  0  0  0  0  0  0  0  0  0  0  0
   10.1492  -12.7051    3.5234 N   0  0  0  0  0  0  0  0  0  0  0  0
   12.0324  -17.5371   10.6158 N   0  0  0  0  0  0  0  0  0  0  0  0
   21.6078  -14.4639    9.2608 N   0  0  0  0  0  0  0  0  0  0  0  0
   12.0796   -6.4975    4.7158 N   0  0  0  0  0  0  0  0  0  0  0  0
   17.0337  -12.6002    7.2590 N   0  0  0  0  0  0  0  0  0  0  0  0
   14.6659   -9.6878    3.9111 N   0  0  0  0  0  0  0  0  0  0  0  0
   12.2914  -11.0647    4.4469 O   0  0  0  0  0  0  0  0  0  0  0  0
   11.9720  -12.5215    6.8910 O   0  0  0  0  0  0  0  0  0  0  0  0
   14.4509  -13.7642    7.8667 O   0  0  0  0  0  0  0  0  0  0  0  0
   12.1601  -12.3780    9.9290 O   0  0  0  0  0  0  0  0  0  0  0  0
   10.4523  -14.2347    7.4460 O   0  0  0  0  0  0  0  0  0  0  0  0
    8.5987  -12.0005    7.5318 O   0  0  0  0  0  0  0  0  0  0  0  0
   10.9707  -14.8413   10.1791 O   0  0  0  0  0  0  0  0  0  0  0  0
   19.3219  -11.8417    8.6169 O   0  0  0  0  0  0  0  0  0  0  0  0
   18.5049  -13.4355    5.5334 O   0  0  0  0  0  0  0  0  0  0  0  0
    9.3443  -16.6414    9.8609 O   0  0  0  0  0  0  0  0  0  0  0  0
   10.8525   -9.2109    4.8998 O   0  0  0  0  0  0  0  0  0  0  0  0
  1 36  1  6  0  0  0
  2 36  1  6  0  0  0
  2  3  1  0  0  0  0
  3 37  1  1  0  0  0
  3  4  1  0  0  0  0
  4 38  1  6  0  0  0
  5 37  1  6  0  0  0
  5  6  1  0  0  0  0
  6  7  1  0  0  0  0
  6 39  1  1  0  0  0
  7 42  1  6  0  0  0
  8  9  1  6  0  0  0
  8  7  1  0  0  0  0
 10 42  1  6  0  0  0
 10 11  1  0  0  0  0
 11 31  1  6  0  0  0
 11 13  1  0  0  0  0
 12 30  1  6  0  0  0
 12  1  1  0  0  0  0
 14 13  1  0  0  0  0
 15 16  1  6  0  0  0
 15 14  1  0  0  0  0
 17 19  1  1  0  0  0
 17 28  1  0  0  0  0
 18 34  1  0  0  0  0
 19 32  1  0  0  0  0
 20 18  1  6  0  0  0
 20 17  1  0  0  0  0
 20 43  1  0  0  0  0
 21 12  1  0  0  0  0
 22 21  1  0  0  0  0
 22 23  1  0  0  0  0
 23 24  1  1  0  0  0
 23 46  1  0  0  0  0
 24 33  1  0  0  0  0
 25 34  1  1  0  0  0
 25  4  1  0  0  0  0
 26 25  1  0  0  0  0
 27 35  1  1  0  0  0
 27 26  1  0  0  0  0
 27  2  1  0  0  0  0
 29 16  1  0  0  0  0
 40  8  1  0  0  0  0
 40  5  1  0  0  0  0
 41  9  1  0  0  0  0
 44 18  2  0  0  0  0
 45 15  1  0  0  0  0
 45 10  1  0  0  0  0
 46  1  1  0  0  0  0
M  END
>  <CHROM.1>
-159.02375148,80.92495710,-168.32206051,126.49137342,173.58429312,66.15299887
-173.57628772,66.35577750,-52.20782181,78.09345160,169.23761874,-168.46859650
157.30181638,12.77347924,-13.13030052,7.39046617,0.78150895,-0.07777083,-0.71959406

>  <Name>
lig.pdb

>  <RI>
0

>  <Rbt.Current_Directory>
/home/afrankz/demos/rdock_decoys_rna/rnas/3wru

>  <Rbt.Executable>
rbdock ($Id: //depot/dev/client3/rdock/2013.1/src/exe/rbdock.cxx#4 $)

>  <Rbt.Library>
libRbt.so (2013.1, Build901 2013/11/27)

>  <Rbt.Parameter_File>
/export/apps/rDock/src/rDock_2013.1_src/data/scripts/dock_solv.prm

>  <Rbt.Receptor>
prm/pocket_docking_2.prm

>  <SCORE>
-3.97663

>  <SCORE.INTER>
-1.95623

>  <SCORE.INTER.CONST>
1

>  <SCORE.INTER.POLAR>
0

>  <SCORE.INTER.ROT>
13

>  <SCORE.INTER.SOLV>
22.8456

>  <SCORE.INTER.VDW>
-21.186

>  <SCORE.INTER.norm>
-0.0425268

>  <SCORE.INTRA>
-2.02039

>  <SCORE.INTRA.DIHEDRAL>
-4.69216

>  <SCORE.INTRA.DIHEDRAL.0>
19.7146

>  <SCORE.INTRA.POLAR>
0

>  <SCORE.INTRA.POLAR.0>
0

>  <SCORE.INTRA.REPUL>
0.00387305

>  <SCORE.INTRA.REPUL.0>
0

>  <SCORE.INTRA.SOLV>
-0.962478

>  <SCORE.INTRA.SOLV.lig_0>
-116.697

>  <SCORE.INTRA.VDW>
0.787559

>  <SCORE.INTRA.VDW.0>
-7.06424

>  <SCORE.INTRA.norm>
-0.0439216

>  <SCORE.RESTR>
0

>  <SCORE.RESTR.CAVITY>
0

>  <SCORE.RESTR.norm>
0

>  <SCORE.SYSTEM>
0

>  <SCORE.SYSTEM.CONST>
0

>  <SCORE.SYSTEM.DIHEDRAL>
0

>  <SCORE.SYSTEM.SOLV>
0

>  <SCORE.SYSTEM.norm>
0

>  <SCORE.heavy>
46

>  <SCORE.norm>
-0.0864484

>  <RMSD>
0.996

$$$$
lig.pdb
 OpenBabel03061811583D
libRbt.so/2013.1/901 2013/11/27
 46 49  0  0  0  0  0  0  0  0999 V2000
   11.0813  -10.7284    5.3833 C   0  0  1  0  0  0  0  0  0  0  0  0
   13.5659  -11.0148    5.7744 C   0  0  1  0  0  0  0  0  0  0  0  0
   13.6614  -12.1983    6.7843 C   0  0  1  0  0  0  0  0  0  0  0  0
   15.0279  -12.0529    7.6294 C   0  0  2  0  0  0  0  0  0  0  0  0
   11.9103  -13.0396    8.4165 C   0  0  2  0  0  0  0  0  0  0  0  0
   10.8062  -12.4945    9.3664 C   0  0  1  0  0  0  0  0  0  0  0  0
   10.0213  -13.7738    9.5287 C   0  0  1  0  0  0  0  0  0  0  0  0
    9.8885  -14.3443    8.0810 C   0  0  1  0  0  0  0  0  0  0  0  0
    8.7459  -13.7480    7.1863 C   0  0  0  0  0  0  0  0  0  0  0  0
   10.1182  -15.8324   10.8838 C   0  0  1  0  0  0  0  0  0  0  0  0
   10.9475  -16.7529   11.7287 C   0  0  1  0  0  0  0  0  0  0  0  0
   10.0091  -11.2942    4.4222 C   0  0  1  0  0  0  0  0  0  0  0  0
   10.0701  -17.9938   12.1219 C   0  0  0  0  0  0  0  0  0  0  0  0
    9.5855  -18.7628   11.0117 C   0  0  0  0  0  0  0  0  0  0  0  0
    8.7491  -17.9145   10.1897 C   0  0  2  0  0  0  0  0  0  0  0  0
    8.1916  -18.7061    8.9417 C   0  0  0  0  0  0  0  0  0  0  0  0
   19.7294  -13.0680    8.7706 C   0  0  2  0  0  0  0  0  0  0  0  0
   18.7330  -12.5448    6.7002 C   0  0  0  0  0  0  0  0  0  0  0  0
   19.9916  -14.3907    8.4679 C   0  0  0  0  0  0  0  0  0  0  0  0
   19.9881  -12.3097    7.6764 C   0  0  1  0  0  0  0  0  0  0  0  0
   10.1406  -10.6441    2.9704 C   0  0  0  0  0  0  0  0  0  0  0  0
    9.9927   -9.0539    3.1179 C   0  0  0  0  0  0  0  0  0  0  0  0
   11.1477   -8.5413    4.0972 C   0  0  1  0  0  0  0  0  0  0  0  0
   11.0833   -7.0245    4.3131 C   0  0  0  0  0  0  0  0  0  0  0  0
   16.2488  -12.1586    6.6149 C   0  0  1  0  0  0  0  0  0  0  0  0
   16.1097  -10.8949    5.6101 C   0  0  0  0  0  0  0  0  0  0  0  0
   14.7645  -11.0019    4.7936 C   0  0  2  0  0  0  0  0  0  0  0  0
   20.5010  -12.6755    9.9283 F   0  0  0  0  0  0  0  0  0  0  0  0
    7.1554  -17.8916    8.1152 N   0  0  0  0  0  0  0  0  0  0  0  0
   10.1533  -12.7967    4.3893 N   0  0  0  0  0  0  0  0  0  0  0  0
   12.0636  -17.2811   11.0737 N   0  0  0  0  0  0  0  0  0  0  0  0
   19.5290  -15.2204    7.4195 N   0  0  0  0  0  0  0  0  0  0  0  0
   12.2353   -6.5577    4.9809 N   0  0  0  0  0  0  0  0  0  0  0  0
   17.5206  -12.0435    7.3509 N   0  0  0  0  0  0  0  0  0  0  0  0
   14.6177   -9.8471    3.8802 N   0  0  0  0  0  0  0  0  0  0  0  0
   12.3912  -11.1314    4.9820 O   0  0  0  0  0  0  0  0  0  0  0  0
   12.4556  -12.1061    7.6734 O   0  0  0  0  0  0  0  0  0  0  0  0
   15.0888  -13.1081    8.5120 O   0  0  0  0  0  0  0  0  0  0  0  0
   11.4185  -12.0477   10.5381 O   0  0  0  0  0  0  0  0  0  0  0  0
   11.2531  -14.1325    7.6824 O   0  0  0  0  0  0  0  0  0  0  0  0
    9.0136  -12.3403    7.0285 O   0  0  0  0  0  0  0  0  0  0  0  0
   10.7934  -14.7203   10.4300 O   0  0  0  0  0  0  0  0  0  0  0  0
   20.1111  -10.9029    7.9799 O   0  0  0  0  0  0  0  0  0  0  0  0
   18.8029  -13.0571    5.5710 O   0  0  0  0  0  0  0  0  0  0  0  0
    9.5170  -16.6921    9.7448 O   0  0  0  0  0  0  0  0  0  0  0  0
   11.0210   -9.2290    5.4466 O   0  0  0  0  0  0  0  0  0  0  0  0
  1 36  1  6  0  0  0
  2 36  1  6  0  0  0
  2  3  1  0  0  0  0
  3 37  1  1  0  0  0
  3  4  1  0  0  0  0
  4 38  1  1  0  0  0
  5 37  1  6  0  0  0
  5  6  1  0  0  0  0
  6  7  1  0  0  0  0
  6 39  1  1  0  0  0
  7 42  1  1  0  0  0
  8  9  1  6  0  0  0
  8  7  1  0  0  0  0
 10 42  1  6  0  0  0
 10 11  1  0  0  0  0
 11 31  1  6  0  0  0
 11 13  1  0  0  0  0
 12 30  1  6  0  0  0
 12  1  1  0  0  0  0
 14 13  1  0  0  0  0
 15 16  1  6  0  0  0
 15 14  1  0  0  0  0
 17 19  1  6  0  0  0
 17 28  1  0  0  0  0
 18 34  1  0  0  0  0
 19 32  1  0  0  0  0
 20 18  1  6  0  0  0
 20 17  1  0  0  0  0
 20 43  1  0  0  0  0
 21 12  1  0  0  0  0
 22 21  1  0  0  0  0
 22 23  1  0  0  0  0
 23 24  1  1  0  0  0
 23 46  1  0  0  0  0
 24 33  1  0  0  0  0
 25 34  1  1  0  0  0
 25  4  1  0  0  0  0
 26 25  1  0  0  0  0
 27 35  1  6  0  0  0
 27 26  1  0  0  0  0
 27  2  1  0  0  0  0
 29 16  1  0  0  0  0
 40  8  1  0  0  0  0
 40  5  1  0  0  0  0
 41  9  1  0  0  0  0
 44 18  2  0  0  0  0
 45 15  1  0  0  0  0
 45 10  1  0  0  0  0
 46  1  1  0  0  0  0
M  END
>  <CHROM.1>
-166.84891741,81.45275284,159.93632451,170.85803938,168.43704113,61.53941021
177.93179952,173.30298908,-53.64203930,63.33269033,76.82251524,-169.66174437
160.26482723,12.99704056,-12.95047669,7.49004031,2.58925888,0.09471559,2.45690141

>  <Name>
lig.pdb

>  <RI>
0

>  <Rbt.Current_Directory>
/home/afrankz/demos/rdock_decoys_rna/rnas/3wru

>  <Rbt.Executable>
rbdock ($Id: //depot/dev/client3/rdock/2013.1/src/exe/rbdock.cxx#4 $)

>  <Rbt.Library>
libRbt.so (2013.1, Build901 2013/11/27)

>  <Rbt.Parameter_File>
/export/apps/rDock/src/rDock_2013.1_src/data/scripts/dock_solv.prm

>  <Rbt.Receptor>
prm/pocket_docking_2.prm

>  <SCORE>
-5.15702

>  <SCORE.INTER>
-1.83557

>  <SCORE.INTER.CONST>
1

>  <SCORE.INTER.POLAR>
0

>  <SCORE.INTER.ROT>
13

>  <SCORE.INTER.SOLV>
22.6242

>  <SCORE.INTER.VDW>
-21.0318

>  <SCORE.INTER.norm>
-0.0399037

>  <SCORE.INTRA>
-3.43494

>  <SCORE.INTRA.DIHEDRAL>
-11.1084

>  <SCORE.INTRA.DIHEDRAL.0>
19.7146

>  <SCORE.INTRA.POLAR>
0

>  <SCORE.INTRA.POLAR.0>
0

>  <SCORE.INTRA.REPUL>
0

>  <SCORE.INTRA.REPUL.0>
0

>  <SCORE.INTRA.SOLV>
3.36899

>  <SCORE.INTRA.SOLV.lig_0>
-116.697

>  <SCORE.INTRA.VDW>
0.43479

>  <SCORE.INTRA.VDW.0>
-7.06424

>  <SCORE.INTRA.norm>
-0.0746725

>  <SCORE.RESTR>
0.113482

>  <SCORE.RESTR.CAVITY>
0.113482

>  <SCORE.RESTR.norm>
0.002467

>  <SCORE.SYSTEM>
0

>  <SCORE.SYSTEM.CONST>
0

>  <SCORE.SYSTEM.DIHEDRAL>
0

>  <SCORE.SYSTEM.SOLV>
0

>  <SCORE.SYSTEM.norm>
0

>  <SCORE.heavy>
46

>  <SCORE.norm>
-0.112109

>  <RMSD>
1.026

$$$$
lig.pdb
 OpenBabel03061811583D
libRbt.so/2013.1/901 2013/11/27
 46 49  0  0  0  0  0  0  0  0999 V2000
   11.0373  -10.7471    5.1354 C   0  0  1  0  0  0  0  0  0  0  0  0
   13.4791  -11.1173    5.6908 C   0  0  1  0  0  0  0  0  0  0  0  0
   13.4244  -12.3194    6.6816 C   0  0  1  0  0  0  0  0  0  0  0  0
   14.7254  -12.2685    7.6344 C   0  0  2  0  0  0  0  0  0  0  0  0
   11.5820  -13.0356    8.2724 C   0  0  2  0  0  0  0  0  0  0  0  0
   10.6075  -12.3741    9.2879 C   0  0  1  0  0  0  0  0  0  0  0  0
    9.7172  -13.5689    9.5302 C   0  0  1  0  0  0  0  0  0  0  0  0
    9.4251  -14.1414    8.1068 C   0  0  1  0  0  0  0  0  0  0  0  0
    8.2831  -13.4478    7.2845 C   0  0  0  0  0  0  0  0  0  0  0  0
    9.6999  -15.5630   10.9818 C   0  0  1  0  0  0  0  0  0  0  0  0
   10.4976  -16.5741   11.7501 C   0  0  1  0  0  0  0  0  0  0  0  0
   10.0218  -11.2871    4.1008 C   0  0  1  0  0  0  0  0  0  0  0  0
    9.5144  -17.6610   12.3125 C   0  0  0  0  0  0  0  0  0  0  0  0
    8.7762  -18.3780   11.3127 C   0  0  0  0  0  0  0  0  0  0  0  0
    7.9644  -17.4366   10.5713 C   0  0  2  0  0  0  0  0  0  0  0  0
    7.1324  -18.1687    9.4457 C   0  0  0  0  0  0  0  0  0  0  0  0
   20.1132  -13.9515    8.1932 C   0  0  2  0  0  0  0  0  0  0  0  0
   18.4952  -12.7939    6.9303 C   0  0  0  0  0  0  0  0  0  0  0  0
   19.1549  -14.6637    8.8893 C   0  0  0  0  0  0  0  0  0  0  0  0
   19.6723  -12.6809    8.0188 C   0  0  1  0  0  0  0  0  0  0  0  0
   10.2445  -10.6108    2.6722 C   0  0  0  0  0  0  0  0  0  0  0  0
   10.0973   -9.0227    2.8410 C   0  0  0  0  0  0  0  0  0  0  0  0
   11.1941   -8.5367    3.8978 C   0  0  1  0  0  0  0  0  0  0  0  0
   11.1258   -7.0238    4.1385 C   0  0  0  0  0  0  0  0  0  0  0  0
   16.0150  -12.4318    6.7174 C   0  0  1  0  0  0  0  0  0  0  0  0
   16.0306  -11.1472    5.7297 C   0  0  0  0  0  0  0  0  0  0  0  0
   14.7508  -11.1613    4.8078 C   0  0  2  0  0  0  0  0  0  0  0  0
   20.4069  -14.6260    6.9489 F   0  0  0  0  0  0  0  0  0  0  0  0
    8.0252  -18.7932    8.3352 N   0  0  0  0  0  0  0  0  0  0  0  0
   10.1587  -12.7897    4.0478 N   0  0  0  0  0  0  0  0  0  0  0  0
   11.4254  -17.2782   10.9775 N   0  0  0  0  0  0  0  0  0  0  0  0
   17.9051  -15.1910    8.4876 N   0  0  0  0  0  0  0  0  0  0  0  0
   12.2411   -6.5768    4.8783 N   0  0  0  0  0  0  0  0  0  0  0  0
   17.2286  -12.4039    7.5533 N   0  0  0  0  0  0  0  0  0  0  0  0
   14.7451   -9.9863    3.9086 N   0  0  0  0  0  0  0  0  0  0  0  0
   12.3666  -11.1517    4.8061 O   0  0  0  0  0  0  0  0  0  0  0  0
   12.1590  -12.1686    7.4746 O   0  0  0  0  0  0  0  0  0  0  0  0
   14.6540  -13.3386    8.4981 O   0  0  0  0  0  0  0  0  0  0  0  0
   11.3435  -11.9748   10.4042 O   0  0  0  0  0  0  0  0  0  0  0  0
   10.7711  -14.0682    7.6080 O   0  0  0  0  0  0  0  0  0  0  0  0
    8.1869  -14.1328    6.0197 O   0  0  0  0  0  0  0  0  0  0  0  0
   10.4582  -14.5750   10.3922 O   0  0  0  0  0  0  0  0  0  0  0  0
   19.1576  -12.0897    9.2319 O   0  0  0  0  0  0  0  0  0  0  0  0
   18.6566  -13.1429    5.7493 O   0  0  0  0  0  0  0  0  0  0  0  0
    8.8305  -16.3532    9.9731 O   0  0  0  0  0  0  0  0  0  0  0  0
   10.9821   -9.2487    5.2237 O   0  0  0  0  0  0  0  0  0  0  0  0
  1 36  1  6  0  0  0
  2 36  1  6  0  0  0
  2  3  1  0  0  0  0
  3 37  1  1  0  0  0
  3  4  1  0  0  0  0
  4 38  1  1  0  0  0
  5 37  1  6  0  0  0
  5  6  1  0  0  0  0
  6  7  1  0  0  0  0
  6 39  1  1  0  0  0
  7 42  1  1  0  0  0
  8  9  1  6  0  0  0
  8  7  1  0  0  0  0
 10 42  1  6  0  0  0
 10 11  1  0  0  0  0
 11 31  1  6  0  0  0
 11 13  1  0  0  0  0
 12 30  1  6  0  0  0
 12  1  1  0  0  0  0
 14 13  1  0  0  0  0
 15 16  1  6  0  0  0
 15 14  1  0  0  0  0
 17 19  1  6  0  0  0
 17 28  1  0  0  0  0
 18 34  1  0  0  0  0
 19 32  1  0  0  0  0
 20 18  1  6  0  0  0
 20 17  1  0  0  0  0
 20 43  1  0  0  0  0
 21 12  1  0  0  0  0
 22 21  1  0  0  0  0
 22 23  1  0  0  0  0
 23 24  1  1  0  0  0
 23 46  1  0  0  0  0
 24 33  1  0  0  0  0
 25 34  1  1  0  0  0
 25  4  1  0  0  0  0
 26 25  1  0  0  0  0
 27 35  1  6  0  0  0
 27 26  1  0  0  0  0
 27  2  1  0  0  0  0
 29 16  1  0  0  0  0
 40  8  1  0  0  0  0
 40  5  1  0  0  0  0
 41  9  1  0  0  0  0
 44 18  2  0  0  0  0
 45 15  1  0  0  0  0
 45 10  1  0  0  0  0
 46  1  1  0  0  0  0
M  END
>  <CHROM.1>
-163.69346379,77.71326334,168.28806469,159.20245382,164.52936536,-179.88336752
176.40785551,-65.34187237,74.67713638,115.37529106,-71.74024443,-169.40161379
168.54156826,12.70041639,-13.09948289,7.42726938,0.58751069,-0.04117940,-0.71339253

>  <Name>
lig.pdb

>  <RI>
0

>  <Rbt.Current_Directory>
/home/afrankz/demos/rdock_decoys_rna/rnas/3wru

>  <Rbt.Executable>
rbdock ($Id: //depot/dev/client3/rdock/2013.1/src/exe/rbdock.cxx#4 $)

>  <Rbt.Library>
libRbt.so (2013.1, Build901 2013/11/27)

>  <Rbt.Parameter_File>
/export/apps/rDock/src/rDock_2013.1_src/data/scripts/dock_solv.prm

>  <Rbt.Receptor>
prm/pocket_docking_2.prm

>  <SCORE>
-0.949301

>  <SCORE.INTER>
-2.30232

>  <SCORE.INTER.CONST>
1

>  <SCORE.INTER.POLAR>
0

>  <SCORE.INTER.ROT>
13

>  <SCORE.INTER.SOLV>
21.6221

>  <SCORE.INTER.VDW>
-21.0089

>  <SCORE.INTER.norm>
-0.0500505

>  <SCORE.INTRA>
1.3471

>  <SCORE.INTRA.DIHEDRAL>
-8.83118

>  <SCORE.INTRA.DIHEDRAL.0>
19.7146

>  <SCORE.INTRA.POLAR>
0

>  <SCORE.INTRA.POLAR.0>
0

>  <SCORE.INTRA.REPUL>
0

>  <SCORE.INTRA.REPUL.0>
0

>  <SCORE.INTRA.SOLV>
4.35168

>  <SCORE.INTRA.SOLV.lig_0>
-116.697

>  <SCORE.INTRA.VDW>
3.58685

>  <SCORE.INTRA.VDW.0>
-7.06424

>  <SCORE.INTRA.norm>
0.0292848

>  <SCORE.RESTR>
0.0059199

>  <SCORE.RESTR.CAVITY>
0.0059199

>  <SCORE.RESTR.norm>
0.000128694

>  <SCORE.SYSTEM>
0

>  <SCORE.SYSTEM.CONST>
0

>  <SCORE.SYSTEM.DIHEDRAL>
0

>  <SCORE.SYSTEM.SOLV>
0

>  <SCORE.SYSTEM.norm>
0

>  <SCORE.heavy>
46

>  <SCORE.norm>
-0.020637

>  <RMSD>
1.121

$$$$
lig.pdb
 OpenBabel03061811583D
libRbt.so/2013.1/901 2013/11/27
 46 49  0  0  0  0  0  0  0  0999 V2000
   10.6924  -10.8879    4.8782 C   0  0  1  0  0  0  0  0  0  0  0  0
   13.0234  -11.3245    5.7636 C   0  0  1  0  0  0  0  0  0  0  0  0
   12.8360  -12.6004    6.6393 C   0  0  1  0  0  0  0  0  0  0  0  0
   13.9813  -12.6250    7.7754 C   0  0  2  0  0  0  0  0  0  0  0  0
   10.8068  -13.4211    7.9225 C   0  0  2  0  0  0  0  0  0  0  0  0
    9.6327  -12.8304    8.7538 C   0  0  1  0  0  0  0  0  0  0  0  0
    8.7823  -14.0756    8.8266 C   0  0  1  0  0  0  0  0  0  0  0  0
    8.7788  -14.6395    7.3702 C   0  0  1  0  0  0  0  0  0  0  0  0
    7.7625  -13.9953    6.3633 C   0  0  0  0  0  0  0  0  0  0  0  0
    8.6489  -16.1354   10.1769 C   0  0  1  0  0  0  0  0  0  0  0  0
    9.2491  -16.9606   11.2758 C   0  0  1  0  0  0  0  0  0  0  0  0
    9.8336  -11.3740    3.6868 C   0  0  1  0  0  0  0  0  0  0  0  0
    8.3010  -18.1796   11.5578 C   0  0  0  0  0  0  0  0  0  0  0  0
    8.0968  -19.0533   10.4381 C   0  0  0  0  0  0  0  0  0  0  0  0
    7.4840  -18.2980    9.3662 C   0  0  2  0  0  0  0  0  0  0  0  0
    7.2421  -19.2079    8.0979 C   0  0  0  0  0  0  0  0  0  0  0  0
   19.9074  -13.8593    8.4627 C   0  0  2  0  0  0  0  0  0  0  0  0
   17.7446  -13.3646    7.6686 C   0  0  0  0  0  0  0  0  0  0  0  0
   20.9320  -13.5464    9.3359 C   0  0  0  0  0  0  0  0  0  0  0  0
   18.7617  -13.2882    8.9107 C   0  0  1  0  0  0  0  0  0  0  0  0
   10.2591  -10.6381    2.3358 C   0  0  0  0  0  0  0  0  0  0  0  0
   10.0925   -9.0577    2.5520 C   0  0  0  0  0  0  0  0  0  0  0  0
   11.0285   -8.6272    3.7745 C   0  0  1  0  0  0  0  0  0  0  0  0
   10.9295   -7.1257    4.0697 C   0  0  0  0  0  0  0  0  0  0  0  0
   15.3940  -12.7171    7.0497 C   0  0  1  0  0  0  0  0  0  0  0  0
   15.5413  -11.3592    6.1777 C   0  0  0  0  0  0  0  0  0  0  0  0
   14.4120  -11.3004    5.0780 C   0  0  2  0  0  0  0  0  0  0  0  0
   19.8102  -15.2951    8.3270 F   0  0  0  0  0  0  0  0  0  0  0  0
    6.4674  -18.4792    6.9625 N   0  0  0  0  0  0  0  0  0  0  0  0
    9.9738  -12.8740    3.5874 N   0  0  0  0  0  0  0  0  0  0  0  0
   10.4893  -17.5216   10.9582 N   0  0  0  0  0  0  0  0  0  0  0  0
   22.2878  -13.9485    9.3703 N   0  0  0  0  0  0  0  0  0  0  0  0
   12.0489   -6.6779    4.8028 N   0  0  0  0  0  0  0  0  0  0  0  0
   16.4703  -12.7555    8.0558 N   0  0  0  0  0  0  0  0  0  0  0  0
   14.5265  -10.0586    4.2815 N   0  0  0  0  0  0  0  0  0  0  0  0
   12.0543  -11.2888    4.7239 O   0  0  0  0  0  0  0  0  0  0  0  0
   11.4657  -12.5110    7.2453 O   0  0  0  0  0  0  0  0  0  0  0  0
   13.7946  -13.7592    8.5335 O   0  0  0  0  0  0  0  0  0  0  0  0
   10.1365  -12.4102    9.9854 O   0  0  0  0  0  0  0  0  0  0  0  0
   10.1853  -14.4851    7.1182 O   0  0  0  0  0  0  0  0  0  0  0  0
    6.4390  -14.2052    6.8948 O   0  0  0  0  0  0  0  0  0  0  0  0
    9.4151  -15.0541    9.7994 O   0  0  0  0  0  0  0  0  0  0  0  0
   18.1941  -13.9760   10.0470 O   0  0  0  0  0  0  0  0  0  0  0  0
   18.0193  -13.8520    6.5598 O   0  0  0  0  0  0  0  0  0  0  0  0
    8.3383  -17.1043    9.0096 O   0  0  0  0  0  0  0  0  0  0  0  0
   10.6282   -9.3945    5.0240 O   0  0  0  0  0  0  0  0  0  0  0  0
  1 36  1  6  0  0  0
  2 36  1  6  0  0  0
  2  3  1  0  0  0  0
  3 37  1  1  0  0  0
  3  4  1  0  0  0  0
  4 38  1  1  0  0  0
  5 37  1  6  0  0  0
  5  6  1  0  0  0  0
  6  7  1  0  0  0  0
  6 39  1  1  0  0  0
  7 42  1  1  0  0  0
  8  9  1  6  0  0  0
  8  7  1  0  0  0  0
 10 42  1  6  0  0  0
 10 11  1  0  0  0  0
 11 31  1  6  0  0  0
 11 13  1  0  0  0  0
 12 30  1  6  0  0  0
 12  1  1  0  0  0  0
 14 13  1  0  0  0  0
 15 16  1  6  0  0  0
 15 14  1  0  0  0  0
 17 19  1  1  0  0  0
 17 28  1  0  0  0  0
 18 34  1  0  0  0  0
 19 32  1  0  0  0  0
 20 18  1  6  0  0  0
 20 17  1  0  0  0  0
 20 43  1  0  0  0  0
 21 12  1  0  0  0  0
 22 21  1  0  0  0  0
 22 23  1  0  0  0  0
 23 24  1  1  0  0  0
 23 46  1  0  0  0  0
 24 33  1  0  0  0  0
 25 34  1  1  0  0  0
 25  4  1  0  0  0  0
 26 25  1  0  0  0  0
 27 35  1  1  0  0  0
 27 26  1  0  0  0  0
 27  2  1  0  0  0  0
 29 16  1  0  0  0  0
 40  8  1  0  0  0  0
 40  5  1  0  0  0  0
 41  9  1  0  0  0  0
 44 18  2  0  0  0  0
 45 15  1  0  0  0  0
 45 10  1  0  0  0  0
 46  1  1  0  0  0  0
M  END
>  <CHROM.1>
-162.52335261,78.86793019,171.10713267,161.99751742,168.29080034,-60.14919536
-172.04005585,174.73801637,175.93801275,-179.50610242,165.36476327,-159.90429891
155.83365826,12.22384796,-13.41538664,7.31389306,2.84573794,0.14039602,2.47565933

>  <Name>
lig.pdb

>  <RI>
0

>  <Rbt.Current_Directory>
/home/afrankz/demos/rdock_decoys_rna/rnas/3wru

>  <Rbt.Executable>
rbdock ($Id: //depot/dev/client3/rdock/2013.1/src/exe/rbdock.cxx#4 $)

>  <Rbt.Library>
libRbt.so (2013.1, Build901 2013/11/27)

>  <Rbt.Parameter_File>
/export/apps/rDock/src/rDock_2013.1_src/data/scripts/dock_solv.prm

>  <Rbt.Receptor>
prm/pocket_docking_2.prm

>  <SCORE>
-7.57922

>  <SCORE.INTER>
-2.38365

>  <SCORE.INTER.CONST>
1

>  <SCORE.INTER.POLAR>
0

>  <SCORE.INTER.ROT>
13

>  <SCORE.INTER.SOLV>
21.2662

>  <SCORE.INTER.VDW>
-20.9445

>  <SCORE.INTER.norm>
-0.0518185

>  <SCORE.INTRA>
-5.19766

>  <SCORE.INTRA.DIHEDRAL>
-10.2582

>  <SCORE.INTRA.DIHEDRAL.0>
19.7146

>  <SCORE.INTRA.POLAR>
0

>  <SCORE.INTRA.POLAR.0>
0

>  <SCORE.INTRA.REPUL>
0

>  <SCORE.INTRA.REPUL.0>
0

>  <SCORE.INTRA.SOLV>
-2.24254

>  <SCORE.INTRA.SOLV.lig_0>
-116.697

>  <SCORE.INTRA.VDW>
1.05272

>  <SCORE.INTRA.VDW.0>
-7.06424

>  <SCORE.INTRA.norm>
-0.112993

>  <SCORE.RESTR>
0.00209538

>  <SCORE.RESTR.CAVITY>
0.00209538

>  <SCORE.RESTR.norm>
4.55517e-05

>  <SCORE.SYSTEM>
0

>  <SCORE.SYSTEM.CONST>
0

>  <SCORE.SYSTEM.DIHEDRAL>
0

>  <SCORE.SYSTEM.SOLV>
0

>  <SCORE.SYSTEM.norm>
0

>  <SCORE.heavy>
46

>  <SCORE.norm>
-0.164766

>  <RMSD>
1.269

$$$$
lig.pdb
 OpenBabel03061811583D
libRbt.so/2013.1/901 2013/11/27
 46 49  0  0  0  0  0  0  0  0999 V2000
   10.8606  -10.6787    5.0282 C   0  0  1  0  0  0  0  0  0  0  0  0
   13.2765  -11.1883    5.5863 C   0  0  1  0  0  0  0  0  0  0  0  0
   13.1592  -12.4541    6.4883 C   0  0  1  0  0  0  0  0  0  0  0  0
   14.4466  -12.5235    7.4583 C   0  0  2  0  0  0  0  0  0  0  0  0
   11.3592  -13.1397    8.1400 C   0  0  2  0  0  0  0  0  0  0  0  0
   10.4641  -12.4310    9.1960 C   0  0  1  0  0  0  0  0  0  0  0  0
    9.5800  -13.6052    9.5407 C   0  0  1  0  0  0  0  0  0  0  0  0
    9.1845  -14.2225    8.1618 C   0  0  1  0  0  0  0  0  0  0  0  0
    7.9958  -13.5428    7.3957 C   0  0  0  0  0  0  0  0  0  0  0  0
    9.6582  -15.6259   10.9528 C   0  0  1  0  0  0  0  0  0  0  0  0
   10.4830  -16.5396   11.8095 C   0  0  1  0  0  0  0  0  0  0  0  0
    9.8602  -10.9987    3.8923 C   0  0  1  0  0  0  0  0  0  0  0  0
    9.5603  -17.6945   12.3378 C   0  0  0  0  0  0  0  0  0  0  0  0
    8.9631  -18.5024   11.3135 C   0  0  0  0  0  0  0  0  0  0  0  0
    8.1284  -17.6587   10.4850 C   0  0  2  0  0  0  0  0  0  0  0  0
    7.4485  -18.4935    9.3293 C   0  0  0  0  0  0  0  0  0  0  0  0
   19.3456  -12.0493    8.3818 C   0  0  2  0  0  0  0  0  0  0  0  0
   18.1509  -13.3475    6.8197 C   0  0  0  0  0  0  0  0  0  0  0  0
   20.4205  -11.9052    9.2385 C   0  0  0  0  0  0  0  0  0  0  0  0
   19.3253  -13.3231    7.9166 C   0  0  1  0  0  0  0  0  0  0  0  0
   10.1818  -10.1392    2.5864 C   0  0  0  0  0  0  0  0  0  0  0  0
   10.1195   -8.5858    2.9808 C   0  0  0  0  0  0  0  0  0  0  0  0
   11.1969   -8.3275    4.1333 C   0  0  1  0  0  0  0  0  0  0  0  0
   11.2058   -6.8638    4.5904 C   0  0  0  0  0  0  0  0  0  0  0  0
   15.7425  -12.6741    6.5479 C   0  0  1  0  0  0  0  0  0  0  0  0
   15.8240  -11.3246    5.6543 C   0  0  0  0  0  0  0  0  0  0  0  0
   14.5587  -11.2216    4.7181 C   0  0  2  0  0  0  0  0  0  0  0  0
   19.4312  -11.0622    7.3293 F   0  0  0  0  0  0  0  0  0  0  0  0
    6.4803  -19.5909    9.8571 N   0  0  0  0  0  0  0  0  0  0  0  0
    9.9124  -12.4837    3.6246 N   0  0  0  0  0  0  0  0  0  0  0  0
   11.5231  -17.1785   11.1286 N   0  0  0  0  0  0  0  0  0  0  0  0
   21.8143  -11.9978    9.0151 N   0  0  0  0  0  0  0  0  0  0  0  0
   11.6660   -6.0139    3.5623 N   0  0  0  0  0  0  0  0  0  0  0  0
   16.9434  -12.7546    7.3985 N   0  0  0  0  0  0  0  0  0  0  0  0
   14.6133   -9.9868    3.9047 N   0  0  0  0  0  0  0  0  0  0  0  0
   12.1771  -11.1148    4.6878 O   0  0  0  0  0  0  0  0  0  0  0  0
   11.8889  -12.3082    7.2744 O   0  0  0  0  0  0  0  0  0  0  0  0
   14.3197  -13.6480    8.2427 O   0  0  0  0  0  0  0  0  0  0  0  0
   11.2795  -12.0031   10.2444 O   0  0  0  0  0  0  0  0  0  0  0  0
   10.4935  -14.1840    7.5696 O   0  0  0  0  0  0  0  0  0  0  0  0
    8.3403  -12.1552    7.2117 O   0  0  0  0  0  0  0  0  0  0  0  0
   10.3681  -14.5905   10.3848 O   0  0  0  0  0  0  0  0  0  0  0  0
   20.5713  -13.7208    7.3037 O   0  0  0  0  0  0  0  0  0  0  0  0
   18.2721  -13.7886    5.6650 O   0  0  0  0  0  0  0  0  0  0  0  0
    8.9376  -16.5187    9.9129 O   0  0  0  0  0  0  0  0  0  0  0  0
   10.8883   -9.2083    5.3329 O   0  0  0  0  0  0  0  0  0  0  0  0
  1 36  1  6  0  0  0
  2 36  1  6  0  0  0
  2  3  1  0  0  0  0
  3 37  1  1  0  0  0
  3  4  1  0  0  0  0
  4 38  1  1  0  0  0
  5 37  1  6  0  0  0
  5  6  1  0  0  0  0
  6  7  1  0  0  0  0
  6 39  1  1  0  0  0
  7 42  1  1  0  0  0
  8  9  1  6  0  0  0
  8  7  1  0  0  0  0
 10 42  1  6  0  0  0
 10 11  1  0  0  0  0
 11 31  1  6  0  0  0
 11 13  1  0  0  0  0
 12 30  1  6  0  0  0
 12  1  1  0  0  0  0
 14 13  1  0  0  0  0
 15 16  1  6  0  0  0
 15 14  1  0  0  0  0
 17 19  1  1  0  0  0
 17 28  1  0  0  0  0
 18 34  1  0  0  0  0
 19 32  1  0  0  0  0
 20 18  1  6  0  0  0
 20 17  1  0  0  0  0
 20 43  1  0  0  0  0
 21 12  1  0  0  0  0
 22 21  1  0  0  0  0
 22 23  1  0  0  0  0
 23 24  1  1  0  0  0
 23 46  1  0  0  0  0
 24 33  1  0  0  0  0
 25 34  1  1  0  0  0
 25  4  1  0  0  0  0
 26 25  1  0  0  0  0
 27 35  1  1  0  0  0
 27 26  1  0  0  0  0
 27  2  1  0  0  0  0
 29 16  1  0  0  0  0
 40  8  1  0  0  0  0
 40  5  1  0  0  0  0
 41  9  1  0  0  0  0
 44 18  2  0  0  0  0
 45 15  1  0  0  0  0
 45 10  1  0  0  0  0
 46  1  1  0  0  0  0
M  END
>  <CHROM.1>
-168.41764634,77.82059180,178.34385432,153.43593992,170.73708741,57.06227565
-178.14846639,63.17838291,63.74065016,-49.88132308,-174.08086614,-66.71086397
159.21679054,12.65466407,-12.88900456,7.40319906,0.60587941,-0.08054982,-0.71484085

>  <Name>
lig.pdb

>  <RI>
0

>  <Rbt.Current_Directory>
/home/afrankz/demos/rdock_decoys_rna/rnas/3wru

>  <Rbt.Executable>
rbdock ($Id: //depot/dev/client3/rdock/2013.1/src/exe/rbdock.cxx#4 $)

>  <Rbt.Library>
libRbt.so (2013.1, Build901 2013/11/27)

>  <Rbt.Parameter_File>
/export/apps/rDock/src/rDock_2013.1_src/data/scripts/dock_solv.prm

>  <Rbt.Receptor>
prm/pocket_docking_2.prm

>  <SCORE>
-6.90348

>  <SCORE.INTER>
-3.80571

>  <SCORE.INTER.CONST>
1

>  <SCORE.INTER.POLAR>
0

>  <SCORE.INTER.ROT>
13

>  <SCORE.INTER.SOLV>
19.9511

>  <SCORE.INTER.VDW>
-21.4542

>  <SCORE.INTER.norm>
-0.0827329

>  <SCORE.INTRA>
-3.83205

>  <SCORE.INTRA.DIHEDRAL>
-12.3612

>  <SCORE.INTRA.DIHEDRAL.0>
19.7146

>  <SCORE.INTRA.POLAR>
0

>  <SCORE.INTRA.POLAR.0>
0

>  <SCORE.INTRA.REPUL>
0

>  <SCORE.INTRA.REPUL.0>
0

>  <SCORE.INTRA.SOLV>
-0.558363

>  <SCORE.INTRA.SOLV.lig_0>
-116.697

>  <SCORE.INTRA.VDW>
2.62773

>  <SCORE.INTRA.VDW.0>
-7.06424

>  <SCORE.INTRA.norm>
-0.0833055

>  <SCORE.RESTR>
0.734292

>  <SCORE.RESTR.CAVITY>
0.734292

>  <SCORE.RESTR.norm>
0.0159629

>  <SCORE.SYSTEM>
0

>  <SCORE.SYSTEM.CONST>
0

>  <SCORE.SYSTEM.DIHEDRAL>
0

>  <SCORE.SYSTEM.SOLV>
0

>  <SCORE.SYSTEM.norm>
0

>  <SCORE.heavy>
46

>  <SCORE.norm>
-0.150076

>  <RMSD>
1.377

$$$$
lig.pdb
 OpenBabel03061811583D
libRbt.so/2013.1/901 2013/11/27
 46 49  0  0  0  0  0  0  0  0999 V2000
   10.8333  -10.8339    4.9486 C   0  0  1  0  0  0  0  0  0  0  0  0
   13.1882  -11.2275    5.7897 C   0  0  1  0  0  0  0  0  0  0  0  0
   13.0457  -12.5291    6.6353 C   0  0  1  0  0  0  0  0  0  0  0  0
   14.2074  -12.5527    7.7546 C   0  0  2  0  0  0  0  0  0  0  0  0
   11.1522  -13.3226    8.1263 C   0  0  2  0  0  0  0  0  0  0  0  0
   10.8900  -12.6737    9.5152 C   0  0  1  0  0  0  0  0  0  0  0  0
    9.7793  -13.5909    9.9668 C   0  0  1  0  0  0  0  0  0  0  0  0
    8.8303  -13.7033    8.7316 C   0  0  1  0  0  0  0  0  0  0  0  0
    7.7966  -12.5414    8.5240 C   0  0  0  0  0  0  0  0  0  0  0  0
    9.4741  -15.9524   10.6103 C   0  0  1  0  0  0  0  0  0  0  0  0
   10.0626  -17.1061   11.3662 C   0  0  1  0  0  0  0  0  0  0  0  0
    9.9923  -11.2056    3.7045 C   0  0  1  0  0  0  0  0  0  0  0  0
    8.9514  -18.1995   11.5506 C   0  0  0  0  0  0  0  0  0  0  0  0
    8.4177  -18.7257   10.3271 C   0  0  0  0  0  0  0  0  0  0  0  0
    7.8076  -17.6437    9.5840 C   0  0  2  0  0  0  0  0  0  0  0  0
    7.2080  -18.1618    8.2176 C   0  0  0  0  0  0  0  0  0  0  0  0
   19.7032  -13.5091    8.5938 C   0  0  2  0  0  0  0  0  0  0  0  0
   17.4149  -13.8925    8.1823 C   0  0  0  0  0  0  0  0  0  0  0  0
   19.9625  -12.1538    8.5148 C   0  0  0  0  0  0  0  0  0  0  0  0
   18.5574  -13.6946    9.2952 C   0  0  1  0  0  0  0  0  0  0  0  0
   10.4128  -10.3218    2.4436 C   0  0  0  0  0  0  0  0  0  0  0  0
   10.2143   -8.7768    2.8257 C   0  0  0  0  0  0  0  0  0  0  0  0
   11.1332   -8.4623    4.0955 C   0  0  1  0  0  0  0  0  0  0  0  0
   11.0032   -7.0030    4.5484 C   0  0  0  0  0  0  0  0  0  0  0  0
   15.6114  -12.5904    7.0075 C   0  0  1  0  0  0  0  0  0  0  0  0
   15.7119  -11.2079    6.1682 C   0  0  0  0  0  0  0  0  0  0  0  0
   14.5658  -11.1506    5.0860 C   0  0  2  0  0  0  0  0  0  0  0  0
   20.8406  -14.1851    9.1760 F   0  0  0  0  0  0  0  0  0  0  0  0
    6.0454  -19.1780    8.4072 N   0  0  0  0  0  0  0  0  0  0  0  0
   10.1621  -12.6835    3.4469 N   0  0  0  0  0  0  0  0  0  0  0  0
   11.1101  -17.7508   10.7024 N   0  0  0  0  0  0  0  0  0  0  0  0
   21.0593  -11.4406    7.9767 N   0  0  0  0  0  0  0  0  0  0  0  0
   11.4709   -6.1192    3.5528 N   0  0  0  0  0  0  0  0  0  0  0  0
   16.7027  -12.6263    7.9976 N   0  0  0  0  0  0  0  0  0  0  0  0
   14.6374   -9.8869    4.3196 N   0  0  0  0  0  0  0  0  0  0  0  0
   12.2037  -11.1907    4.7646 O   0  0  0  0  0  0  0  0  0  0  0  0
   11.6824  -12.4900    7.2622 O   0  0  0  0  0  0  0  0  0  0  0  0
   14.0604  -13.7098    8.4864 O   0  0  0  0  0  0  0  0  0  0  0  0
   12.0575  -12.7746   10.2728 O   0  0  0  0  0  0  0  0  0  0  0  0
    9.8533  -13.8964    7.7406 O   0  0  0  0  0  0  0  0  0  0  0  0
    6.8937  -12.9510    7.4775 O   0  0  0  0  0  0  0  0  0  0  0  0
   10.3682  -14.9395   10.3392 O   0  0  0  0  0  0  0  0  0  0  0  0
   18.6032  -14.8534   10.1563 O   0  0  0  0  0  0  0  0  0  0  0  0
   17.1966  -14.9538    7.5751 O   0  0  0  0  0  0  0  0  0  0  0  0
    8.8117  -16.5418    9.3407 O   0  0  0  0  0  0  0  0  0  0  0  0
   10.7392   -9.3659    5.2524 O   0  0  0  0  0  0  0  0  0  0  0  0
  1 36  1  6  0  0  0
  2 36  1  6  0  0  0
  2  3  1  0  0  0  0
  3 37  1  1  0  0  0
  3  4  1  0  0  0  0
  4 38  1  1  0  0  0
  5 37  1  6  0  0  0
  5  6  1  0  0  0  0
  6  7  1  0  0  0  0
  6 39  1  1  0  0  0
  7 42  1  6  0  0  0
  8  9  1  6  0  0  0
  8  7  1  0  0  0  0
 10 42  1  6  0  0  0
 10 11  1  0  0  0  0
 11 31  1  6  0  0  0
 11 13  1  0  0  0  0
 12 30  1  6  0  0  0
 12  1  1  0  0  0  0
 14 13  1  0  0  0  0
 15 16  1  6  0  0  0
 15 14  1  0  0  0  0
 17 19  1  1  0  0  0
 17 28  1  0  0  0  0
 18 34  1  0  0  0  0
 19 32  1  0  0  0  0
 20 18  1  6  0  0  0
 20 17  1  0  0  0  0
 20 43  1  0  0  0  0
 21 12  1  0  0  0  0
 22 21  1  0  0  0  0
 22 23  1  0  0  0  0
 23 24  1  1  0  0  0
 23 46  1  0  0  0  0
 24 33  1  0  0  0  0
 25 34  1  1  0  0  0
 25  4  1  0  0  0  0
 26 25  1  0  0  0  0
 27 35  1  1  0  0  0
 27 26  1  0  0  0  0
 27  2  1  0  0  0  0
 29 16  1  0  0  0  0
 40  8  1  0  0  0  0
 40  5  1  0  0  0  0
 41  9  1  0  0  0  0
 44 18  2  0  0  0  0
 45 15  1  0  0  0  0
 45 10  1  0  0  0  0
 46  1  1  0  0  0  0
M  END
>  <CHROM.1>
-167.24393617,78.61074447,-174.92988028,113.99647411,-171.90567510,-170.74742106
-162.05679140,63.97353797,175.37654293,-98.98995596,98.23159633,-63.90277504
106.23282533,12.44038223,-13.15402434,7.55360777,2.70573965,0.12504250,2.46092811

>  <Name>
lig.pdb

>  <RI>
0

>  <Rbt.Current_Directory>
/home/afrankz/demos/rdock_decoys_rna/rnas/3wru

>  <Rbt.Executable>
rbdock ($Id: //depot/dev/client3/rdock/2013.1/src/exe/rbdock.cxx#4 $)

>  <Rbt.Library>
libRbt.so (2013.1, Build901 2013/11/27)

>  <Rbt.Parameter_File>
/export/apps/rDock/src/rDock_2013.1_src/data/scripts/dock_solv.prm

>  <Rbt.Receptor>
prm/pocket_docking_2.prm

>  <SCORE>
-2.9741

>  <SCORE.INTER>
-2.62509

>  <SCORE.INTER.CONST>
1

>  <SCORE.INTER.POLAR>
0

>  <SCORE.INTER.ROT>
13

>  <SCORE.INTER.SOLV>
23.6873

>  <SCORE.INTER.VDW>
-21.9125

>  <SCORE.INTER.norm>
-0.0570671

>  <SCORE.INTRA>
-1.09246

>  <SCORE.INTRA.DIHEDRAL>
-1.39808

>  <SCORE.INTRA.DIHEDRAL.0>
19.7146

>  <SCORE.INTRA.POLAR>
0

>  <SCORE.INTRA.POLAR.0>
0

>  <SCORE.INTRA.REPUL>
0.00848501

>  <SCORE.INTRA.REPUL.0>
0

>  <SCORE.INTRA.SOLV>
-2.8832

>  <SCORE.INTRA.SOLV.lig_0>
-116.697

>  <SCORE.INTRA.VDW>
1.00575

>  <SCORE.INTRA.VDW.0>
-7.06424

>  <SCORE.INTRA.norm>
-0.0237491

>  <SCORE.RESTR>
0.743449

>  <SCORE.RESTR.CAVITY>
0.743449

>  <SCORE.RESTR.norm>
0.0161619

>  <SCORE.SYSTEM>
0

>  <SCORE.SYSTEM.CONST>
0

>  <SCORE.SYSTEM.DIHEDRAL>
0

>  <SCORE.SYSTEM.SOLV>
0

>  <SCORE.SYSTEM.norm>
0

>  <SCORE.heavy>
46

>  <SCORE.norm>
-0.0646543

>  <RMSD>
1.380

$$$$
lig.pdb
 OpenBabel03061811583D
libRbt.so/2013.1/901 2013/11/27
 46 49  0  0  0  0  0  0  0  0999 V2000
   10.4335  -10.9065    4.7573 C   0  0  1  0  0  0  0  0  0  0  0  0
   12.7651  -11.3512    5.6370 C   0  0  1  0  0  0  0  0  0  0  0  0
   12.6538  -12.6190    6.5370 C   0  0  1  0  0  0  0  0  0  0  0  0
   13.8218  -12.5724    7.6490 C   0  0  2  0  0  0  0  0  0  0  0  0
   10.8092  -13.3444    8.1211 C   0  0  2  0  0  0  0  0  0  0  0  0
   10.5687  -12.5789    9.4533 C   0  0  1  0  0  0  0  0  0  0  0  0
    9.4952  -13.4774   10.0185 C   0  0  1  0  0  0  0  0  0  0  0  0
    8.5157  -13.7232    8.8272 C   0  0  1  0  0  0  0  0  0  0  0  0
    7.4466  -12.6095    8.5472 C   0  0  0  0  0  0  0  0  0  0  0  0
    9.2966  -15.6795   11.1116 C   0  0  1  0  0  0  0  0  0  0  0  0
   10.0140  -16.7998   11.8037 C   0  0  1  0  0  0  0  0  0  0  0  0
    9.6058  -11.2066    3.4853 C   0  0  1  0  0  0  0  0  0  0  0  0
    8.9449  -17.7773   12.4086 C   0  0  0  0  0  0  0  0  0  0  0  0
    8.0628  -18.3726   11.4462 C   0  0  0  0  0  0  0  0  0  0  0  0
    7.3246  -17.3205   10.7804 C   0  0  2  0  0  0  0  0  0  0  0  0
    6.3397  -17.9161    9.6987 C   0  0  0  0  0  0  0  0  0  0  0  0
   19.7661  -12.8198    8.1578 C   0  0  2  0  0  0  0  0  0  0  0  0
   17.5437  -13.3215    7.5561 C   0  0  0  0  0  0  0  0  0  0  0  0
   20.6457  -12.3561    9.1177 C   0  0  0  0  0  0  0  0  0  0  0  0
   18.5948  -13.1451    8.7591 C   0  0  1  0  0  0  0  0  0  0  0  0
   10.1402  -10.3615    2.2411 C   0  0  0  0  0  0  0  0  0  0  0  0
   10.0594   -8.8053    2.6205 C   0  0  0  0  0  0  0  0  0  0  0  0
   10.9593   -8.5686    3.9206 C   0  0  1  0  0  0  0  0  0  0  0  0
   10.9373   -7.1035    4.3726 C   0  0  0  0  0  0  0  0  0  0  0  0
   15.2222  -12.6131    6.8953 C   0  0  1  0  0  0  0  0  0  0  0  0
   15.2899  -11.2651    5.9985 C   0  0  0  0  0  0  0  0  0  0  0  0
   14.1370  -11.2761    4.9220 C   0  0  2  0  0  0  0  0  0  0  0  0
   20.3659  -13.9268    7.4476 F   0  0  0  0  0  0  0  0  0  0  0  0
    7.0762  -18.6406    8.5355 N   0  0  0  0  0  0  0  0  0  0  0  0
    9.6594  -12.6936    3.2297 N   0  0  0  0  0  0  0  0  0  0  0  0
   10.7984  -17.5873   10.9563 N   0  0  0  0  0  0  0  0  0  0  0  0
   21.9176  -11.7468    9.0054 N   0  0  0  0  0  0  0  0  0  0  0  0
   11.5012   -6.2612    3.3910 N   0  0  0  0  0  0  0  0  0  0  0  0
   16.3194  -12.5856    7.8790 N   0  0  0  0  0  0  0  0  0  0  0  0
   14.1787  -10.0444    4.1033 N   0  0  0  0  0  0  0  0  0  0  0  0
   11.7745  -11.3771    4.6175 O   0  0  0  0  0  0  0  0  0  0  0  0
   11.2934  -12.5812    7.1702 O   0  0  0  0  0  0  0  0  0  0  0  0
   13.7024  -13.7007    8.4292 O   0  0  0  0  0  0  0  0  0  0  0  0
   11.7589  -12.5835   10.1817 O   0  0  0  0  0  0  0  0  0  0  0  0
    9.5155  -13.9811    7.8274 O   0  0  0  0  0  0  0  0  0  0  0  0
    6.6783  -13.0291    7.4019 O   0  0  0  0  0  0  0  0  0  0  0  0
   10.1291  -14.7726   10.4926 O   0  0  0  0  0  0  0  0  0  0  0  0
   18.6717  -14.3698    9.5210 O   0  0  0  0  0  0  0  0  0  0  0  0
   17.7598  -13.9695    6.5188 O   0  0  0  0  0  0  0  0  0  0  0  0
    8.2750  -16.3315   10.1477 O   0  0  0  0  0  0  0  0  0  0  0  0
   10.4529   -9.4358    5.0615 O   0  0  0  0  0  0  0  0  0  0  0  0
  1 36  1  6  0  0  0
  2 36  1  6  0  0  0
  2  3  1  0  0  0  0
  3 37  1  1  0  0  0
  3  4  1  0  0  0  0
  4 38  1  1  0  0  0
  5 37  1  6  0  0  0
  5  6  1  0  0  0  0
  6  7  1  0  0  0  0
  6 39  1  1  0  0  0
  7 42  1  6  0  0  0
  8  9  1  6  0  0  0
  8  7  1  0  0  0  0
 10 42  1  6  0  0  0
 10 11  1  0  0  0  0
 11 31  1  6  0  0  0
 11 13  1  0  0  0  0
 12 30  1  6  0  0  0
 12  1  1  0  0  0  0
 14 13  1  0  0  0  0
 15 16  1  6  0  0  0
 15 14  1  0  0  0  0
 17 19  1  1  0  0  0
 17 28  1  0  0  0  0
 18 34  1  0  0  0  0
 19 32  1  0  0  0  0
 20 18  1  6  0  0  0
 20 17  1  0  0  0  0
 20 43  1  0  0  0  0
 21 12  1  0  0  0  0
 22 21  1  0  0  0  0
 22 23  1  0  0  0  0
 23 24  1  1  0  0  0
 23 46  1  0  0  0  0
 24 33  1  0  0  0  0
 25 34  1  1  0  0  0
 25  4  1  0  0  0  0
 26 25  1  0  0  0  0
 27 35  1  1  0  0  0
 27 26  1  0  0  0  0
 27  2  1  0  0  0  0
 29 16  1  0  0  0  0
 40  8  1  0  0  0  0
 40  5  1  0  0  0  0
 41  9  1  0  0  0  0
 44 18  2  0  0  0  0
 45 15  1  0  0  0  0
 45 10  1  0  0  0  0
 46  1  1  0  0  0  0
M  END
>  <CHROM.1>
-174.99386804,85.68091809,-171.01828237,112.00401323,176.29964657,178.87445071
-168.05092736,-63.95865038,-171.30981092,-132.31686414,166.58940030,-63.48224746
146.64807805,12.23858878,-13.04954296,7.54701079,2.67844349,0.08369102,2.37310308

>  <Name>
lig.pdb

>  <RI>
0

>  <Rbt.Current_Directory>
/home/afrankz/demos/rdock_decoys_rna/rnas/3wru

>  <Rbt.Executable>
rbdock ($Id: //depot/dev/client3/rdock/2013.1/src/exe/rbdock.cxx#4 $)

>  <Rbt.Library>
libRbt.so (2013.1, Build901 2013/11/27)

>  <Rbt.Parameter_File>
/export/apps/rDock/src/rDock_2013.1_src/data/scripts/dock_solv.prm

>  <Rbt.Receptor>
prm/pocket_docking_2.prm

>  <SCORE>
-6.08851

>  <SCORE.INTER>
-4.45131

>  <SCORE.INTER.CONST>
1

>  <SCORE.INTER.POLAR>
0

>  <SCORE.INTER.ROT>
13

>  <SCORE.INTER.SOLV>
22.0659

>  <SCORE.INTER.VDW>
-22.5895

>  <SCORE.INTER.norm>
-0.0967677

>  <SCORE.INTRA>
-2.08684

>  <SCORE.INTRA.DIHEDRAL>
-4.60964

>  <SCORE.INTRA.DIHEDRAL.0>
19.7146

>  <SCORE.INTRA.POLAR>
0

>  <SCORE.INTRA.POLAR.0>
0

>  <SCORE.INTRA.REPUL>
0.0140781

>  <SCORE.INTRA.REPUL.0>
0

>  <SCORE.INTRA.SOLV>
-2.03724

>  <SCORE.INTRA.SOLV.lig_0>
-116.697

>  <SCORE.INTRA.VDW>
1.16621

>  <SCORE.INTRA.VDW.0>
-7.06424

>  <SCORE.INTRA.norm>
-0.0453661

>  <SCORE.RESTR>
0.449644

>  <SCORE.RESTR.CAVITY>
0.449644

>  <SCORE.RESTR.norm>
0.00977487

>  <SCORE.SYSTEM>
0

>  <SCORE.SYSTEM.CONST>
0

>  <SCORE.SYSTEM.DIHEDRAL>
0

>  <SCORE.SYSTEM.SOLV>
0

>  <SCORE.SYSTEM.norm>
0

>  <SCORE.heavy>
46

>  <SCORE.norm>
-0.132359

>  <RMSD>
1.397

$$$$
lig.pdb
 OpenBabel03061811583D
libRbt.so/2013.1/901 2013/11/27
 46 49  0  0  0  0  0  0  0  0999 V2000
   10.9269  -10.0014    4.8084 C   0  0  1  0  0  0  0  0  0  0  0  0
   13.0912  -11.1642    5.4178 C   0  0  1  0  0  0  0  0  0  0  0  0
   12.8648  -12.5420    6.1107 C   0  0  1  0  0  0  0  0  0  0  0  0
   14.1204  -12.8525    7.0750 C   0  0  2  0  0  0  0  0  0  0  0  0
   11.1116  -13.2379    7.8077 C   0  0  2  0  0  0  0  0  0  0  0  0
   10.5225  -12.4893    9.0371 C   0  0  1  0  0  0  0  0  0  0  0  0
    9.5608  -13.5605    9.4916 C   0  0  1  0  0  0  0  0  0  0  0  0
    8.8474  -14.0337    8.1854 C   0  0  1  0  0  0  0  0  0  0  0  0
    7.6466  -13.1607    7.6777 C   0  0  0  0  0  0  0  0  0  0  0  0
    9.6101  -15.7442   10.6373 C   0  0  1  0  0  0  0  0  0  0  0  0
   10.3404  -16.5753   11.6497 C   0  0  1  0  0  0  0  0  0  0  0  0
    9.7818  -10.2028    3.7878 C   0  0  1  0  0  0  0  0  0  0  0  0
    9.4100  -17.7630   12.0835 C   0  0  0  0  0  0  0  0  0  0  0  0
    9.0217  -18.6419   11.0179 C   0  0  0  0  0  0  0  0  0  0  0  0
    8.2810  -17.8801   10.0350 C   0  0  2  0  0  0  0  0  0  0  0  0
    7.8329  -18.7955    8.8283 C   0  0  0  0  0  0  0  0  0  0  0  0
   18.5647  -13.0399    8.6338 C   0  0  2  0  0  0  0  0  0  0  0  0
   17.9151  -13.2386    6.3774 C   0  0  0  0  0  0  0  0  0  0  0  0
   18.1215  -14.0596    9.4547 C   0  0  0  0  0  0  0  0  0  0  0  0
   19.0329  -13.5793    7.4809 C   0  0  1  0  0  0  0  0  0  0  0  0
   10.2275   -9.7381    2.3273 C   0  0  0  0  0  0  0  0  0  0  0  0
   10.6602   -8.1956    2.4023 C   0  0  0  0  0  0  0  0  0  0  0  0
   11.8619   -8.0723    3.4495 C   0  0  1  0  0  0  0  0  0  0  0  0
   12.3414   -6.6237    3.6021 C   0  0  0  0  0  0  0  0  0  0  0  0
   15.4244  -12.9542    6.1695 C   0  0  1  0  0  0  0  0  0  0  0  0
   15.6207  -11.4927    5.4975 C   0  0  0  0  0  0  0  0  0  0  0  0
   14.3887  -11.1558    4.5720 C   0  0  2  0  0  0  0  0  0  0  0  0
   19.5536  -12.2516    9.3340 F   0  0  0  0  0  0  0  0  0  0  0  0
    6.9274  -18.0544    7.8031 N   0  0  0  0  0  0  0  0  0  0  0  0
    9.3706  -11.6551    3.8234 N   0  0  0  0  0  0  0  0  0  0  0  0
   11.5055  -17.1757   11.1643 N   0  0  0  0  0  0  0  0  0  0  0  0
   18.7917  -15.1788   10.0020 N   0  0  0  0  0  0  0  0  0  0  0  0
   11.2817   -5.7766    3.9900 N   0  0  0  0  0  0  0  0  0  0  0  0
   16.5960  -13.2511    7.0131 N   0  0  0  0  0  0  0  0  0  0  0  0
   14.5483   -9.8177    3.9610 N   0  0  0  0  0  0  0  0  0  0  0  0
   12.0216  -10.8742    4.5272 O   0  0  0  0  0  0  0  0  0  0  0  0
   11.5889  -12.4276    6.8931 O   0  0  0  0  0  0  0  0  0  0  0  0
   13.8970  -14.0723    7.6737 O   0  0  0  0  0  0  0  0  0  0  0  0
   11.5609  -12.2362    9.9342 O   0  0  0  0  0  0  0  0  0  0  0  0
   10.0241  -14.1249    7.3652 O   0  0  0  0  0  0  0  0  0  0  0  0
    7.0821  -13.8303    6.5327 O   0  0  0  0  0  0  0  0  0  0  0  0
   10.3430  -14.6898   10.1374 O   0  0  0  0  0  0  0  0  0  0  0  0
   20.3032  -13.0260    7.0731 O   0  0  0  0  0  0  0  0  0  0  0  0
   18.1534  -12.9913    5.1838 O   0  0  0  0  0  0  0  0  0  0  0  0
    9.1071  -16.7157    9.5414 O   0  0  0  0  0  0  0  0  0  0  0  0
   11.4130   -8.5803    4.8099 O   0  0  0  0  0  0  0  0  0  0  0  0
  1 36  1  6  0  0  0
  2 36  1  6  0  0  0
  2  3  1  0  0  0  0
  3 37  1  1  0  0  0
  3  4  1  0  0  0  0
  4 38  1  6  0  0  0
  5 37  1  6  0  0  0
  5  6  1  0  0  0  0
  6  7  1  0  0  0  0
  6 39  1  1  0  0  0
  7 42  1  6  0  0  0
  8  9  1  6  0  0  0
  8  7  1  0  0  0  0
 10 42  1  6  0  0  0
 10 11  1  0  0  0  0
 11 31  1  6  0  0  0
 11 13  1  0  0  0  0
 12 30  1  6  0  0  0
 12  1  1  0  0  0  0
 14 13  1  0  0  0  0
 15 16  1  6  0  0  0
 15 14  1  0  0  0  0
 17 19  1  1  0  0  0
 17 28  1  0  0  0  0
 18 34  1  0  0  0  0
 19 32  1  0  0  0  0
 20 18  1  6  0  0  0
 20 17  1  0  0  0  0
 20 43  1  0  0  0  0
 21 12  1  0  0  0  0
 22 21  1  0  0  0  0
 22 23  1  0  0  0  0
 23 24  1  1  0  0  0
 23 46  1  0  0  0  0
 24 33  1  0  0  0  0
 25 34  1  1  0  0  0
 25  4  1  0  0  0  0
 26 25  1  0  0  0  0
 27 35  1  1  0  0  0
 27 26  1  0  0  0  0
 27  2  1  0  0  0  0
 29 16  1  0  0  0  0
 40  8  1  0  0  0  0
 40  5  1  0  0  0  0
 41  9  1  0  0  0  0
 44 18  2  0  0  0  0
 45 15  1  0  0  0  0
 45 10  1  0  0  0  0
 46  1  1  0  0  0  0
M  END
>  <CHROM.1>
-165.19267553,100.50199862,-167.24603150,137.07985870,178.64937671,-175.74300498
-160.10747547,175.00096700,59.29159252,-33.48859400,106.36717122,56.94241488
-173.48569414,12.45561478,-12.98801602,7.19967119,0.83848842,-0.07710531
-0.70383763

>  <Name>
lig.pdb

>  <RI>
0

>  <Rbt.Current_Directory>
/home/afrankz/demos/rdock_decoys_rna/rnas/3wru

>  <Rbt.Executable>
rbdock ($Id: //depot/dev/client3/rdock/2013.1/src/exe/rbdock.cxx#4 $)

>  <Rbt.Library>
libRbt.so (2013.1, Build901 2013/11/27)

>  <Rbt.Parameter_File>
/export/apps/rDock/src/rDock_2013.1_src/data/scripts/dock_solv.prm

>  <Rbt.Receptor>
prm/pocket_docking_2.prm

>  <SCORE>
4.52829

>  <SCORE.INTER>
0.844623

>  <SCORE.INTER.CONST>
1

>  <SCORE.INTER.POLAR>
0

>  <SCORE.INTER.ROT>
13

>  <SCORE.INTER.SOLV>
26.7383

>  <SCORE.INTER.VDW>
-20.6164

>  <SCORE.INTER.norm>
0.0183614

>  <SCORE.INTRA>
3.68278

>  <SCORE.INTRA.DIHEDRAL>
1.17559

>  <SCORE.INTRA.DIHEDRAL.0>
19.7146

>  <SCORE.INTRA.POLAR>
0

>  <SCORE.INTRA.POLAR.0>
0

>  <SCORE.INTRA.REPUL>
0.000122286

>  <SCORE.INTRA.REPUL.0>
0

>  <SCORE.INTRA.SOLV>
0.257093

>  <SCORE.INTRA.SOLV.lig_0>
-116.697

>  <SCORE.INTRA.VDW>
2.96583

>  <SCORE.INTRA.VDW.0>
-7.06424

>  <SCORE.INTRA.norm>
0.0800604

>  <SCORE.RESTR>
0.000893077

>  <SCORE.RESTR.CAVITY>
0.000893077

>  <SCORE.RESTR.norm>
1.94147e-05

>  <SCORE.SYSTEM>
0

>  <SCORE.SYSTEM.CONST>
0

>  <SCORE.SYSTEM.DIHEDRAL>
0

>  <SCORE.SYSTEM.SOLV>
0

>  <SCORE.SYSTEM.norm>
0

>  <SCORE.heavy>
46

>  <SCORE.norm>
0.0984412

>  <RMSD>
1.454

$$$$
lig.pdb
 OpenBabel03061811583D
libRbt.so/2013.1/901 2013/11/27
 46 49  0  0  0  0  0  0  0  0999 V2000
   11.3067  -10.2548    5.3331 C   0  0  1  0  0  0  0  0  0  0  0  0
   13.4659  -11.5181    5.7203 C   0  0  1  0  0  0  0  0  0  0  0  0
   13.1073  -12.8333    6.4762 C   0  0  1  0  0  0  0  0  0  0  0  0
   14.3831  -13.2973    7.3480 C   0  0  2  0  0  0  0  0  0  0  0  0
   11.3010  -13.3065    8.1942 C   0  0  2  0  0  0  0  0  0  0  0  0
   10.4015  -12.5298    9.1973 C   0  0  1  0  0  0  0  0  0  0  0  0
    9.4239  -13.6390    9.5019 C   0  0  1  0  0  0  0  0  0  0  0  0
    9.0604  -14.2416    8.1077 C   0  0  1  0  0  0  0  0  0  0  0  0
    7.9617  -13.4914    7.2760 C   0  0  0  0  0  0  0  0  0  0  0  0
    9.2895  -15.6368   10.9422 C   0  0  1  0  0  0  0  0  0  0  0  0
   10.0098  -16.6081   11.8292 C   0  0  1  0  0  0  0  0  0  0  0  0
   10.0820  -10.4000    4.3990 C   0  0  1  0  0  0  0  0  0  0  0  0
    8.9800  -17.6803   12.3333 C   0  0  0  0  0  0  0  0  0  0  0  0
    8.3516  -18.4446   11.2942 C   0  0  0  0  0  0  0  0  0  0  0  0
    7.6148  -17.5420   10.4354 C   0  0  2  0  0  0  0  0  0  0  0  0
    6.9061  -18.3274    9.2625 C   0  0  0  0  0  0  0  0  0  0  0  0
   19.2224  -13.9548    8.1600 C   0  0  2  0  0  0  0  0  0  0  0  0
   16.9221  -13.5501    8.4727 C   0  0  0  0  0  0  0  0  0  0  0  0
   19.7479  -12.6881    8.3312 C   0  0  0  0  0  0  0  0  0  0  0  0
   18.2684  -14.1630    9.1012 C   0  0  1  0  0  0  0  0  0  0  0  0
   10.4048   -9.8398    2.9396 C   0  0  0  0  0  0  0  0  0  0  0  0
   10.8381   -8.3018    3.0776 C   0  0  0  0  0  0  0  0  0  0  0  0
   12.1215   -8.2358    4.0286 C   0  0  1  0  0  0  0  0  0  0  0  0
   12.6081   -6.7962    4.2337 C   0  0  0  0  0  0  0  0  0  0  0  0
   15.5798  -13.6044    6.3459 C   0  0  1  0  0  0  0  0  0  0  0  0
   15.9222  -12.2017    5.6104 C   0  0  0  0  0  0  0  0  0  0  0  0
   14.6766  -11.7141    4.7744 C   0  0  2  0  0  0  0  0  0  0  0  0
   20.2882  -14.9302    8.2069 F   0  0  0  0  0  0  0  0  0  0  0  0
    7.9109  -18.9935    8.2792 N   0  0  0  0  0  0  0  0  0  0  0  0
    9.6791  -11.8548    4.3750 N   0  0  0  0  0  0  0  0  0  0  0  0
   11.0154  -17.3344   11.1851 N   0  0  0  0  0  0  0  0  0  0  0  0
   20.6254  -12.1632    9.3089 N   0  0  0  0  0  0  0  0  0  0  0  0
   11.6306   -6.0190    4.8907 N   0  0  0  0  0  0  0  0  0  0  0  0
   16.7645  -14.0457    7.1037 N   0  0  0  0  0  0  0  0  0  0  0  0
   14.9705  -10.4268    4.1067 N   0  0  0  0  0  0  0  0  0  0  0  0
   12.3769  -11.0993    4.9079 O   0  0  0  0  0  0  0  0  0  0  0  0
   11.9298  -12.5204    7.3529 O   0  0  0  0  0  0  0  0  0  0  0  0
   14.0417  -14.4587    8.0043 O   0  0  0  0  0  0  0  0  0  0  0  0
   11.1879  -12.1472   10.2848 O   0  0  0  0  0  0  0  0  0  0  0  0
   10.3983  -14.2961    7.5851 O   0  0  0  0  0  0  0  0  0  0  0  0
    6.7551  -13.4849    8.0648 O   0  0  0  0  0  0  0  0  0  0  0  0
   10.0989  -14.6667   10.3922 O   0  0  0  0  0  0  0  0  0  0  0  0
   18.0703  -15.5611    9.4053 O   0  0  0  0  0  0  0  0  0  0  0  0
   16.1439  -12.7912    9.0738 O   0  0  0  0  0  0  0  0  0  0  0  0
    8.5318  -16.4758    9.8840 O   0  0  0  0  0  0  0  0  0  0  0  0
   11.7875   -8.8329    5.3858 O   0  0  0  0  0  0  0  0  0  0  0  0
  1 36  1  6  0  0  0
  2 36  1  6  0  0  0
  2  3  1  0  0  0  0
  3 37  1  1  0  0  0
  3  4  1  0  0  0  0
  4 38  1  6  0  0  0
  5 37  1  6  0  0  0
  5  6  1  0  0  0  0
  6  7  1  0  0  0  0
  6 39  1  1  0  0  0
  7 42  1  1  0  0  0
  8  9  1  6  0  0  0
  8  7  1  0  0  0  0
 10 42  1  6  0  0  0
 10 11  1  0  0  0  0
 11 31  1  6  0  0  0
 11 13  1  0  0  0  0
 12 30  1  6  0  0  0
 12  1  1  0  0  0  0
 14 13  1  0  0  0  0
 15 16  1  6  0  0  0
 15 14  1  0  0  0  0
 17 19  1  1  0  0  0
 17 28  1  0  0  0  0
 18 34  1  0  0  0  0
 19 32  1  0  0  0  0
 20 18  1  6  0  0  0
 20 17  1  0  0  0  0
 20 43  1  0  0  0  0
 21 12  1  0  0  0  0
 22 21  1  0  0  0  0
 22 23  1  0  0  0  0
 23 24  1  1  0  0  0
 23 46  1  0  0  0  0
 24 33  1  0  0  0  0
 25 34  1  1  0  0  0
 25  4  1  0  0  0  0
 26 25  1  0  0  0  0
 27 35  1  1  0  0  0
 27 26  1  0  0  0  0
 27  2  1  0  0  0  0
 29 16  1  0  0  0  0
 40  8  1  0  0  0  0
 40  5  1  0  0  0  0
 41  9  1  0  0  0  0
 44 18  2  0  0  0  0
 45 15  1  0  0  0  0
 45 10  1  0  0  0  0
 46  1  1  0  0  0  0
M  END
>  <CHROM.1>
-160.18133607,88.50985296,-178.22610323,163.87778227,169.91590342,-59.65810518
-179.02966320,-65.09127784,73.67733783,48.42492915,85.85210166,63.18015026
-28.61000347,12.47078208,-13.21061062,7.64118227,0.67329000,-0.04143454,-0.67229008

>  <Name>
lig.pdb

>  <RI>
0

>  <Rbt.Current_Directory>
/home/afrankz/demos/rdock_decoys_rna/rnas/3wru

>  <Rbt.Executable>
rbdock ($Id: //depot/dev/client3/rdock/2013.1/src/exe/rbdock.cxx#4 $)

>  <Rbt.Library>
libRbt.so (2013.1, Build901 2013/11/27)

>  <Rbt.Parameter_File>
/export/apps/rDock/src/rDock_2013.1_src/data/scripts/dock_solv.prm

>  <Rbt.Receptor>
prm/pocket_docking_2.prm

>  <SCORE>
3.65537

>  <SCORE.INTER>
3.13251

>  <SCORE.INTER.CONST>
1

>  <SCORE.INTER.POLAR>
0

>  <SCORE.INTER.ROT>
13

>  <SCORE.INTER.SOLV>
25.3017

>  <SCORE.INTER.VDW>
-18.6122

>  <SCORE.INTER.norm>
0.068098

>  <SCORE.INTRA>
0.396865

>  <SCORE.INTRA.DIHEDRAL>
-8.48952

>  <SCORE.INTRA.DIHEDRAL.0>
19.7146

>  <SCORE.INTRA.POLAR>
0

>  <SCORE.INTRA.POLAR.0>
0

>  <SCORE.INTRA.REPUL>
0

>  <SCORE.INTRA.REPUL.0>
0

>  <SCORE.INTRA.SOLV>
1.63032

>  <SCORE.INTRA.SOLV.lig_0>
-116.697

>  <SCORE.INTRA.VDW>
3.82647

>  <SCORE.INTRA.VDW.0>
-7.06424

>  <SCORE.INTRA.norm>
0.0086275

>  <SCORE.RESTR>
0.125995

>  <SCORE.RESTR.CAVITY>
0.125995

>  <SCORE.RESTR.norm>
0.00273902

>  <SCORE.SYSTEM>
0

>  <SCORE.SYSTEM.CONST>
0

>  <SCORE.SYSTEM.DIHEDRAL>
0

>  <SCORE.SYSTEM.SOLV>
0

>  <SCORE.SYSTEM.norm>
0

>  <SCORE.heavy>
46

>  <SCORE.norm>
0.0794645

>  <RMSD>
1.570

$$$$
lig.pdb
 OpenBabel03061811583D
libRbt.so/2013.1/901 2013/11/27
 46 49  0  0  0  0  0  0  0  0999 V2000
   11.3846  -10.8637    5.3549 C   0  0  1  0  0  0  0  0  0  0  0  0
   13.8817  -10.9635    5.7579 C   0  0  1  0  0  0  0  0  0  0  0  0
   14.0111  -12.1777    6.7267 C   0  0  1  0  0  0  0  0  0  0  0  0
   15.3531  -12.0026    7.6048 C   0  0  2  0  0  0  0  0  0  0  0  0
   12.1005  -13.1917    8.0531 C   0  0  2  0  0  0  0  0  0  0  0  0
   12.9397  -14.1240    8.9724 C   0  0  1  0  0  0  0  0  0  0  0  0
   11.8005  -14.7064    9.7736 C   0  0  1  0  0  0  0  0  0  0  0  0
   10.9140  -13.4780   10.1537 C   0  0  1  0  0  0  0  0  0  0  0  0
   11.3671  -12.6347   11.3969 C   0  0  0  0  0  0  0  0  0  0  0  0
    9.9840  -16.3530    9.5038 C   0  0  1  0  0  0  0  0  0  0  0  0
   10.3828  -17.2693   10.6219 C   0  0  1  0  0  0  0  0  0  0  0  0
   10.3766  -11.4012    4.3116 C   0  0  1  0  0  0  0  0  0  0  0  0
    9.0950  -17.9878   11.1602 C   0  0  0  0  0  0  0  0  0  0  0  0
    8.4017  -18.7848   10.1892 C   0  0  0  0  0  0  0  0  0  0  0  0
    7.9688  -17.9256    9.1078 C   0  0  2  0  0  0  0  0  0  0  0  0
    7.2044  -18.7511    7.9991 C   0  0  0  0  0  0  0  0  0  0  0  0
   20.5010  -13.8535    8.8294 C   0  0  2  0  0  0  0  0  0  0  0  0
   18.6769  -13.0652    7.5629 C   0  0  0  0  0  0  0  0  0  0  0  0
   21.7403  -13.6215    9.3953 C   0  0  0  0  0  0  0  0  0  0  0  0
   19.9820  -12.6713    8.4141 C   0  0  1  0  0  0  0  0  0  0  0  0
   10.4671  -10.5753    2.9488 C   0  0  0  0  0  0  0  0  0  0  0  0
   10.1794   -9.0321    3.2778 C   0  0  0  0  0  0  0  0  0  0  0  0
   11.2743   -8.5422    4.3347 C   0  0  1  0  0  0  0  0  0  0  0  0
   11.0755   -7.0726    4.7249 C   0  0  0  0  0  0  0  0  0  0  0  0
   16.5969  -12.0168    6.6130 C   0  0  1  0  0  0  0  0  0  0  0  0
   16.4202  -10.7246    5.6512 C   0  0  0  0  0  0  0  0  0  0  0  0
   15.0972  -10.8614    4.8034 C   0  0  2  0  0  0  0  0  0  0  0  0
   19.6569  -14.5408    9.7805 F   0  0  0  0  0  0  0  0  0  0  0  0
    5.9465  -19.4865    8.5442 N   0  0  0  0  0  0  0  0  0  0  0  0
   10.6516  -12.8715    4.1066 N   0  0  0  0  0  0  0  0  0  0  0  0
   11.2479  -18.2978   10.2382 N   0  0  0  0  0  0  0  0  0  0  0  0
   22.7578  -14.5094    9.8167 N   0  0  0  0  0  0  0  0  0  0  0  0
   11.1972   -6.2283    3.6009 N   0  0  0  0  0  0  0  0  0  0  0  0
   17.8478  -11.8721    7.3790 N   0  0  0  0  0  0  0  0  0  0  0  0
   14.9160   -9.6816    3.9288 N   0  0  0  0  0  0  0  0  0  0  0  0
   12.7290  -11.1032    4.9374 O   0  0  0  0  0  0  0  0  0  0  0  0
   12.7854  -12.1717    7.5931 O   0  0  0  0  0  0  0  0  0  0  0  0
   15.4446  -13.0856    8.4503 O   0  0  0  0  0  0  0  0  0  0  0  0
   13.6036  -15.0503    8.1672 O   0  0  0  0  0  0  0  0  0  0  0  0
   10.9187  -12.8506    8.8606 O   0  0  0  0  0  0  0  0  0  0  0  0
   10.2651  -11.7796   11.7610 O   0  0  0  0  0  0  0  0  0  0  0  0
   11.0387  -15.6948    8.9094 O   0  0  0  0  0  0  0  0  0  0  0  0
   19.6066  -11.8040    9.5065 O   0  0  0  0  0  0  0  0  0  0  0  0
   18.4355  -14.2024    7.1258 O   0  0  0  0  0  0  0  0  0  0  0  0
    9.1499  -17.1981    8.5099 O   0  0  0  0  0  0  0  0  0  0  0  0
   11.1930   -9.3929    5.5916 O   0  0  0  0  0  0  0  0  0  0  0  0
  1 36  1  6  0  0  0
  2 36  1  6  0  0  0
  2  3  1  0  0  0  0
  3 37  1  1  0  0  0
  3  4  1  0  0  0  0
  4 38  1  1  0  0  0
  5 37  1  1  0  0  0
  5  6  1  0  0  0  0
  6  7  1  0  0  0  0
  6 39  1  6  0  0  0
  7 42  1  6  0  0  0
  8  9  1  1  0  0  0
  8  7  1  0  0  0  0
 10 42  1  6  0  0  0
 10 11  1  0  0  0  0
 11 31  1  6  0  0  0
 11 13  1  0  0  0  0
 12 30  1  6  0  0  0
 12  1  1  0  0  0  0
 14 13  1  0  0  0  0
 15 16  1  6  0  0  0
 15 14  1  0  0  0  0
 17 19  1  1  0  0  0
 17 28  1  0  0  0  0
 18 34  1  0  0  0  0
 19 32  1  0  0  0  0
 20 18  1  1  0  0  0
 20 17  1  0  0  0  0
 20 43  1  0  0  0  0
 21 12  1  0  0  0  0
 22 21  1  0  0  0  0
 22 23  1  0  0  0  0
 23 24  1  1  0  0  0
 23 46  1  0  0  0  0
 24 33  1  0  0  0  0
 25 34  1  1  0  0  0
 25  4  1  0  0  0  0
 26 25  1  0  0  0  0
 27 35  1  6  0  0  0
 27 26  1  0  0  0  0
 27  2  1  0  0  0  0
 29 16  1  0  0  0  0
 40  8  1  0  0  0  0
 40  5  1  0  0  0  0
 41  9  1  0  0  0  0
 44 18  2  0  0  0  0
 45 15  1  0  0  0  0
 45 10  1  0  0  0  0
 46  1  1  0  0  0  0
M  END
>  <CHROM.1>
-167.76779582,76.77307346,143.44751512,61.10256080,178.07805444,-166.25792264
-64.99619818,59.05726293,-170.61639576,164.71141904,170.85488920,-61.10641695
104.88728795,13.26128863,-13.19545107,7.64455722,2.73970862,0.15002956,2.51031510

>  <Name>
lig.pdb

>  <RI>
0

>  <Rbt.Current_Directory>
/home/afrankz/demos/rdock_decoys_rna/rnas/3wru

>  <Rbt.Executable>
rbdock ($Id: //depot/dev/client3/rdock/2013.1/src/exe/rbdock.cxx#4 $)

>  <Rbt.Library>
libRbt.so (2013.1, Build901 2013/11/27)

>  <Rbt.Parameter_File>
/export/apps/rDock/src/rDock_2013.1_src/data/scripts/dock_solv.prm

>  <Rbt.Receptor>
prm/pocket_docking_2.prm

>  <SCORE>
-2.6407

>  <SCORE.INTER>
-0.873341

>  <SCORE.INTER.CONST>
1

>  <SCORE.INTER.POLAR>
0

>  <SCORE.INTER.ROT>
13

>  <SCORE.INTER.SOLV>
23.0443

>  <SCORE.INTER.VDW>
-20.5303

>  <SCORE.INTER.norm>
-0.0189857

>  <SCORE.INTRA>
-3.12019

>  <SCORE.INTRA.DIHEDRAL>
-9.20081

>  <SCORE.INTRA.DIHEDRAL.0>
19.7146

>  <SCORE.INTRA.POLAR>
0

>  <SCORE.INTRA.POLAR.0>
0

>  <SCORE.INTRA.REPUL>
0

>  <SCORE.INTRA.REPUL.0>
0

>  <SCORE.INTRA.SOLV>
-2.26218

>  <SCORE.INTRA.SOLV.lig_0>
-116.697

>  <SCORE.INTRA.VDW>
2.61131

>  <SCORE.INTRA.VDW.0>
-7.06424

>  <SCORE.INTRA.norm>
-0.0678302

>  <SCORE.RESTR>
1.35283

>  <SCORE.RESTR.CAVITY>
1.35283

>  <SCORE.RESTR.norm>
0.0294093

>  <SCORE.SYSTEM>
0

>  <SCORE.SYSTEM.CONST>
0

>  <SCORE.SYSTEM.DIHEDRAL>
0

>  <SCORE.SYSTEM.SOLV>
0

>  <SCORE.SYSTEM.norm>
0

>  <SCORE.heavy>
46

>  <SCORE.norm>
-0.0574066

>  <RMSD>
1.572

$$$$
lig.pdb
 OpenBabel03061811583D
libRbt.so/2013.1/901 2013/11/27
 46 49  0  0  0  0  0  0  0  0999 V2000
   11.1225  -10.1786    5.4050 C   0  0  1  0  0  0  0  0  0  0  0  0
   13.5132  -10.7802    5.9799 C   0  0  1  0  0  0  0  0  0  0  0  0
   13.3468  -11.9234    7.0265 C   0  0  1  0  0  0  0  0  0  0  0  0
   14.6526  -11.9567    7.9734 C   0  0  2  0  0  0  0  0  0  0  0  0
   11.4550  -12.3777    8.6552 C   0  0  2  0  0  0  0  0  0  0  0  0
   10.2545  -11.6561    9.3310 C   0  0  1  0  0  0  0  0  0  0  0  0
    9.4282  -12.8791    9.6475 C   0  0  1  0  0  0  0  0  0  0  0  0
    9.4621  -13.7306    8.3387 C   0  0  1  0  0  0  0  0  0  0  0  0
    8.4513  -13.3314    7.2071 C   0  0  0  0  0  0  0  0  0  0  0  0
    9.3301  -14.6490   11.3627 C   0  0  1  0  0  0  0  0  0  0  0  0
    9.8696  -15.1563   12.6666 C   0  0  1  0  0  0  0  0  0  0  0  0
   10.0855  -10.5260    4.3108 C   0  0  1  0  0  0  0  0  0  0  0  0
    8.9737  -16.3537   13.1442 C   0  0  0  0  0  0  0  0  0  0  0  0
    8.9318  -17.4692   12.2429 C   0  0  0  0  0  0  0  0  0  0  0  0
    8.3814  -17.0249   10.9801 C   0  0  2  0  0  0  0  0  0  0  0  0
    8.3185  -18.2119    9.9399 C   0  0  0  0  0  0  0  0  0  0  0  0
   20.0648  -11.7608    8.2209 C   0  0  2  0  0  0  0  0  0  0  0  0
   18.2928  -13.0519    7.3572 C   0  0  0  0  0  0  0  0  0  0  0  0
   21.0238  -11.5526    9.1941 C   0  0  0  0  0  0  0  0  0  0  0  0
   19.4932  -12.9740    8.4231 C   0  0  1  0  0  0  0  0  0  0  0  0
   10.4547   -9.8213    2.9269 C   0  0  0  0  0  0  0  0  0  0  0  0
   10.5170   -8.2375    3.1718 C   0  0  0  0  0  0  0  0  0  0  0  0
   11.6263   -7.9558    4.2881 C   0  0  1  0  0  0  0  0  0  0  0  0
   11.7536   -6.4605    4.6035 C   0  0  0  0  0  0  0  0  0  0  0  0
   15.9139  -12.2893    7.0626 C   0  0  1  0  0  0  0  0  0  0  0  0
   16.0495  -11.0601    6.0155 C   0  0  0  0  0  0  0  0  0  0  0  0
   14.7686  -10.9909    5.0976 C   0  0  2  0  0  0  0  0  0  0  0  0
   20.6669  -11.6281    6.9135 F   0  0  0  0  0  0  0  0  0  0  0  0
    7.6651  -17.8050    8.5880 N   0  0  0  0  0  0  0  0  0  0  0  0
   10.0200  -12.0291    4.1856 N   0  0  0  0  0  0  0  0  0  0  0  0
   11.1662  -15.6724   12.5877 N   0  0  0  0  0  0  0  0  0  0  0  0
   22.2725  -12.1757    9.4260 N   0  0  0  0  0  0  0  0  0  0  0  0
   12.1571   -5.7340    3.4631 N   0  0  0  0  0  0  0  0  0  0  0  0
   17.1297  -12.3423    7.8941 N   0  0  0  0  0  0  0  0  0  0  0  0
   14.8728   -9.8644    4.1439 N   0  0  0  0  0  0  0  0  0  0  0  0
   12.3970  -10.7459    5.1000 O   0  0  0  0  0  0  0  0  0  0  0  0
   12.1076  -11.6113    7.8138 O   0  0  0  0  0  0  0  0  0  0  0  0
   14.4817  -12.9728    8.8867 O   0  0  0  0  0  0  0  0  0  0  0  0
   10.7276  -10.9797   10.4562 O   0  0  0  0  0  0  0  0  0  0  0  0
   10.8696  -13.5986    8.0792 O   0  0  0  0  0  0  0  0  0  0  0  0
    8.6205  -14.2721    6.1279 O   0  0  0  0  0  0  0  0  0  0  0  0
   10.0629  -13.6214   10.8096 O   0  0  0  0  0  0  0  0  0  0  0  0
   20.4067  -14.0720    8.2078 O   0  0  0  0  0  0  0  0  0  0  0  0
   18.3646  -13.6153    6.2527 O   0  0  0  0  0  0  0  0  0  0  0  0
    9.1928  -15.8763   10.4285 O   0  0  0  0  0  0  0  0  0  0  0  0
   11.2670   -8.6925    5.5680 O   0  0  0  0  0  0  0  0  0  0  0  0
  1 36  1  6  0  0  0
  2 36  1  6  0  0  0
  2  3  1  0  0  0  0
  3 37  1  1  0  0  0
  3  4  1  0  0  0  0
  4 38  1  1  0  0  0
  5 37  1  6  0  0  0
  5  6  1  0  0  0  0
  6  7  1  0  0  0  0
  6 39  1  1  0  0  0
  7 42  1  1  0  0  0
  8  9  1  6  0  0  0
  8  7  1  0  0  0  0
 10 42  1  6  0  0  0
 10 11  1  0  0  0  0
 11 31  1  6  0  0  0
 11 13  1  0  0  0  0
 12 30  1  6  0  0  0
 12  1  1  0  0  0  0
 14 13  1  0  0  0  0
 15 16  1  6  0  0  0
 15 14  1  0  0  0  0
 17 19  1  1  0  0  0
 17 28  1  0  0  0  0
 18 34  1  0  0  0  0
 19 32  1  0  0  0  0
 20 18  1  6  0  0  0
 20 17  1  0  0  0  0
 20 43  1  0  0  0  0
 21 12  1  0  0  0  0
 22 21  1  0  0  0  0
 22 23  1  0  0  0  0
 23 24  1  1  0  0  0
 23 46  1  0  0  0  0
 24 33  1  0  0  0  0
 25 34  1  1  0  0  0
 25  4  1  0  0  0  0
 26 25  1  0  0  0  0
 27 35  1  6  0  0  0
 27 26  1  0  0  0  0
 27  2  1  0  0  0  0
 29 16  1  0  0  0  0
 40  8  1  0  0  0  0
 40  5  1  0  0  0  0
 41  9  1  0  0  0  0
 44 18  2  0  0  0  0
 45 15  1  0  0  0  0
 45 10  1  0  0  0  0
 46  1  1  0  0  0  0
M  END
>  <CHROM.1>
-170.58620602,78.73579937,168.47014870,176.83120705,170.39207223,-177.81101482
-168.10192896,176.99950452,68.54978199,-81.88893773,173.83081169,-61.79255488
160.14738520,12.86870101,-12.43353650,7.72640898,0.49562751,-0.05155355,-0.77881521

>  <Name>
lig.pdb

>  <RI>
0

>  <Rbt.Current_Directory>
/home/afrankz/demos/rdock_decoys_rna/rnas/3wru

>  <Rbt.Executable>
rbdock ($Id: //depot/dev/client3/rdock/2013.1/src/exe/rbdock.cxx#4 $)

>  <Rbt.Library>
libRbt.so (2013.1, Build901 2013/11/27)

>  <Rbt.Parameter_File>
/export/apps/rDock/src/rDock_2013.1_src/data/scripts/dock_solv.prm

>  <Rbt.Receptor>
prm/pocket_docking_4.prm

>  <SCORE>
-12.1043

>  <SCORE.INTER>
-5.6382

>  <SCORE.INTER.CONST>
1

>  <SCORE.INTER.POLAR>
0

>  <SCORE.INTER.ROT>
13

>  <SCORE.INTER.SOLV>
20.9139

>  <SCORE.INTER.VDW>
-22.9968

>  <SCORE.INTER.norm>
-0.12257

>  <SCORE.INTRA>
-6.46607

>  <SCORE.INTRA.DIHEDRAL>
-13.586

>  <SCORE.INTRA.DIHEDRAL.0>
19.7146

>  <SCORE.INTRA.POLAR>
0

>  <SCORE.INTRA.POLAR.0>
0

>  <SCORE.INTRA.REPUL>
0

>  <SCORE.INTRA.REPUL.0>
0

>  <SCORE.INTRA.SOLV>
-0.839039

>  <SCORE.INTRA.SOLV.lig_0>
-116.697

>  <SCORE.INTRA.VDW>
0.746434

>  <SCORE.INTRA.VDW.0>
-7.06424

>  <SCORE.INTRA.norm>
-0.140567

>  <SCORE.RESTR>
0

>  <SCORE.RESTR.CAVITY>
0

>  <SCORE.RESTR.norm>
0

>  <SCORE.SYSTEM>
0

>  <SCORE.SYSTEM.CONST>
0

>  <SCORE.SYSTEM.DIHEDRAL>
0

>  <SCORE.SYSTEM.SOLV>
0

>  <SCORE.SYSTEM.norm>
0

>  <SCORE.heavy>
46

>  <SCORE.norm>
-0.263136

>  <RMSD>
1.595

$$$$
lig.pdb
 OpenBabel03061811583D
libRbt.so/2013.1/901 2013/11/27
 46 49  0  0  0  0  0  0  0  0999 V2000
   10.9097  -10.5205    5.1067 C   0  0  1  0  0  0  0  0  0  0  0  0
   13.3371  -10.8767    5.7300 C   0  0  1  0  0  0  0  0  0  0  0  0
   13.2101  -11.9718    6.8320 C   0  0  1  0  0  0  0  0  0  0  0  0
   14.4930  -11.8816    7.8061 C   0  0  2  0  0  0  0  0  0  0  0  0
   11.3222  -12.4373    8.4620 C   0  0  2  0  0  0  0  0  0  0  0  0
   10.1327  -11.7100    9.1511 C   0  0  1  0  0  0  0  0  0  0  0  0
    9.3345  -12.9329    9.5334 C   0  0  1  0  0  0  0  0  0  0  0  0
    9.3403  -13.8269    8.2528 C   0  0  1  0  0  0  0  0  0  0  0  0
    8.2893  -13.4792    7.1410 C   0  0  0  0  0  0  0  0  0  0  0  0
    9.3821  -14.7370   11.2146 C   0  0  1  0  0  0  0  0  0  0  0  0
   10.0510  -15.3204   12.4234 C   0  0  1  0  0  0  0  0  0  0  0  0
    9.9208  -11.0495    4.0411 C   0  0  1  0  0  0  0  0  0  0  0  0
    9.2572  -16.6017   12.8621 C   0  0  0  0  0  0  0  0  0  0  0  0
    9.1964  -17.6388   11.8724 C   0  0  0  0  0  0  0  0  0  0  0  0
    8.5231  -17.1221   10.6999 C   0  0  2  0  0  0  0  0  0  0  0  0
    8.4337  -18.2198    9.5677 C   0  0  0  0  0  0  0  0  0  0  0  0
   19.8988  -11.9380    8.1243 C   0  0  2  0  0  0  0  0  0  0  0  0
   17.9670  -13.2127    7.6813 C   0  0  0  0  0  0  0  0  0  0  0  0
   20.8787  -11.5295    9.0091 C   0  0  0  0  0  0  0  0  0  0  0  0
   19.1813  -12.9361    8.6973 C   0  0  1  0  0  0  0  0  0  0  0  0
   10.2053  -10.3879    2.6166 C   0  0  0  0  0  0  0  0  0  0  0  0
   10.0817   -8.7962    2.7695 C   0  0  0  0  0  0  0  0  0  0  0  0
   11.1501   -8.3225    3.8604 C   0  0  1  0  0  0  0  0  0  0  0  0
   11.1014   -6.8069    4.0884 C   0  0  0  0  0  0  0  0  0  0  0  0
   15.7920  -12.1885    6.9406 C   0  0  1  0  0  0  0  0  0  0  0  0
   15.8836  -11.0094    5.8328 C   0  0  0  0  0  0  0  0  0  0  0  0
   14.6229  -11.0610    4.8862 C   0  0  2  0  0  0  0  0  0  0  0  0
   20.5094  -12.3248    6.8724 F   0  0  0  0  0  0  0  0  0  0  0  0
    9.8272  -18.7268    9.0974 N   0  0  0  0  0  0  0  0  0  0  0  0
   10.0317  -12.5547    4.0030 N   0  0  0  0  0  0  0  0  0  0  0  0
   11.3605  -15.7546   12.1993 N   0  0  0  0  0  0  0  0  0  0  0  0
   22.0666  -12.1608    9.4471 N   0  0  0  0  0  0  0  0  0  0  0  0
   12.2374   -6.3638    4.7984 N   0  0  0  0  0  0  0  0  0  0  0  0
   16.9889  -12.1290    7.7987 N   0  0  0  0  0  0  0  0  0  0  0  0
   14.6866   -9.9813    3.8765 N   0  0  0  0  0  0  0  0  0  0  0  0
   12.2419  -10.9517    4.8265 O   0  0  0  0  0  0  0  0  0  0  0  0
   11.9371  -11.6906    7.5758 O   0  0  0  0  0  0  0  0  0  0  0  0
   14.3575  -12.8572    8.7684 O   0  0  0  0  0  0  0  0  0  0  0  0
   10.6305  -10.9902   10.2381 O   0  0  0  0  0  0  0  0  0  0  0  0
   10.7370  -13.6845    7.9450 O   0  0  0  0  0  0  0  0  0  0  0  0
    6.9832  -13.5495    7.7470 O   0  0  0  0  0  0  0  0  0  0  0  0
   10.0157  -13.6275   10.6987 O   0  0  0  0  0  0  0  0  0  0  0  0
   19.9458  -14.1475    8.8823 O   0  0  0  0  0  0  0  0  0  0  0  0
   17.8953  -14.1876    6.9152 O   0  0  0  0  0  0  0  0  0  0  0  0
    9.2291  -15.8879   10.1900 O   0  0  0  0  0  0  0  0  0  0  0  0
   10.8792   -9.0208    5.1830 O   0  0  0  0  0  0  0  0  0  0  0  0
  1 36  1  6  0  0  0
  2 36  1  6  0  0  0
  2  3  1  0  0  0  0
  3 37  1  1  0  0  0
  3  4  1  0  0  0  0
  4 38  1  1  0  0  0
  5 37  1  6  0  0  0
  5  6  1  0  0  0  0
  6  7  1  0  0  0  0
  6 39  1  1  0  0  0
  7 42  1  1  0  0  0
  8  9  1  6  0  0  0
  8  7  1  0  0  0  0
 10 42  1  6  0  0  0
 10 11  1  0  0  0  0
 11 31  1  6  0  0  0
 11 13  1  0  0  0  0
 12 30  1  6  0  0  0
 12  1  1  0  0  0  0
 14 13  1  0  0  0  0
 15 16  1  6  0  0  0
 15 14  1  0  0  0  0
 17 19  1  1  0  0  0
 17 28  1  0  0  0  0
 18 34  1  0  0  0  0
 19 32  1  0  0  0  0
 20 18  1  6  0  0  0
 20 17  1  0  0  0  0
 20 43  1  0  0  0  0
 21 12  1  0  0  0  0
 22 21  1  0  0  0  0
 22 23  1  0  0  0  0
 23 24  1  1  0  0  0
 23 46  1  0  0  0  0
 24 33  1  0  0  0  0
 25 34  1  1  0  0  0
 25  4  1  0  0  0  0
 26 25  1  0  0  0  0
 27 35  1  6  0  0  0
 27 26  1  0  0  0  0
 27  2  1  0  0  0  0
 29 16  1  0  0  0  0
 40  8  1  0  0  0  0
 40  5  1  0  0  0  0
 41  9  1  0  0  0  0
 44 18  2  0  0  0  0
 45 15  1  0  0  0  0
 45 10  1  0  0  0  0
 46  1  1  0  0  0  0
M  END
>  <CHROM.1>
-166.61513849,74.47370715,169.91391569,172.02593496,177.21302561,-57.71245876
-175.85687530,-60.01751452,71.25360150,-74.62586658,173.11820927,-166.06824731
133.58272128,12.74200300,-12.59663879,7.66384092,2.71511411,0.06198192,2.35785488

>  <Name>
lig.pdb

>  <RI>
0

>  <Rbt.Current_Directory>
/home/afrankz/demos/rdock_decoys_rna/rnas/3wru

>  <Rbt.Executable>
rbdock ($Id: //depot/dev/client3/rdock/2013.1/src/exe/rbdock.cxx#4 $)

>  <Rbt.Library>
libRbt.so (2013.1, Build901 2013/11/27)

>  <Rbt.Parameter_File>
/export/apps/rDock/src/rDock_2013.1_src/data/scripts/dock_solv.prm

>  <Rbt.Receptor>
prm/pocket_docking_3.prm

>  <SCORE>
-11.4513

>  <SCORE.INTER>
-5.2786

>  <SCORE.INTER.CONST>
1

>  <SCORE.INTER.POLAR>
0

>  <SCORE.INTER.ROT>
13

>  <SCORE.INTER.SOLV>
24.0798

>  <SCORE.INTER.VDW>
-23.8123

>  <SCORE.INTER.norm>
-0.114752

>  <SCORE.INTRA>
-6.17266

>  <SCORE.INTRA.DIHEDRAL>
-13.3207

>  <SCORE.INTRA.DIHEDRAL.0>
19.7146

>  <SCORE.INTRA.POLAR>
0

>  <SCORE.INTRA.POLAR.0>
0

>  <SCORE.INTRA.REPUL>
0

>  <SCORE.INTRA.REPUL.0>
0

>  <SCORE.INTRA.SOLV>
-0.788628

>  <SCORE.INTRA.SOLV.lig_0>
-116.697

>  <SCORE.INTRA.VDW>
0.882012

>  <SCORE.INTRA.VDW.0>
-7.06424

>  <SCORE.INTRA.norm>
-0.134188

>  <SCORE.RESTR>
0

>  <SCORE.RESTR.CAVITY>
0

>  <SCORE.RESTR.norm>
0

>  <SCORE.SYSTEM>
0

>  <SCORE.SYSTEM.CONST>
0

>  <SCORE.SYSTEM.DIHEDRAL>
0

>  <SCORE.SYSTEM.SOLV>
0

>  <SCORE.SYSTEM.norm>
0

>  <SCORE.heavy>
46

>  <SCORE.norm>
-0.24894

>  <RMSD>
1.597

$$$$
lig.pdb
 OpenBabel03061811583D
libRbt.so/2013.1/901 2013/11/27
 46 49  0  0  0  0  0  0  0  0999 V2000
   10.9529  -10.9125    5.5170 C   0  0  1  0  0  0  0  0  0  0  0  0
   13.4007  -11.3698    5.9720 C   0  0  1  0  0  0  0  0  0  0  0  0
   13.3960  -12.6186    6.9048 C   0  0  1  0  0  0  0  0  0  0  0  0
   14.7371  -12.6038    7.8016 C   0  0  2  0  0  0  0  0  0  0  0  0
   11.3746  -13.4750    8.1770 C   0  0  2  0  0  0  0  0  0  0  0  0
   12.1262  -14.5816    8.9702 C   0  0  1  0  0  0  0  0  0  0  0  0
   10.9597  -15.0792    9.7890 C   0  0  1  0  0  0  0  0  0  0  0  0
   10.2628  -13.7842   10.3149 C   0  0  1  0  0  0  0  0  0  0  0  0
   10.8825  -13.1143   11.5911 C   0  0  0  0  0  0  0  0  0  0  0  0
    9.0440  -16.6103    9.5248 C   0  0  1  0  0  0  0  0  0  0  0  0
    9.5445  -17.5349   10.5941 C   0  0  1  0  0  0  0  0  0  0  0  0
    9.8915  -11.3215    4.4685 C   0  0  1  0  0  0  0  0  0  0  0  0
    8.3229  -18.3305   11.1764 C   0  0  0  0  0  0  0  0  0  0  0  0
    7.6188  -19.1349   10.2194 C   0  0  0  0  0  0  0  0  0  0  0  0
    7.0889  -18.2700    9.1868 C   0  0  2  0  0  0  0  0  0  0  0  0
    6.3081  -19.1028    8.0951 C   0  0  0  0  0  0  0  0  0  0  0  0
   19.6712  -14.1412    8.5887 C   0  0  2  0  0  0  0  0  0  0  0  0
   18.4832  -13.0091    6.8976 C   0  0  0  0  0  0  0  0  0  0  0  0
   20.5616  -15.0048    7.9793 C   0  0  0  0  0  0  0  0  0  0  0  0
   19.7045  -12.9503    7.9408 C   0  0  1  0  0  0  0  0  0  0  0  0
   10.1317  -10.5639    3.0843 C   0  0  0  0  0  0  0  0  0  0  0  0
   10.0810   -8.9850    3.3616 C   0  0  0  0  0  0  0  0  0  0  0  0
   11.2207   -8.6360    4.4271 C   0  0  1  0  0  0  0  0  0  0  0  0
   11.2453   -7.1415    4.7696 C   0  0  0  0  0  0  0  0  0  0  0  0
   15.9863  -12.7129    6.8226 C   0  0  1  0  0  0  0  0  0  0  0  0
   15.9516  -11.3821    5.8987 C   0  0  0  0  0  0  0  0  0  0  0  0
   14.6328  -11.3616    5.0336 C   0  0  2  0  0  0  0  0  0  0  0  0
   19.9902  -14.0316    9.9944 F   0  0  0  0  0  0  0  0  0  0  0  0
    5.7569  -18.2241    6.9357 N   0  0  0  0  0  0  0  0  0  0  0  0
    9.9388  -12.8224    4.3126 N   0  0  0  0  0  0  0  0  0  0  0  0
   10.4369  -18.5088   10.1371 N   0  0  0  0  0  0  0  0  0  0  0  0
   21.9755  -15.0109    7.9314 N   0  0  0  0  0  0  0  0  0  0  0  0
   11.4834   -6.3610    3.6185 N   0  0  0  0  0  0  0  0  0  0  0  0
   17.2351  -12.7161    7.6055 N   0  0  0  0  0  0  0  0  0  0  0  0
   14.5813  -10.1446    4.1934 N   0  0  0  0  0  0  0  0  0  0  0  0
   12.2508  -11.3699    5.1358 O   0  0  0  0  0  0  0  0  0  0  0  0
   12.1657  -12.5158    7.7583 O   0  0  0  0  0  0  0  0  0  0  0  0
   14.7094  -13.7147    8.6147 O   0  0  0  0  0  0  0  0  0  0  0  0
   12.6223  -15.5137    8.0578 O   0  0  0  0  0  0  0  0  0  0  0  0
   10.2884  -13.0552    9.0765 O   0  0  0  0  0  0  0  0  0  0  0  0
   10.0685  -11.9692   11.9139 O   0  0  0  0  0  0  0  0  0  0  0  0
   10.0332  -15.8851    8.8966 O   0  0  0  0  0  0  0  0  0  0  0  0
   19.5346  -11.8209    8.8251 O   0  0  0  0  0  0  0  0  0  0  0  0
   18.6012  -13.2505    5.6850 O   0  0  0  0  0  0  0  0  0  0  0  0
    8.2007  -17.4692    8.5507 O   0  0  0  0  0  0  0  0  0  0  0  0
   10.9875   -9.4229    5.7064 O   0  0  0  0  0  0  0  0  0  0  0  0
  1 36  1  6  0  0  0
  2 36  1  6  0  0  0
  2  3  1  0  0  0  0
  3 37  1  1  0  0  0
  3  4  1  0  0  0  0
  4 38  1  1  0  0  0
  5 37  1  1  0  0  0
  5  6  1  0  0  0  0
  6  7  1  0  0  0  0
  6 39  1  6  0  0  0
  7 42  1  6  0  0  0
  8  9  1  1  0  0  0
  8  7  1  0  0  0  0
 10 42  1  6  0  0  0
 10 11  1  0  0  0  0
 11 31  1  6  0  0  0
 11 13  1  0  0  0  0
 12 30  1  6  0  0  0
 12  1  1  0  0  0  0
 14 13  1  0  0  0  0
 15 16  1  6  0  0  0
 15 14  1  0  0  0  0
 17 19  1  6  0  0  0
 17 28  1  0  0  0  0
 18 34  1  0  0  0  0
 19 32  1  0  0  0  0
 20 18  1  6  0  0  0
 20 17  1  0  0  0  0
 20 43  1  0  0  0  0
 21 12  1  0  0  0  0
 22 21  1  0  0  0  0
 22 23  1  0  0  0  0
 23 24  1  1  0  0  0
 23 46  1  0  0  0  0
 24 33  1  0  0  0  0
 25 34  1  1  0  0  0
 25  4  1  0  0  0  0
 26 25  1  0  0  0  0
 27 35  1  1  0  0  0
 27 26  1  0  0  0  0
 27  2  1  0  0  0  0
 29 16  1  0  0  0  0
 40  8  1  0  0  0  0
 40  5  1  0  0  0  0
 41  9  1  0  0  0  0
 44 18  2  0  0  0  0
 45 15  1  0  0  0  0
 45 10  1  0  0  0  0
 46  1  1  0  0  0  0
M  END
>  <CHROM.1>
-168.49424732,81.89215249,143.23038213,56.14553309,168.87725365,-178.53835620
-53.91949178,-178.12409464,69.37065649,79.85261624,96.08803511,-59.69681360
171.13536966,12.74500675,-13.42597531,7.55717916,2.68488310,0.09313507,2.52855606

>  <Name>
lig.pdb

>  <RI>
0

>  <Rbt.Current_Directory>
/home/afrankz/demos/rdock_decoys_rna/rnas/3wru

>  <Rbt.Executable>
rbdock ($Id: //depot/dev/client3/rdock/2013.1/src/exe/rbdock.cxx#4 $)

>  <Rbt.Library>
libRbt.so (2013.1, Build901 2013/11/27)

>  <Rbt.Parameter_File>
/export/apps/rDock/src/rDock_2013.1_src/data/scripts/dock_solv.prm

>  <Rbt.Receptor>
prm/pocket_docking_2.prm

>  <SCORE>
0.244343

>  <SCORE.INTER>
0.492437

>  <SCORE.INTER.CONST>
1

>  <SCORE.INTER.POLAR>
0

>  <SCORE.INTER.ROT>
13

>  <SCORE.INTER.SOLV>
20.9819

>  <SCORE.INTER.VDW>
-18.9323

>  <SCORE.INTER.norm>
0.0107052

>  <SCORE.INTRA>
-1.83674

>  <SCORE.INTRA.DIHEDRAL>
-6.42056

>  <SCORE.INTRA.DIHEDRAL.0>
19.7146

>  <SCORE.INTRA.POLAR>
0

>  <SCORE.INTRA.POLAR.0>
0

>  <SCORE.INTRA.REPUL>
0

>  <SCORE.INTRA.REPUL.0>
0

>  <SCORE.INTRA.SOLV>
-1.2168

>  <SCORE.INTRA.SOLV.lig_0>
-116.697

>  <SCORE.INTRA.VDW>
1.98194

>  <SCORE.INTRA.VDW.0>
-7.06424

>  <SCORE.INTRA.norm>
-0.0399292

>  <SCORE.RESTR>
1.58865

>  <SCORE.RESTR.CAVITY>
1.58865

>  <SCORE.RESTR.norm>
0.0345358

>  <SCORE.SYSTEM>
0

>  <SCORE.SYSTEM.CONST>
0

>  <SCORE.SYSTEM.DIHEDRAL>
0

>  <SCORE.SYSTEM.SOLV>
0

>  <SCORE.SYSTEM.norm>
0

>  <SCORE.heavy>
46

>  <SCORE.norm>
0.00531181

>  <RMSD>
1.620

$$$$
lig.pdb
 OpenBabel03061811583D
libRbt.so/2013.1/901 2013/11/27
 46 49  0  0  0  0  0  0  0  0999 V2000
   11.0225  -10.5404    5.3085 C   0  0  1  0  0  0  0  0  0  0  0  0
   13.4551  -10.9509    5.8757 C   0  0  1  0  0  0  0  0  0  0  0  0
   13.3084  -12.0377    6.9834 C   0  0  1  0  0  0  0  0  0  0  0  0
   14.6116  -11.9921    7.9335 C   0  0  2  0  0  0  0  0  0  0  0  0
   11.4189  -12.4412    8.6281 C   0  0  2  0  0  0  0  0  0  0  0  0
   10.2584  -11.6776    9.3273 C   0  0  1  0  0  0  0  0  0  0  0  0
    9.4152  -12.8741    9.6966 C   0  0  1  0  0  0  0  0  0  0  0  0
    9.3861  -13.7528    8.4059 C   0  0  1  0  0  0  0  0  0  0  0  0
    8.3477  -13.3532    7.2996 C   0  0  0  0  0  0  0  0  0  0  0  0
    9.4967  -14.7998   11.2357 C   0  0  1  0  0  0  0  0  0  0  0  0
   10.1142  -15.4159   12.4555 C   0  0  1  0  0  0  0  0  0  0  0  0
   10.0218  -10.9388    4.1979 C   0  0  1  0  0  0  0  0  0  0  0  0
    9.4020  -16.7865   12.7359 C   0  0  0  0  0  0  0  0  0  0  0  0
    9.5115  -17.7481   11.6767 C   0  0  0  0  0  0  0  0  0  0  0  0
    8.8925  -17.2013   10.4881 C   0  0  2  0  0  0  0  0  0  0  0  0
    8.9903  -18.2149    9.2805 C   0  0  0  0  0  0  0  0  0  0  0  0
   20.0092  -11.7880    8.1781 C   0  0  2  0  0  0  0  0  0  0  0  0
   18.2303  -13.1532    7.4539 C   0  0  0  0  0  0  0  0  0  0  0  0
   20.9740  -11.4876    9.1210 C   0  0  0  0  0  0  0  0  0  0  0  0
   19.4342  -12.9724    8.5032 C   0  0  1  0  0  0  0  0  0  0  0  0
   10.3341  -10.1614    2.8393 C   0  0  0  0  0  0  0  0  0  0  0  0
   10.2614   -8.5867    3.1347 C   0  0  0  0  0  0  0  0  0  0  0  0
   11.3396   -8.2482    4.2657 C   0  0  1  0  0  0  0  0  0  0  0  0
   11.3389   -6.7585    4.6292 C   0  0  0  0  0  0  0  0  0  0  0  0
   15.8822  -12.3488    7.0452 C   0  0  1  0  0  0  0  0  0  0  0  0
   15.9964  -11.1768    5.9320 C   0  0  0  0  0  0  0  0  0  0  0  0
   14.7174  -11.1844    5.0090 C   0  0  2  0  0  0  0  0  0  0  0  0
   20.6050  -11.7891    6.8610 F   0  0  0  0  0  0  0  0  0  0  0  0
   10.4524  -18.4699    8.8144 N   0  0  0  0  0  0  0  0  0  0  0  0
   10.0842  -12.4373    4.0246 N   0  0  0  0  0  0  0  0  0  0  0  0
   11.4703  -15.7247   12.3166 N   0  0  0  0  0  0  0  0  0  0  0  0
   22.1505  -12.1718    9.5070 N   0  0  0  0  0  0  0  0  0  0  0  0
   11.8991   -5.9829    3.5921 N   0  0  0  0  0  0  0  0  0  0  0  0
   17.0962  -12.3310    7.8809 N   0  0  0  0  0  0  0  0  0  0  0  0
   14.8020  -10.1104    3.9947 N   0  0  0  0  0  0  0  0  0  0  0  0
   12.3413  -10.9879    4.9928 O   0  0  0  0  0  0  0  0  0  0  0  0
   12.0606  -11.7079    7.7497 O   0  0  0  0  0  0  0  0  0  0  0  0
   14.4582  -12.9595    8.9013 O   0  0  0  0  0  0  0  0  0  0  0  0
   10.7839  -10.9897   10.4217 O   0  0  0  0  0  0  0  0  0  0  0  0
   10.7868  -13.6595    8.0977 O   0  0  0  0  0  0  0  0  0  0  0  0
    8.4474  -14.3293    6.2435 O   0  0  0  0  0  0  0  0  0  0  0  0
   10.0709  -13.6071   10.8529 O   0  0  0  0  0  0  0  0  0  0  0  0
   20.3433  -14.0899    8.3974 O   0  0  0  0  0  0  0  0  0  0  0  0
   18.2789  -13.8686    6.4397 O   0  0  0  0  0  0  0  0  0  0  0  0
    9.5274  -15.8793   10.1259 O   0  0  0  0  0  0  0  0  0  0  0  0
   11.0401   -9.0535    5.5195 O   0  0  0  0  0  0  0  0  0  0  0  0
  1 36  1  6  0  0  0
  2 36  1  6  0  0  0
  2  3  1  0  0  0  0
  3 37  1  1  0  0  0
  3  4  1  0  0  0  0
  4 38  1  1  0  0  0
  5 37  1  6  0  0  0
  5  6  1  0  0  0  0
  6  7  1  0  0  0  0
  6 39  1  1  0  0  0
  7 42  1  1  0  0  0
  8  9  1  6  0  0  0
  8  7  1  0  0  0  0
 10 42  1  6  0  0  0
 10 11  1  0  0  0  0
 11 31  1  6  0  0  0
 11 13  1  0  0  0  0
 12 30  1  6  0  0  0
 12  1  1  0  0  0  0
 14 13  1  0  0  0  0
 15 16  1  6  0  0  0
 15 14  1  0  0  0  0
 17 19  1  1  0  0  0
 17 28  1  0  0  0  0
 18 34  1  0  0  0  0
 19 32  1  0  0  0  0
 20 18  1  6  0  0  0
 20 17  1  0  0  0  0
 20 43  1  0  0  0  0
 21 12  1  0  0  0  0
 22 21  1  0  0  0  0
 22 23  1  0  0  0  0
 23 24  1  1  0  0  0
 23 46  1  0  0  0  0
 24 33  1  0  0  0  0
 25 34  1  1  0  0  0
 25  4  1  0  0  0  0
 26 25  1  0  0  0  0
 27 35  1  6  0  0  0
 27 26  1  0  0  0  0
 27  2  1  0  0  0  0
 29 16  1  0  0  0  0
 40  8  1  0  0  0  0
 40  5  1  0  0  0  0
 41  9  1  0  0  0  0
 44 18  2  0  0  0  0
 45 15  1  0  0  0  0
 45 10  1  0  0  0  0
 46  1  1  0  0  0  0
M  END
>  <CHROM.1>
-170.86395356,72.68305260,168.26825369,173.18365959,-174.05696408,-177.09507273
-174.93984665,-65.30553351,60.60452175,-78.83293333,173.96652374,-71.82967182
154.18668225,12.92927782,-12.58601364,7.66034959,2.71052328,0.06001281,2.37759233

>  <Name>
lig.pdb

>  <RI>
0

>  <Rbt.Current_Directory>
/home/afrankz/demos/rdock_decoys_rna/rnas/3wru

>  <Rbt.Executable>
rbdock ($Id: //depot/dev/client3/rdock/2013.1/src/exe/rbdock.cxx#4 $)

>  <Rbt.Library>
libRbt.so (2013.1, Build901 2013/11/27)

>  <Rbt.Parameter_File>
/export/apps/rDock/src/rDock_2013.1_src/data/scripts/dock_solv.prm

>  <Rbt.Receptor>
prm/pocket_docking_3.prm

>  <SCORE>
-12.0959

>  <SCORE.INTER>
-5.78774

>  <SCORE.INTER.CONST>
1

>  <SCORE.INTER.POLAR>
0

>  <SCORE.INTER.ROT>
13

>  <SCORE.INTER.SOLV>
20.9471

>  <SCORE.INTER.VDW>
-23.1075

>  <SCORE.INTER.norm>
-0.12582

>  <SCORE.INTRA>
-6.30814

>  <SCORE.INTRA.DIHEDRAL>
-14.7172

>  <SCORE.INTRA.DIHEDRAL.0>
19.7146

>  <SCORE.INTRA.POLAR>
0

>  <SCORE.INTRA.POLAR.0>
0

>  <SCORE.INTRA.REPUL>
0

>  <SCORE.INTRA.REPUL.0>
0

>  <SCORE.INTRA.SOLV>
-0.446823

>  <SCORE.INTRA.SOLV.lig_0>
-116.697

>  <SCORE.INTRA.VDW>
1.27389

>  <SCORE.INTRA.VDW.0>
-7.06424

>  <SCORE.INTRA.norm>
-0.137134

>  <SCORE.RESTR>
0

>  <SCORE.RESTR.CAVITY>
0

>  <SCORE.RESTR.norm>
0

>  <SCORE.SYSTEM>
0

>  <SCORE.SYSTEM.CONST>
0

>  <SCORE.SYSTEM.DIHEDRAL>
0

>  <SCORE.SYSTEM.SOLV>
0

>  <SCORE.SYSTEM.norm>
0

>  <SCORE.heavy>
46

>  <SCORE.norm>
-0.262954

>  <RMSD>
1.633

$$$$
lig.pdb
 OpenBabel03061811583D
libRbt.so/2013.1/901 2013/11/27
 46 49  0  0  0  0  0  0  0  0999 V2000
   10.7656  -10.5549    5.1262 C   0  0  1  0  0  0  0  0  0  0  0  0
   13.1474  -11.0277    5.8413 C   0  0  1  0  0  0  0  0  0  0  0  0
   12.9259  -12.1019    6.9489 C   0  0  1  0  0  0  0  0  0  0  0  0
   14.1762  -12.0647    7.9679 C   0  0  2  0  0  0  0  0  0  0  0  0
   10.9839  -12.4324    8.5480 C   0  0  2  0  0  0  0  0  0  0  0  0
    9.8618  -11.6060    9.2385 C   0  0  1  0  0  0  0  0  0  0  0  0
    8.9774  -12.7585    9.6489 C   0  0  1  0  0  0  0  0  0  0  0  0
    8.8995  -13.6695    8.3827 C   0  0  1  0  0  0  0  0  0  0  0  0
    7.8646  -13.2593    7.2771 C   0  0  0  0  0  0  0  0  0  0  0  0
    8.9318  -14.5677   11.3248 C   0  0  1  0  0  0  0  0  0  0  0  0
    9.4789  -15.0903   12.6196 C   0  0  1  0  0  0  0  0  0  0  0  0
    9.8316  -10.8942    3.9405 C   0  0  1  0  0  0  0  0  0  0  0  0
    8.6400  -16.3478   13.0432 C   0  0  0  0  0  0  0  0  0  0  0  0
    8.6688  -17.4329   12.1049 C   0  0  0  0  0  0  0  0  0  0  0  0
    8.1135  -16.9750   10.8491 C   0  0  2  0  0  0  0  0  0  0  0  0
    8.1270  -18.1278    9.7693 C   0  0  0  0  0  0  0  0  0  0  0  0
   19.7849  -12.6708    8.3064 C   0  0  2  0  0  0  0  0  0  0  0  0
   17.6233  -13.5287    7.9263 C   0  0  0  0  0  0  0  0  0  0  0  0
   20.7343  -12.2175    9.2026 C   0  0  0  0  0  0  0  0  0  0  0  0
   18.8049  -13.3089    8.9934 C   0  0  1  0  0  0  0  0  0  0  0  0
   10.2761  -10.1157    2.6199 C   0  0  0  0  0  0  0  0  0  0  0  0
   10.2523   -8.5429    2.9331 C   0  0  0  0  0  0  0  0  0  0  0  0
   11.2594   -8.2673    4.1438 C   0  0  1  0  0  0  0  0  0  0  0  0
   11.2986   -6.7835    4.5289 C   0  0  0  0  0  0  0  0  0  0  0  0
   15.4881  -12.4467    7.1530 C   0  0  1  0  0  0  0  0  0  0  0  0
   15.6786  -11.2870    6.0375 C   0  0  0  0  0  0  0  0  0  0  0  0
   14.4514  -11.2863    5.0465 C   0  0  2  0  0  0  0  0  0  0  0  0
   20.4192  -13.5082    7.3134 F   0  0  0  0  0  0  0  0  0  0  0  0
    7.3911  -17.7412    8.4543 N   0  0  0  0  0  0  0  0  0  0  0  0
    9.8396  -12.3918    3.7494 N   0  0  0  0  0  0  0  0  0  0  0  0
   10.8016  -15.5358   12.5438 N   0  0  0  0  0  0  0  0  0  0  0  0
   21.9162  -11.4637    9.0125 N   0  0  0  0  0  0  0  0  0  0  0  0
   11.8081   -5.9986    3.4728 N   0  0  0  0  0  0  0  0  0  0  0  0
   16.6551  -12.4373    8.0532 N   0  0  0  0  0  0  0  0  0  0  0  0
   14.6057  -10.2232    4.0290 N   0  0  0  0  0  0  0  0  0  0  0  0
   12.0827  -11.0581    4.8996 O   0  0  0  0  0  0  0  0  0  0  0  0
   11.6431  -11.7482    7.6434 O   0  0  0  0  0  0  0  0  0  0  0  0
   13.9573  -13.0208    8.9343 O   0  0  0  0  0  0  0  0  0  0  0  0
   10.4261  -10.9102   10.3084 O   0  0  0  0  0  0  0  0  0  0  0  0
   10.2991  -13.6389    8.0574 O   0  0  0  0  0  0  0  0  0  0  0  0
    7.9657  -14.2268    6.2133 O   0  0  0  0  0  0  0  0  0  0  0  0
    9.6177  -13.4855   10.8175 O   0  0  0  0  0  0  0  0  0  0  0  0
   19.2252  -14.5852    9.5232 O   0  0  0  0  0  0  0  0  0  0  0  0
   17.5663  -14.4717    7.1200 O   0  0  0  0  0  0  0  0  0  0  0  0
    8.8716  -15.7681   10.3485 O   0  0  0  0  0  0  0  0  0  0  0  0
   10.8341   -9.0729    5.3604 O   0  0  0  0  0  0  0  0  0  0  0  0
  1 36  1  6  0  0  0
  2 36  1  6  0  0  0
  2  3  1  0  0  0  0
  3 37  1  1  0  0  0
  3  4  1  0  0  0  0
  4 38  1  1  0  0  0
  5 37  1  6  0  0  0
  5  6  1  0  0  0  0
  6  7  1  0  0  0  0
  6 39  1  1  0  0  0
  7 42  1  1  0  0  0
  8  9  1  6  0  0  0
  8  7  1  0  0  0  0
 10 42  1  6  0  0  0
 10 11  1  0  0  0  0
 11 31  1  6  0  0  0
 11 13  1  0  0  0  0
 12 30  1  6  0  0  0
 12  1  1  0  0  0  0
 14 13  1  0  0  0  0
 15 16  1  6  0  0  0
 15 14  1  0  0  0  0
 17 19  1  1  0  0  0
 17 28  1  0  0  0  0
 18 34  1  0  0  0  0
 19 32  1  0  0  0  0
 20 18  1  6  0  0  0
 20 17  1  0  0  0  0
 20 43  1  0  0  0  0
 21 12  1  0  0  0  0
 22 21  1  0  0  0  0
 22 23  1  0  0  0  0
 23 24  1  1  0  0  0
 23 46  1  0  0  0  0
 24 33  1  0  0  0  0
 25 34  1  1  0  0  0
 25  4  1  0  0  0  0
 26 25  1  0  0  0  0
 27 35  1  6  0  0  0
 27 26  1  0  0  0  0
 27  2  1  0  0  0  0
 29 16  1  0  0  0  0
 40  8  1  0  0  0  0
 40  5  1  0  0  0  0
 41  9  1  0  0  0  0
 44 18  2  0  0  0  0
 45 15  1  0  0  0  0
 45 10  1  0  0  0  0
 46  1  1  0  0  0  0
M  END
>  <CHROM.1>
-173.86227565,74.60353906,172.49227453,168.04208519,179.63793938,179.87156501
-169.54061880,173.28018844,-177.59445661,-95.42572485,168.80000986,-64.14175060
137.18880228,12.45280966,-12.64079046,7.73056170,2.75085899,0.04929718,2.33167788

>  <Name>
lig.pdb

>  <RI>
0

>  <Rbt.Current_Directory>
/home/afrankz/demos/rdock_decoys_rna/rnas/3wru

>  <Rbt.Executable>
rbdock ($Id: //depot/dev/client3/rdock/2013.1/src/exe/rbdock.cxx#4 $)

>  <Rbt.Library>
libRbt.so (2013.1, Build901 2013/11/27)

>  <Rbt.Parameter_File>
/export/apps/rDock/src/rDock_2013.1_src/data/scripts/dock_solv.prm

>  <Rbt.Receptor>
prm/pocket_docking_3.prm

>  <SCORE>
-12.6392

>  <SCORE.INTER>
-5.29312

>  <SCORE.INTER.CONST>
1

>  <SCORE.INTER.POLAR>
0

>  <SCORE.INTER.ROT>
13

>  <SCORE.INTER.SOLV>
22.1327

>  <SCORE.INTER.VDW>
-23.173

>  <SCORE.INTER.norm>
-0.115068

>  <SCORE.INTRA>
-7.3461

>  <SCORE.INTRA.DIHEDRAL>
-13.3021

>  <SCORE.INTRA.DIHEDRAL.0>
19.7146

>  <SCORE.INTRA.POLAR>
0

>  <SCORE.INTRA.POLAR.0>
0

>  <SCORE.INTRA.REPUL>
0

>  <SCORE.INTRA.REPUL.0>
0

>  <SCORE.INTRA.SOLV>
-2.94732

>  <SCORE.INTRA.SOLV.lig_0>
-116.697

>  <SCORE.INTRA.VDW>
0.778592

>  <SCORE.INTRA.VDW.0>
-7.06424

>  <SCORE.INTRA.norm>
-0.159698

>  <SCORE.RESTR>
0

>  <SCORE.RESTR.CAVITY>
0

>  <SCORE.RESTR.norm>
0

>  <SCORE.SYSTEM>
0

>  <SCORE.SYSTEM.CONST>
0

>  <SCORE.SYSTEM.DIHEDRAL>
0

>  <SCORE.SYSTEM.SOLV>
0

>  <SCORE.SYSTEM.norm>
0

>  <SCORE.heavy>
46

>  <SCORE.norm>
-0.274766

>  <RMSD>
1.636

$$$$
lig.pdb
 OpenBabel03061811583D
libRbt.so/2013.1/901 2013/11/27
 46 49  0  0  0  0  0  0  0  0999 V2000
   11.2369  -10.2890    5.3028 C   0  0  1  0  0  0  0  0  0  0  0  0
   13.3530  -11.6025    5.7558 C   0  0  1  0  0  0  0  0  0  0  0  0
   12.9782  -12.9328    6.4765 C   0  0  1  0  0  0  0  0  0  0  0  0
   14.2282  -13.4054    7.3804 C   0  0  2  0  0  0  0  0  0  0  0  0
   11.1505  -13.4313    8.1643 C   0  0  2  0  0  0  0  0  0  0  0  0
   10.3276  -12.6550    9.2316 C   0  0  1  0  0  0  0  0  0  0  0  0
    9.3217  -13.7361    9.5453 C   0  0  1  0  0  0  0  0  0  0  0  0
    8.8733  -14.2778    8.1508 C   0  0  1  0  0  0  0  0  0  0  0  0
    7.7689  -13.4594    7.3943 C   0  0  0  0  0  0  0  0  0  0  0  0
    9.1808  -15.8078   10.8764 C   0  0  1  0  0  0  0  0  0  0  0  0
    9.9010  -16.8374   11.6950 C   0  0  1  0  0  0  0  0  0  0  0  0
   10.0307  -10.4083    4.3416 C   0  0  1  0  0  0  0  0  0  0  0  0
    8.8645  -17.9242   12.1522 C   0  0  0  0  0  0  0  0  0  0  0  0
    8.2111  -18.6194   11.0806 C   0  0  0  0  0  0  0  0  0  0  0  0
    7.4739  -17.6598   10.2864 C   0  0  2  0  0  0  0  0  0  0  0  0
    6.7380  -18.3674    9.0812 C   0  0  0  0  0  0  0  0  0  0  0  0
   19.1396  -13.7904    8.4248 C   0  0  2  0  0  0  0  0  0  0  0  0
   16.7962  -13.5713    8.5389 C   0  0  0  0  0  0  0  0  0  0  0  0
   19.4490  -12.4836    8.7514 C   0  0  0  0  0  0  0  0  0  0  0  0
   18.1129  -14.2053    9.2078 C   0  0  1  0  0  0  0  0  0  0  0  0
   10.4065   -9.8821    2.8823 C   0  0  0  0  0  0  0  0  0  0  0  0
   10.8877   -8.3573    3.0077 C   0  0  0  0  0  0  0  0  0  0  0  0
   12.1497   -8.3189    3.9884 C   0  0  1  0  0  0  0  0  0  0  0  0
   12.6792   -6.8932    4.1838 C   0  0  0  0  0  0  0  0  0  0  0  0
   15.4582  -13.6883    6.4119 C   0  0  1  0  0  0  0  0  0  0  0  0
   15.8155  -12.2708    5.7126 C   0  0  0  0  0  0  0  0  0  0  0  0
   14.5945  -11.7751    4.8458 C   0  0  2  0  0  0  0  0  0  0  0  0
   20.3210  -14.6133    8.5550 F   0  0  0  0  0  0  0  0  0  0  0  0
    7.7170  -19.0565    8.0878 N   0  0  0  0  0  0  0  0  0  0  0  0
    9.5798  -11.8491    4.3297 N   0  0  0  0  0  0  0  0  0  0  0  0
   10.8874  -17.5377   10.9950 N   0  0  0  0  0  0  0  0  0  0  0  0
   20.4002  -11.5847    8.2143 N   0  0  0  0  0  0  0  0  0  0  0  0
   11.6746   -6.0445    4.6952 N   0  0  0  0  0  0  0  0  0  0  0  0
   16.6206  -14.1366    7.1994 N   0  0  0  0  0  0  0  0  0  0  0  0
   14.9019  -10.4746    4.2107 N   0  0  0  0  0  0  0  0  0  0  0  0
   12.2880  -11.1751    4.9164 O   0  0  0  0  0  0  0  0  0  0  0  0
   11.7715  -12.6419    7.3204 O   0  0  0  0  0  0  0  0  0  0  0  0
   13.8730  -14.5801    8.0048 O   0  0  0  0  0  0  0  0  0  0  0  0
   11.1759  -12.3388   10.2934 O   0  0  0  0  0  0  0  0  0  0  0  0
   10.1834  -14.3652    7.5662 O   0  0  0  0  0  0  0  0  0  0  0  0
    7.3905  -14.2214    6.2306 O   0  0  0  0  0  0  0  0  0  0  0  0
    9.9949  -14.8176   10.3709 O   0  0  0  0  0  0  0  0  0  0  0  0
   17.9875  -15.6433    9.2601 O   0  0  0  0  0  0  0  0  0  0  0  0
   16.0503  -12.7466    9.0921 O   0  0  0  0  0  0  0  0  0  0  0  0
    8.3969  -16.5749    9.7834 O   0  0  0  0  0  0  0  0  0  0  0  0
   11.7637   -8.8831    5.3459 O   0  0  0  0  0  0  0  0  0  0  0  0
  1 36  1  6  0  0  0
  2 36  1  6  0  0  0
  2  3  1  0  0  0  0
  3 37  1  1  0  0  0
  3  4  1  0  0  0  0
  4 38  1  6  0  0  0
  5 37  1  6  0  0  0
  5  6  1  0  0  0  0
  6  7  1  0  0  0  0
  6 39  1  1  0  0  0
  7 42  1  1  0  0  0
  8  9  1  6  0  0  0
  8  7  1  0  0  0  0
 10 42  1  6  0  0  0
 10 11  1  0  0  0  0
 11 31  1  6  0  0  0
 11 13  1  0  0  0  0
 12 30  1  6  0  0  0
 12  1  1  0  0  0  0
 14 13  1  0  0  0  0
 15 16  1  6  0  0  0
 15 14  1  0  0  0  0
 17 19  1  1  0  0  0
 17 28  1  0  0  0  0
 18 34  1  0  0  0  0
 19 32  1  0  0  0  0
 20 18  1  6  0  0  0
 20 17  1  0  0  0  0
 20 43  1  0  0  0  0
 21 12  1  0  0  0  0
 22 21  1  0  0  0  0
 22 23  1  0  0  0  0
 23 24  1  1  0  0  0
 23 46  1  0  0  0  0
 24 33  1  0  0  0  0
 25 34  1  1  0  0  0
 25  4  1  0  0  0  0
 26 25  1  0  0  0  0
 27 35  1  1  0  0  0
 27 26  1  0  0  0  0
 27  2  1  0  0  0  0
 29 16  1  0  0  0  0
 40  8  1  0  0  0  0
 40  5  1  0  0  0  0
 41  9  1  0  0  0  0
 44 18  2  0  0  0  0
 45 15  1  0  0  0  0
 45 10  1  0  0  0  0
 46  1  1  0  0  0  0
M  END
>  <CHROM.1>
-161.09195314,91.90519682,-175.43737466,157.45354583,172.73902887,-172.76737251
-179.35069648,-61.87393285,-177.90635429,63.73770286,78.97931143,57.95488194
-33.97007960,12.38565811,-13.27623581,7.56850789,0.69988967,-0.08493911,-0.67020287

>  <Name>
lig.pdb

>  <RI>
0

>  <Rbt.Current_Directory>
/home/afrankz/demos/rdock_decoys_rna/rnas/3wru

>  <Rbt.Executable>
rbdock ($Id: //depot/dev/client3/rdock/2013.1/src/exe/rbdock.cxx#4 $)

>  <Rbt.Library>
libRbt.so (2013.1, Build901 2013/11/27)

>  <Rbt.Parameter_File>
/export/apps/rDock/src/rDock_2013.1_src/data/scripts/dock_solv.prm

>  <Rbt.Receptor>
prm/pocket_docking_2.prm

>  <SCORE>
1.68681

>  <SCORE.INTER>
2.24237

>  <SCORE.INTER.CONST>
1

>  <SCORE.INTER.POLAR>
0

>  <SCORE.INTER.ROT>
13

>  <SCORE.INTER.SOLV>
23.6831

>  <SCORE.INTER.VDW>
-18.6661

>  <SCORE.INTER.norm>
0.0487471

>  <SCORE.INTRA>
-0.725702

>  <SCORE.INTRA.DIHEDRAL>
-8.7632

>  <SCORE.INTRA.DIHEDRAL.0>
19.7146

>  <SCORE.INTRA.POLAR>
0

>  <SCORE.INTRA.POLAR.0>
0

>  <SCORE.INTRA.REPUL>
0

>  <SCORE.INTRA.REPUL.0>
0

>  <SCORE.INTRA.SOLV>
1.30594

>  <SCORE.INTRA.SOLV.lig_0>
-116.697

>  <SCORE.INTRA.VDW>
3.00293

>  <SCORE.INTRA.VDW.0>
-7.06424

>  <SCORE.INTRA.norm>
-0.0157761

>  <SCORE.RESTR>
0.170145

>  <SCORE.RESTR.CAVITY>
0.170145

>  <SCORE.RESTR.norm>
0.00369881

>  <SCORE.SYSTEM>
0

>  <SCORE.SYSTEM.CONST>
0

>  <SCORE.SYSTEM.DIHEDRAL>
0

>  <SCORE.SYSTEM.SOLV>
0

>  <SCORE.SYSTEM.norm>
0

>  <SCORE.heavy>
46

>  <SCORE.norm>
0.0366697

>  <RMSD>
1.649

$$$$
lig.pdb
 OpenBabel03061811583D
libRbt.so/2013.1/901 2013/11/27
 46 49  0  0  0  0  0  0  0  0999 V2000
   11.3580  -11.3477    5.4890 C   0  0  1  0  0  0  0  0  0  0  0  0
   13.7686  -11.8132    6.1057 C   0  0  1  0  0  0  0  0  0  0  0  0
   13.6425  -12.9199    7.1961 C   0  0  1  0  0  0  0  0  0  0  0  0
   14.9388  -12.8568    8.1545 C   0  0  2  0  0  0  0  0  0  0  0  0
   11.5100  -13.4794    8.4520 C   0  0  2  0  0  0  0  0  0  0  0  0
   12.1254  -14.4456    9.5038 C   0  0  1  0  0  0  0  0  0  0  0  0
   10.8600  -14.7566   10.2660 C   0  0  1  0  0  0  0  0  0  0  0  0
   10.1733  -13.3699   10.4778 C   0  0  1  0  0  0  0  0  0  0  0  0
   10.6900  -12.4989   11.6762 C   0  0  0  0  0  0  0  0  0  0  0  0
    8.8781  -16.2089   10.0504 C   0  0  1  0  0  0  0  0  0  0  0  0
    9.1812  -17.0688   11.2410 C   0  0  1  0  0  0  0  0  0  0  0  0
   10.3565  -11.7584    4.3837 C   0  0  1  0  0  0  0  0  0  0  0  0
    7.8298  -17.6389   11.8006 C   0  0  0  0  0  0  0  0  0  0  0  0
    7.0896  -18.4470   10.8746 C   0  0  0  0  0  0  0  0  0  0  0  0
    6.7471  -17.6384    9.7239 C   0  0  2  0  0  0  0  0  0  0  0  0
    5.9360  -18.4795    8.6611 C   0  0  0  0  0  0  0  0  0  0  0  0
   20.4100  -14.3770    8.5615 C   0  0  2  0  0  0  0  0  0  0  0  0
   18.0559  -14.4114    8.4617 C   0  0  0  0  0  0  0  0  0  0  0  0
   21.5746  -14.1862    9.2808 C   0  0  0  0  0  0  0  0  0  0  0  0
   19.3506  -14.1308    9.3717 C   0  0  1  0  0  0  0  0  0  0  0  0
   10.7193  -11.0619    2.9941 C   0  0  0  0  0  0  0  0  0  0  0  0
   10.7088   -9.4730    3.2119 C   0  0  0  0  0  0  0  0  0  0  0  0
   11.7849   -9.1244    4.3416 C   0  0  1  0  0  0  0  0  0  0  0  0
   11.8419   -7.6199    4.6326 C   0  0  0  0  0  0  0  0  0  0  0  0
   16.2228  -13.1687    7.2686 C   0  0  1  0  0  0  0  0  0  0  0  0
   16.3144  -11.9775    6.1738 C   0  0  0  0  0  0  0  0  0  0  0  0
   15.0411  -12.0025    5.2432 C   0  0  2  0  0  0  0  0  0  0  0  0
   20.3999  -15.7106    8.0038 F   0  0  0  0  0  0  0  0  0  0  0  0
    6.7977  -19.5660    7.9560 N   0  0  0  0  0  0  0  0  0  0  0  0
   10.3583  -13.2649    4.2840 N   0  0  0  0  0  0  0  0  0  0  0  0
    9.9650  -18.1896   10.9529 N   0  0  0  0  0  0  0  0  0  0  0  0
   22.9340  -14.3249    8.9148 N   0  0  0  0  0  0  0  0  0  0  0  0
   10.5939   -7.1434    5.0872 N   0  0  0  0  0  0  0  0  0  0  0  0
   17.4313  -13.1339    8.1117 N   0  0  0  0  0  0  0  0  0  0  0  0
   15.1049  -10.9115    4.2457 N   0  0  0  0  0  0  0  0  0  0  0  0
   12.6610  -11.8641    5.2157 O   0  0  0  0  0  0  0  0  0  0  0  0
   12.3827  -12.6325    7.9597 O   0  0  0  0  0  0  0  0  0  0  0  0
   14.8039  -13.8423    9.1067 O   0  0  0  0  0  0  0  0  0  0  0  0
   12.6685  -15.5393    8.8284 O   0  0  0  0  0  0  0  0  0  0  0  0
   10.3583  -12.8758    9.1408 O   0  0  0  0  0  0  0  0  0  0  0  0
    9.9683  -11.2514   11.6435 O   0  0  0  0  0  0  0  0  0  0  0  0
    9.9932  -15.6842    9.4339 O   0  0  0  0  0  0  0  0  0  0  0  0
   19.3200  -14.9838   10.5369 O   0  0  0  0  0  0  0  0  0  0  0  0
   17.6716  -15.5385    8.1088 O   0  0  0  0  0  0  0  0  0  0  0  0
    7.9940  -17.0553    9.1018 O   0  0  0  0  0  0  0  0  0  0  0  0
   11.4352   -9.8542    5.6281 O   0  0  0  0  0  0  0  0  0  0  0  0
  1 36  1  6  0  0  0
  2 36  1  6  0  0  0
  2  3  1  0  0  0  0
  3 37  1  1  0  0  0
  3  4  1  0  0  0  0
  4 38  1  1  0  0  0
  5 37  1  1  0  0  0
  5  6  1  0  0  0  0
  6  7  1  0  0  0  0
  6 39  1  6  0  0  0
  7 42  1  6  0  0  0
  8  9  1  1  0  0  0
  8  7  1  0  0  0  0
 10 42  1  6  0  0  0
 10 11  1  0  0  0  0
 11 31  1  6  0  0  0
 11 13  1  0  0  0  0
 12 30  1  6  0  0  0
 12  1  1  0  0  0  0
 14 13  1  0  0  0  0
 15 16  1  6  0  0  0
 15 14  1  0  0  0  0
 17 19  1  1  0  0  0
 17 28  1  0  0  0  0
 18 34  1  0  0  0  0
 19 32  1  0  0  0  0
 20 18  1  6  0  0  0
 20 17  1  0  0  0  0
 20 43  1  0  0  0  0
 21 12  1  0  0  0  0
 22 21  1  0  0  0  0
 22 23  1  0  0  0  0
 23 24  1  1  0  0  0
 23 46  1  0  0  0  0
 24 33  1  0  0  0  0
 25 34  1  1  0  0  0
 25  4  1  0  0  0  0
 26 25  1  0  0  0  0
 27 35  1  6  0  0  0
 27 26  1  0  0  0  0
 27  2  1  0  0  0  0
 29 16  1  0  0  0  0
 40  8  1  0  0  0  0
 40  5  1  0  0  0  0
 41  9  1  0  0  0  0
 44 18  2  0  0  0  0
 45 15  1  0  0  0  0
 45 10  1  0  0  0  0
 46  1  1  0  0  0  0
M  END
>  <CHROM.1>
-171.79664629,78.45721836,142.73210025,60.63045321,171.80830972,177.33134393
-61.83999002,-69.41495818,179.17891798,-106.81606923,-178.69042332,60.35442138
105.64299372,12.86353562,-13.70582499,7.97330280,2.86669177,0.04665699,2.46297834

>  <Name>
lig.pdb

>  <RI>
0

>  <Rbt.Current_Directory>
/home/afrankz/demos/rdock_decoys_rna/rnas/3wru

>  <Rbt.Executable>
rbdock ($Id: //depot/dev/client3/rdock/2013.1/src/exe/rbdock.cxx#4 $)

>  <Rbt.Library>
libRbt.so (2013.1, Build901 2013/11/27)

>  <Rbt.Parameter_File>
/export/apps/rDock/src/rDock_2013.1_src/data/scripts/dock_solv.prm

>  <Rbt.Receptor>
prm/pocket_docking_2.prm

>  <SCORE>
4.88657

>  <SCORE.INTER>
4.51779

>  <SCORE.INTER.CONST>
1

>  <SCORE.INTER.POLAR>
0

>  <SCORE.INTER.ROT>
13

>  <SCORE.INTER.SOLV>
21.7392

>  <SCORE.INTER.VDW>
-16.5012

>  <SCORE.INTER.norm>
0.0982127

>  <SCORE.INTRA>
-2.38763

>  <SCORE.INTRA.DIHEDRAL>
-8.6545

>  <SCORE.INTRA.DIHEDRAL.0>
19.7146

>  <SCORE.INTRA.POLAR>
0

>  <SCORE.INTRA.POLAR.0>
0

>  <SCORE.INTRA.REPUL>
0

>  <SCORE.INTRA.REPUL.0>
0

>  <SCORE.INTRA.SOLV>
-0.612223

>  <SCORE.INTRA.SOLV.lig_0>
-116.697

>  <SCORE.INTRA.VDW>
2.24573

>  <SCORE.INTRA.VDW.0>
-7.06424

>  <SCORE.INTRA.norm>
-0.051905

>  <SCORE.RESTR>
2.75642

>  <SCORE.RESTR.CAVITY>
2.75642

>  <SCORE.RESTR.norm>
0.0599221

>  <SCORE.SYSTEM>
0

>  <SCORE.SYSTEM.CONST>
0

>  <SCORE.SYSTEM.DIHEDRAL>
0

>  <SCORE.SYSTEM.SOLV>
0

>  <SCORE.SYSTEM.norm>
0

>  <SCORE.heavy>
46

>  <SCORE.norm>
0.10623

>  <RMSD>
1.755

$$$$
lig.pdb
 OpenBabel03061811583D
libRbt.so/2013.1/901 2013/11/27
 46 49  0  0  0  0  0  0  0  0999 V2000
   10.9860  -10.1054    4.6888 C   0  0  1  0  0  0  0  0  0  0  0  0
   13.3716  -10.6932    5.2980 C   0  0  1  0  0  0  0  0  0  0  0  0
   13.1648  -11.9879    6.1411 C   0  0  1  0  0  0  0  0  0  0  0  0
   14.4117  -12.1564    7.1510 C   0  0  2  0  0  0  0  0  0  0  0  0
   11.2347  -12.6855    7.6330 C   0  0  2  0  0  0  0  0  0  0  0  0
    9.9756  -12.0876    8.3228 C   0  0  1  0  0  0  0  0  0  0  0  0
    9.2041  -13.3733    8.4979 C   0  0  1  0  0  0  0  0  0  0  0  0
    9.3273  -14.1007    7.1214 C   0  0  1  0  0  0  0  0  0  0  0  0
    8.3364  -13.6513    5.9911 C   0  0  0  0  0  0  0  0  0  0  0  0
    9.2805  -15.4186    9.8744 C   0  0  1  0  0  0  0  0  0  0  0  0
    8.7145  -15.5582   11.2560 C   0  0  1  0  0  0  0  0  0  0  0  0
    9.9852  -10.5230    3.5855 C   0  0  1  0  0  0  0  0  0  0  0  0
    8.1721  -17.0214   11.4265 C   0  0  0  0  0  0  0  0  0  0  0  0
    9.1600  -18.0502   11.2699 C   0  0  0  0  0  0  0  0  0  0  0  0
    9.7054  -17.9695    9.9316 C   0  0  2  0  0  0  0  0  0  0  0  0
   10.8092  -19.0757    9.7016 C   0  0  0  0  0  0  0  0  0  0  0  0
   18.9704  -14.2663    8.4096 C   0  0  2  0  0  0  0  0  0  0  0  0
   18.1257  -13.0401    6.5832 C   0  0  0  0  0  0  0  0  0  0  0  0
   19.5436  -15.3379    7.7514 C   0  0  0  0  0  0  0  0  0  0  0  0
   19.2536  -13.1305    7.7247 C   0  0  1  0  0  0  0  0  0  0  0  0
   10.2765   -9.7444    2.2229 C   0  0  0  0  0  0  0  0  0  0  0  0
   10.1801   -8.1703    2.5146 C   0  0  0  0  0  0  0  0  0  0  0  0
   11.2595   -7.8113    3.6379 C   0  0  1  0  0  0  0  0  0  0  0  0
   11.2369   -6.3208    3.9974 C   0  0  0  0  0  0  0  0  0  0  0  0
   15.7317  -12.3297    6.2802 C   0  0  1  0  0  0  0  0  0  0  0  0
   15.9062  -10.9502    5.4480 C   0  0  0  0  0  0  0  0  0  0  0  0
   14.6817  -10.7506    4.4739 C   0  0  2  0  0  0  0  0  0  0  0  0
   19.4361  -14.2349    9.7778 F   0  0  0  0  0  0  0  0  0  0  0  0
   11.4272  -19.0342    8.2745 N   0  0  0  0  0  0  0  0  0  0  0  0
   10.0707  -12.0208    3.4158 N   0  0  0  0  0  0  0  0  0  0  0  0
    9.6523  -15.3893   12.2785 N   0  0  0  0  0  0  0  0  0  0  0  0
   20.8943  -15.7319    7.6037 N   0  0  0  0  0  0  0  0  0  0  0  0
   12.3893   -5.9570    4.7259 N   0  0  0  0  0  0  0  0  0  0  0  0
   16.8961  -12.5004    7.1676 N   0  0  0  0  0  0  0  0  0  0  0  0
   14.8212   -9.4875    3.7158 N   0  0  0  0  0  0  0  0  0  0  0  0
   12.3099  -10.5323    4.3662 O   0  0  0  0  0  0  0  0  0  0  0  0
   11.8746  -11.8154    6.8884 O   0  0  0  0  0  0  0  0  0  0  0  0
   14.2059  -13.3048    7.8823 O   0  0  0  0  0  0  0  0  0  0  0  0
   10.3738  -11.4929    9.5208 O   0  0  0  0  0  0  0  0  0  0  0  0
   10.7340  -13.8769    6.9293 O   0  0  0  0  0  0  0  0  0  0  0  0
    6.9981  -13.8375    6.4935 O   0  0  0  0  0  0  0  0  0  0  0  0
    9.8367  -14.1851    9.6137 O   0  0  0  0  0  0  0  0  0  0  0  0
   19.2061  -11.9462    8.5501 O   0  0  0  0  0  0  0  0  0  0  0  0
   18.2942  -13.3658    5.3966 O   0  0  0  0  0  0  0  0  0  0  0  0
   10.2711  -16.5922    9.6770 O   0  0  0  0  0  0  0  0  0  0  0  0
   10.9808   -8.6178    4.8957 O   0  0  0  0  0  0  0  0  0  0  0  0
  1 36  1  6  0  0  0
  2 36  1  6  0  0  0
  2  3  1  0  0  0  0
  3 37  1  1  0  0  0
  3  4  1  0  0  0  0
  4 38  1  6  0  0  0
  5 37  1  6  0  0  0
  5  6  1  0  0  0  0
  6  7  1  0  0  0  0
  6 39  1  1  0  0  0
  7 42  1  1  0  0  0
  8  9  1  6  0  0  0
  8  7  1  0  0  0  0
 10 42  1  1  0  0  0
 10 11  1  0  0  0  0
 11 31  1  1  0  0  0
 11 13  1  0  0  0  0
 12 30  1  6  0  0  0
 12  1  1  0  0  0  0
 14 13  1  0  0  0  0
 15 16  1  1  0  0  0
 15 14  1  0  0  0  0
 17 19  1  6  0  0  0
 17 28  1  0  0  0  0
 18 34  1  0  0  0  0
 19 32  1  0  0  0  0
 20 18  1  6  0  0  0
 20 17  1  0  0  0  0
 20 43  1  0  0  0  0
 21 12  1  0  0  0  0
 22 21  1  0  0  0  0
 22 23  1  0  0  0  0
 23 24  1  1  0  0  0
 23 46  1  0  0  0  0
 24 33  1  0  0  0  0
 25 34  1  1  0  0  0
 25  4  1  0  0  0  0
 26 25  1  0  0  0  0
 27 35  1  1  0  0  0
 27 26  1  0  0  0  0
 27  2  1  0  0  0  0
 29 16  1  0  0  0  0
 40  8  1  0  0  0  0
 40  5  1  0  0  0  0
 41  9  1  0  0  0  0
 44 18  2  0  0  0  0
 45 15  1  0  0  0  0
 45 10  1  0  0  0  0
 46  1  1  0  0  0  0
M  END
>  <CHROM.1>
-159.36373837,74.92288277,173.64021958,175.86444445,-177.75765785,-57.70409647
-118.23295039,179.89488076,70.92262115,80.35830070,84.53092442,-165.43201906
163.30767366,12.67640886,-12.84134225,7.07592950,0.72604054,0.00873457,-0.66472654

>  <Name>
lig.pdb

>  <RI>
0

>  <Rbt.Current_Directory>
/home/afrankz/demos/rdock_decoys_rna/rnas/3wru

>  <Rbt.Executable>
rbdock ($Id: //depot/dev/client3/rdock/2013.1/src/exe/rbdock.cxx#4 $)

>  <Rbt.Library>
libRbt.so (2013.1, Build901 2013/11/27)

>  <Rbt.Parameter_File>
/export/apps/rDock/src/rDock_2013.1_src/data/scripts/dock_solv.prm

>  <Rbt.Receptor>
prm/pocket_docking_4.prm

>  <SCORE>
-4.49105

>  <SCORE.INTER>
-2.3856

>  <SCORE.INTER.CONST>
1

>  <SCORE.INTER.POLAR>
0

>  <SCORE.INTER.ROT>
13

>  <SCORE.INTER.SOLV>
22.8535

>  <SCORE.INTER.VDW>
-21.4749

>  <SCORE.INTER.norm>
-0.0518609

>  <SCORE.INTRA>
-2.10545

>  <SCORE.INTRA.DIHEDRAL>
-4.82883

>  <SCORE.INTRA.DIHEDRAL.0>
19.7146

>  <SCORE.INTRA.POLAR>
0

>  <SCORE.INTRA.POLAR.0>
0

>  <SCORE.INTRA.REPUL>
0

>  <SCORE.INTRA.REPUL.0>
0

>  <SCORE.INTRA.SOLV>
-1.63235

>  <SCORE.INTRA.SOLV.lig_0>
-116.697

>  <SCORE.INTRA.VDW>
1.12514

>  <SCORE.INTRA.VDW.0>
-7.06424

>  <SCORE.INTRA.norm>
-0.0457706

>  <SCORE.RESTR>
0

>  <SCORE.RESTR.CAVITY>
0

>  <SCORE.RESTR.norm>
0

>  <SCORE.SYSTEM>
0

>  <SCORE.SYSTEM.CONST>
0

>  <SCORE.SYSTEM.DIHEDRAL>
0

>  <SCORE.SYSTEM.SOLV>
0

>  <SCORE.SYSTEM.norm>
0

>  <SCORE.heavy>
46

>  <SCORE.norm>
-0.0976315

>  <RMSD>
1.799

$$$$
lig.pdb
 OpenBabel03061811583D
libRbt.so/2013.1/901 2013/11/27
 46 49  0  0  0  0  0  0  0  0999 V2000
   11.1374   -9.6322    4.7882 C   0  0  1  0  0  0  0  0  0  0  0  0
   13.4119  -10.6626    5.2037 C   0  0  1  0  0  0  0  0  0  0  0  0
   13.2402  -11.9752    6.0268 C   0  0  1  0  0  0  0  0  0  0  0  0
   14.5828  -12.2319    6.8837 C   0  0  2  0  0  0  0  0  0  0  0  0
   11.4837  -12.6271    7.7378 C   0  0  2  0  0  0  0  0  0  0  0  0
   10.3166  -12.0045    8.5557 C   0  0  1  0  0  0  0  0  0  0  0  0
    9.5501  -13.2767    8.8257 C   0  0  1  0  0  0  0  0  0  0  0  0
    9.5112  -14.0160    7.4505 C   0  0  1  0  0  0  0  0  0  0  0  0
    8.4092  -13.5595    6.4313 C   0  0  0  0  0  0  0  0  0  0  0  0
    9.6477  -15.2118   10.3519 C   0  0  1  0  0  0  0  0  0  0  0  0
   10.3905  -15.9264   11.4412 C   0  0  1  0  0  0  0  0  0  0  0  0
    9.8982   -9.9741    3.9276 C   0  0  1  0  0  0  0  0  0  0  0  0
    9.5742  -17.2053   11.8443 C   0  0  0  0  0  0  0  0  0  0  0  0
    9.3731  -18.1489   10.7823 C   0  0  0  0  0  0  0  0  0  0  0  0
    8.6258  -17.5036    9.7238 C   0  0  2  0  0  0  0  0  0  0  0  0
    8.3804  -18.4939    8.5180 C   0  0  0  0  0  0  0  0  0  0  0  0
   19.9333  -11.8684    7.2089 C   0  0  2  0  0  0  0  0  0  0  0  0
   17.6014  -11.5774    7.3834 C   0  0  0  0  0  0  0  0  0  0  0  0
   21.1501  -12.1123    7.8172 C   0  0  0  0  0  0  0  0  0  0  0  0
   18.9434  -12.0797    8.1115 C   0  0  1  0  0  0  0  0  0  0  0  0
   10.1197   -9.5425    2.4069 C   0  0  0  0  0  0  0  0  0  0  0  0
   10.4219   -7.9678    2.3718 C   0  0  0  0  0  0  0  0  0  0  0  0
   11.7272   -7.6977    3.2546 C   0  0  1  0  0  0  0  0  0  0  0  0
   12.0934   -6.2092    3.2938 C   0  0  0  0  0  0  0  0  0  0  0  0
   15.7877  -12.4324    5.8645 C   0  0  1  0  0  0  0  0  0  0  0  0
   15.9325  -11.0342    5.0583 C   0  0  0  0  0  0  0  0  0  0  0  0
   14.6176  -10.7486    4.2353 C   0  0  2  0  0  0  0  0  0  0  0  0
   19.8100  -12.6930    6.0280 F   0  0  0  0  0  0  0  0  0  0  0  0
    7.3469  -17.9562    7.4870 N   0  0  0  0  0  0  0  0  0  0  0  0
    9.6228  -11.4521    4.0664 N   0  0  0  0  0  0  0  0  0  0  0  0
   11.6511  -16.3959   11.0617 N   0  0  0  0  0  0  0  0  0  0  0  0
   21.7831  -11.4982    8.9234 N   0  0  0  0  0  0  0  0  0  0  0  0
   11.0567   -5.4467    3.8726 N   0  0  0  0  0  0  0  0  0  0  0  0
   17.0346  -12.6836    6.6091 N   0  0  0  0  0  0  0  0  0  0  0  0
   14.7306   -9.4676    3.5033 N   0  0  0  0  0  0  0  0  0  0  0  0
   12.2615  -10.4241    4.4030 O   0  0  0  0  0  0  0  0  0  0  0  0
   12.0511  -11.7725    6.9200 O   0  0  0  0  0  0  0  0  0  0  0  0
   14.4064  -13.3946    7.6000 O   0  0  0  0  0  0  0  0  0  0  0  0
   10.8522  -11.4074    9.6976 O   0  0  0  0  0  0  0  0  0  0  0  0
   10.8916  -13.8156    7.1038 O   0  0  0  0  0  0  0  0  0  0  0  0
    8.5855  -14.3373    5.2304 O   0  0  0  0  0  0  0  0  0  0  0  0
   10.2889  -14.0901    9.8729 O   0  0  0  0  0  0  0  0  0  0  0  0
   18.8042  -13.4686    8.4829 O   0  0  0  0  0  0  0  0  0  0  0  0
   17.1279  -10.4338    7.4862 O   0  0  0  0  0  0  0  0  0  0  0  0
    9.3460  -16.2616    9.2543 O   0  0  0  0  0  0  0  0  0  0  0  0
   11.4941   -8.1774    4.6778 O   0  0  0  0  0  0  0  0  0  0  0  0
  1 36  1  6  0  0  0
  2 36  1  6  0  0  0
  2  3  1  0  0  0  0
  3 37  1  1  0  0  0
  3  4  1  0  0  0  0
  4 38  1  6  0  0  0
  5 37  1  6  0  0  0
  5  6  1  0  0  0  0
  6  7  1  0  0  0  0
  6 39  1  1  0  0  0
  7 42  1  1  0  0  0
  8  9  1  6  0  0  0
  8  7  1  0  0  0  0
 10 42  1  6  0  0  0
 10 11  1  0  0  0  0
 11 31  1  6  0  0  0
 11 13  1  0  0  0  0
 12 30  1  6  0  0  0
 12  1  1  0  0  0  0
 14 13  1  0  0  0  0
 15 16  1  6  0  0  0
 15 14  1  0  0  0  0
 17 19  1  1  0  0  0
 17 28  1  0  0  0  0
 18 34  1  0  0  0  0
 19 32  1  0  0  0  0
 20 18  1  6  0  0  0
 20 17  1  0  0  0  0
 20 43  1  0  0  0  0
 21 12  1  0  0  0  0
 22 21  1  0  0  0  0
 22 23  1  0  0  0  0
 23 24  1  1  0  0  0
 23 46  1  0  0  0  0
 24 33  1  0  0  0  0
 25 34  1  1  0  0  0
 25  4  1  0  0  0  0
 26 25  1  0  0  0  0
 27 35  1  1  0  0  0
 27 26  1  0  0  0  0
 27  2  1  0  0  0  0
 29 16  1  0  0  0  0
 40  8  1  0  0  0  0
 40  5  1  0  0  0  0
 41  9  1  0  0  0  0
 44 18  2  0  0  0  0
 45 15  1  0  0  0  0
 45 10  1  0  0  0  0
 46  1  1  0  0  0  0
M  END
>  <CHROM.1>
-160.32914895,92.68141740,175.99288392,176.58990764,172.70471687,178.18501058
-176.51866779,168.35285429,-61.45148121,87.71792817,172.31394272,61.26761486
-68.98723063,12.75014358,-12.42050774,6.91115560,0.66754982,-0.12235145,-0.68831258

>  <Name>
lig.pdb

>  <RI>
0

>  <Rbt.Current_Directory>
/home/afrankz/demos/rdock_decoys_rna/rnas/3wru

>  <Rbt.Executable>
rbdock ($Id: //depot/dev/client3/rdock/2013.1/src/exe/rbdock.cxx#4 $)

>  <Rbt.Library>
libRbt.so (2013.1, Build901 2013/11/27)

>  <Rbt.Parameter_File>
/export/apps/rDock/src/rDock_2013.1_src/data/scripts/dock_solv.prm

>  <Rbt.Receptor>
prm/pocket_docking_3.prm

>  <SCORE>
-3.40239

>  <SCORE.INTER>
-0.602615

>  <SCORE.INTER.CONST>
1

>  <SCORE.INTER.POLAR>
0

>  <SCORE.INTER.ROT>
13

>  <SCORE.INTER.SOLV>
25.0504

>  <SCORE.INTER.VDW>
-21.0186

>  <SCORE.INTER.norm>
-0.0131003

>  <SCORE.INTRA>
-2.81616

>  <SCORE.INTRA.DIHEDRAL>
-10.9031

>  <SCORE.INTRA.DIHEDRAL.0>
19.7146

>  <SCORE.INTRA.POLAR>
0

>  <SCORE.INTRA.POLAR.0>
0

>  <SCORE.INTRA.REPUL>
0

>  <SCORE.INTRA.REPUL.0>
0

>  <SCORE.INTRA.SOLV>
1.59304

>  <SCORE.INTRA.SOLV.lig_0>
-116.697

>  <SCORE.INTRA.VDW>
1.83887

>  <SCORE.INTRA.VDW.0>
-7.06424

>  <SCORE.INTRA.norm>
-0.061221

>  <SCORE.RESTR>
0.016389

>  <SCORE.RESTR.CAVITY>
0.016389

>  <SCORE.RESTR.norm>
0.000356283

>  <SCORE.SYSTEM>
0

>  <SCORE.SYSTEM.CONST>
0

>  <SCORE.SYSTEM.DIHEDRAL>
0

>  <SCORE.SYSTEM.SOLV>
0

>  <SCORE.SYSTEM.norm>
0

>  <SCORE.heavy>
46

>  <SCORE.norm>
-0.073965

>  <RMSD>
1.805

$$$$
lig.pdb
 OpenBabel03061811583D
libRbt.so/2013.1/901 2013/11/27
 46 49  0  0  0  0  0  0  0  0999 V2000
   10.7726  -10.5207    4.9442 C   0  0  1  0  0  0  0  0  0  0  0  0
   13.1725  -10.8864    5.6617 C   0  0  1  0  0  0  0  0  0  0  0  0
   13.0302  -12.0383    6.7022 C   0  0  1  0  0  0  0  0  0  0  0  0
   14.2700  -11.9660    7.7320 C   0  0  2  0  0  0  0  0  0  0  0  0
   11.1411  -12.5835    8.3059 C   0  0  2  0  0  0  0  0  0  0  0  0
    9.7035  -12.1107    8.6645 C   0  0  1  0  0  0  0  0  0  0  0  0
    9.1585  -13.4387    9.1318 C   0  0  1  0  0  0  0  0  0  0  0  0
    9.6224  -14.4620    8.0471 C   0  0  1  0  0  0  0  0  0  0  0  0
    8.7539  -14.5558    6.7438 C   0  0  0  0  0  0  0  0  0  0  0  0
    9.2487  -14.8827   11.1294 C   0  0  1  0  0  0  0  0  0  0  0  0
    9.6425  -14.9938   12.5722 C   0  0  1  0  0  0  0  0  0  0  0  0
    9.8242  -11.0629    3.8489 C   0  0  1  0  0  0  0  0  0  0  0  0
    9.0563  -16.3320   13.1467 C   0  0  0  0  0  0  0  0  0  0  0  0
    9.5193  -17.5211   12.4907 C   0  0  0  0  0  0  0  0  0  0  0  0
    9.1253  -17.4663   11.0990 C   0  0  2  0  0  0  0  0  0  0  0  0
    9.6170  -18.7492   10.3197 C   0  0  0  0  0  0  0  0  0  0  0  0
   20.2858  -11.7341    7.8137 C   0  0  2  0  0  0  0  0  0  0  0  0
   18.0960  -12.3909    7.2426 C   0  0  0  0  0  0  0  0  0  0  0  0
   21.1816  -11.3503    8.7936 C   0  0  0  0  0  0  0  0  0  0  0  0
   19.1984  -12.2856    8.4074 C   0  0  1  0  0  0  0  0  0  0  0  0
   10.1510  -10.4061    2.4313 C   0  0  0  0  0  0  0  0  0  0  0  0
   10.0098   -8.8147    2.5716 C   0  0  0  0  0  0  0  0  0  0  0  0
   11.0372   -8.3270    3.6952 C   0  0  1  0  0  0  0  0  0  0  0  0
   10.9689   -6.8107    3.9135 C   0  0  0  0  0  0  0  0  0  0  0  0
   15.6105  -12.1971    6.9071 C   0  0  1  0  0  0  0  0  0  0  0  0
   15.7154  -10.9619    5.8635 C   0  0  0  0  0  0  0  0  0  0  0  0
   14.4956  -10.9964    4.8641 C   0  0  2  0  0  0  0  0  0  0  0  0
   20.9399  -12.6282    6.8850 F   0  0  0  0  0  0  0  0  0  0  0  0
    9.1175  -18.7978    8.8471 N   0  0  0  0  0  0  0  0  0  0  0  0
    9.9483  -12.5674    3.8224 N   0  0  0  0  0  0  0  0  0  0  0  0
   11.0217  -15.0723   12.7846 N   0  0  0  0  0  0  0  0  0  0  0  0
   21.8302  -12.0899    9.8103 N   0  0  0  0  0  0  0  0  0  0  0  0
   12.0736   -6.3559    4.6644 N   0  0  0  0  0  0  0  0  0  0  0  0
   16.7699  -12.1517    7.8161 N   0  0  0  0  0  0  0  0  0  0  0  0
   14.5713   -9.8660    3.9123 N   0  0  0  0  0  0  0  0  0  0  0  0
   12.1169  -10.9424    4.7110 O   0  0  0  0  0  0  0  0  0  0  0  0
   11.7213  -11.8260    7.4055 O   0  0  0  0  0  0  0  0  0  0  0  0
   14.1217  -12.9918    8.6385 O   0  0  0  0  0  0  0  0  0  0  0  0
    9.7977  -11.1467    9.6690 O   0  0  0  0  0  0  0  0  0  0  0  0
   10.9783  -13.9983    7.9360 O   0  0  0  0  0  0  0  0  0  0  0  0
    9.2848  -15.6359    5.9501 O   0  0  0  0  0  0  0  0  0  0  0  0
    9.7463  -13.7668   10.4924 O   0  0  0  0  0  0  0  0  0  0  0  0
   19.4568  -13.5981    8.9524 O   0  0  0  0  0  0  0  0  0  0  0  0
   18.3496  -12.6233    6.0492 O   0  0  0  0  0  0  0  0  0  0  0  0
    9.6612  -16.2118   10.4503 O   0  0  0  0  0  0  0  0  0  0  0  0
   10.7277   -9.0209    5.0116 O   0  0  0  0  0  0  0  0  0  0  0  0
  1 36  1  6  0  0  0
  2 36  1  6  0  0  0
  2  3  1  0  0  0  0
  3 37  1  1  0  0  0
  3  4  1  0  0  0  0
  4 38  1  1  0  0  0
  5 37  1  6  0  0  0
  5  6  1  0  0  0  0
  6  7  1  0  0  0  0
  6 39  1  1  0  0  0
  7 42  1  1  0  0  0
  8  9  1  6  0  0  0
  8  7  1  0  0  0  0
 10 42  1  6  0  0  0
 10 11  1  0  0  0  0
 11 31  1  6  0  0  0
 11 13  1  0  0  0  0
 12 30  1  6  0  0  0
 12  1  1  0  0  0  0
 14 13  1  0  0  0  0
 15 16  1  6  0  0  0
 15 14  1  0  0  0  0
 17 19  1  1  0  0  0
 17 28  1  0  0  0  0
 18 34  1  0  0  0  0
 19 32  1  0  0  0  0
 20 18  1  6  0  0  0
 20 17  1  0  0  0  0
 20 43  1  0  0  0  0
 21 12  1  0  0  0  0
 22 21  1  0  0  0  0
 22 23  1  0  0  0  0
 23 24  1  1  0  0  0
 23 46  1  0  0  0  0
 24 33  1  0  0  0  0
 25 34  1  1  0  0  0
 25  4  1  0  0  0  0
 26 25  1  0  0  0  0
 27 35  1  6  0  0  0
 27 26  1  0  0  0  0
 27  2  1  0  0  0  0
 29 16  1  0  0  0  0
 40  8  1  0  0  0  0
 40  5  1  0  0  0  0
 41  9  1  0  0  0  0
 44 18  2  0  0  0  0
 45 15  1  0  0  0  0
 45 10  1  0  0  0  0
 46  1  1  0  0  0  0
M  END
>  <CHROM.1>
-164.87903248,76.48458787,175.76808469,-172.76730085,173.53489497,-174.72393182
-167.58333136,175.17651673,58.32105649,-144.85165094,167.64287261,-166.35114944
177.93898854,12.75425565,-12.64695087,7.54116460,0.54129164,-0.10199901,-0.81175392

>  <Name>
lig.pdb

>  <RI>
0

>  <Rbt.Current_Directory>
/home/afrankz/demos/rdock_decoys_rna/rnas/3wru

>  <Rbt.Executable>
rbdock ($Id: //depot/dev/client3/rdock/2013.1/src/exe/rbdock.cxx#4 $)

>  <Rbt.Library>
libRbt.so (2013.1, Build901 2013/11/27)

>  <Rbt.Parameter_File>
/export/apps/rDock/src/rDock_2013.1_src/data/scripts/dock_solv.prm

>  <Rbt.Receptor>
prm/pocket_docking_4.prm

>  <SCORE>
-10.6698

>  <SCORE.INTER>
-4.86577

>  <SCORE.INTER.CONST>
1

>  <SCORE.INTER.POLAR>
0

>  <SCORE.INTER.ROT>
13

>  <SCORE.INTER.SOLV>
24.0538

>  <SCORE.INTER.VDW>
-23.5284

>  <SCORE.INTER.norm>
-0.105778

>  <SCORE.INTRA>
-5.80398

>  <SCORE.INTRA.DIHEDRAL>
-12.7149

>  <SCORE.INTRA.DIHEDRAL.0>
19.7146

>  <SCORE.INTRA.POLAR>
0

>  <SCORE.INTRA.POLAR.0>
0

>  <SCORE.INTRA.REPUL>
0

>  <SCORE.INTRA.REPUL.0>
0

>  <SCORE.INTRA.SOLV>
-1.38533

>  <SCORE.INTRA.SOLV.lig_0>
-116.697

>  <SCORE.INTRA.VDW>
1.24611

>  <SCORE.INTRA.VDW.0>
-7.06424

>  <SCORE.INTRA.norm>
-0.126174

>  <SCORE.RESTR>
0

>  <SCORE.RESTR.CAVITY>
0

>  <SCORE.RESTR.norm>
0

>  <SCORE.SYSTEM>
0

>  <SCORE.SYSTEM.CONST>
0

>  <SCORE.SYSTEM.DIHEDRAL>
0

>  <SCORE.SYSTEM.SOLV>
0

>  <SCORE.SYSTEM.norm>
0

>  <SCORE.heavy>
46

>  <SCORE.norm>
-0.231951

>  <RMSD>
1.811

$$$$
lig.pdb
 OpenBabel03061811583D
libRbt.so/2013.1/901 2013/11/27
 46 49  0  0  0  0  0  0  0  0999 V2000
   10.6366  -10.5819    4.9209 C   0  0  1  0  0  0  0  0  0  0  0  0
   13.0002  -11.0140    5.7173 C   0  0  1  0  0  0  0  0  0  0  0  0
   12.7424  -12.1236    6.7813 C   0  0  1  0  0  0  0  0  0  0  0  0
   13.9450  -12.1036    7.8566 C   0  0  2  0  0  0  0  0  0  0  0  0
   10.7331  -12.5251    8.2778 C   0  0  2  0  0  0  0  0  0  0  0  0
    9.4777  -11.7854    8.8213 C   0  0  1  0  0  0  0  0  0  0  0  0
    8.6550  -13.0017    9.1713 C   0  0  1  0  0  0  0  0  0  0  0  0
    8.7905  -13.9426    7.9321 C   0  0  1  0  0  0  0  0  0  0  0  0
    7.8491  -13.6477    6.7120 C   0  0  0  0  0  0  0  0  0  0  0  0
    8.5556  -14.7444   10.9140 C   0  0  1  0  0  0  0  0  0  0  0  0
    9.0682  -15.2367   12.2345 C   0  0  1  0  0  0  0  0  0  0  0  0
    9.7230  -11.0607    3.7679 C   0  0  1  0  0  0  0  0  0  0  0  0
    8.2544  -16.5169   12.6387 C   0  0  0  0  0  0  0  0  0  0  0  0
    8.3549  -17.6092   11.7139 C   0  0  0  0  0  0  0  0  0  0  0  0
    7.8347  -17.1816   10.4326 C   0  0  2  0  0  0  0  0  0  0  0  0
    7.9277  -18.3434    9.3666 C   0  0  0  0  0  0  0  0  0  0  0  0
   19.9886  -12.7999    8.1538 C   0  0  2  0  0  0  0  0  0  0  0  0
   17.7107  -12.9644    7.5734 C   0  0  0  0  0  0  0  0  0  0  0  0
   20.1921  -11.5064    7.7117 C   0  0  0  0  0  0  0  0  0  0  0  0
   18.7814  -12.8669    8.7681 C   0  0  1  0  0  0  0  0  0  0  0  0
   10.1242  -10.3609    2.3905 C   0  0  0  0  0  0  0  0  0  0  0  0
   10.0137   -8.7727    2.5843 C   0  0  0  0  0  0  0  0  0  0  0  0
   11.0038   -8.3514    3.7667 C   0  0  1  0  0  0  0  0  0  0  0  0
   10.9611   -6.8429    4.0386 C   0  0  0  0  0  0  0  0  0  0  0  0
   15.2968  -12.4463    7.0911 C   0  0  1  0  0  0  0  0  0  0  0  0
   15.5231  -11.2512    6.0203 C   0  0  0  0  0  0  0  0  0  0  0  0
   14.3418  -11.2340    4.9752 C   0  0  2  0  0  0  0  0  0  0  0  0
   21.0839  -13.1953    9.0104 F   0  0  0  0  0  0  0  0  0  0  0  0
    7.2402  -17.9898    8.0166 N   0  0  0  0  0  0  0  0  0  0  0  0
    9.8135  -12.5657    3.6904 N   0  0  0  0  0  0  0  0  0  0  0  0
   10.4064  -15.6394   12.2149 N   0  0  0  0  0  0  0  0  0  0  0  0
   19.4174  -10.6713    6.8728 N   0  0  0  0  0  0  0  0  0  0  0  0
   12.0192   -6.4497    4.8851 N   0  0  0  0  0  0  0  0  0  0  0  0
   16.4220  -12.4513    8.0431 N   0  0  0  0  0  0  0  0  0  0  0  0
   14.5285  -10.1389    3.9978 N   0  0  0  0  0  0  0  0  0  0  0  0
   11.9794  -11.0277    4.7278 O   0  0  0  0  0  0  0  0  0  0  0  0
   11.4254  -11.8053    7.4271 O   0  0  0  0  0  0  0  0  0  0  0  0
   13.6947  -13.0909    8.7832 O   0  0  0  0  0  0  0  0  0  0  0  0
    9.8633  -11.0205    9.9229 O   0  0  0  0  0  0  0  0  0  0  0  0
   10.2093  -13.7969    7.7547 O   0  0  0  0  0  0  0  0  0  0  0  0
    8.2179  -14.5559    5.6551 O   0  0  0  0  0  0  0  0  0  0  0  0
    9.2255  -13.6453   10.4222 O   0  0  0  0  0  0  0  0  0  0  0  0
   18.6505  -14.0161    9.6333 O   0  0  0  0  0  0  0  0  0  0  0  0
   17.9598  -13.3945    6.4352 O   0  0  0  0  0  0  0  0  0  0  0  0
    8.5724  -15.9553    9.9490 O   0  0  0  0  0  0  0  0  0  0  0  0
   10.6232   -9.0850    5.0424 O   0  0  0  0  0  0  0  0  0  0  0  0
  1 36  1  6  0  0  0
  2 36  1  6  0  0  0
  2  3  1  0  0  0  0
  3 37  1  1  0  0  0
  3  4  1  0  0  0  0
  4 38  1  1  0  0  0
  5 37  1  6  0  0  0
  5  6  1  0  0  0  0
  6  7  1  0  0  0  0
  6 39  1  1  0  0  0
  7 42  1  1  0  0  0
  8  9  1  6  0  0  0
  8  7  1  0  0  0  0
 10 42  1  6  0  0  0
 10 11  1  0  0  0  0
 11 31  1  6  0  0  0
 11 13  1  0  0  0  0
 12 30  1  6  0  0  0
 12  1  1  0  0  0  0
 14 13  1  0  0  0  0
 15 16  1  6  0  0  0
 15 14  1  0  0  0  0
 17 19  1  1  0  0  0
 17 28  1  0  0  0  0
 18 34  1  0  0  0  0
 19 32  1  0  0  0  0
 20 18  1  6  0  0  0
 20 17  1  0  0  0  0
 20 43  1  0  0  0  0
 21 12  1  0  0  0  0
 22 21  1  0  0  0  0
 22 23  1  0  0  0  0
 23 24  1  1  0  0  0
 23 46  1  0  0  0  0
 24 33  1  0  0  0  0
 25 34  1  1  0  0  0
 25  4  1  0  0  0  0
 26 25  1  0  0  0  0
 27 35  1  6  0  0  0
 27 26  1  0  0  0  0
 27  2  1  0  0  0  0
 29 16  1  0  0  0  0
 40  8  1  0  0  0  0
 40  5  1  0  0  0  0
 41  9  1  0  0  0  0
 44 18  2  0  0  0  0
 45 15  1  0  0  0  0
 45 10  1  0  0  0  0
 46  1  1  0  0  0  0
M  END
>  <CHROM.1>
-165.84491644,72.67530670,172.32315193,174.52774878,177.43384890,175.38038242
-173.16493524,173.67195674,-55.42149076,-154.89819182,79.50820088,-168.19920004
169.95212521,12.23875396,-12.65053533,7.47110924,2.69303631,0.09630565,2.34070690

>  <Name>
lig.pdb

>  <RI>
0

>  <Rbt.Current_Directory>
/home/afrankz/demos/rdock_decoys_rna/rnas/3wru

>  <Rbt.Executable>
rbdock ($Id: //depot/dev/client3/rdock/2013.1/src/exe/rbdock.cxx#4 $)

>  <Rbt.Library>
libRbt.so (2013.1, Build901 2013/11/27)

>  <Rbt.Parameter_File>
/export/apps/rDock/src/rDock_2013.1_src/data/scripts/dock_solv.prm

>  <Rbt.Receptor>
prm/pocket_docking_3.prm

>  <SCORE>
-9.42402

>  <SCORE.INTER>
-4.37694

>  <SCORE.INTER.CONST>
1

>  <SCORE.INTER.POLAR>
0

>  <SCORE.INTER.ROT>
13

>  <SCORE.INTER.SOLV>
25.4658

>  <SCORE.INTER.VDW>
-23.6732

>  <SCORE.INTER.norm>
-0.0951509

>  <SCORE.INTRA>
-5.04708

>  <SCORE.INTRA.DIHEDRAL>
-13.6893

>  <SCORE.INTRA.DIHEDRAL.0>
19.7146

>  <SCORE.INTRA.POLAR>
0

>  <SCORE.INTRA.POLAR.0>
0

>  <SCORE.INTRA.REPUL>
0

>  <SCORE.INTRA.REPUL.0>
0

>  <SCORE.INTRA.SOLV>
0.725609

>  <SCORE.INTRA.SOLV.lig_0>
-116.697

>  <SCORE.INTRA.VDW>
1.43474

>  <SCORE.INTRA.VDW.0>
-7.06424

>  <SCORE.INTRA.norm>
-0.109719

>  <SCORE.RESTR>
0

>  <SCORE.RESTR.CAVITY>
0

>  <SCORE.RESTR.norm>
0

>  <SCORE.SYSTEM>
0

>  <SCORE.SYSTEM.CONST>
0

>  <SCORE.SYSTEM.DIHEDRAL>
0

>  <SCORE.SYSTEM.SOLV>
0

>  <SCORE.SYSTEM.norm>
0

>  <SCORE.heavy>
46

>  <SCORE.norm>
-0.20487

>  <RMSD>
1.813

$$$$
lig.pdb
 OpenBabel03061811583D
libRbt.so/2013.1/901 2013/11/27
 46 49  0  0  0  0  0  0  0  0999 V2000
   10.8131  -10.6149    4.8112 C   0  0  1  0  0  0  0  0  0  0  0  0
   13.1953  -11.1072    5.5117 C   0  0  1  0  0  0  0  0  0  0  0  0
   12.9634  -12.3350    6.4436 C   0  0  1  0  0  0  0  0  0  0  0  0
   14.1842  -12.4294    7.4941 C   0  0  2  0  0  0  0  0  0  0  0  0
   10.9884  -12.9212    7.9246 C   0  0  2  0  0  0  0  0  0  0  0  0
    9.4761  -12.5715    8.0210 C   0  0  1  0  0  0  0  0  0  0  0  0
    8.9673  -13.9462    8.3817 C   0  0  1  0  0  0  0  0  0  0  0  0
    9.6994  -14.9116    7.3962 C   0  0  1  0  0  0  0  0  0  0  0  0
    9.0876  -15.0543    5.9585 C   0  0  0  0  0  0  0  0  0  0  0  0
    9.0698  -15.5241   10.2748 C   0  0  1  0  0  0  0  0  0  0  0  0
    9.2002  -15.6911   11.7594 C   0  0  1  0  0  0  0  0  0  0  0  0
    9.8945  -10.9201    3.6045 C   0  0  1  0  0  0  0  0  0  0  0  0
    8.9358  -17.1967   12.1162 C   0  0  0  0  0  0  0  0  0  0  0  0
    9.8423  -18.1267   11.5063 C   0  0  0  0  0  0  0  0  0  0  0  0
    9.7187  -18.0195   10.0681 C   0  0  2  0  0  0  0  0  0  0  0  0
   10.7029  -19.0167    9.3387 C   0  0  0  0  0  0  0  0  0  0  0  0
   19.6909  -14.3302    8.0600 C   0  0  2  0  0  0  0  0  0  0  0  0
   17.9811  -13.0783    7.0293 C   0  0  0  0  0  0  0  0  0  0  0  0
   20.9402  -14.2572    8.6464 C   0  0  0  0  0  0  0  0  0  0  0  0
   19.0653  -13.1368    8.2144 C   0  0  1  0  0  0  0  0  0  0  0  0
   10.2804  -10.0154    2.3473 C   0  0  0  0  0  0  0  0  0  0  0  0
   10.1598   -8.4762    2.7814 C   0  0  0  0  0  0  0  0  0  0  0  0
   11.1555   -8.2317    4.0080 C   0  0  1  0  0  0  0  0  0  0  0  0
   11.1038   -6.7825    4.5067 C   0  0  0  0  0  0  0  0  0  0  0  0
   15.5249  -12.6691    6.6720 C   0  0  1  0  0  0  0  0  0  0  0  0
   15.7246  -11.3559    5.7438 C   0  0  0  0  0  0  0  0  0  0  0  0
   14.5253  -11.2278    4.7272 C   0  0  2  0  0  0  0  0  0  0  0  0
   18.9537  -15.4352    8.6302 F   0  0  0  0  0  0  0  0  0  0  0  0
   12.2010  -18.7264    9.6410 N   0  0  0  0  0  0  0  0  0  0  0  0
    9.9954  -12.3950    3.2980 N   0  0  0  0  0  0  0  0  0  0  0  0
   10.4760  -15.4110   12.2570 N   0  0  0  0  0  0  0  0  0  0  0  0
   21.3391  -13.9152    9.9599 N   0  0  0  0  0  0  0  0  0  0  0  0
   11.5825   -5.8904    3.5238 N   0  0  0  0  0  0  0  0  0  0  0  0
   16.6664  -12.7747    7.5985 N   0  0  0  0  0  0  0  0  0  0  0  0
   14.6878  -10.0251    3.8807 N   0  0  0  0  0  0  0  0  0  0  0  0
   12.1577  -11.0148    4.5441 O   0  0  0  0  0  0  0  0  0  0  0  0
   11.6556  -12.1054    7.1434 O   0  0  0  0  0  0  0  0  0  0  0  0
   13.9566  -13.5198    8.3037 O   0  0  0  0  0  0  0  0  0  0  0  0
    9.3104  -11.6191    9.0273 O   0  0  0  0  0  0  0  0  0  0  0  0
   11.0107  -14.3386    7.5299 O   0  0  0  0  0  0  0  0  0  0  0  0
    8.4324  -13.8092    5.6444 O   0  0  0  0  0  0  0  0  0  0  0  0
    9.3284  -14.2475    9.8251 O   0  0  0  0  0  0  0  0  0  0  0  0
   18.3991  -13.0088    9.4896 O   0  0  0  0  0  0  0  0  0  0  0  0
   18.2395  -13.2501    5.8267 O   0  0  0  0  0  0  0  0  0  0  0  0
    9.9745  -16.5988    9.6234 O   0  0  0  0  0  0  0  0  0  0  0  0
   10.7898   -9.1541    5.1594 O   0  0  0  0  0  0  0  0  0  0  0  0
  1 36  1  6  0  0  0
  2 36  1  6  0  0  0
  2  3  1  0  0  0  0
  3 37  1  1  0  0  0
  3  4  1  0  0  0  0
  4 38  1  1  0  0  0
  5 37  1  6  0  0  0
  5  6  1  0  0  0  0
  6  7  1  0  0  0  0
  6 39  1  1  0  0  0
  7 42  1  1  0  0  0
  8  9  1  6  0  0  0
  8  7  1  0  0  0  0
 10 42  1  1  0  0  0
 10 11  1  0  0  0  0
 11 31  1  6  0  0  0
 11 13  1  0  0  0  0
 12 30  1  6  0  0  0
 12  1  1  0  0  0  0
 14 13  1  0  0  0  0
 15 16  1  6  0  0  0
 15 14  1  0  0  0  0
 17 19  1  1  0  0  0
 17 28  1  0  0  0  0
 18 34  1  0  0  0  0
 19 32  1  0  0  0  0
 20 18  1  6  0  0  0
 20 17  1  0  0  0  0
 20 43  1  0  0  0  0
 21 12  1  0  0  0  0
 22 21  1  0  0  0  0
 22 23  1  0  0  0  0
 23 24  1  1  0  0  0
 23 46  1  0  0  0  0
 24 33  1  0  0  0  0
 25 34  1  1  0  0  0
 25  4  1  0  0  0  0
 26 25  1  0  0  0  0
 27 35  1  1  0  0  0
 27 26  1  0  0  0  0
 27  2  1  0  0  0  0
 29 16  1  0  0  0  0
 40  8  1  0  0  0  0
 40  5  1  0  0  0  0
 41  9  1  0  0  0  0
 44 18  2  0  0  0  0
 45 15  1  0  0  0  0
 45 10  1  0  0  0  0
 46  1  1  0  0  0  0
M  END
>  <CHROM.1>
-167.72404177,72.23136695,172.93681307,-158.00733496,-172.95876306,29.08580626
-168.99505651,-62.05435969,55.55780488,127.53009850,156.29497934,-65.38502004
176.37839153,12.67731997,-13.08647851,7.28436157,2.97516015,0.03731443,2.43160723

>  <Name>
lig.pdb

>  <RI>
0

>  <Rbt.Current_Directory>
/home/afrankz/demos/rdock_decoys_rna/rnas/3wru

>  <Rbt.Executable>
rbdock ($Id: //depot/dev/client3/rdock/2013.1/src/exe/rbdock.cxx#4 $)

>  <Rbt.Library>
libRbt.so (2013.1, Build901 2013/11/27)

>  <Rbt.Parameter_File>
/export/apps/rDock/src/rDock_2013.1_src/data/scripts/dock_solv.prm

>  <Rbt.Receptor>
prm/pocket_docking_2.prm

>  <SCORE>
-0.727371

>  <SCORE.INTER>
-0.937608

>  <SCORE.INTER.CONST>
1

>  <SCORE.INTER.POLAR>
0

>  <SCORE.INTER.ROT>
13

>  <SCORE.INTER.SOLV>
23.2268

>  <SCORE.INTER.VDW>
-20.634

>  <SCORE.INTER.norm>
-0.0203828

>  <SCORE.INTRA>
-1.97824

>  <SCORE.INTRA.DIHEDRAL>
-7.9171

>  <SCORE.INTRA.DIHEDRAL.0>
19.7146

>  <SCORE.INTRA.POLAR>
0

>  <SCORE.INTRA.POLAR.0>
0

>  <SCORE.INTRA.REPUL>
0

>  <SCORE.INTRA.REPUL.0>
0

>  <SCORE.INTRA.SOLV>
0.448671

>  <SCORE.INTRA.SOLV.lig_0>
-116.697

>  <SCORE.INTRA.VDW>
1.75597

>  <SCORE.INTRA.VDW.0>
-7.06424

>  <SCORE.INTRA.norm>
-0.0430053

>  <SCORE.RESTR>
2.18848

>  <SCORE.RESTR.CAVITY>
2.18848

>  <SCORE.RESTR.norm>
0.0475756

>  <SCORE.SYSTEM>
0

>  <SCORE.SYSTEM.CONST>
0

>  <SCORE.SYSTEM.DIHEDRAL>
0

>  <SCORE.SYSTEM.SOLV>
0

>  <SCORE.SYSTEM.norm>
0

>  <SCORE.heavy>
46

>  <SCORE.norm>
-0.0158124

>  <RMSD>
1.814

$$$$
lig.pdb
 OpenBabel03061811583D
libRbt.so/2013.1/901 2013/11/27
 46 49  0  0  0  0  0  0  0  0999 V2000
   10.6464  -10.6059    4.8597 C   0  0  1  0  0  0  0  0  0  0  0  0
   12.9920  -11.0779    5.6863 C   0  0  1  0  0  0  0  0  0  0  0  0
   12.6981  -12.2034    6.7240 C   0  0  1  0  0  0  0  0  0  0  0  0
   13.8812  -12.2224    7.8207 C   0  0  2  0  0  0  0  0  0  0  0  0
   10.7182  -12.5394    8.2748 C   0  0  2  0  0  0  0  0  0  0  0  0
    9.3787  -11.8590    8.6765 C   0  0  1  0  0  0  0  0  0  0  0  0
    8.6588  -13.0914    9.1684 C   0  0  1  0  0  0  0  0  0  0  0  0
    8.9310  -14.1729    8.0751 C   0  0  1  0  0  0  0  0  0  0  0  0
    8.0165  -14.1382    6.8006 C   0  0  0  0  0  0  0  0  0  0  0  0
    8.8160  -14.7109   11.0221 C   0  0  1  0  0  0  0  0  0  0  0  0
    9.2880  -14.9852   12.4188 C   0  0  1  0  0  0  0  0  0  0  0  0
    9.7383  -11.0927    3.7057 C   0  0  1  0  0  0  0  0  0  0  0  0
    8.7858  -16.4107   12.8432 C   0  0  0  0  0  0  0  0  0  0  0  0
    9.2609  -17.4849   12.0193 C   0  0  0  0  0  0  0  0  0  0  0  0
    8.7937  -17.2729   10.6658 C   0  0  2  0  0  0  0  0  0  0  0  0
    9.2948  -18.4232    9.7063 C   0  0  0  0  0  0  0  0  0  0  0  0
   19.7805  -13.7280    8.3502 C   0  0  2  0  0  0  0  0  0  0  0  0
   17.5529  -13.3594    7.6755 C   0  0  0  0  0  0  0  0  0  0  0  0
   20.3947  -12.7091    7.6469 C   0  0  0  0  0  0  0  0  0  0  0  0
   18.6200  -13.2601    8.8733 C   0  0  1  0  0  0  0  0  0  0  0  0
   10.1496  -10.4066    2.3244 C   0  0  0  0  0  0  0  0  0  0  0  0
   10.0422   -8.8164    2.5031 C   0  0  0  0  0  0  0  0  0  0  0  0
   11.0264   -8.3870    3.6875 C   0  0  1  0  0  0  0  0  0  0  0  0
   10.9861   -6.8759    3.9453 C   0  0  0  0  0  0  0  0  0  0  0  0
   15.2412  -12.5716    7.0729 C   0  0  1  0  0  0  0  0  0  0  0  0
   15.5050  -11.3602    6.0295 C   0  0  0  0  0  0  0  0  0  0  0  0
   14.3432  -11.3047    4.9641 C   0  0  2  0  0  0  0  0  0  0  0  0
   20.6889  -14.2393    9.3516 F   0  0  0  0  0  0  0  0  0  0  0  0
    8.8781  -19.8432   10.1861 N   0  0  0  0  0  0  0  0  0  0  0  0
    9.8253  -12.5987    3.6425 N   0  0  0  0  0  0  0  0  0  0  0  0
   10.6784  -15.0265   12.5554 N   0  0  0  0  0  0  0  0  0  0  0  0
   20.9259  -11.4680    8.0697 N   0  0  0  0  0  0  0  0  0  0  0  0
   12.0408   -6.4777    4.7939 N   0  0  0  0  0  0  0  0  0  0  0  0
   16.3488  -12.6122    8.0446 N   0  0  0  0  0  0  0  0  0  0  0  0
   14.5643  -10.1944    4.0114 N   0  0  0  0  0  0  0  0  0  0  0  0
   11.9891  -11.0569    4.6787 O   0  0  0  0  0  0  0  0  0  0  0  0
   11.3746  -11.8768    7.3522 O   0  0  0  0  0  0  0  0  0  0  0  0
   13.5991  -13.2231    8.7236 O   0  0  0  0  0  0  0  0  0  0  0  0
    9.6467  -10.9188    9.6722 O   0  0  0  0  0  0  0  0  0  0  0  0
   10.3362  -13.9150    7.9182 O   0  0  0  0  0  0  0  0  0  0  0  0
    8.3101  -12.9166    6.0938 O   0  0  0  0  0  0  0  0  0  0  0  0
    9.2354  -13.5018   10.5112 O   0  0  0  0  0  0  0  0  0  0  0  0
   18.1569  -14.0330   10.0023 O   0  0  0  0  0  0  0  0  0  0  0  0
   17.7439  -13.9648    6.6080 O   0  0  0  0  0  0  0  0  0  0  0  0
    9.2452  -15.9232   10.1596 O   0  0  0  0  0  0  0  0  0  0  0  0
   10.6363   -9.1079    4.9675 O   0  0  0  0  0  0  0  0  0  0  0  0
  1 36  1  6  0  0  0
  2 36  1  6  0  0  0
  2  3  1  0  0  0  0
  3 37  1  1  0  0  0
  3  4  1  0  0  0  0
  4 38  1  1  0  0  0
  5 37  1  6  0  0  0
  5  6  1  0  0  0  0
  6  7  1  0  0  0  0
  6 39  1  1  0  0  0
  7 42  1  1  0  0  0
  8  9  1  6  0  0  0
  8  7  1  0  0  0  0
 10 42  1  6  0  0  0
 10 11  1  0  0  0  0
 11 31  1  6  0  0  0
 11 13  1  0  0  0  0
 12 30  1  6  0  0  0
 12  1  1  0  0  0  0
 14 13  1  0  0  0  0
 15 16  1  6  0  0  0
 15 14  1  0  0  0  0
 17 19  1  1  0  0  0
 17 28  1  0  0  0  0
 18 34  1  0  0  0  0
 19 32  1  0  0  0  0
 20 18  1  6  0  0  0
 20 17  1  0  0  0  0
 20 43  1  0  0  0  0
 21 12  1  0  0  0  0
 22 21  1  0  0  0  0
 22 23  1  0  0  0  0
 23 24  1  1  0  0  0
 23 46  1  0  0  0  0
 24 33  1  0  0  0  0
 25 34  1  1  0  0  0
 25  4  1  0  0  0  0
 26 25  1  0  0  0  0
 27 35  1  6  0  0  0
 27 26  1  0  0  0  0
 27  2  1  0  0  0  0
 29 16  1  0  0  0  0
 40  8  1  0  0  0  0
 40  5  1  0  0  0  0
 41  9  1  0  0  0  0
 44 18  2  0  0  0  0
 45 15  1  0  0  0  0
 45 10  1  0  0  0  0
 46  1  1  0  0  0  0
M  END
>  <CHROM.1>
-163.64848985,72.04381217,179.71621784,179.28627154,-171.62206711,66.25725284
-172.99773087,56.28994419,64.12396403,-167.78228204,82.31808469,-168.16204321
158.69457300,12.38304514,-12.79418867,7.60577139,2.68005940,0.03956388,2.34800981

>  <Name>
lig.pdb

>  <RI>
0

>  <Rbt.Current_Directory>
/home/afrankz/demos/rdock_decoys_rna/rnas/3wru

>  <Rbt.Executable>
rbdock ($Id: //depot/dev/client3/rdock/2013.1/src/exe/rbdock.cxx#4 $)

>  <Rbt.Library>
libRbt.so (2013.1, Build901 2013/11/27)

>  <Rbt.Parameter_File>
/export/apps/rDock/src/rDock_2013.1_src/data/scripts/dock_solv.prm

>  <Rbt.Receptor>
prm/pocket_docking_3.prm

>  <SCORE>
-7.95791

>  <SCORE.INTER>
-2.98098

>  <SCORE.INTER.CONST>
1

>  <SCORE.INTER.POLAR>
0

>  <SCORE.INTER.ROT>
13

>  <SCORE.INTER.SOLV>
24.2042

>  <SCORE.INTER.VDW>
-22.3221

>  <SCORE.INTER.norm>
-0.0648038

>  <SCORE.INTRA>
-4.97694

>  <SCORE.INTRA.DIHEDRAL>
-13.5362

>  <SCORE.INTRA.DIHEDRAL.0>
19.7146

>  <SCORE.INTRA.POLAR>
0

>  <SCORE.INTRA.POLAR.0>
0

>  <SCORE.INTRA.REPUL>
0

>  <SCORE.INTRA.REPUL.0>
0

>  <SCORE.INTRA.SOLV>
-0.331884

>  <SCORE.INTRA.SOLV.lig_0>
-116.697

>  <SCORE.INTRA.VDW>
1.9571

>  <SCORE.INTRA.VDW.0>
-7.06424

>  <SCORE.INTRA.norm>
-0.108194

>  <SCORE.RESTR>
0

>  <SCORE.RESTR.CAVITY>
0

>  <SCORE.RESTR.norm>
0

>  <SCORE.SYSTEM>
0

>  <SCORE.SYSTEM.CONST>
0

>  <SCORE.SYSTEM.DIHEDRAL>
0

>  <SCORE.SYSTEM.SOLV>
0

>  <SCORE.SYSTEM.norm>
0

>  <SCORE.heavy>
46

>  <SCORE.norm>
-0.172998

>  <RMSD>
1.830

$$$$
lig.pdb
 OpenBabel03061811583D
libRbt.so/2013.1/901 2013/11/27
 46 49  0  0  0  0  0  0  0  0999 V2000
   11.0434  -10.7331    4.9307 C   0  0  1  0  0  0  0  0  0  0  0  0
   13.4516  -11.4289    5.2830 C   0  0  1  0  0  0  0  0  0  0  0  0
   13.3278  -12.8647    5.8771 C   0  0  1  0  0  0  0  0  0  0  0  0
   14.6386  -13.1758    6.7648 C   0  0  2  0  0  0  0  0  0  0  0  0
   11.4864  -13.9021    7.2809 C   0  0  2  0  0  0  0  0  0  0  0  0
   10.6475  -13.5040    8.5285 C   0  0  1  0  0  0  0  0  0  0  0  0
    9.6720  -14.6557    8.4993 C   0  0  1  0  0  0  0  0  0  0  0  0
    9.2324  -14.7657    7.0047 C   0  0  1  0  0  0  0  0  0  0  0  0
    8.1036  -13.7876    6.5241 C   0  0  0  0  0  0  0  0  0  0  0  0
   10.3315  -16.1892   10.3151 C   0  0  1  0  0  0  0  0  0  0  0  0
   11.6399  -16.6348   10.8967 C   0  0  1  0  0  0  0  0  0  0  0  0
    9.9601  -10.9733    3.8527 C   0  0  1  0  0  0  0  0  0  0  0  0
   11.4235  -16.9620   12.4168 C   0  0  0  0  0  0  0  0  0  0  0  0
   10.4703  -18.0023   12.6774 C   0  0  0  0  0  0  0  0  0  0  0  0
    9.1824  -17.5915   12.1601 C   0  0  2  0  0  0  0  0  0  0  0  0
    8.0898  -18.7045   12.4102 C   0  0  0  0  0  0  0  0  0  0  0  0
   19.8949  -12.7522    7.3825 C   0  0  2  0  0  0  0  0  0  0  0  0
   17.5660  -12.4394    7.5597 C   0  0  0  0  0  0  0  0  0  0  0  0
   20.9935  -12.2443    8.0496 C   0  0  0  0  0  0  0  0  0  0  0  0
   18.9013  -12.9704    8.2795 C   0  0  1  0  0  0  0  0  0  0  0  0
   10.1808  -10.0156    2.5951 C   0  0  0  0  0  0  0  0  0  0  0  0
   10.1470   -8.4969    3.1095 C   0  0  0  0  0  0  0  0  0  0  0  0
   11.3084   -8.3189    4.1936 C   0  0  1  0  0  0  0  0  0  0  0  0
   11.3505   -6.8938    4.7582 C   0  0  0  0  0  0  0  0  0  0  0  0
   15.9057  -13.1376    5.8037 C   0  0  1  0  0  0  0  0  0  0  0  0
   15.9959  -11.6217    5.2381 C   0  0  0  0  0  0  0  0  0  0  0  0
   14.7090  -11.2859    4.3901 C   0  0  2  0  0  0  0  0  0  0  0  0
   20.2777  -13.9437    6.6589 F   0  0  0  0  0  0  0  0  0  0  0  0
    6.8917  -18.6169   11.4217 N   0  0  0  0  0  0  0  0  0  0  0  0
    9.9933  -12.4335    3.4702 N   0  0  0  0  0  0  0  0  0  0  0  0
   12.1463  -17.8095   10.3335 N   0  0  0  0  0  0  0  0  0  0  0  0
   21.1199  -11.1723    8.9641 N   0  0  0  0  0  0  0  0  0  0  0  0
   11.7022   -5.9621    3.7585 N   0  0  0  0  0  0  0  0  0  0  0  0
   17.1266  -13.4308    6.5756 N   0  0  0  0  0  0  0  0  0  0  0  0
   14.7717   -9.8994    3.8773 N   0  0  0  0  0  0  0  0  0  0  0  0
   12.3307  -11.1334    4.4599 O   0  0  0  0  0  0  0  0  0  0  0  0
   12.0828  -12.8796    6.7153 O   0  0  0  0  0  0  0  0  0  0  0  0
   14.5054  -14.4471    7.2768 O   0  0  0  0  0  0  0  0  0  0  0  0
   11.4914  -13.4985    9.6398 O   0  0  0  0  0  0  0  0  0  0  0  0
   10.5421  -14.6389    6.4262 O   0  0  0  0  0  0  0  0  0  0  0  0
    6.9258  -14.0738    7.3044 O   0  0  0  0  0  0  0  0  0  0  0  0
   10.3769  -15.9168    8.9651 O   0  0  0  0  0  0  0  0  0  0  0  0
   18.7466  -14.3646    8.6235 O   0  0  0  0  0  0  0  0  0  0  0  0
   17.0026  -11.3639    7.8215 O   0  0  0  0  0  0  0  0  0  0  0  0
    9.2862  -17.2690   10.6881 O   0  0  0  0  0  0  0  0  0  0  0  0
   11.0926   -9.2897    5.3430 O   0  0  0  0  0  0  0  0  0  0  0  0
  1 36  1  6  0  0  0
  2 36  1  6  0  0  0
  2  3  1  0  0  0  0
  3 37  1  1  0  0  0
  3  4  1  0  0  0  0
  4 38  1  6  0  0  0
  5 37  1  6  0  0  0
  5  6  1  0  0  0  0
  6  7  1  0  0  0  0
  6 39  1  1  0  0  0
  7 42  1  6  0  0  0
  8  9  1  6  0  0  0
  8  7  1  0  0  0  0
 10 42  1  6  0  0  0
 10 11  1  0  0  0  0
 11 31  1  6  0  0  0
 11 13  1  0  0  0  0
 12 30  1  6  0  0  0
 12  1  1  0  0  0  0
 14 13  1  0  0  0  0
 15 16  1  6  0  0  0
 15 14  1  0  0  0  0
 17 19  1  1  0  0  0
 17 28  1  0  0  0  0
 18 34  1  0  0  0  0
 19 32  1  0  0  0  0
 20 18  1  6  0  0  0
 20 17  1  0  0  0  0
 20 43  1  0  0  0  0
 21 12  1  0  0  0  0
 22 21  1  0  0  0  0
 22 23  1  0  0  0  0
 23 24  1  1  0  0  0
 23 46  1  0  0  0  0
 24 33  1  0  0  0  0
 25 34  1  1  0  0  0
 25  4  1  0  0  0  0
 26 25  1  0  0  0  0
 27 35  1  1  0  0  0
 27 26  1  0  0  0  0
 27  2  1  0  0  0  0
 29 16  1  0  0  0  0
 40  8  1  0  0  0  0
 40  5  1  0  0  0  0
 41  9  1  0  0  0  0
 44 18  2  0  0  0  0
 45 15  1  0  0  0  0
 45 10  1  0  0  0  0
 46  1  1  0  0  0  0
M  END
>  <CHROM.1>
-160.07930291,79.37002582,171.15583605,154.49990247,90.39405794,-61.30932622
-136.07184806,-156.52966319,-50.30692375,77.31585986,137.27401879,-65.43066738
-68.25657503,12.81043854,-13.19688144,7.29251802,0.80186808,-0.07432466,-0.73958016

>  <Name>
lig.pdb

>  <RI>
0

>  <Rbt.Current_Directory>
/home/afrankz/demos/rdock_decoys_rna/rnas/3wru

>  <Rbt.Executable>
rbdock ($Id: //depot/dev/client3/rdock/2013.1/src/exe/rbdock.cxx#4 $)

>  <Rbt.Library>
libRbt.so (2013.1, Build901 2013/11/27)

>  <Rbt.Parameter_File>
/export/apps/rDock/src/rDock_2013.1_src/data/scripts/dock_solv.prm

>  <Rbt.Receptor>
prm/pocket_docking_2.prm

>  <SCORE>
3.38142

>  <SCORE.INTER>
-0.395508

>  <SCORE.INTER.CONST>
1

>  <SCORE.INTER.POLAR>
0

>  <SCORE.INTER.ROT>
13

>  <SCORE.INTER.SOLV>
23.7784

>  <SCORE.INTER.VDW>
-20.4565

>  <SCORE.INTER.norm>
-0.008598

>  <SCORE.INTRA>
3.44385

>  <SCORE.INTRA.DIHEDRAL>
3.80769

>  <SCORE.INTRA.DIHEDRAL.0>
19.7146

>  <SCORE.INTRA.POLAR>
0

>  <SCORE.INTRA.POLAR.0>
0

>  <SCORE.INTRA.REPUL>
0

>  <SCORE.INTRA.REPUL.0>
0

>  <SCORE.INTRA.SOLV>
-0.549899

>  <SCORE.INTRA.SOLV.lig_0>
-116.697

>  <SCORE.INTRA.VDW>
1.81496

>  <SCORE.INTRA.VDW.0>
-7.06424

>  <SCORE.INTRA.norm>
0.0748663

>  <SCORE.RESTR>
0.333079

>  <SCORE.RESTR.CAVITY>
0.333079

>  <SCORE.RESTR.norm>
0.00724084

>  <SCORE.SYSTEM>
0

>  <SCORE.SYSTEM.CONST>
0

>  <SCORE.SYSTEM.DIHEDRAL>
0

>  <SCORE.SYSTEM.SOLV>
0

>  <SCORE.SYSTEM.norm>
0

>  <SCORE.heavy>
46

>  <SCORE.norm>
0.0735092

>  <RMSD>
1.848

$$$$
lig.pdb
 OpenBabel03061811583D
libRbt.so/2013.1/901 2013/11/27
 46 49  0  0  0  0  0  0  0  0999 V2000
   10.5392  -10.4805    4.5731 C   0  0  1  0  0  0  0  0  0  0  0  0
   12.8219  -11.0258    5.5216 C   0  0  1  0  0  0  0  0  0  0  0  0
   12.4868  -12.2114    6.4765 C   0  0  1  0  0  0  0  0  0  0  0  0
   13.6046  -12.2764    7.6381 C   0  0  2  0  0  0  0  0  0  0  0  0
   10.3732  -12.7154    7.7866 C   0  0  2  0  0  0  0  0  0  0  0  0
    9.0257  -12.0535    8.1926 C   0  0  1  0  0  0  0  0  0  0  0  0
    8.2307  -13.3179    8.4118 C   0  0  1  0  0  0  0  0  0  0  0  0
    8.5609  -14.2137    7.1759 C   0  0  1  0  0  0  0  0  0  0  0  0
    7.7576  -13.9281    5.8587 C   0  0  0  0  0  0  0  0  0  0  0  0
    7.8709  -14.9634   10.2136 C   0  0  1  0  0  0  0  0  0  0  0  0
    8.3734  -15.5759   11.4869 C   0  0  1  0  0  0  0  0  0  0  0  0
    9.7578  -10.7021    3.2565 C   0  0  1  0  0  0  0  0  0  0  0  0
    7.3876  -16.7215   11.9113 C   0  0  0  0  0  0  0  0  0  0  0  0
    7.2548  -17.7840   10.9563 C   0  0  0  0  0  0  0  0  0  0  0  0
    6.7366  -17.2354    9.7212 C   0  0  2  0  0  0  0  0  0  0  0  0
    6.5768  -18.3605    8.6241 C   0  0  0  0  0  0  0  0  0  0  0  0
   19.4507  -13.8412    8.4638 C   0  0  2  0  0  0  0  0  0  0  0  0
   17.3706  -13.1662    7.5860 C   0  0  0  0  0  0  0  0  0  0  0  0
   20.3041  -12.9737    7.8086 C   0  0  0  0  0  0  0  0  0  0  0  0
   18.3500  -13.1551    8.8603 C   0  0  1  0  0  0  0  0  0  0  0  0
   10.3497   -9.8003    2.0800 C   0  0  0  0  0  0  0  0  0  0  0  0
   10.2725   -8.2652    2.5378 C   0  0  0  0  0  0  0  0  0  0  0  0
   11.1242   -8.1094    3.8818 C   0  0  1  0  0  0  0  0  0  0  0  0
   11.1019   -6.6698    4.4095 C   0  0  0  0  0  0  0  0  0  0  0  0
   15.0112  -12.5652    6.9534 C   0  0  1  0  0  0  0  0  0  0  0  0
   15.3151  -11.2938    5.9958 C   0  0  0  0  0  0  0  0  0  0  0  0
   14.2163  -11.1939    4.8686 C   0  0  2  0  0  0  0  0  0  0  0  0
   20.1513  -14.4722    9.5595 F   0  0  0  0  0  0  0  0  0  0  0  0
    7.9349  -18.9708    8.1732 N   0  0  0  0  0  0  0  0  0  0  0  0
    9.8038  -12.1743    2.9248 N   0  0  0  0  0  0  0  0  0  0  0  0
    9.6250  -16.1875   11.3729 N   0  0  0  0  0  0  0  0  0  0  0  0
   21.0143  -11.8379    8.2633 N   0  0  0  0  0  0  0  0  0  0  0  0
   11.8117   -5.8036    3.5510 N   0  0  0  0  0  0  0  0  0  0  0  0
   16.0611  -12.6457    7.9848 N   0  0  0  0  0  0  0  0  0  0  0  0
   14.4740  -10.0291    3.9934 N   0  0  0  0  0  0  0  0  0  0  0  0
   11.8790  -10.9615    4.4595 O   0  0  0  0  0  0  0  0  0  0  0  0
   11.1240  -11.9381    7.0429 O   0  0  0  0  0  0  0  0  0  0  0  0
   13.2870  -13.3298    8.4662 O   0  0  0  0  0  0  0  0  0  0  0  0
    9.2376  -11.3042    9.3506 O   0  0  0  0  0  0  0  0  0  0  0  0
    9.9814  -13.9947    7.1741 O   0  0  0  0  0  0  0  0  0  0  0  0
    6.3713  -14.2159    6.1295 O   0  0  0  0  0  0  0  0  0  0  0  0
    8.6805  -13.9702    9.7066 O   0  0  0  0  0  0  0  0  0  0  0  0
   17.6841  -13.7595    9.9906 O   0  0  0  0  0  0  0  0  0  0  0  0
   17.6957  -13.5447    6.4486 O   0  0  0  0  0  0  0  0  0  0  0  0
    7.6341  -16.1281    9.2210 O   0  0  0  0  0  0  0  0  0  0  0  0
   10.5641   -9.0281    4.9552 O   0  0  0  0  0  0  0  0  0  0  0  0
  1 36  1  6  0  0  0
  2 36  1  6  0  0  0
  2  3  1  0  0  0  0
  3 37  1  1  0  0  0
  3  4  1  0  0  0  0
  4 38  1  1  0  0  0
  5 37  1  6  0  0  0
  5  6  1  0  0  0  0
  6  7  1  0  0  0  0
  6 39  1  1  0  0  0
  7 42  1  1  0  0  0
  8  9  1  6  0  0  0
  8  7  1  0  0  0  0
 10 42  1  6  0  0  0
 10 11  1  0  0  0  0
 11 31  1  6  0  0  0
 11 13  1  0  0  0  0
 12 30  1  6  0  0  0
 12  1  1  0  0  0  0
 14 13  1  0  0  0  0
 15 16  1  6  0  0  0
 15 14  1  0  0  0  0
 17 19  1  1  0  0  0
 17 28  1  0  0  0  0
 18 34  1  0  0  0  0
 19 32  1  0  0  0  0
 20 18  1  6  0  0  0
 20 17  1  0  0  0  0
 20 43  1  0  0  0  0
 21 12  1  0  0  0  0
 22 21  1  0  0  0  0
 22 23  1  0  0  0  0
 23 24  1  1  0  0  0
 23 46  1  0  0  0  0
 24 33  1  0  0  0  0
 25 34  1  1  0  0  0
 25  4  1  0  0  0  0
 26 25  1  0  0  0  0
 27 35  1  6  0  0  0
 27 26  1  0  0  0  0
 27  2  1  0  0  0  0
 29 16  1  0  0  0  0
 40  8  1  0  0  0  0
 40  5  1  0  0  0  0
 41  9  1  0  0  0  0
 44 18  2  0  0  0  0
 45 15  1  0  0  0  0
 45 10  1  0  0  0  0
 46  1  1  0  0  0  0
M  END
>  <CHROM.1>
-173.75299971,75.12771544,172.62405116,179.07414054,166.09183854,-64.08190907
179.54364806,-65.59636641,64.47266244,170.52242960,85.05735551,-68.46079062
168.06631005,11.88775854,-12.82089812,7.20115619,0.38069597,-0.10426538,-0.72997038

>  <Name>
lig.pdb

>  <RI>
0

>  <Rbt.Current_Directory>
/home/afrankz/demos/rdock_decoys_rna/rnas/3wru

>  <Rbt.Executable>
rbdock ($Id: //depot/dev/client3/rdock/2013.1/src/exe/rbdock.cxx#4 $)

>  <Rbt.Library>
libRbt.so (2013.1, Build901 2013/11/27)

>  <Rbt.Parameter_File>
/export/apps/rDock/src/rDock_2013.1_src/data/scripts/dock_solv.prm

>  <Rbt.Receptor>
prm/pocket_docking_3.prm

>  <SCORE>
-10.3276

>  <SCORE.INTER>
-4.51738

>  <SCORE.INTER.CONST>
1

>  <SCORE.INTER.POLAR>
0

>  <SCORE.INTER.ROT>
13

>  <SCORE.INTER.SOLV>
23.7571

>  <SCORE.INTER.VDW>
-23.1973

>  <SCORE.INTER.norm>
-0.0982038

>  <SCORE.INTRA>
-5.81026

>  <SCORE.INTRA.DIHEDRAL>
-13.7879

>  <SCORE.INTRA.DIHEDRAL.0>
19.7146

>  <SCORE.INTRA.POLAR>
0

>  <SCORE.INTRA.POLAR.0>
0

>  <SCORE.INTRA.REPUL>
0

>  <SCORE.INTRA.REPUL.0>
0

>  <SCORE.INTRA.SOLV>
-1.66384

>  <SCORE.INTRA.SOLV.lig_0>
-116.697

>  <SCORE.INTRA.VDW>
1.91562

>  <SCORE.INTRA.VDW.0>
-7.06424

>  <SCORE.INTRA.norm>
-0.12631

>  <SCORE.RESTR>
0

>  <SCORE.RESTR.CAVITY>
0

>  <SCORE.RESTR.norm>
0

>  <SCORE.SYSTEM>
0

>  <SCORE.SYSTEM.CONST>
0

>  <SCORE.SYSTEM.DIHEDRAL>
0

>  <SCORE.SYSTEM.SOLV>
0

>  <SCORE.SYSTEM.norm>
0

>  <SCORE.heavy>
46

>  <SCORE.norm>
-0.224514

>  <RMSD>
1.907

$$$$
lig.pdb
 OpenBabel03061811583D
libRbt.so/2013.1/901 2013/11/27
 46 49  0  0  0  0  0  0  0  0999 V2000
   10.7690  -10.6820    4.4205 C   0  0  1  0  0  0  0  0  0  0  0  0
   13.0784  -11.4579    5.1080 C   0  0  1  0  0  0  0  0  0  0  0  0
   12.9948  -12.9954    5.3504 C   0  0  1  0  0  0  0  0  0  0  0  0
   14.1283  -13.4166    6.4184 C   0  0  2  0  0  0  0  0  0  0  0  0
   11.2656  -13.7486    7.0476 C   0  0  2  0  0  0  0  0  0  0  0  0
   11.3437  -12.6865    8.1810 C   0  0  1  0  0  0  0  0  0  0  0  0
   10.3318  -13.3047    9.1152 C   0  0  1  0  0  0  0  0  0  0  0  0
    9.1268  -13.6873    8.1983 C   0  0  1  0  0  0  0  0  0  0  0  0
    8.1132  -12.5428    7.8456 C   0  0  0  0  0  0  0  0  0  0  0  0
   10.1137  -15.2804   10.5757 C   0  0  1  0  0  0  0  0  0  0  0  0
   10.8039  -16.4015   11.2937 C   0  0  1  0  0  0  0  0  0  0  0  0
    9.8465  -10.9954    3.2188 C   0  0  1  0  0  0  0  0  0  0  0  0
    9.7329  -17.1971   12.1209 C   0  0  0  0  0  0  0  0  0  0  0  0
    8.6821  -17.7816   11.3382 C   0  0  0  0  0  0  0  0  0  0  0  0
    7.9683  -16.7233   10.6559 C   0  0  2  0  0  0  0  0  0  0  0  0
    6.8007  -17.3082    9.7674 C   0  0  0  0  0  0  0  0  0  0  0  0
   18.9690  -12.8308    8.3404 C   0  0  2  0  0  0  0  0  0  0  0  0
   16.6315  -12.8216    8.0416 C   0  0  0  0  0  0  0  0  0  0  0  0
   19.3209  -13.5527    7.2156 C   0  0  0  0  0  0  0  0  0  0  0  0
   17.8672  -13.3949    8.8947 C   0  0  1  0  0  0  0  0  0  0  0  0
   10.2052  -10.0743    1.9655 C   0  0  0  0  0  0  0  0  0  0  0  0
   10.0593   -8.5409    2.4123 C   0  0  0  0  0  0  0  0  0  0  0  0
   11.0602   -8.2869    3.6328 C   0  0  1  0  0  0  0  0  0  0  0  0
   10.9855   -6.8427    4.1429 C   0  0  0  0  0  0  0  0  0  0  0  0
   15.5497  -13.0845    5.7859 C   0  0  1  0  0  0  0  0  0  0  0  0
   15.5863  -11.4776    5.5800 C   0  0  0  0  0  0  0  0  0  0  0  0
   14.4654  -11.0399    4.5601 C   0  0  2  0  0  0  0  0  0  0  0  0
   18.7773  -11.4432    7.9831 F   0  0  0  0  0  0  0  0  0  0  0  0
    6.7418  -16.6796    8.3456 N   0  0  0  0  0  0  0  0  0  0  0  0
    9.9725  -12.4658    2.9004 N   0  0  0  0  0  0  0  0  0  0  0  0
   11.3946  -17.3449   10.4483 N   0  0  0  0  0  0  0  0  0  0  0  0
   20.4795  -13.5161    6.4047 N   0  0  0  0  0  0  0  0  0  0  0  0
   11.3118   -5.9261    3.1209 N   0  0  0  0  0  0  0  0  0  0  0  0
   16.6168  -13.4678    6.7276 N   0  0  0  0  0  0  0  0  0  0  0  0
   14.4786   -9.5723    4.3717 N   0  0  0  0  0  0  0  0  0  0  0  0
   12.1186  -11.0547    4.1397 O   0  0  0  0  0  0  0  0  0  0  0  0
   11.6169  -13.2758    5.8754 O   0  0  0  0  0  0  0  0  0  0  0  0
   14.0342  -14.7763    6.6145 O   0  0  0  0  0  0  0  0  0  0  0  0
   12.6471  -12.6731    8.6791 O   0  0  0  0  0  0  0  0  0  0  0  0
    9.8945  -14.2754    7.1349 O   0  0  0  0  0  0  0  0  0  0  0  0
    7.4806  -12.1347    9.0750 O   0  0  0  0  0  0  0  0  0  0  0  0
   10.9426  -14.5305    9.7698 O   0  0  0  0  0  0  0  0  0  0  0  0
   17.8766  -14.8377    8.8276 O   0  0  0  0  0  0  0  0  0  0  0  0
   15.8199  -11.9770    8.4544 O   0  0  0  0  0  0  0  0  0  0  0  0
    8.9196  -15.9061    9.8139 O   0  0  0  0  0  0  0  0  0  0  0  0
   10.7211   -9.2245    4.7800 O   0  0  0  0  0  0  0  0  0  0  0  0
  1 36  1  6  0  0  0
  2 36  1  6  0  0  0
  2  3  1  0  0  0  0
  3 37  1  1  0  0  0
  3  4  1  0  0  0  0
  4 38  1  6  0  0  0
  5 37  1  6  0  0  0
  5  6  1  0  0  0  0
  6  7  1  0  0  0  0
  6 39  1  1  0  0  0
  7 42  1  6  0  0  0
  8  9  1  6  0  0  0
  8  7  1  0  0  0  0
 10 42  1  6  0  0  0
 10 11  1  0  0  0  0
 11 31  1  6  0  0  0
 11 13  1  0  0  0  0
 12 30  1  6  0  0  0
 12  1  1  0  0  0  0
 14 13  1  0  0  0  0
 15 16  1  6  0  0  0
 15 14  1  0  0  0  0
 17 19  1  6  0  0  0
 17 28  1  0  0  0  0
 18 34  1  0  0  0  0
 19 32  1  0  0  0  0
 20 18  1  6  0  0  0
 20 17  1  0  0  0  0
 20 43  1  0  0  0  0
 21 12  1  0  0  0  0
 22 21  1  0  0  0  0
 22 23  1  0  0  0  0
 23 24  1  1  0  0  0
 23 46  1  0  0  0  0
 24 33  1  0  0  0  0
 25 34  1  1  0  0  0
 25  4  1  0  0  0  0
 26 25  1  0  0  0  0
 27 35  1  1  0  0  0
 27 26  1  0  0  0  0
 27  2  1  0  0  0  0
 29 16  1  0  0  0  0
 40  8  1  0  0  0  0
 40  5  1  0  0  0  0
 41  9  1  0  0  0  0
 44 18  2  0  0  0  0
 45 15  1  0  0  0  0
 45 10  1  0  0  0  0
 46  1  1  0  0  0  0
M  END
>  <CHROM.1>
-151.12967579,88.06162009,-116.10062052,76.81212659,-174.94823177,-64.52661473
-174.58492280,-134.71983603,-169.14424286,73.47088287,-81.61059342,-59.52481949
-60.23201756,12.36478776,-12.89295541,7.07823235,0.80000058,-0.03572914,-0.76643716

>  <Name>
lig.pdb

>  <RI>
0

>  <Rbt.Current_Directory>
/home/afrankz/demos/rdock_decoys_rna/rnas/3wru

>  <Rbt.Executable>
rbdock ($Id: //depot/dev/client3/rdock/2013.1/src/exe/rbdock.cxx#4 $)

>  <Rbt.Library>
libRbt.so (2013.1, Build901 2013/11/27)

>  <Rbt.Parameter_File>
/export/apps/rDock/src/rDock_2013.1_src/data/scripts/dock_solv.prm

>  <Rbt.Receptor>
prm/pocket_docking_2.prm

>  <SCORE>
9.66331

>  <SCORE.INTER>
-0.0292691

>  <SCORE.INTER.CONST>
1

>  <SCORE.INTER.POLAR>
0

>  <SCORE.INTER.ROT>
13

>  <SCORE.INTER.SOLV>
20.2628

>  <SCORE.INTER.VDW>
-19.0405

>  <SCORE.INTER.norm>
-0.000636284

>  <SCORE.INTRA>
8.82701

>  <SCORE.INTRA.DIHEDRAL>
3.14301

>  <SCORE.INTRA.DIHEDRAL.0>
19.7146

>  <SCORE.INTRA.POLAR>
0

>  <SCORE.INTRA.POLAR.0>
0

>  <SCORE.INTRA.REPUL>
0.0317614

>  <SCORE.INTRA.REPUL.0>
0

>  <SCORE.INTRA.SOLV>
1.92914

>  <SCORE.INTRA.SOLV.lig_0>
-116.697

>  <SCORE.INTRA.VDW>
6.13213

>  <SCORE.INTRA.VDW.0>
-7.06424

>  <SCORE.INTRA.norm>
0.191892

>  <SCORE.RESTR>
0.865572

>  <SCORE.RESTR.CAVITY>
0.865572

>  <SCORE.RESTR.norm>
0.0188168

>  <SCORE.SYSTEM>
0

>  <SCORE.SYSTEM.CONST>
0

>  <SCORE.SYSTEM.DIHEDRAL>
0

>  <SCORE.SYSTEM.SOLV>
0

>  <SCORE.SYSTEM.norm>
0

>  <SCORE.heavy>
46

>  <SCORE.norm>
0.210072

>  <RMSD>
1.916

$$$$
lig.pdb
 OpenBabel03061811583D
libRbt.so/2013.1/901 2013/11/27
 46 49  0  0  0  0  0  0  0  0999 V2000
   10.7713  -11.2402    5.3794 C   0  0  1  0  0  0  0  0  0  0  0  0
   13.2435  -11.5576    5.8218 C   0  0  1  0  0  0  0  0  0  0  0  0
   13.4926  -12.8258    6.6932 C   0  0  1  0  0  0  0  0  0  0  0  0
   14.8533  -12.6199    7.5352 C   0  0  2  0  0  0  0  0  0  0  0  0
   11.3617  -13.8797    7.5799 C   0  0  2  0  0  0  0  0  0  0  0  0
   10.7217  -14.1241    8.9761 C   0  0  1  0  0  0  0  0  0  0  0  0
    9.3851  -14.6433    8.5043 C   0  0  1  0  0  0  0  0  0  0  0  0
    8.9512  -13.6547    7.3757 C   0  0  1  0  0  0  0  0  0  0  0  0
    8.2779  -12.3122    7.8297 C   0  0  0  0  0  0  0  0  0  0  0  0
    9.1717  -17.0825    8.8009 C   0  0  1  0  0  0  0  0  0  0  0  0
    7.6919  -17.1634    9.0300 C   0  0  1  0  0  0  0  0  0  0  0  0
    9.7392  -11.5997    4.2845 C   0  0  1  0  0  0  0  0  0  0  0  0
    7.4066  -18.3368   10.0330 C   0  0  0  0  0  0  0  0  0  0  0  0
    8.0248  -18.1909   11.3195 C   0  0  0  0  0  0  0  0  0  0  0  0
    9.4606  -18.1449   11.1417 C   0  0  2  0  0  0  0  0  0  0  0  0
   10.1984  -17.9752   12.5279 C   0  0  0  0  0  0  0  0  0  0  0  0
   19.5994  -13.2973    8.6730 C   0  0  2  0  0  0  0  0  0  0  0  0
   18.5436  -12.8249    6.6199 C   0  0  0  0  0  0  0  0  0  0  0  0
   19.9885  -14.5878    8.3675 C   0  0  0  0  0  0  0  0  0  0  0  0
   19.7919  -12.5133    7.5832 C   0  0  1  0  0  0  0  0  0  0  0  0
   10.0460  -10.8160    2.9282 C   0  0  0  0  0  0  0  0  0  0  0  0
   10.0211   -9.2432    3.2414 C   0  0  0  0  0  0  0  0  0  0  0  0
   11.1295   -8.9459    4.3546 C   0  0  1  0  0  0  0  0  0  0  0  0
   11.1756   -7.4608    4.7335 C   0  0  0  0  0  0  0  0  0  0  0  0
   16.0551  -12.4760    6.5029 C   0  0  1  0  0  0  0  0  0  0  0  0
   15.7539  -11.1341    5.6458 C   0  0  0  0  0  0  0  0  0  0  0  0
   14.4107  -11.3026    4.8362 C   0  0  2  0  0  0  0  0  0  0  0  0
   20.3224  -12.8379    9.8373 F   0  0  0  0  0  0  0  0  0  0  0  0
   10.1251  -16.5245   13.0850 N   0  0  0  0  0  0  0  0  0  0  0  0
    9.7582  -13.0973    4.0943 N   0  0  0  0  0  0  0  0  0  0  0  0
    7.1418  -16.0249    9.6257 N   0  0  0  0  0  0  0  0  0  0  0  0
   19.4950  -15.5145    7.4193 N   0  0  0  0  0  0  0  0  0  0  0  0
   11.6311   -6.6754    3.6534 N   0  0  0  0  0  0  0  0  0  0  0  0
   17.3226  -12.2990    7.2341 N   0  0  0  0  0  0  0  0  0  0  0  0
   14.1161  -10.0791    4.0580 N   0  0  0  0  0  0  0  0  0  0  0  0
   12.0714  -11.7189    5.0333 O   0  0  0  0  0  0  0  0  0  0  0  0
   12.3044  -12.9676    7.5993 O   0  0  0  0  0  0  0  0  0  0  0  0
   15.0509  -13.7514    8.2947 O   0  0  0  0  0  0  0  0  0  0  0  0
   11.4947  -15.0686    9.6525 O   0  0  0  0  0  0  0  0  0  0  0  0
   10.2181  -13.5924    6.6996 O   0  0  0  0  0  0  0  0  0  0  0  0
    9.2923  -11.5209    8.4801 O   0  0  0  0  0  0  0  0  0  0  0  0
    9.5594  -16.0535    7.9704 O   0  0  0  0  0  0  0  0  0  0  0  0
   19.8224  -11.1042    7.8991 O   0  0  0  0  0  0  0  0  0  0  0  0
   18.6241  -13.4063    5.5253 O   0  0  0  0  0  0  0  0  0  0  0  0
    9.8374  -17.0273   10.1979 O   0  0  0  0  0  0  0  0  0  0  0  0
   10.8328   -9.7566    5.6055 O   0  0  0  0  0  0  0  0  0  0  0  0
  1 36  1  6  0  0  0
  2 36  1  6  0  0  0
  2  3  1  0  0  0  0
  3 37  1  1  0  0  0
  3  4  1  0  0  0  0
  4 38  1  1  0  0  0
  5 37  1  1  0  0  0
  5  6  1  0  0  0  0
  6  7  1  0  0  0  0
  6 39  1  1  0  0  0
  7 42  1  6  0  0  0
  8  9  1  1  0  0  0
  8  7  1  0  0  0  0
 10 42  1  6  0  0  0
 10 11  1  0  0  0  0
 11 31  1  1  0  0  0
 11 13  1  0  0  0  0
 12 30  1  6  0  0  0
 12  1  1  0  0  0  0
 14 13  1  0  0  0  0
 15 16  1  1  0  0  0
 15 14  1  0  0  0  0
 17 19  1  6  0  0  0
 17 28  1  0  0  0  0
 18 34  1  0  0  0  0
 19 32  1  0  0  0  0
 20 18  1  6  0  0  0
 20 17  1  0  0  0  0
 20 43  1  0  0  0  0
 21 12  1  0  0  0  0
 22 21  1  0  0  0  0
 22 23  1  0  0  0  0
 23 24  1  1  0  0  0
 23 46  1  0  0  0  0
 24 33  1  0  0  0  0
 25 34  1  1  0  0  0
 25  4  1  0  0  0  0
 26 25  1  0  0  0  0
 27 35  1  1  0  0  0
 27 26  1  0  0  0  0
 27  2  1  0  0  0  0
 29 16  1  0  0  0  0
 40  8  1  0  0  0  0
 40  5  1  0  0  0  0
 41  9  1  0  0  0  0
 44 18  2  0  0  0  0
 45 15  1  0  0  0  0
 45 10  1  0  0  0  0
 46  1  1  0  0  0  0
M  END
>  <CHROM.1>
-179.94517347,96.06778633,110.56450110,152.64199453,101.63675197,68.73755838
68.30189871,-76.39235406,-62.88561330,68.64918765,78.74761866,-66.89081398
148.74675152,12.62048225,-13.23477599,7.38449496,2.65804885,0.06819581,2.42680859

>  <Name>
lig.pdb

>  <RI>
0

>  <Rbt.Current_Directory>
/home/afrankz/demos/rdock_decoys_rna/rnas/3wru

>  <Rbt.Executable>
rbdock ($Id: //depot/dev/client3/rdock/2013.1/src/exe/rbdock.cxx#4 $)

>  <Rbt.Library>
libRbt.so (2013.1, Build901 2013/11/27)

>  <Rbt.Parameter_File>
/export/apps/rDock/src/rDock_2013.1_src/data/scripts/dock_solv.prm

>  <Rbt.Receptor>
prm/pocket_docking_2.prm

>  <SCORE>
6.2397

>  <SCORE.INTER>
-0.398043

>  <SCORE.INTER.CONST>
1

>  <SCORE.INTER.POLAR>
0

>  <SCORE.INTER.ROT>
13

>  <SCORE.INTER.SOLV>
18.4847

>  <SCORE.INTER.VDW>
-18.6936

>  <SCORE.INTER.norm>
-0.0086531

>  <SCORE.INTRA>
6.03431

>  <SCORE.INTRA.DIHEDRAL>
4.88644

>  <SCORE.INTRA.DIHEDRAL.0>
19.7146

>  <SCORE.INTRA.POLAR>
0

>  <SCORE.INTRA.POLAR.0>
0

>  <SCORE.INTRA.REPUL>
0

>  <SCORE.INTRA.REPUL.0>
0

>  <SCORE.INTRA.SOLV>
7.46815

>  <SCORE.INTRA.SOLV.lig_0>
-116.697

>  <SCORE.INTRA.VDW>
-0.142988

>  <SCORE.INTRA.VDW.0>
-7.06424

>  <SCORE.INTRA.norm>
0.131181

>  <SCORE.RESTR>
0.603433

>  <SCORE.RESTR.CAVITY>
0.603433

>  <SCORE.RESTR.norm>
0.0131181

>  <SCORE.SYSTEM>
0

>  <SCORE.SYSTEM.CONST>
0

>  <SCORE.SYSTEM.DIHEDRAL>
0

>  <SCORE.SYSTEM.SOLV>
0

>  <SCORE.SYSTEM.norm>
0

>  <SCORE.heavy>
46

>  <SCORE.norm>
0.135646

>  <RMSD>
2.013

$$$$
lig.pdb
 OpenBabel03061811583D
libRbt.so/2013.1/901 2013/11/27
 46 49  0  0  0  0  0  0  0  0999 V2000
   10.9941  -10.6672    4.8363 C   0  0  1  0  0  0  0  0  0  0  0  0
   13.3943  -11.0868    5.5226 C   0  0  1  0  0  0  0  0  0  0  0  0
   13.1503  -12.2887    6.4846 C   0  0  1  0  0  0  0  0  0  0  0  0
   14.3745  -12.3742    7.5320 C   0  0  2  0  0  0  0  0  0  0  0  0
   11.0785  -12.8678    7.8300 C   0  0  2  0  0  0  0  0  0  0  0  0
    9.6825  -12.2756    8.1750 C   0  0  1  0  0  0  0  0  0  0  0  0
    8.9222  -13.5764    8.2689 C   0  0  1  0  0  0  0  0  0  0  0  0
    9.3698  -14.3893    7.0127 C   0  0  1  0  0  0  0  0  0  0  0  0
    8.6487  -14.0568    5.6595 C   0  0  0  0  0  0  0  0  0  0  0  0
    9.3082  -15.6631    9.5260 C   0  0  1  0  0  0  0  0  0  0  0  0
    7.9924  -16.2718    9.1426 C   0  0  1  0  0  0  0  0  0  0  0  0
   10.0806  -11.0138    3.6368 C   0  0  1  0  0  0  0  0  0  0  0  0
    8.1287  -17.8344    9.2081 C   0  0  0  0  0  0  0  0  0  0  0  0
    8.4725  -18.3536   10.5007 C   0  0  0  0  0  0  0  0  0  0  0  0
    9.7580  -17.8143   10.8902 C   0  0  2  0  0  0  0  0  0  0  0  0
   10.1873  -18.3449   12.3147 C   0  0  0  0  0  0  0  0  0  0  0  0
   18.9735  -14.2965    8.9444 C   0  0  2  0  0  0  0  0  0  0  0  0
   18.1522  -13.1239    7.0727 C   0  0  0  0  0  0  0  0  0  0  0  0
   20.1302  -14.7215    9.5701 C   0  0  0  0  0  0  0  0  0  0  0  0
   19.2425  -13.1612    8.2530 C   0  0  1  0  0  0  0  0  0  0  0  0
   10.4133  -10.0911    2.3776 C   0  0  0  0  0  0  0  0  0  0  0  0
   10.2247   -8.5596    2.8146 C   0  0  0  0  0  0  0  0  0  0  0  0
   11.2182   -8.2699    4.0332 C   0  0  1  0  0  0  0  0  0  0  0  0
   11.1032   -6.8251    4.5340 C   0  0  0  0  0  0  0  0  0  0  0  0
   15.7082  -12.6514    6.7102 C   0  0  1  0  0  0  0  0  0  0  0  0
   15.9210  -11.3636    5.7499 C   0  0  0  0  0  0  0  0  0  0  0  0
   14.7190  -11.2439    4.7356 C   0  0  2  0  0  0  0  0  0  0  0  0
   17.9270  -14.1278    9.9272 F   0  0  0  0  0  0  0  0  0  0  0  0
   11.5159  -17.7169   12.8252 N   0  0  0  0  0  0  0  0  0  0  0  0
   10.2476  -12.4821    3.3278 N   0  0  0  0  0  0  0  0  0  0  0  0
    6.9414  -15.9551   10.0078 N   0  0  0  0  0  0  0  0  0  0  0  0
   21.3662  -15.1700    9.0479 N   0  0  0  0  0  0  0  0  0  0  0  0
   11.4142   -5.9065    3.5091 N   0  0  0  0  0  0  0  0  0  0  0  0
   16.8523  -12.7501    7.6342 N   0  0  0  0  0  0  0  0  0  0  0  0
   14.8935  -10.0641    3.8598 N   0  0  0  0  0  0  0  0  0  0  0  0
   12.3536  -11.0037    4.5574 O   0  0  0  0  0  0  0  0  0  0  0  0
   11.8489  -12.0248    7.1843 O   0  0  0  0  0  0  0  0  0  0  0  0
   14.1362  -13.4417    8.3685 O   0  0  0  0  0  0  0  0  0  0  0  0
    9.7861  -11.5863    9.3839 O   0  0  0  0  0  0  0  0  0  0  0  0
   10.7779  -14.1229    7.1231 O   0  0  0  0  0  0  0  0  0  0  0  0
    7.2298  -14.1604    5.8917 O   0  0  0  0  0  0  0  0  0  0  0  0
    9.3062  -14.2854    9.5550 O   0  0  0  0  0  0  0  0  0  0  0  0
   19.1277  -11.9681    9.0589 O   0  0  0  0  0  0  0  0  0  0  0  0
   18.3960  -13.3616    5.8783 O   0  0  0  0  0  0  0  0  0  0  0  0
    9.7210  -16.3043   10.8737 O   0  0  0  0  0  0  0  0  0  0  0  0
   10.9056   -9.2093    5.1864 O   0  0  0  0  0  0  0  0  0  0  0  0
  1 36  1  6  0  0  0
  2 36  1  6  0  0  0
  2  3  1  0  0  0  0
  3 37  1  1  0  0  0
  3  4  1  0  0  0  0
  4 38  1  1  0  0  0
  5 37  1  6  0  0  0
  5  6  1  0  0  0  0
  6  7  1  0  0  0  0
  6 39  1  1  0  0  0
  7 42  1  1  0  0  0
  8  9  1  6  0  0  0
  8  7  1  0  0  0  0
 10 42  1  1  0  0  0
 10 11  1  0  0  0  0
 11 31  1  1  0  0  0
 11 13  1  0  0  0  0
 12 30  1  6  0  0  0
 12  1  1  0  0  0  0
 14 13  1  0  0  0  0
 15 16  1  1  0  0  0
 15 14  1  0  0  0  0
 17 19  1  1  0  0  0
 17 28  1  0  0  0  0
 18 34  1  0  0  0  0
 19 32  1  0  0  0  0
 20 18  1  6  0  0  0
 20 17  1  0  0  0  0
 20 43  1  0  0  0  0
 21 12  1  0  0  0  0
 22 21  1  0  0  0  0
 22 23  1  0  0  0  0
 23 24  1  1  0  0  0
 23 46  1  0  0  0  0
 24 33  1  0  0  0  0
 25 34  1  1  0  0  0
 25  4  1  0  0  0  0
 26 25  1  0  0  0  0
 27 35  1  6  0  0  0
 27 26  1  0  0  0  0
 27  2  1  0  0  0  0
 29 16  1  0  0  0  0
 40  8  1  0  0  0  0
 40  5  1  0  0  0  0
 41  9  1  0  0  0  0
 44 18  2  0  0  0  0
 45 15  1  0  0  0  0
 45 10  1  0  0  0  0
 46  1  1  0  0  0  0
M  END
>  <CHROM.1>
-165.76248735,67.72701504,162.13796995,-168.60957782,-147.54649477,-53.29037556
-57.87422566,-175.94443557,-64.17467293,74.59264024,154.29781071,-59.99706696
174.59378489,12.49944533,-13.02307988,7.30588187,2.74612028,0.08201899,2.41162257

>  <Name>
lig.pdb

>  <RI>
0

>  <Rbt.Current_Directory>
/home/afrankz/demos/rdock_decoys_rna/rnas/3wru

>  <Rbt.Executable>
rbdock ($Id: //depot/dev/client3/rdock/2013.1/src/exe/rbdock.cxx#4 $)

>  <Rbt.Library>
libRbt.so (2013.1, Build901 2013/11/27)

>  <Rbt.Parameter_File>
/export/apps/rDock/src/rDock_2013.1_src/data/scripts/dock_solv.prm

>  <Rbt.Receptor>
prm/pocket_docking_2.prm

>  <SCORE>
-4.2464

>  <SCORE.INTER>
-1.77314

>  <SCORE.INTER.CONST>
1

>  <SCORE.INTER.POLAR>
0

>  <SCORE.INTER.ROT>
13

>  <SCORE.INTER.SOLV>
27.121

>  <SCORE.INTER.VDW>
-22.4891

>  <SCORE.INTER.norm>
-0.0385464

>  <SCORE.INTRA>
-3.12523

>  <SCORE.INTRA.DIHEDRAL>
-9.01641

>  <SCORE.INTRA.DIHEDRAL.0>
19.7146

>  <SCORE.INTRA.POLAR>
0

>  <SCORE.INTRA.POLAR.0>
0

>  <SCORE.INTRA.REPUL>
0

>  <SCORE.INTRA.REPUL.0>
0

>  <SCORE.INTRA.SOLV>
-1.39097

>  <SCORE.INTRA.SOLV.lig_0>
-116.697

>  <SCORE.INTRA.VDW>
2.07846

>  <SCORE.INTRA.VDW.0>
-7.06424

>  <SCORE.INTRA.norm>
-0.0679398

>  <SCORE.RESTR>
0.651966

>  <SCORE.RESTR.CAVITY>
0.651966

>  <SCORE.RESTR.norm>
0.0141732

>  <SCORE.SYSTEM>
0

>  <SCORE.SYSTEM.CONST>
0

>  <SCORE.SYSTEM.DIHEDRAL>
0

>  <SCORE.SYSTEM.SOLV>
0

>  <SCORE.SYSTEM.norm>
0

>  <SCORE.heavy>
46

>  <SCORE.norm>
-0.0923131

>  <RMSD>
2.022

$$$$
lig.pdb
 OpenBabel03061811583D
libRbt.so/2013.1/901 2013/11/27
 46 49  0  0  0  0  0  0  0  0999 V2000
   10.4806  -10.8976    4.8942 C   0  0  1  0  0  0  0  0  0  0  0  0
   12.6719  -11.7449    5.8366 C   0  0  1  0  0  0  0  0  0  0  0  0
   13.1124  -13.2359    5.7239 C   0  0  1  0  0  0  0  0  0  0  0  0
   14.1219  -13.5737    6.9362 C   0  0  2  0  0  0  0  0  0  0  0  0
   11.2269  -14.4865    6.8724 C   0  0  2  0  0  0  0  0  0  0  0  0
   11.0297  -13.3772    7.9443 C   0  0  1  0  0  0  0  0  0  0  0  0
    9.8121  -13.9574    8.6224 C   0  0  1  0  0  0  0  0  0  0  0  0
    8.8698  -14.3813    7.4513 C   0  0  1  0  0  0  0  0  0  0  0  0
    7.9853  -13.2550    6.8103 C   0  0  0  0  0  0  0  0  0  0  0  0
    9.3195  -16.1806    9.5703 C   0  0  1  0  0  0  0  0  0  0  0  0
    7.9766  -15.7580   10.0869 C   0  0  1  0  0  0  0  0  0  0  0  0
    9.6524  -11.1753    3.6174 C   0  0  1  0  0  0  0  0  0  0  0  0
    7.0687  -17.0323   10.2148 C   0  0  0  0  0  0  0  0  0  0  0  0
    7.5670  -18.0375   11.1091 C   0  0  0  0  0  0  0  0  0  0  0  0
    8.8503  -18.4969   10.6219 C   0  0  2  0  0  0  0  0  0  0  0  0
    9.4556  -19.6023   11.5741 C   0  0  0  0  0  0  0  0  0  0  0  0
   19.8684  -13.6517    8.4029 C   0  0  2  0  0  0  0  0  0  0  0  0
   17.7927  -12.9670    7.5224 C   0  0  0  0  0  0  0  0  0  0  0  0
   20.7338  -13.7102    9.4789 C   0  0  0  0  0  0  0  0  0  0  0  0
   18.6398  -13.2904    8.8494 C   0  0  1  0  0  0  0  0  0  0  0  0
   10.2119  -10.3391    2.3782 C   0  0  0  0  0  0  0  0  0  0  0  0
   10.1649   -8.7825    2.7616 C   0  0  0  0  0  0  0  0  0  0  0  0
   11.0636   -8.5701    4.0667 C   0  0  1  0  0  0  0  0  0  0  0  0
   11.0729   -7.1061    4.5228 C   0  0  0  0  0  0  0  0  0  0  0  0
   15.4111  -12.6557    6.7748 C   0  0  1  0  0  0  0  0  0  0  0  0
   14.8961  -11.1265    6.9242 C   0  0  0  0  0  0  0  0  0  0  0  0
   13.8840  -10.7835    5.7641 C   0  0  2  0  0  0  0  0  0  0  0  0
   19.8702  -14.9216    7.7123 F   0  0  0  0  0  0  0  0  0  0  0  0
    9.6910  -19.0952   13.0259 N   0  0  0  0  0  0  0  0  0  0  0  0
    9.6732  -12.6624    3.3578 N   0  0  0  0  0  0  0  0  0  0  0  0
    8.0066  -15.1948   11.3658 N   0  0  0  0  0  0  0  0  0  0  0  0
   22.1238  -13.9640    9.5493 N   0  0  0  0  0  0  0  0  0  0  0  0
   11.5991   -6.2653    3.5192 N   0  0  0  0  0  0  0  0  0  0  0  0
   16.3675  -12.9436    7.8587 N   0  0  0  0  0  0  0  0  0  0  0  0
   13.3953   -9.3930    5.8950 N   0  0  0  0  0  0  0  0  0  0  0  0
   11.8111  -11.3984    4.7594 O   0  0  0  0  0  0  0  0  0  0  0  0
   11.8625  -14.0630    5.8057 O   0  0  0  0  0  0  0  0  0  0  0  0
   14.4960  -14.8933    6.8141 O   0  0  0  0  0  0  0  0  0  0  0  0
   12.1684  -13.3397    8.7500 O   0  0  0  0  0  0  0  0  0  0  0  0
    9.8728  -15.0122    6.6378 O   0  0  0  0  0  0  0  0  0  0  0  0
    7.0240  -13.8999    5.9511 O   0  0  0  0  0  0  0  0  0  0  0  0
   10.2308  -15.1530    9.4588 O   0  0  0  0  0  0  0  0  0  0  0  0
   17.9833  -14.3329    9.6033 O   0  0  0  0  0  0  0  0  0  0  0  0
   18.2871  -12.7574    6.4025 O   0  0  0  0  0  0  0  0  0  0  0  0
    9.8052  -17.3349   10.4810 O   0  0  0  0  0  0  0  0  0  0  0  0
   10.5321   -9.4286    5.2027 O   0  0  0  0  0  0  0  0  0  0  0  0
  1 36  1  6  0  0  0
  2 36  1  6  0  0  0
  2  3  1  0  0  0  0
  3 37  1  1  0  0  0
  3  4  1  0  0  0  0
  4 38  1  6  0  0  0
  5 37  1  6  0  0  0
  5  6  1  0  0  0  0
  6  7  1  0  0  0  0
  6 39  1  1  0  0  0
  7 42  1  6  0  0  0
  8  9  1  6  0  0  0
  8  7  1  0  0  0  0
 10 42  1  1  0  0  0
 10 11  1  0  0  0  0
 11 31  1  1  0  0  0
 11 13  1  0  0  0  0
 12 30  1  6  0  0  0
 12  1  1  0  0  0  0
 14 13  1  0  0  0  0
 15 16  1  1  0  0  0
 15 14  1  0  0  0  0
 17 19  1  1  0  0  0
 17 28  1  0  0  0  0
 18 34  1  0  0  0  0
 19 32  1  0  0  0  0
 20 18  1  6  0  0  0
 20 17  1  0  0  0  0
 20 43  1  0  0  0  0
 21 12  1  0  0  0  0
 22 21  1  0  0  0  0
 22 23  1  0  0  0  0
 23 24  1  1  0  0  0
 23 46  1  0  0  0  0
 24 33  1  0  0  0  0
 25 34  1  1  0  0  0
 25  4  1  0  0  0  0
 26 25  1  0  0  0  0
 27 35  1  1  0  0  0
 27 26  1  0  0  0  0
 27  2  1  0  0  0  0
 29 16  1  0  0  0  0
 40  8  1  0  0  0  0
 40  5  1  0  0  0  0
 41  9  1  0  0  0  0
 44 18  2  0  0  0  0
 45 15  1  0  0  0  0
 45 10  1  0  0  0  0
 46  1  1  0  0  0  0
M  END
>  <CHROM.1>
-156.50916339,121.85645479,-84.85394799,46.41512059,-147.15746189,-169.00730955
-55.33578197,-60.38462895,-176.15522266,163.82772214,169.10201873,-60.52843884
140.77280241,12.38333671,-13.38155848,7.34038726,2.75036055,0.08698713,2.43218043

>  <Name>
lig.pdb

>  <RI>
0

>  <Rbt.Current_Directory>
/home/afrankz/demos/rdock_decoys_rna/rnas/3wru

>  <Rbt.Executable>
rbdock ($Id: //depot/dev/client3/rdock/2013.1/src/exe/rbdock.cxx#4 $)

>  <Rbt.Library>
libRbt.so (2013.1, Build901 2013/11/27)

>  <Rbt.Parameter_File>
/export/apps/rDock/src/rDock_2013.1_src/data/scripts/dock_solv.prm

>  <Rbt.Receptor>
prm/pocket_docking_2.prm

>  <SCORE>
6.71125

>  <SCORE.INTER>
-0.367135

>  <SCORE.INTER.CONST>
1

>  <SCORE.INTER.POLAR>
0

>  <SCORE.INTER.ROT>
13

>  <SCORE.INTER.SOLV>
22.9865

>  <SCORE.INTER.VDW>
-20.1736

>  <SCORE.INTER.norm>
-0.00798121

>  <SCORE.INTRA>
4.60728

>  <SCORE.INTRA.DIHEDRAL>
0.556417

>  <SCORE.INTRA.DIHEDRAL.0>
19.7146

>  <SCORE.INTRA.POLAR>
0

>  <SCORE.INTRA.POLAR.0>
0

>  <SCORE.INTRA.REPUL>
0.00152049

>  <SCORE.INTRA.REPUL.0>
0

>  <SCORE.INTRA.SOLV>
2.87934

>  <SCORE.INTRA.SOLV.lig_0>
-116.697

>  <SCORE.INTRA.VDW>
2.8818

>  <SCORE.INTRA.VDW.0>
-7.06424

>  <SCORE.INTRA.norm>
0.100158

>  <SCORE.RESTR>
2.4711

>  <SCORE.RESTR.CAVITY>
2.4711

>  <SCORE.RESTR.norm>
0.0537196

>  <SCORE.SYSTEM>
0

>  <SCORE.SYSTEM.CONST>
0

>  <SCORE.SYSTEM.DIHEDRAL>
0

>  <SCORE.SYSTEM.SOLV>
0

>  <SCORE.SYSTEM.norm>
0

>  <SCORE.heavy>
46

>  <SCORE.norm>
0.145897

>  <RMSD>
2.034

$$$$
lig.pdb
 OpenBabel03061811583D
libRbt.so/2013.1/901 2013/11/27
 46 49  0  0  0  0  0  0  0  0999 V2000
   10.5611  -10.8934    5.1851 C   0  0  1  0  0  0  0  0  0  0  0  0
   12.8269  -11.6022    6.0633 C   0  0  1  0  0  0  0  0  0  0  0  0
   12.6052  -12.6883    7.1592 C   0  0  1  0  0  0  0  0  0  0  0  0
   13.8406  -12.6419    8.1958 C   0  0  2  0  0  0  0  0  0  0  0  0
   10.4870  -13.1601    8.4740 C   0  0  2  0  0  0  0  0  0  0  0  0
   10.1495  -14.4479    7.6700 C   0  0  1  0  0  0  0  0  0  0  0  0
    9.7998  -15.3370    8.8389 C   0  0  1  0  0  0  0  0  0  0  0  0
   10.9373  -15.0895    9.8800 C   0  0  1  0  0  0  0  0  0  0  0  0
   12.2757  -15.8807    9.6689 C   0  0  0  0  0  0  0  0  0  0  0  0
    7.6681  -15.9275    9.9302 C   0  0  1  0  0  0  0  0  0  0  0  0
    8.3229  -16.6743   11.0538 C   0  0  1  0  0  0  0  0  0  0  0  0
    9.6147  -11.2511    4.0147 C   0  0  1  0  0  0  0  0  0  0  0  0
    7.3507  -17.8115   11.5291 C   0  0  0  0  0  0  0  0  0  0  0  0
    7.0159  -18.7758   10.5208 C   0  0  0  0  0  0  0  0  0  0  0  0
    6.3479  -18.0954    9.4318 C   0  0  2  0  0  0  0  0  0  0  0  0
    5.9615  -19.1079    8.2827 C   0  0  0  0  0  0  0  0  0  0  0  0
   19.8888  -13.5994    8.3535 C   0  0  2  0  0  0  0  0  0  0  0  0
   17.5960  -13.5087    7.8174 C   0  0  0  0  0  0  0  0  0  0  0  0
   20.9132  -13.3435    9.2454 C   0  0  0  0  0  0  0  0  0  0  0  0
   18.7034  -13.3811    8.9752 C   0  0  1  0  0  0  0  0  0  0  0  0
   10.2238  -10.7735    2.6187 C   0  0  0  0  0  0  0  0  0  0  0  0
   10.4660   -9.1898    2.6931 C   0  0  0  0  0  0  0  0  0  0  0  0
   11.4725   -8.9024    3.9015 C   0  0  1  0  0  0  0  0  0  0  0  0
   11.7594   -7.4048    4.0633 C   0  0  0  0  0  0  0  0  0  0  0  0
   15.1689  -12.9990    7.3964 C   0  0  1  0  0  0  0  0  0  0  0  0
   15.3586  -11.8277    6.2928 C   0  0  0  0  0  0  0  0  0  0  0  0
   14.1454  -11.8361    5.2849 C   0  0  2  0  0  0  0  0  0  0  0  0
   20.0208  -14.9440    7.8395 F   0  0  0  0  0  0  0  0  0  0  0  0
    5.7135  -18.4118    6.9136 N   0  0  0  0  0  0  0  0  0  0  0  0
    9.3667  -12.7399    4.0490 N   0  0  0  0  0  0  0  0  0  0  0  0
    9.5068  -17.3250   10.6953 N   0  0  0  0  0  0  0  0  0  0  0  0
   22.3129  -13.5182    9.1381 N   0  0  0  0  0  0  0  0  0  0  0  0
   10.6470   -6.7314    4.6113 N   0  0  0  0  0  0  0  0  0  0  0  0
   16.3231  -12.9806    8.3129 N   0  0  0  0  0  0  0  0  0  0  0  0
   14.2988  -10.7627    4.2780 N   0  0  0  0  0  0  0  0  0  0  0  0
   11.7759  -11.6398    5.1066 O   0  0  0  0  0  0  0  0  0  0  0  0
   11.3081  -12.3582    7.8385 O   0  0  0  0  0  0  0  0  0  0  0  0
   13.6218  -13.6088    9.1515 O   0  0  0  0  0  0  0  0  0  0  0  0
    9.0752  -14.1671    6.8248 O   0  0  0  0  0  0  0  0  0  0  0  0
   10.9638  -13.6563    9.7746 O   0  0  0  0  0  0  0  0  0  0  0  0
   11.9548  -17.2857    9.7040 O   0  0  0  0  0  0  0  0  0  0  0  0
    8.4454  -14.9270    9.3882 O   0  0  0  0  0  0  0  0  0  0  0  0
   18.4278  -14.3403   10.0194 O   0  0  0  0  0  0  0  0  0  0  0  0
   17.8091  -13.9698    6.6840 O   0  0  0  0  0  0  0  0  0  0  0  0
    7.2193  -16.9857    8.8925 O   0  0  0  0  0  0  0  0  0  0  0  0
   10.8805   -9.4258    5.1998 O   0  0  0  0  0  0  0  0  0  0  0  0
  1 36  1  6  0  0  0
  2 36  1  6  0  0  0
  2  3  1  0  0  0  0
  3 37  1  1  0  0  0
  3  4  1  0  0  0  0
  4 38  1  1  0  0  0
  5 37  1  6  0  0  0
  5  6  1  0  0  0  0
  6  7  1  0  0  0  0
  6 39  1  6  0  0  0
  7 42  1  1  0  0  0
  8  9  1  6  0  0  0
  8  7  1  0  0  0  0
 10 42  1  6  0  0  0
 10 11  1  0  0  0  0
 11 31  1  6  0  0  0
 11 13  1  0  0  0  0
 12 30  1  6  0  0  0
 12  1  1  0  0  0  0
 14 13  1  0  0  0  0
 15 16  1  6  0  0  0
 15 14  1  0  0  0  0
 17 19  1  1  0  0  0
 17 28  1  0  0  0  0
 18 34  1  0  0  0  0
 19 32  1  0  0  0  0
 20 18  1  6  0  0  0
 20 17  1  0  0  0  0
 20 43  1  0  0  0  0
 21 12  1  0  0  0  0
 22 21  1  0  0  0  0
 22 23  1  0  0  0  0
 23 24  1  1  0  0  0
 23 46  1  0  0  0  0
 24 33  1  0  0  0  0
 25 34  1  1  0  0  0
 25  4  1  0  0  0  0
 26 25  1  0  0  0  0
 27 35  1  6  0  0  0
 27 26  1  0  0  0  0
 27  2  1  0  0  0  0
 29 16  1  0  0  0  0
 40  8  1  0  0  0  0
 40  5  1  0  0  0  0
 41  9  1  0  0  0  0
 44 18  2  0  0  0  0
 45 15  1  0  0  0  0
 45 10  1  0  0  0  0
 46  1  1  0  0  0  0
M  END
>  <CHROM.1>
-176.49199931,90.19484275,154.69868291,-48.73234277,147.96613692,-59.27500193
57.54666559,-159.68793601,174.22368866,-166.64855787,172.60245472,73.13543765
169.60378455,12.24064325,-13.63015555,7.55874607,2.77245539,0.13395073,2.46126440

>  <Name>
lig.pdb

>  <RI>
0

>  <Rbt.Current_Directory>
/home/afrankz/demos/rdock_decoys_rna/rnas/3wru

>  <Rbt.Executable>
rbdock ($Id: //depot/dev/client3/rdock/2013.1/src/exe/rbdock.cxx#4 $)

>  <Rbt.Library>
libRbt.so (2013.1, Build901 2013/11/27)

>  <Rbt.Parameter_File>
/export/apps/rDock/src/rDock_2013.1_src/data/scripts/dock_solv.prm

>  <Rbt.Receptor>
prm/pocket_docking_2.prm

>  <SCORE>
6.43384

>  <SCORE.INTER>
3.18221

>  <SCORE.INTER.CONST>
1

>  <SCORE.INTER.POLAR>
0

>  <SCORE.INTER.ROT>
13

>  <SCORE.INTER.SOLV>
24.8411

>  <SCORE.INTER.VDW>
-18.4255

>  <SCORE.INTER.norm>
0.0691784

>  <SCORE.INTRA>
2.81457

>  <SCORE.INTRA.DIHEDRAL>
-5.21314

>  <SCORE.INTRA.DIHEDRAL.0>
19.7146

>  <SCORE.INTRA.POLAR>
0

>  <SCORE.INTRA.POLAR.0>
0

>  <SCORE.INTRA.REPUL>
0

>  <SCORE.INTRA.REPUL.0>
0

>  <SCORE.INTRA.SOLV>
4.5361

>  <SCORE.INTRA.SOLV.lig_0>
-116.697

>  <SCORE.INTRA.VDW>
3.1531

>  <SCORE.INTRA.VDW.0>
-7.06424

>  <SCORE.INTRA.norm>
0.0611864

>  <SCORE.RESTR>
0.437055

>  <SCORE.RESTR.CAVITY>
0.437055

>  <SCORE.RESTR.norm>
0.00950119

>  <SCORE.SYSTEM>
0

>  <SCORE.SYSTEM.CONST>
0

>  <SCORE.SYSTEM.DIHEDRAL>
0

>  <SCORE.SYSTEM.SOLV>
0

>  <SCORE.SYSTEM.norm>
0

>  <SCORE.heavy>
46

>  <SCORE.norm>
0.139866

>  <RMSD>
2.119

$$$$
lig.pdb
 OpenBabel03061811583D
libRbt.so/2013.1/901 2013/11/27
 46 49  0  0  0  0  0  0  0  0999 V2000
   11.5295  -10.8225    5.8583 C   0  0  1  0  0  0  0  0  0  0  0  0
   14.0512  -10.9660    6.0263 C   0  0  1  0  0  0  0  0  0  0  0  0
   14.2913  -12.0470    7.1233 C   0  0  1  0  0  0  0  0  0  0  0  0
   15.7217  -11.7751    7.8181 C   0  0  2  0  0  0  0  0  0  0  0  0
   12.1304  -12.6993    8.2822 C   0  0  2  0  0  0  0  0  0  0  0  0
   12.4885  -14.0431    8.9784 C   0  0  1  0  0  0  0  0  0  0  0  0
   11.1311  -14.3396    9.5687 C   0  0  1  0  0  0  0  0  0  0  0  0
   10.6700  -12.9886   10.2021 C   0  0  1  0  0  0  0  0  0  0  0  0
   11.2251  -12.6493   11.6299 C   0  0  0  0  0  0  0  0  0  0  0  0
    8.8795  -15.0057    8.8136 C   0  0  1  0  0  0  0  0  0  0  0  0
    8.6659  -16.2391    9.6395 C   0  0  1  0  0  0  0  0  0  0  0  0
   10.4025  -11.4321    4.9913 C   0  0  1  0  0  0  0  0  0  0  0  0
    7.1282  -16.3942    9.9145 C   0  0  0  0  0  0  0  0  0  0  0  0
    6.3183  -16.5295    8.7379 C   0  0  0  0  0  0  0  0  0  0  0  0
    6.4712  -15.3382    7.9301 C   0  0  2  0  0  0  0  0  0  0  0  0
    5.6071  -15.4327    6.6112 C   0  0  0  0  0  0  0  0  0  0  0  0
   21.0171  -13.5247    8.6211 C   0  0  2  0  0  0  0  0  0  0  0  0
   18.9045  -12.8665    7.8107 C   0  0  0  0  0  0  0  0  0  0  0  0
   22.3333  -13.1968    8.8858 C   0  0  0  0  0  0  0  0  0  0  0  0
   20.3172  -12.3832    8.4055 C   0  0  1  0  0  0  0  0  0  0  0  0
   10.4040  -10.8031    3.5243 C   0  0  0  0  0  0  0  0  0  0  0  0
   10.2241   -9.2151    3.6597 C   0  0  0  0  0  0  0  0  0  0  0  0
   11.4365   -8.6560    4.5392 C   0  0  1  0  0  0  0  0  0  0  0  0
   11.3471   -7.1381    4.7373 C   0  0  0  0  0  0  0  0  0  0  0  0
   16.8480  -11.9302    6.7053 C   0  0  1  0  0  0  0  0  0  0  0  0
   16.5615  -10.7706    5.6103 C   0  0  0  0  0  0  0  0  0  0  0  0
   15.1531  -11.0007    4.9384 C   0  0  2  0  0  0  0  0  0  0  0  0
   20.4889  -14.3173    9.7085 F   0  0  0  0  0  0  0  0  0  0  0  0
    5.8150  -14.2217    5.6570 N   0  0  0  0  0  0  0  0  0  0  0  0
   10.5850  -12.9307    4.9692 N   0  0  0  0  0  0  0  0  0  0  0  0
    9.0507  -17.4249    9.0075 N   0  0  0  0  0  0  0  0  0  0  0  0
   22.9306  -12.5375    9.9857 N   0  0  0  0  0  0  0  0  0  0  0  0
   11.5101   -6.4561    3.5129 N   0  0  0  0  0  0  0  0  0  0  0  0
   18.1755  -11.7020    7.3037 N   0  0  0  0  0  0  0  0  0  0  0  0
   14.8722   -9.9413    3.9444 N   0  0  0  0  0  0  0  0  0  0  0  0
   12.8152  -11.1974    5.3628 O   0  0  0  0  0  0  0  0  0  0  0  0
   13.1691  -11.9164    8.1115 O   0  0  0  0  0  0  0  0  0  0  0  0
   15.9100  -12.7414    8.7809 O   0  0  0  0  0  0  0  0  0  0  0  0
   12.8951  -14.9491    7.9981 O   0  0  0  0  0  0  0  0  0  0  0  0
   11.0430  -12.1420    9.1021 O   0  0  0  0  0  0  0  0  0  0  0  0
   10.8371  -13.7240   12.5087 O   0  0  0  0  0  0  0  0  0  0  0  0
   10.1927  -14.7825    8.4608 O   0  0  0  0  0  0  0  0  0  0  0  0
   20.1008  -11.6169    9.6106 O   0  0  0  0  0  0  0  0  0  0  0  0
   18.5175  -14.0463    7.7803 O   0  0  0  0  0  0  0  0  0  0  0  0
    7.9272  -15.1125    7.5972 O   0  0  0  0  0  0  0  0  0  0  0  0
   11.4329   -9.3243    5.9043 O   0  0  0  0  0  0  0  0  0  0  0  0
  1 36  1  6  0  0  0
  2 36  1  6  0  0  0
  2  3  1  0  0  0  0
  3 37  1  1  0  0  0
  3  4  1  0  0  0  0
  4 38  1  1  0  0  0
  5 37  1  1  0  0  0
  5  6  1  0  0  0  0
  6  7  1  0  0  0  0
  6 39  1  6  0  0  0
  7 42  1  6  0  0  0
  8  9  1  1  0  0  0
  8  7  1  0  0  0  0
 10 42  1  6  0  0  0
 10 11  1  0  0  0  0
 11 31  1  6  0  0  0
 11 13  1  0  0  0  0
 12 30  1  6  0  0  0
 12  1  1  0  0  0  0
 14 13  1  0  0  0  0
 15 16  1  6  0  0  0
 15 14  1  0  0  0  0
 17 19  1  1  0  0  0
 17 28  1  0  0  0  0
 18 34  1  0  0  0  0
 19 32  1  0  0  0  0
 20 18  1  1  0  0  0
 20 17  1  0  0  0  0
 20 43  1  0  0  0  0
 21 12  1  0  0  0  0
 22 21  1  0  0  0  0
 22 23  1  0  0  0  0
 23 24  1  1  0  0  0
 23 46  1  0  0  0  0
 24 33  1  0  0  0  0
 25 34  1  1  0  0  0
 25  4  1  0  0  0  0
 26 25  1  0  0  0  0
 27 35  1  6  0  0  0
 27 26  1  0  0  0  0
 27  2  1  0  0  0  0
 29 16  1  0  0  0  0
 40  8  1  0  0  0  0
 40  5  1  0  0  0  0
 41  9  1  0  0  0  0
 44 18  2  0  0  0  0
 45 15  1  0  0  0  0
 45 10  1  0  0  0  0
 46  1  1  0  0  0  0
M  END
>  <CHROM.1>
-170.74455107,80.55623217,105.80120632,74.01612277,-175.66467541,-57.86238262
-71.51770183,-175.84165459,68.16485093,-169.15393591,168.45569848,-65.80079973
92.07058270,13.07680051,-12.65566851,7.53820158,3.07084309,0.14380013,2.39999029

>  <Name>
lig.pdb

>  <RI>
0

>  <Rbt.Current_Directory>
/home/afrankz/demos/rdock_decoys_rna/rnas/3wru

>  <Rbt.Executable>
rbdock ($Id: //depot/dev/client3/rdock/2013.1/src/exe/rbdock.cxx#4 $)

>  <Rbt.Library>
libRbt.so (2013.1, Build901 2013/11/27)

>  <Rbt.Parameter_File>
/export/apps/rDock/src/rDock_2013.1_src/data/scripts/dock_solv.prm

>  <Rbt.Receptor>
prm/pocket_docking_4.prm

>  <SCORE>
-5.73157

>  <SCORE.INTER>
-3.46279

>  <SCORE.INTER.CONST>
1

>  <SCORE.INTER.POLAR>
0

>  <SCORE.INTER.ROT>
13

>  <SCORE.INTER.SOLV>
29.901

>  <SCORE.INTER.VDW>
-24.5422

>  <SCORE.INTER.norm>
-0.0752781

>  <SCORE.INTRA>
-2.26877

>  <SCORE.INTRA.DIHEDRAL>
-6.83464

>  <SCORE.INTRA.DIHEDRAL.0>
19.7146

>  <SCORE.INTRA.POLAR>
0

>  <SCORE.INTRA.POLAR.0>
0

>  <SCORE.INTRA.REPUL>
0

>  <SCORE.INTRA.REPUL.0>
0

>  <SCORE.INTRA.SOLV>
-0.443546

>  <SCORE.INTRA.SOLV.lig_0>
-116.697

>  <SCORE.INTRA.VDW>
1.37032

>  <SCORE.INTRA.VDW.0>
-7.06424

>  <SCORE.INTRA.norm>
-0.0493212

>  <SCORE.RESTR>
0

>  <SCORE.RESTR.CAVITY>
0

>  <SCORE.RESTR.norm>
0

>  <SCORE.SYSTEM>
0

>  <SCORE.SYSTEM.CONST>
0

>  <SCORE.SYSTEM.DIHEDRAL>
0

>  <SCORE.SYSTEM.SOLV>
0

>  <SCORE.SYSTEM.norm>
0

>  <SCORE.heavy>
46

>  <SCORE.norm>
-0.124599

>  <RMSD>
2.230

$$$$
lig.pdb
 OpenBabel03061811583D
libRbt.so/2013.1/901 2013/11/27
 46 49  0  0  0  0  0  0  0  0999 V2000
   12.8412  -11.3835    4.1474 C   0  0  1  0  0  0  0  0  0  0  0  0
   14.4235  -12.0982    5.9896 C   0  0  1  0  0  0  0  0  0  0  0  0
   14.4753  -13.2523    7.0360 C   0  0  1  0  0  0  0  0  0  0  0  0
   15.9592  -13.3182    7.6657 C   0  0  2  0  0  0  0  0  0  0  0  0
   12.7411  -13.7559    8.8184 C   0  0  2  0  0  0  0  0  0  0  0  0
   12.3309  -13.1500   10.1908 C   0  0  1  0  0  0  0  0  0  0  0  0
   11.1024  -13.9936   10.4316 C   0  0  1  0  0  0  0  0  0  0  0  0
   10.3347  -13.9742    9.0716 C   0  0  1  0  0  0  0  0  0  0  0  0
    9.4299  -12.7246    8.7863 C   0  0  0  0  0  0  0  0  0  0  0  0
   10.5405  -16.2539   11.2434 C   0  0  1  0  0  0  0  0  0  0  0  0
   11.0482  -17.5457   11.8112 C   0  0  1  0  0  0  0  0  0  0  0  0
   12.5887   -9.8728    4.3650 C   0  0  1  0  0  0  0  0  0  0  0  0
    9.8159  -18.4330   12.2095 C   0  0  0  0  0  0  0  0  0  0  0  0
    8.9392  -18.7656   11.1235 C   0  0  0  0  0  0  0  0  0  0  0  0
    8.4000  -17.5413   10.5710 C   0  0  2  0  0  0  0  0  0  0  0  0
    7.4309  -17.8439    9.3610 C   0  0  0  0  0  0  0  0  0  0  0  0
   20.2539  -13.7710    9.0675 C   0  0  2  0  0  0  0  0  0  0  0  0
   18.9475  -12.5150    7.5612 C   0  0  0  0  0  0  0  0  0  0  0  0
   20.4292  -15.0281    8.5206 C   0  0  0  0  0  0  0  0  0  0  0  0
   20.4280  -12.8429    8.0940 C   0  0  1  0  0  0  0  0  0  0  0  0
   11.2583   -9.6304    5.2130 C   0  0  0  0  0  0  0  0  0  0  0  0
   10.0337  -10.3064    4.4284 C   0  0  0  0  0  0  0  0  0  0  0  0
   10.3521  -11.8649    4.2690 C   0  0  1  0  0  0  0  0  0  0  0  0
    9.2385  -12.6022    3.5156 C   0  0  0  0  0  0  0  0  0  0  0  0
   16.9782  -13.6582    6.4923 C   0  0  1  0  0  0  0  0  0  0  0  0
   16.8979  -12.4175    5.4529 C   0  0  0  0  0  0  0  0  0  0  0  0
   15.4454  -12.3166    4.8463 C   0  0  2  0  0  0  0  0  0  0  0  0
   21.1570  -13.5995   10.1831 F   0  0  0  0  0  0  0  0  0  0  0  0
    8.0775  -18.7475    8.2721 N   0  0  0  0  0  0  0  0  0  0  0  0
   13.8070   -9.2844    5.0350 N   0  0  0  0  0  0  0  0  0  0  0  0
   11.7841  -18.3179   10.9081 N   0  0  0  0  0  0  0  0  0  0  0  0
   21.5936  -15.8045    8.3133 N   0  0  0  0  0  0  0  0  0  0  0  0
    9.4142  -14.0002    3.5911 N   0  0  0  0  0  0  0  0  0  0  0  0
   18.3483  -13.7408    7.0294 N   0  0  0  0  0  0  0  0  0  0  0  0
   15.3535  -11.1794    3.9041 N   0  0  0  0  0  0  0  0  0  0  0  0
   13.1393  -12.0350    5.3826 O   0  0  0  0  0  0  0  0  0  0  0  0
   13.4497  -12.9316    8.0840 O   0  0  0  0  0  0  0  0  0  0  0  0
   15.9790  -14.3435    8.5846 O   0  0  0  0  0  0  0  0  0  0  0  0
   13.3670  -13.3783   11.0972 O   0  0  0  0  0  0  0  0  0  0  0  0
   11.4723  -14.2053    8.2240 O   0  0  0  0  0  0  0  0  0  0  0  0
   10.3058  -11.6027    8.5578 O   0  0  0  0  0  0  0  0  0  0  0  0
   11.5307  -15.4005   10.8075 O   0  0  0  0  0  0  0  0  0  0  0  0
   21.0517  -11.6314    8.5733 O   0  0  0  0  0  0  0  0  0  0  0  0
   18.4090  -11.3971    7.6152 O   0  0  0  0  0  0  0  0  0  0  0  0
    9.5186  -16.6222   10.1399 O   0  0  0  0  0  0  0  0  0  0  0  0
   11.6555  -12.0487    3.5090 O   0  0  0  0  0  0  0  0  0  0  0  0
  1 36  1  1  0  0  0
  2 36  1  6  0  0  0
  2  3  1  0  0  0  0
  3 37  1  1  0  0  0
  3  4  1  0  0  0  0
  4 38  1  1  0  0  0
  5 37  1  6  0  0  0
  5  6  1  0  0  0  0
  6  7  1  0  0  0  0
  6 39  1  1  0  0  0
  7 42  1  6  0  0  0
  8  9  1  6  0  0  0
  8  7  1  0  0  0  0
 10 42  1  6  0  0  0
 10 11  1  0  0  0  0
 11 31  1  6  0  0  0
 11 13  1  0  0  0  0
 12 30  1  1  0  0  0
 12  1  1  0  0  0  0
 14 13  1  0  0  0  0
 15 16  1  6  0  0  0
 15 14  1  0  0  0  0
 17 19  1  6  0  0  0
 17 28  1  0  0  0  0
 18 34  1  0  0  0  0
 19 32  1  0  0  0  0
 20 18  1  1  0  0  0
 20 17  1  0  0  0  0
 20 43  1  0  0  0  0
 21 12  1  0  0  0  0
 22 21  1  0  0  0  0
 22 23  1  0  0  0  0
 23 24  1  6  0  0  0
 23 46  1  0  0  0  0
 24 33  1  0  0  0  0
 25 34  1  1  0  0  0
 25  4  1  0  0  0  0
 26 25  1  0  0  0  0
 27 35  1  6  0  0  0
 27 26  1  0  0  0  0
 27  2  1  0  0  0  0
 29 16  1  0  0  0  0
 40  8  1  0  0  0  0
 40  5  1  0  0  0  0
 41  9  1  0  0  0  0
 44 18  2  0  0  0  0
 45 15  1  0  0  0  0
 45 10  1  0  0  0  0
 46  1  1  0  0  0  0
M  END
>  <CHROM.1>
-84.25942499,-161.13164470,149.39865736,152.13547895,171.20802088,70.39678196
-170.42798323,-52.73498133,86.08619104,-60.50651998,95.50428043,-169.47993526
-65.72179130,13.56757323,-13.71086907,7.81605595,0.33174450,-0.12541600,-0.83945775

>  <Name>
lig.pdb

>  <RI>
0

>  <Rbt.Current_Directory>
/home/afrankz/demos/rdock_decoys_rna/rnas/3wru

>  <Rbt.Executable>
rbdock ($Id: //depot/dev/client3/rdock/2013.1/src/exe/rbdock.cxx#4 $)

>  <Rbt.Library>
libRbt.so (2013.1, Build901 2013/11/27)

>  <Rbt.Parameter_File>
/export/apps/rDock/src/rDock_2013.1_src/data/scripts/dock_solv.prm

>  <Rbt.Receptor>
prm/pocket_docking_2.prm

>  <SCORE>
12.7533

>  <SCORE.INTER>
5.62365

>  <SCORE.INTER.CONST>
1

>  <SCORE.INTER.POLAR>
0

>  <SCORE.INTER.ROT>
13

>  <SCORE.INTER.SOLV>
22.9906

>  <SCORE.INTER.VDW>
-16.1811

>  <SCORE.INTER.norm>
0.122253

>  <SCORE.INTRA>
6.45264

>  <SCORE.INTRA.DIHEDRAL>
-0.793336

>  <SCORE.INTRA.DIHEDRAL.0>
19.7146

>  <SCORE.INTRA.POLAR>
0

>  <SCORE.INTRA.POLAR.0>
0

>  <SCORE.INTRA.REPUL>
0

>  <SCORE.INTRA.REPUL.0>
0

>  <SCORE.INTRA.SOLV>
3.86726

>  <SCORE.INTRA.SOLV.lig_0>
-116.697

>  <SCORE.INTRA.VDW>
4.91568

>  <SCORE.INTRA.VDW.0>
-7.06424

>  <SCORE.INTRA.norm>
0.140275

>  <SCORE.RESTR>
0.677006

>  <SCORE.RESTR.CAVITY>
0.677006

>  <SCORE.RESTR.norm>
0.0147175

>  <SCORE.SYSTEM>
0

>  <SCORE.SYSTEM.CONST>
0

>  <SCORE.SYSTEM.DIHEDRAL>
0

>  <SCORE.SYSTEM.SOLV>
0

>  <SCORE.SYSTEM.norm>
0

>  <SCORE.heavy>
46

>  <SCORE.norm>
0.277246

>  <RMSD>
2.242

$$$$
lig.pdb
 OpenBabel03061811583D
libRbt.so/2013.1/901 2013/11/27
 46 49  0  0  0  0  0  0  0  0999 V2000
   12.0812  -10.8876    3.8014 C   0  0  1  0  0  0  0  0  0  0  0  0
   13.2492  -10.8086    6.0458 C   0  0  1  0  0  0  0  0  0  0  0  0
   13.1832  -12.1603    6.8195 C   0  0  1  0  0  0  0  0  0  0  0  0
   14.5149  -12.3118    7.7176 C   0  0  2  0  0  0  0  0  0  0  0  0
   11.4459  -13.0443    8.4437 C   0  0  2  0  0  0  0  0  0  0  0  0
   10.4489  -12.4903    9.5010 C   0  0  1  0  0  0  0  0  0  0  0  0
    9.6436  -13.7503    9.7076 C   0  0  1  0  0  0  0  0  0  0  0  0
    9.3635  -14.2832    8.2665 C   0  0  1  0  0  0  0  0  0  0  0  0
    8.1634  -13.6342    7.4917 C   0  0  0  0  0  0  0  0  0  0  0  0
    9.8044  -15.8518   10.9889 C   0  0  1  0  0  0  0  0  0  0  0  0
   10.6359  -16.7286   11.8769 C   0  0  1  0  0  0  0  0  0  0  0  0
   11.1858   -9.8471    3.0881 C   0  0  1  0  0  0  0  0  0  0  0  0
    9.7775  -17.9764   12.2896 C   0  0  0  0  0  0  0  0  0  0  0  0
    9.3321  -18.7881   11.1935 C   0  0  0  0  0  0  0  0  0  0  0  0
    8.4945  -17.9829   10.3303 C   0  0  2  0  0  0  0  0  0  0  0  0
    7.9795  -18.8229    9.0957 C   0  0  0  0  0  0  0  0  0  0  0  0
   19.2099  -13.9427    8.5259 C   0  0  2  0  0  0  0  0  0  0  0  0
   18.2634  -12.6676    6.7849 C   0  0  0  0  0  0  0  0  0  0  0  0
   19.6461  -15.0254    7.7858 C   0  0  0  0  0  0  0  0  0  0  0  0
   19.4729  -12.8062    7.8343 C   0  0  1  0  0  0  0  0  0  0  0  0
    9.6542  -10.0323    3.4977 C   0  0  0  0  0  0  0  0  0  0  0  0
    9.2100  -11.5251    3.1153 C   0  0  0  0  0  0  0  0  0  0  0  0
   10.1567  -12.5388    3.9102 C   0  0  1  0  0  0  0  0  0  0  0  0
    9.8170  -14.0016    3.6000 C   0  0  0  0  0  0  0  0  0  0  0  0
   15.7680  -12.3543    6.7385 C   0  0  1  0  0  0  0  0  0  0  0  0
   15.7979  -10.9208    5.9834 C   0  0  0  0  0  0  0  0  0  0  0  0
   14.4897  -10.7390    5.1211 C   0  0  2  0  0  0  0  0  0  0  0  0
   19.8301  -13.9689    9.8314 F   0  0  0  0  0  0  0  0  0  0  0  0
    7.1694  -17.9735    8.0747 N   0  0  0  0  0  0  0  0  0  0  0  0
   11.7041   -8.4701    3.4267 N   0  0  0  0  0  0  0  0  0  0  0  0
   11.7761  -17.2511   11.2601 N   0  0  0  0  0  0  0  0  0  0  0  0
   19.3535  -15.4341    6.4635 N   0  0  0  0  0  0  0  0  0  0  0  0
   10.5162  -14.8777    4.4571 N   0  0  0  0  0  0  0  0  0  0  0  0
   17.0078  -12.5058    7.5209 N   0  0  0  0  0  0  0  0  0  0  0  0
   14.4974   -9.4279    4.4353 N   0  0  0  0  0  0  0  0  0  0  0  0
   12.1086  -10.6581    5.2106 O   0  0  0  0  0  0  0  0  0  0  0  0
   11.9499  -12.1095    7.6734 O   0  0  0  0  0  0  0  0  0  0  0  0
   14.4328  -13.5111    8.3892 O   0  0  0  0  0  0  0  0  0  0  0  0
   11.1776  -12.0882   10.6211 O   0  0  0  0  0  0  0  0  0  0  0  0
   10.6924  -14.1008    7.7501 O   0  0  0  0  0  0  0  0  0  0  0  0
    8.5336  -12.2749    7.1862 O   0  0  0  0  0  0  0  0  0  0  0  0
   10.4648  -14.7388   10.5155 O   0  0  0  0  0  0  0  0  0  0  0  0
   19.5244  -11.6324    8.6745 O   0  0  0  0  0  0  0  0  0  0  0  0
   18.3949  -12.6819    5.5499 O   0  0  0  0  0  0  0  0  0  0  0  0
    9.2450  -16.7575    9.8644 O   0  0  0  0  0  0  0  0  0  0  0  0
   11.6083  -12.2882    3.5358 O   0  0  0  0  0  0  0  0  0  0  0  0
  1 36  1  1  0  0  0
  2 36  1  6  0  0  0
  2  3  1  0  0  0  0
  3 37  1  1  0  0  0
  3  4  1  0  0  0  0
  4 38  1  6  0  0  0
  5 37  1  6  0  0  0
  5  6  1  0  0  0  0
  6  7  1  0  0  0  0
  6 39  1  1  0  0  0
  7 42  1  1  0  0  0
  8  9  1  6  0  0  0
  8  7  1  0  0  0  0
 10 42  1  6  0  0  0
 10 11  1  0  0  0  0
 11 31  1  6  0  0  0
 11 13  1  0  0  0  0
 12 30  1  1  0  0  0
 12  1  1  0  0  0  0
 14 13  1  0  0  0  0
 15 16  1  6  0  0  0
 15 14  1  0  0  0  0
 17 19  1  6  0  0  0
 17 28  1  0  0  0  0
 18 34  1  0  0  0  0
 19 32  1  0  0  0  0
 20 18  1  6  0  0  0
 20 17  1  0  0  0  0
 20 43  1  0  0  0  0
 21 12  1  0  0  0  0
 22 21  1  0  0  0  0
 22 23  1  0  0  0  0
 23 24  1  6  0  0  0
 23 46  1  0  0  0  0
 24 33  1  0  0  0  0
 25 34  1  1  0  0  0
 25  4  1  0  0  0  0
 26 25  1  0  0  0  0
 27 35  1  1  0  0  0
 27 26  1  0  0  0  0
 27  2  1  0  0  0  0
 29 16  1  0  0  0  0
 40  8  1  0  0  0  0
 40  5  1  0  0  0  0
 41  9  1  0  0  0  0
 44 18  2  0  0  0  0
 45 15  1  0  0  0  0
 45 10  1  0  0  0  0
 46  1  1  0  0  0  0
M  END
>  <CHROM.1>
-141.89595335,-101.12882579,176.14535677,161.45864195,169.38081123,68.87297798
-174.96390285,-175.30791693,-54.95556131,62.98271449,81.94238973,-170.97058130
175.42790848,12.66295214,-13.44974008,7.41819782,0.47536357,-0.12402875,-0.83134883

>  <Name>
lig.pdb

>  <RI>
0

>  <Rbt.Current_Directory>
/home/afrankz/demos/rdock_decoys_rna/rnas/3wru

>  <Rbt.Executable>
rbdock ($Id: //depot/dev/client3/rdock/2013.1/src/exe/rbdock.cxx#4 $)

>  <Rbt.Library>
libRbt.so (2013.1, Build901 2013/11/27)

>  <Rbt.Parameter_File>
/export/apps/rDock/src/rDock_2013.1_src/data/scripts/dock_solv.prm

>  <Rbt.Receptor>
prm/pocket_docking_2.prm

>  <SCORE>
6.33778

>  <SCORE.INTER>
2.86523

>  <SCORE.INTER.CONST>
1

>  <SCORE.INTER.POLAR>
0

>  <SCORE.INTER.ROT>
13

>  <SCORE.INTER.SOLV>
18.0305

>  <SCORE.INTER.VDW>
-16.3667

>  <SCORE.INTER.norm>
0.0622876

>  <SCORE.INTRA>
2.35872

>  <SCORE.INTRA.DIHEDRAL>
-3.64571

>  <SCORE.INTRA.DIHEDRAL.0>
19.7146

>  <SCORE.INTRA.POLAR>
0

>  <SCORE.INTRA.POLAR.0>
0

>  <SCORE.INTRA.REPUL>
0.00211815

>  <SCORE.INTRA.REPUL.0>
0

>  <SCORE.INTRA.SOLV>
4.24212

>  <SCORE.INTRA.SOLV.lig_0>
-116.697

>  <SCORE.INTRA.VDW>
2.04992

>  <SCORE.INTRA.VDW.0>
-7.06424

>  <SCORE.INTRA.norm>
0.0512765

>  <SCORE.RESTR>
1.11383

>  <SCORE.RESTR.CAVITY>
1.11383

>  <SCORE.RESTR.norm>
0.0242138

>  <SCORE.SYSTEM>
0

>  <SCORE.SYSTEM.CONST>
0

>  <SCORE.SYSTEM.DIHEDRAL>
0

>  <SCORE.SYSTEM.SOLV>
0

>  <SCORE.SYSTEM.norm>
0

>  <SCORE.heavy>
46

>  <SCORE.norm>
0.137778

>  <RMSD>
2.263

$$$$
lig.pdb
 OpenBabel03061811583D
libRbt.so/2013.1/901 2013/11/27
 46 49  0  0  0  0  0  0  0  0999 V2000
   11.4730  -10.3179    5.7327 C   0  0  1  0  0  0  0  0  0  0  0  0
   13.9581  -10.7368    5.9713 C   0  0  1  0  0  0  0  0  0  0  0  0
   14.0301  -11.7936    7.1148 C   0  0  1  0  0  0  0  0  0  0  0  0
   15.4635  -11.6736    7.8454 C   0  0  2  0  0  0  0  0  0  0  0  0
   11.8245  -12.1847    8.3067 C   0  0  2  0  0  0  0  0  0  0  0  0
   12.0220  -13.2322    9.4392 C   0  0  1  0  0  0  0  0  0  0  0  0
   10.5807  -13.3416    9.8748 C   0  0  1  0  0  0  0  0  0  0  0  0
   10.0811  -11.8649    9.9682 C   0  0  1  0  0  0  0  0  0  0  0  0
   10.4267  -11.0816   11.2830 C   0  0  0  0  0  0  0  0  0  0  0  0
    8.4309  -14.1167    8.9466 C   0  0  1  0  0  0  0  0  0  0  0  0
    7.9151  -14.7352   10.2116 C   0  0  1  0  0  0  0  0  0  0  0  0
   10.3054  -10.8325    4.8580 C   0  0  1  0  0  0  0  0  0  0  0  0
    6.3459  -14.7060   10.1763 C   0  0  0  0  0  0  0  0  0  0  0  0
    5.7562  -15.4259    9.0842 C   0  0  0  0  0  0  0  0  0  0  0  0
    6.2043  -14.8331    7.8421 C   0  0  2  0  0  0  0  0  0  0  0  0
    5.5931  -15.5918    6.5988 C   0  0  0  0  0  0  0  0  0  0  0  0
   20.3956  -14.0119    9.0547 C   0  0  2  0  0  0  0  0  0  0  0  0
   18.5275  -13.1694    7.8914 C   0  0  0  0  0  0  0  0  0  0  0  0
   21.6940  -13.8505    9.5001 C   0  0  0  0  0  0  0  0  0  0  0  0
   19.9643  -12.8377    8.5307 C   0  0  1  0  0  0  0  0  0  0  0  0
   10.4013  -10.2515    3.3744 C   0  0  0  0  0  0  0  0  0  0  0  0
   10.3864   -8.6501    3.4613 C   0  0  0  0  0  0  0  0  0  0  0  0
   11.6334   -8.1943    4.3519 C   0  0  1  0  0  0  0  0  0  0  0  0
   11.6999   -6.6700    4.5055 C   0  0  0  0  0  0  0  0  0  0  0  0
   16.5918  -12.0127    6.7765 C   0  0  1  0  0  0  0  0  0  0  0  0
   16.4836  -10.8720    5.6306 C   0  0  0  0  0  0  0  0  0  0  0  0
   15.0767  -10.9525    4.9220 C   0  0  2  0  0  0  0  0  0  0  0  0
   19.5681  -14.4866   10.1407 F   0  0  0  0  0  0  0  0  0  0  0  0
    6.0669  -17.0697    6.4922 N   0  0  0  0  0  0  0  0  0  0  0  0
   10.3301  -12.3419    4.8819 N   0  0  0  0  0  0  0  0  0  0  0  0
    8.2570  -16.0810   10.3715 N   0  0  0  0  0  0  0  0  0  0  0  0
   22.8837  -13.5119    8.8136 N   0  0  0  0  0  0  0  0  0  0  0  0
   12.0319   -6.0507    3.2818 N   0  0  0  0  0  0  0  0  0  0  0  0
   17.9204  -11.9271    7.4090 N   0  0  0  0  0  0  0  0  0  0  0  0
   14.9587   -9.9077    3.8809 N   0  0  0  0  0  0  0  0  0  0  0  0
   12.7217  -10.8396    5.2769 O   0  0  0  0  0  0  0  0  0  0  0  0
   12.9061  -11.4844    8.0604 O   0  0  0  0  0  0  0  0  0  0  0  0
   15.5022  -12.6158    8.8489 O   0  0  0  0  0  0  0  0  0  0  0  0
   12.5372  -14.3983    8.8718 O   0  0  0  0  0  0  0  0  0  0  0  0
   10.6478  -11.4085    8.7287 O   0  0  0  0  0  0  0  0  0  0  0  0
    9.7396   -9.8158   11.2226 O   0  0  0  0  0  0  0  0  0  0  0  0
    9.8041  -14.1258    8.8325 O   0  0  0  0  0  0  0  0  0  0  0  0
   19.8271  -11.7940    9.5197 O   0  0  0  0  0  0  0  0  0  0  0  0
   18.0348  -14.3068    7.8136 O   0  0  0  0  0  0  0  0  0  0  0  0
    7.7134  -14.8313    7.7752 O   0  0  0  0  0  0  0  0  0  0  0  0
   11.5332   -8.8171    5.7347 O   0  0  0  0  0  0  0  0  0  0  0  0
  1 36  1  6  0  0  0
  2 36  1  6  0  0  0
  2  3  1  0  0  0  0
  3 37  1  1  0  0  0
  3  4  1  0  0  0  0
  4 38  1  1  0  0  0
  5 37  1  1  0  0  0
  5  6  1  0  0  0  0
  6  7  1  0  0  0  0
  6 39  1  6  0  0  0
  7 42  1  6  0  0  0
  8  9  1  1  0  0  0
  8  7  1  0  0  0  0
 10 42  1  6  0  0  0
 10 11  1  0  0  0  0
 11 31  1  6  0  0  0
 11 13  1  0  0  0  0
 12 30  1  6  0  0  0
 12  1  1  0  0  0  0
 14 13  1  0  0  0  0
 15 16  1  6  0  0  0
 15 14  1  0  0  0  0
 17 19  1  1  0  0  0
 17 28  1  0  0  0  0
 18 34  1  0  0  0  0
 19 32  1  0  0  0  0
 20 18  1  1  0  0  0
 20 17  1  0  0  0  0
 20 43  1  0  0  0  0
 21 12  1  0  0  0  0
 22 21  1  0  0  0  0
 22 23  1  0  0  0  0
 23 24  1  1  0  0  0
 23 46  1  0  0  0  0
 24 33  1  0  0  0  0
 25 34  1  1  0  0  0
 25  4  1  0  0  0  0
 26 25  1  0  0  0  0
 27 35  1  6  0  0  0
 27 26  1  0  0  0  0
 27  2  1  0  0  0  0
 29 16  1  0  0  0  0
 40  8  1  0  0  0  0
 40  5  1  0  0  0  0
 41  9  1  0  0  0  0
 44 18  2  0  0  0  0
 45 15  1  0  0  0  0
 45 10  1  0  0  0  0
 46  1  1  0  0  0  0
M  END
>  <CHROM.1>
-169.69060034,78.83136111,112.13971796,88.39302757,-168.67766068,-173.18413020
-62.64465906,-63.96090753,-61.34153671,174.65968330,173.57600179,-69.12279333
96.61053907,12.78199778,-12.26957894,7.58789634,3.09341970,0.07043503,2.41497575

>  <Name>
lig.pdb

>  <RI>
0

>  <Rbt.Current_Directory>
/home/afrankz/demos/rdock_decoys_rna/rnas/3wru

>  <Rbt.Executable>
rbdock ($Id: //depot/dev/client3/rdock/2013.1/src/exe/rbdock.cxx#4 $)

>  <Rbt.Library>
libRbt.so (2013.1, Build901 2013/11/27)

>  <Rbt.Parameter_File>
/export/apps/rDock/src/rDock_2013.1_src/data/scripts/dock_solv.prm

>  <Rbt.Receptor>
prm/pocket_docking_6.prm

>  <SCORE>
-8.43724

>  <SCORE.INTER>
-8.07243

>  <SCORE.INTER.CONST>
1

>  <SCORE.INTER.POLAR>
0

>  <SCORE.INTER.ROT>
13

>  <SCORE.INTER.SOLV>
27.7896

>  <SCORE.INTER.VDW>
-26.9115

>  <SCORE.INTER.norm>
-0.175488

>  <SCORE.INTRA>
-0.364808

>  <SCORE.INTRA.DIHEDRAL>
-4.23586

>  <SCORE.INTRA.DIHEDRAL.0>
19.7146

>  <SCORE.INTRA.POLAR>
0

>  <SCORE.INTRA.POLAR.0>
0

>  <SCORE.INTRA.REPUL>
0

>  <SCORE.INTRA.REPUL.0>
0

>  <SCORE.INTRA.SOLV>
-0.536499

>  <SCORE.INTRA.SOLV.lig_0>
-116.697

>  <SCORE.INTRA.VDW>
2.02137

>  <SCORE.INTRA.VDW.0>
-7.06424

>  <SCORE.INTRA.norm>
-0.0079306

>  <SCORE.RESTR>
0

>  <SCORE.RESTR.CAVITY>
0

>  <SCORE.RESTR.norm>
0

>  <SCORE.SYSTEM>
0

>  <SCORE.SYSTEM.CONST>
0

>  <SCORE.SYSTEM.DIHEDRAL>
0

>  <SCORE.SYSTEM.SOLV>
0

>  <SCORE.SYSTEM.norm>
0

>  <SCORE.heavy>
46

>  <SCORE.norm>
-0.183418

>  <RMSD>
2.265

$$$$
lig.pdb
 OpenBabel03061811583D
libRbt.so/2013.1/901 2013/11/27
 46 49  0  0  0  0  0  0  0  0999 V2000
   12.8475  -10.6811    4.4405 C   0  0  1  0  0  0  0  0  0  0  0  0
   14.0154  -11.5512    6.5111 C   0  0  1  0  0  0  0  0  0  0  0  0
   13.7254  -12.5590    7.6642 C   0  0  1  0  0  0  0  0  0  0  0  0
   15.0091  -12.6176    8.6398 C   0  0  2  0  0  0  0  0  0  0  0  0
   11.6435  -12.7230    9.1053 C   0  0  2  0  0  0  0  0  0  0  0  0
   10.4631  -11.8458    9.6110 C   0  0  1  0  0  0  0  0  0  0  0  0
    9.4421  -12.9456    9.7751 C   0  0  1  0  0  0  0  0  0  0  0  0
    9.5572  -13.7923    8.4678 C   0  0  1  0  0  0  0  0  0  0  0  0
    8.7902  -13.2581    7.2076 C   0  0  0  0  0  0  0  0  0  0  0  0
    8.9237  -14.7886   11.3302 C   0  0  1  0  0  0  0  0  0  0  0  0
    9.3100  -15.5511   12.5624 C   0  0  1  0  0  0  0  0  0  0  0  0
   12.2720   -9.2861    4.7809 C   0  0  1  0  0  0  0  0  0  0  0  0
    8.2715  -16.7085   12.7778 C   0  0  0  0  0  0  0  0  0  0  0  0
    8.1960  -17.6555   11.7026 C   0  0  0  0  0  0  0  0  0  0  0  0
    7.7898  -16.9602   10.4998 C   0  0  2  0  0  0  0  0  0  0  0  0
    7.6978  -17.9530    9.2747 C   0  0  0  0  0  0  0  0  0  0  0  0
   20.5096  -13.4026    8.8498 C   0  0  2  0  0  0  0  0  0  0  0  0
   18.3882  -14.3275    8.4058 C   0  0  0  0  0  0  0  0  0  0  0  0
   21.5641  -13.1921    9.7180 C   0  0  0  0  0  0  0  0  0  0  0  0
   19.6042  -14.2142    9.4506 C   0  0  1  0  0  0  0  0  0  0  0  0
   10.7424   -9.3899    5.2251 C   0  0  0  0  0  0  0  0  0  0  0  0
    9.9183  -10.0711    4.0296 C   0  0  0  0  0  0  0  0  0  0  0  0
   10.5495  -11.5144    3.7571 C   0  0  1  0  0  0  0  0  0  0  0  0
    9.8334  -12.2456    2.6152 C   0  0  0  0  0  0  0  0  0  0  0  0
   16.2445  -13.1604    7.7973 C   0  0  1  0  0  0  0  0  0  0  0  0
   16.5122  -12.0645    6.6340 C   0  0  0  0  0  0  0  0  0  0  0  0
   15.2564  -11.9698    5.6843 C   0  0  2  0  0  0  0  0  0  0  0  0
   21.0099  -13.9357    7.6028 F   0  0  0  0  0  0  0  0  0  0  0  0
    6.5659  -19.0092    9.4285 N   0  0  0  0  0  0  0  0  0  0  0  0
   13.1368   -8.6699    5.8541 N   0  0  0  0  0  0  0  0  0  0  0  0
   10.5548  -16.1811   12.4789 N   0  0  0  0  0  0  0  0  0  0  0  0
   22.7686  -12.4653    9.5686 N   0  0  0  0  0  0  0  0  0  0  0  0
    8.6048  -12.7860    3.0505 N   0  0  0  0  0  0  0  0  0  0  0  0
   17.4383  -13.2418    8.6580 N   0  0  0  0  0  0  0  0  0  0  0  0
   15.4817  -10.9629    4.6237 N   0  0  0  0  0  0  0  0  0  0  0  0
   12.9197  -11.5026    5.6064 O   0  0  0  0  0  0  0  0  0  0  0  0
   12.5116  -12.0515    8.3867 O   0  0  0  0  0  0  0  0  0  0  0  0
   14.7286  -13.5130    9.6475 O   0  0  0  0  0  0  0  0  0  0  0  0
   10.8486  -11.2414   10.8082 O   0  0  0  0  0  0  0  0  0  0  0  0
   10.9925  -13.8524    8.4227 O   0  0  0  0  0  0  0  0  0  0  0  0
    7.3930  -13.1831    7.5545 O   0  0  0  0  0  0  0  0  0  0  0  0
    9.7902  -13.7686   11.0022 O   0  0  0  0  0  0  0  0  0  0  0  0
   20.1260  -15.5309    9.7340 O   0  0  0  0  0  0  0  0  0  0  0  0
   18.2948  -15.1954    7.5222 O   0  0  0  0  0  0  0  0  0  0  0  0
    8.7456  -15.8300   10.1982 O   0  0  0  0  0  0  0  0  0  0  0  0
   12.0192  -11.3734    3.3962 O   0  0  0  0  0  0  0  0  0  0  0  0
  1 36  1  1  0  0  0
  2 36  1  6  0  0  0
  2  3  1  0  0  0  0
  3 37  1  1  0  0  0
  3  4  1  0  0  0  0
  4 38  1  1  0  0  0
  5 37  1  6  0  0  0
  5  6  1  0  0  0  0
  6  7  1  0  0  0  0
  6 39  1  1  0  0  0
  7 42  1  1  0  0  0
  8  9  1  6  0  0  0
  8  7  1  0  0  0  0
 10 42  1  6  0  0  0
 10 11  1  0  0  0  0
 11 31  1  6  0  0  0
 11 13  1  0  0  0  0
 12 30  1  1  0  0  0
 12  1  1  0  0  0  0
 14 13  1  0  0  0  0
 15 16  1  6  0  0  0
 15 14  1  0  0  0  0
 17 19  1  1  0  0  0
 17 28  1  0  0  0  0
 18 34  1  0  0  0  0
 19 32  1  0  0  0  0
 20 18  1  6  0  0  0
 20 17  1  0  0  0  0
 20 43  1  0  0  0  0
 21 12  1  0  0  0  0
 22 21  1  0  0  0  0
 22 23  1  0  0  0  0
 23 24  1  6  0  0  0
 23 46  1  0  0  0  0
 24 33  1  0  0  0  0
 25 34  1  1  0  0  0
 25  4  1  0  0  0  0
 26 25  1  0  0  0  0
 27 35  1  6  0  0  0
 27 26  1  0  0  0  0
 27  2  1  0  0  0  0
 29 16  1  0  0  0  0
 40  8  1  0  0  0  0
 40  5  1  0  0  0  0
 41  9  1  0  0  0  0
 44 18  2  0  0  0  0
 45 15  1  0  0  0  0
 45 10  1  0  0  0  0
 46  1  1  0  0  0  0
M  END
>  <CHROM.1>
-87.78764779,179.73103565,155.39827554,-176.00586606,177.47029582,-59.22195615
-179.12120757,66.30989660,177.90568924,-88.80586320,176.77813185,-77.67883689
145.98699690,12.88589676,-13.29085333,8.04851225,0.17375362,-0.06388823,-0.90551415

>  <Name>
lig.pdb

>  <RI>
0

>  <Rbt.Current_Directory>
/home/afrankz/demos/rdock_decoys_rna/rnas/3wru

>  <Rbt.Executable>
rbdock ($Id: //depot/dev/client3/rdock/2013.1/src/exe/rbdock.cxx#4 $)

>  <Rbt.Library>
libRbt.so (2013.1, Build901 2013/11/27)

>  <Rbt.Parameter_File>
/export/apps/rDock/src/rDock_2013.1_src/data/scripts/dock_solv.prm

>  <Rbt.Receptor>
prm/pocket_docking_3.prm

>  <SCORE>
-0.258713

>  <SCORE.INTER>
2.23461

>  <SCORE.INTER.CONST>
1

>  <SCORE.INTER.POLAR>
0

>  <SCORE.INTER.ROT>
13

>  <SCORE.INTER.SOLV>
30.9699

>  <SCORE.INTER.VDW>
-21.1002

>  <SCORE.INTER.norm>
0.0485785

>  <SCORE.INTRA>
-2.50448

>  <SCORE.INTRA.DIHEDRAL>
-10.0487

>  <SCORE.INTRA.DIHEDRAL.0>
19.7146

>  <SCORE.INTRA.POLAR>
0

>  <SCORE.INTRA.POLAR.0>
0

>  <SCORE.INTRA.REPUL>
0

>  <SCORE.INTRA.REPUL.0>
0

>  <SCORE.INTRA.SOLV>
-0.294083

>  <SCORE.INTRA.SOLV.lig_0>
-116.697

>  <SCORE.INTRA.VDW>
2.6669

>  <SCORE.INTRA.VDW.0>
-7.06424

>  <SCORE.INTRA.norm>
-0.0544453

>  <SCORE.RESTR>
0.0111578

>  <SCORE.RESTR.CAVITY>
0.0111578

>  <SCORE.RESTR.norm>
0.00024256

>  <SCORE.SYSTEM>
0

>  <SCORE.SYSTEM.CONST>
0

>  <SCORE.SYSTEM.DIHEDRAL>
0

>  <SCORE.SYSTEM.SOLV>
0

>  <SCORE.SYSTEM.norm>
0

>  <SCORE.heavy>
46

>  <SCORE.norm>
-0.00562419

>  <RMSD>
2.277

$$$$
lig.pdb
 OpenBabel03061811583D
libRbt.so/2013.1/901 2013/11/27
 46 49  0  0  0  0  0  0  0  0999 V2000
   12.3415  -10.7802    3.9002 C   0  0  1  0  0  0  0  0  0  0  0  0
   13.9629  -10.9764    5.8343 C   0  0  1  0  0  0  0  0  0  0  0  0
   13.7043  -12.3824    6.4556 C   0  0  1  0  0  0  0  0  0  0  0  0
   15.0807  -12.9309    7.0938 C   0  0  2  0  0  0  0  0  0  0  0  0
   12.0162  -13.1196    8.2006 C   0  0  2  0  0  0  0  0  0  0  0  0
   11.1166  -12.5234    9.3204 C   0  0  1  0  0  0  0  0  0  0  0  0
   10.1369  -13.6666    9.4307 C   0  0  1  0  0  0  0  0  0  0  0  0
    9.7742  -14.0223    7.9539 C   0  0  1  0  0  0  0  0  0  0  0  0
    8.6777  -13.1395    7.2610 C   0  0  0  0  0  0  0  0  0  0  0  0
    9.9800  -15.7650   10.7175 C   0  0  1  0  0  0  0  0  0  0  0  0
   10.7006  -16.9209   11.3448 C   0  0  1  0  0  0  0  0  0  0  0  0
   11.1698   -9.8615    3.4802 C   0  0  1  0  0  0  0  0  0  0  0  0
    9.6345  -17.9228   11.9139 C   0  0  0  0  0  0  0  0  0  0  0  0
    8.7381  -18.4665   10.9343 C   0  0  0  0  0  0  0  0  0  0  0  0
    7.9968  -17.3800   10.3303 C   0  0  2  0  0  0  0  0  0  0  0  0
    6.9962  -17.9176    9.2327 C   0  0  0  0  0  0  0  0  0  0  0  0
   20.0443  -12.7070    8.7919 C   0  0  2  0  0  0  0  0  0  0  0  0
   18.1628  -12.7387    7.3734 C   0  0  0  0  0  0  0  0  0  0  0  0
   21.1365  -13.3533    9.3390 C   0  0  0  0  0  0  0  0  0  0  0  0
   19.4994  -13.5014    7.8372 C   0  0  1  0  0  0  0  0  0  0  0  0
    9.8662  -10.1609    4.3513 C   0  0  0  0  0  0  0  0  0  0  0  0
    9.4781  -11.7050    4.1582 C   0  0  0  0  0  0  0  0  0  0  0  0
   10.7209  -12.5883    4.6392 C   0  0  1  0  0  0  0  0  0  0  0  0
   10.4508  -14.0895    4.4815 C   0  0  0  0  0  0  0  0  0  0  0  0
   16.1410  -13.0887    5.9183 C   0  0  1  0  0  0  0  0  0  0  0  0
   16.3860  -11.5987    5.3302 C   0  0  0  0  0  0  0  0  0  0  0  0
   15.0440  -11.0308    4.7265 C   0  0  2  0  0  0  0  0  0  0  0  0
   20.4501  -11.4135    8.2900 F   0  0  0  0  0  0  0  0  0  0  0  0
    7.7157  -18.5752    8.0202 N   0  0  0  0  0  0  0  0  0  0  0  0
   11.6261   -8.4283    3.6110 N   0  0  0  0  0  0  0  0  0  0  0  0
   11.4711  -17.6687   10.4500 N   0  0  0  0  0  0  0  0  0  0  0  0
   21.2660  -14.6282    9.9384 N   0  0  0  0  0  0  0  0  0  0  0  0
   10.1904  -14.4194    3.1345 N   0  0  0  0  0  0  0  0  0  0  0  0
   17.4126  -13.6019    6.4587 N   0  0  0  0  0  0  0  0  0  0  0  0
   15.2496   -9.6647    4.1966 N   0  0  0  0  0  0  0  0  0  0  0  0
   12.7792  -10.4770    5.2252 O   0  0  0  0  0  0  0  0  0  0  0  0
   12.6473  -12.2028    7.5060 O   0  0  0  0  0  0  0  0  0  0  0  0
   14.8265  -14.1715    7.6344 O   0  0  0  0  0  0  0  0  0  0  0  0
   11.9023  -12.3330   10.4579 O   0  0  0  0  0  0  0  0  0  0  0  0
   11.1126  -13.9894    7.4310 O   0  0  0  0  0  0  0  0  0  0  0  0
    9.1955  -11.7967    7.1787 O   0  0  0  0  0  0  0  0  0  0  0  0
   10.8091  -14.8320   10.1336 O   0  0  0  0  0  0  0  0  0  0  0  0
   20.3682  -13.6951    6.6997 O   0  0  0  0  0  0  0  0  0  0  0  0
   17.8288  -11.6045    7.7538 O   0  0  0  0  0  0  0  0  0  0  0  0
    8.9439  -16.3647    9.7353 O   0  0  0  0  0  0  0  0  0  0  0  0
   11.9531  -12.2291    3.8251 O   0  0  0  0  0  0  0  0  0  0  0  0
  1 36  1  1  0  0  0
  2 36  1  6  0  0  0
  2  3  1  0  0  0  0
  3 37  1  1  0  0  0
  3  4  1  0  0  0  0
  4 38  1  6  0  0  0
  5 37  1  6  0  0  0
  5  6  1  0  0  0  0
  6  7  1  0  0  0  0
  6 39  1  1  0  0  0
  7 42  1  6  0  0  0
  8  9  1  6  0  0  0
  8  7  1  0  0  0  0
 10 42  1  6  0  0  0
 10 11  1  0  0  0  0
 11 31  1  6  0  0  0
 11 13  1  0  0  0  0
 12 30  1  1  0  0  0
 12  1  1  0  0  0  0
 14 13  1  0  0  0  0
 15 16  1  6  0  0  0
 15 14  1  0  0  0  0
 17 19  1  6  0  0  0
 17 28  1  0  0  0  0
 18 34  1  0  0  0  0
 19 32  1  0  0  0  0
 20 18  1  6  0  0  0
 20 17  1  0  0  0  0
 20 43  1  0  0  0  0
 21 12  1  0  0  0  0
 22 21  1  0  0  0  0
 22 23  1  0  0  0  0
 23 24  1  6  0  0  0
 23 46  1  0  0  0  0
 24 33  1  0  0  0  0
 25 34  1  1  0  0  0
 25  4  1  0  0  0  0
 26 25  1  0  0  0  0
 27 35  1  1  0  0  0
 27 26  1  0  0  0  0
 27  2  1  0  0  0  0
 29 16  1  0  0  0  0
 40  8  1  0  0  0  0
 40  5  1  0  0  0  0
 41  9  1  0  0  0  0
 44 18  2  0  0  0  0
 45 15  1  0  0  0  0
 45 10  1  0  0  0  0
 46  1  1  0  0  0  0
M  END
>  <CHROM.1>
-169.23984958,-84.40973987,172.71017873,172.78441087,158.80788021,63.77114338
177.53293414,-64.48358952,-55.11836313,-173.01313379,174.33177456,59.78921390
-66.17570320,13.01335425,-13.38338299,7.36245321,0.35709304,-0.14718843,-0.82449421

>  <Name>
lig.pdb

>  <RI>
0

>  <Rbt.Current_Directory>
/home/afrankz/demos/rdock_decoys_rna/rnas/3wru

>  <Rbt.Executable>
rbdock ($Id: //depot/dev/client3/rdock/2013.1/src/exe/rbdock.cxx#4 $)

>  <Rbt.Library>
libRbt.so (2013.1, Build901 2013/11/27)

>  <Rbt.Parameter_File>
/export/apps/rDock/src/rDock_2013.1_src/data/scripts/dock_solv.prm

>  <Rbt.Receptor>
prm/pocket_docking_2.prm

>  <SCORE>
3.77724

>  <SCORE.INTER>
6.60351

>  <SCORE.INTER.CONST>
1

>  <SCORE.INTER.POLAR>
0

>  <SCORE.INTER.ROT>
13

>  <SCORE.INTER.SOLV>
20.7413

>  <SCORE.INTER.VDW>
-14.7781

>  <SCORE.INTER.norm>
0.143555

>  <SCORE.INTRA>
-3.46838

>  <SCORE.INTRA.DIHEDRAL>
-12.6462

>  <SCORE.INTRA.DIHEDRAL.0>
19.7146

>  <SCORE.INTRA.POLAR>
0

>  <SCORE.INTRA.POLAR.0>
0

>  <SCORE.INTRA.REPUL>
0.0027582

>  <SCORE.INTRA.REPUL.0>
0

>  <SCORE.INTRA.SOLV>
1.75972

>  <SCORE.INTRA.SOLV.lig_0>
-116.697

>  <SCORE.INTRA.VDW>
1.96104

>  <SCORE.INTRA.VDW.0>
-7.06424

>  <SCORE.INTRA.norm>
-0.0753996

>  <SCORE.RESTR>
0.642104

>  <SCORE.RESTR.CAVITY>
0.642104

>  <SCORE.RESTR.norm>
0.0139588

>  <SCORE.SYSTEM>
0

>  <SCORE.SYSTEM.CONST>
0

>  <SCORE.SYSTEM.DIHEDRAL>
0

>  <SCORE.SYSTEM.SOLV>
0

>  <SCORE.SYSTEM.norm>
0

>  <SCORE.heavy>
46

>  <SCORE.norm>
0.0821139

>  <RMSD>
2.281

$$$$
lig.pdb
 OpenBabel03061811583D
libRbt.so/2013.1/901 2013/11/27
 46 49  0  0  0  0  0  0  0  0999 V2000
   12.0376  -11.1568    3.8530 C   0  0  1  0  0  0  0  0  0  0  0  0
   13.9714  -12.0903    5.1935 C   0  0  1  0  0  0  0  0  0  0  0  0
   13.9421  -13.4303    5.9893 C   0  0  1  0  0  0  0  0  0  0  0  0
   15.0359  -13.3570    7.1730 C   0  0  2  0  0  0  0  0  0  0  0  0
   12.1626  -14.1761    7.6370 C   0  0  2  0  0  0  0  0  0  0  0  0
   12.1569  -13.2336    8.8740 C   0  0  1  0  0  0  0  0  0  0  0  0
   11.1227  -13.9694    9.6913 C   0  0  1  0  0  0  0  0  0  0  0  0
    9.9728  -14.2870    8.6834 C   0  0  1  0  0  0  0  0  0  0  0  0
    8.9421  -13.1387    8.3993 C   0  0  0  0  0  0  0  0  0  0  0  0
   10.9530  -15.9925   11.0921 C   0  0  1  0  0  0  0  0  0  0  0  0
   11.6533  -17.1734   11.6953 C   0  0  1  0  0  0  0  0  0  0  0  0
   11.9425  -10.1349    5.0106 C   0  0  1  0  0  0  0  0  0  0  0  0
   10.6254  -17.9630   12.5808 C   0  0  0  0  0  0  0  0  0  0  0  0
    9.4842  -18.4667   11.8718 C   0  0  0  0  0  0  0  0  0  0  0  0
    8.7608  -17.3492   11.3036 C   0  0  2  0  0  0  0  0  0  0  0  0
    7.4940  -17.8434   10.4999 C   0  0  0  0  0  0  0  0  0  0  0  0
   19.8306  -14.3229    8.9574 C   0  0  2  0  0  0  0  0  0  0  0  0
   18.9075  -13.1453    7.1370 C   0  0  0  0  0  0  0  0  0  0  0  0
   20.9238  -14.4750    9.7892 C   0  0  0  0  0  0  0  0  0  0  0  0
   19.8468  -13.0698    8.4390 C   0  0  1  0  0  0  0  0  0  0  0  0
   11.4125  -10.8297    6.3463 C   0  0  0  0  0  0  0  0  0  0  0  0
    9.9785  -11.4788    6.0388 C   0  0  0  0  0  0  0  0  0  0  0  0
   10.1624  -12.5408    4.8580 C   0  0  1  0  0  0  0  0  0  0  0  0
    8.8361  -13.2115    4.4802 C   0  0  0  0  0  0  0  0  0  0  0  0
   16.4725  -13.1992    6.5081 C   0  0  1  0  0  0  0  0  0  0  0  0
   16.4500  -11.7842    5.7186 C   0  0  0  0  0  0  0  0  0  0  0  0
   15.3656  -11.8236    4.5738 C   0  0  2  0  0  0  0  0  0  0  0  0
   18.6206  -14.6175    9.6916 F   0  0  0  0  0  0  0  0  0  0  0  0
    7.8560  -18.7381    9.2797 N   0  0  0  0  0  0  0  0  0  0  0  0
   13.3027   -9.5065    5.1958 N   0  0  0  0  0  0  0  0  0  0  0  0
   12.1240  -18.0990   10.7597 N   0  0  0  0  0  0  0  0  0  0  0  0
   22.3089  -14.5469    9.5106 N   0  0  0  0  0  0  0  0  0  0  0  0
    8.3367  -13.9860    5.5486 N   0  0  0  0  0  0  0  0  0  0  0  0
   17.5050  -13.1416    7.5583 N   0  0  0  0  0  0  0  0  0  0  0  0
   15.3250  -10.5327    3.8518 N   0  0  0  0  0  0  0  0  0  0  0  0
   13.0466  -12.1329    4.1145 O   0  0  0  0  0  0  0  0  0  0  0  0
   12.5523  -13.5774    6.5367 O   0  0  0  0  0  0  0  0  0  0  0  0
   14.9908  -14.5499    7.8593 O   0  0  0  0  0  0  0  0  0  0  0  0
   13.4354  -13.2378    9.4333 O   0  0  0  0  0  0  0  0  0  0  0  0
   10.8054  -14.7438    7.6046 O   0  0  0  0  0  0  0  0  0  0  0  0
    8.4211  -12.7041    9.6712 O   0  0  0  0  0  0  0  0  0  0  0  0
   11.7400  -15.2397   10.2479 O   0  0  0  0  0  0  0  0  0  0  0  0
   19.3344  -12.0741    9.3512 O   0  0  0  0  0  0  0  0  0  0  0  0
   19.3234  -13.1838    5.9673 O   0  0  0  0  0  0  0  0  0  0  0  0
    9.6693  -16.5324   10.4151 O   0  0  0  0  0  0  0  0  0  0  0  0
   10.7241  -11.8491    3.6267 O   0  0  0  0  0  0  0  0  0  0  0  0
  1 36  1  1  0  0  0
  2 36  1  6  0  0  0
  2  3  1  0  0  0  0
  3 37  1  1  0  0  0
  3  4  1  0  0  0  0
  4 38  1  6  0  0  0
  5 37  1  6  0  0  0
  5  6  1  0  0  0  0
  6  7  1  0  0  0  0
  6 39  1  1  0  0  0
  7 42  1  6  0  0  0
  8  9  1  6  0  0  0
  8  7  1  0  0  0  0
 10 42  1  6  0  0  0
 10 11  1  0  0  0  0
 11 31  1  6  0  0  0
 11 13  1  0  0  0  0
 12 30  1  1  0  0  0
 12  1  1  0  0  0  0
 14 13  1  0  0  0  0
 15 16  1  6  0  0  0
 15 14  1  0  0  0  0
 17 19  1  1  0  0  0
 17 28  1  0  0  0  0
 18 34  1  0  0  0  0
 19 32  1  0  0  0  0
 20 18  1  6  0  0  0
 20 17  1  0  0  0  0
 20 43  1  0  0  0  0
 21 12  1  0  0  0  0
 22 21  1  0  0  0  0
 22 23  1  0  0  0  0
 23 24  1  6  0  0  0
 23 46  1  0  0  0  0
 24 33  1  0  0  0  0
 25 34  1  1  0  0  0
 25  4  1  0  0  0  0
 26 25  1  0  0  0  0
 27 35  1  1  0  0  0
 27 26  1  0  0  0  0
 27  2  1  0  0  0  0
 29 16  1  0  0  0  0
 40  8  1  0  0  0  0
 40  5  1  0  0  0  0
 41  9  1  0  0  0  0
 44 18  2  0  0  0  0
 45 15  1  0  0  0  0
 45 10  1  0  0  0  0
 46  1  1  0  0  0  0
M  END
>  <CHROM.1>
-7.94654980,127.53842249,-149.85429655,89.12442699,176.02334002,-54.09799252
-175.32914577,-62.73822362,-69.10038563,77.09539887,160.36339354,-64.73757120
173.41475487,13.23278931,-13.84678157,7.81444341,0.32778590,-0.09641397,-0.86550158

>  <Name>
lig.pdb

>  <RI>
0

>  <Rbt.Current_Directory>
/home/afrankz/demos/rdock_decoys_rna/rnas/3wru

>  <Rbt.Executable>
rbdock ($Id: //depot/dev/client3/rdock/2013.1/src/exe/rbdock.cxx#4 $)

>  <Rbt.Library>
libRbt.so (2013.1, Build901 2013/11/27)

>  <Rbt.Parameter_File>
/export/apps/rDock/src/rDock_2013.1_src/data/scripts/dock_solv.prm

>  <Rbt.Receptor>
prm/pocket_docking_2.prm

>  <SCORE>
14.8669

>  <SCORE.INTER>
6.45939

>  <SCORE.INTER.CONST>
1

>  <SCORE.INTER.POLAR>
0

>  <SCORE.INTER.ROT>
13

>  <SCORE.INTER.SOLV>
22.6313

>  <SCORE.INTER.VDW>
-15.5042

>  <SCORE.INTER.norm>
0.140421

>  <SCORE.INTRA>
7.75493

>  <SCORE.INTRA.DIHEDRAL>
4.2935

>  <SCORE.INTRA.DIHEDRAL.0>
19.7146

>  <SCORE.INTRA.POLAR>
0

>  <SCORE.INTRA.POLAR.0>
0

>  <SCORE.INTRA.REPUL>
0

>  <SCORE.INTRA.REPUL.0>
0

>  <SCORE.INTRA.SOLV>
6.69117

>  <SCORE.INTRA.SOLV.lig_0>
-116.697

>  <SCORE.INTRA.VDW>
2.26259

>  <SCORE.INTRA.VDW.0>
-7.06424

>  <SCORE.INTRA.norm>
0.168585

>  <SCORE.RESTR>
0.652615

>  <SCORE.RESTR.CAVITY>
0.652615

>  <SCORE.RESTR.norm>
0.0141873

>  <SCORE.SYSTEM>
0

>  <SCORE.SYSTEM.CONST>
0

>  <SCORE.SYSTEM.DIHEDRAL>
0

>  <SCORE.SYSTEM.SOLV>
0

>  <SCORE.SYSTEM.norm>
0

>  <SCORE.heavy>
46

>  <SCORE.norm>
0.323194

>  <RMSD>
2.298

$$$$
lig.pdb
 OpenBabel03061811583D
libRbt.so/2013.1/901 2013/11/27
 46 49  0  0  0  0  0  0  0  0999 V2000
   12.8618  -10.5502    4.3250 C   0  0  1  0  0  0  0  0  0  0  0  0
   14.2317  -11.2985    6.3179 C   0  0  1  0  0  0  0  0  0  0  0  0
   14.1957  -12.4392    7.3795 C   0  0  1  0  0  0  0  0  0  0  0  0
   15.5203  -12.3404    8.2952 C   0  0  2  0  0  0  0  0  0  0  0  0
   12.0582  -13.1190    8.5657 C   0  0  2  0  0  0  0  0  0  0  0  0
   11.0284  -12.5541    9.5849 C   0  0  1  0  0  0  0  0  0  0  0  0
    9.8954  -13.5055    9.2849 C   0  0  1  0  0  0  0  0  0  0  0  0
    9.8205  -13.5543    7.7257 C   0  0  1  0  0  0  0  0  0  0  0  0
    9.0415  -12.3914    7.0168 C   0  0  0  0  0  0  0  0  0  0  0  0
    9.2537  -15.8411    9.7505 C   0  0  1  0  0  0  0  0  0  0  0  0
    8.0776  -15.6509   10.6612 C   0  0  1  0  0  0  0  0  0  0  0  0
   12.2696   -9.1843    4.7457 C   0  0  1  0  0  0  0  0  0  0  0  0
    7.0915  -16.8556   10.4595 C   0  0  0  0  0  0  0  0  0  0  0  0
    7.6492  -18.1442   10.7549 C   0  0  0  0  0  0  0  0  0  0  0  0
    8.7689  -18.3793    9.8683 C   0  0  2  0  0  0  0  0  0  0  0  0
    9.4323  -19.7842   10.1531 C   0  0  0  0  0  0  0  0  0  0  0  0
   20.6649  -13.8131    9.0155 C   0  0  2  0  0  0  0  0  0  0  0  0
   19.2963  -12.6813    7.4666 C   0  0  0  0  0  0  0  0  0  0  0  0
   21.8562  -13.8628    9.7145 C   0  0  0  0  0  0  0  0  0  0  0  0
   20.4949  -12.5581    8.5304 C   0  0  1  0  0  0  0  0  0  0  0  0
   10.8045   -9.3580    5.3548 C   0  0  0  0  0  0  0  0  0  0  0  0
    9.8821  -10.0635    4.2486 C   0  0  0  0  0  0  0  0  0  0  0  0
   10.5391  -11.4758    3.8885 C   0  0  1  0  0  0  0  0  0  0  0  0
    9.7319  -12.2271    2.8230 C   0  0  0  0  0  0  0  0  0  0  0  0
   16.7858  -12.5664    7.3580 C   0  0  1  0  0  0  0  0  0  0  0  0
   16.7832  -11.3428    6.2956 C   0  0  0  0  0  0  0  0  0  0  0  0
   15.4807  -11.4033    5.4080 C   0  0  2  0  0  0  0  0  0  0  0  0
   19.5833  -14.2412    9.8736 F   0  0  0  0  0  0  0  0  0  0  0  0
   10.6290  -20.0968    9.2095 N   0  0  0  0  0  0  0  0  0  0  0  0
   13.2217   -8.5409    5.7250 N   0  0  0  0  0  0  0  0  0  0  0  0
    8.3996  -15.6596   12.0213 N   0  0  0  0  0  0  0  0  0  0  0  0
   22.3084  -13.1430   10.8453 N   0  0  0  0  0  0  0  0  0  0  0  0
   10.3008  -13.4897    2.5521 N   0  0  0  0  0  0  0  0  0  0  0  0
   18.0201  -12.4968    8.1607 N   0  0  0  0  0  0  0  0  0  0  0  0
   15.4585  -10.2837    4.4407 N   0  0  0  0  0  0  0  0  0  0  0  0
   13.0973  -11.3780    5.4645 O   0  0  0  0  0  0  0  0  0  0  0  0
   12.9513  -12.2332    8.1931 O   0  0  0  0  0  0  0  0  0  0  0  0
   15.4651  -13.3567    9.2226 O   0  0  0  0  0  0  0  0  0  0  0  0
   11.5627  -12.6886   10.8670 O   0  0  0  0  0  0  0  0  0  0  0  0
   11.2319  -13.6808    7.4854 O   0  0  0  0  0  0  0  0  0  0  0  0
    7.6793  -12.4376    7.4863 O   0  0  0  0  0  0  0  0  0  0  0  0
   10.2225  -14.8683    9.8681 O   0  0  0  0  0  0  0  0  0  0  0  0
   20.1414  -11.6004    9.5522 O   0  0  0  0  0  0  0  0  0  0  0  0
   19.4492  -12.8850    6.2510 O   0  0  0  0  0  0  0  0  0  0  0  0
    9.7877  -17.2724   10.0039 O   0  0  0  0  0  0  0  0  0  0  0  0
   11.9525  -11.2684    3.3694 O   0  0  0  0  0  0  0  0  0  0  0  0
  1 36  1  1  0  0  0
  2 36  1  6  0  0  0
  2  3  1  0  0  0  0
  3 37  1  1  0  0  0
  3  4  1  0  0  0  0
  4 38  1  1  0  0  0
  5 37  1  6  0  0  0
  5  6  1  0  0  0  0
  6  7  1  0  0  0  0
  6 39  1  1  0  0  0
  7 42  1  6  0  0  0
  8  9  1  6  0  0  0
  8  7  1  0  0  0  0
 10 42  1  1  0  0  0
 10 11  1  0  0  0  0
 11 31  1  1  0  0  0
 11 13  1  0  0  0  0
 12 30  1  1  0  0  0
 12  1  1  0  0  0  0
 14 13  1  0  0  0  0
 15 16  1  1  0  0  0
 15 14  1  0  0  0  0
 17 19  1  1  0  0  0
 17 28  1  0  0  0  0
 18 34  1  0  0  0  0
 19 32  1  0  0  0  0
 20 18  1  6  0  0  0
 20 17  1  0  0  0  0
 20 43  1  0  0  0  0
 21 12  1  0  0  0  0
 22 21  1  0  0  0  0
 22 23  1  0  0  0  0
 23 24  1  6  0  0  0
 23 46  1  0  0  0  0
 24 33  1  0  0  0  0
 25 34  1  1  0  0  0
 25  4  1  0  0  0  0
 26 25  1  0  0  0  0
 27 35  1  6  0  0  0
 27 26  1  0  0  0  0
 27  2  1  0  0  0  0
 29 16  1  0  0  0  0
 40  8  1  0  0  0  0
 40  5  1  0  0  0  0
 41  9  1  0  0  0  0
 44 18  2  0  0  0  0
 45 15  1  0  0  0  0
 45 10  1  0  0  0  0
 46  1  1  0  0  0  0
M  END
>  <CHROM.1>
-81.38689148,-175.26145253,134.45039670,171.06640868,176.38094102,-60.94884367
-73.32261279,179.06073826,59.71495180,88.22480715,167.09128616,-177.96954818
-179.95661050,13.18062477,-13.24064412,7.75661239,0.24618719,-0.15695604
-0.78748877

>  <Name>
lig.pdb

>  <RI>
0

>  <Rbt.Current_Directory>
/home/afrankz/demos/rdock_decoys_rna/rnas/3wru

>  <Rbt.Executable>
rbdock ($Id: //depot/dev/client3/rdock/2013.1/src/exe/rbdock.cxx#4 $)

>  <Rbt.Library>
libRbt.so (2013.1, Build901 2013/11/27)

>  <Rbt.Parameter_File>
/export/apps/rDock/src/rDock_2013.1_src/data/scripts/dock_solv.prm

>  <Rbt.Receptor>
prm/pocket_docking_4.prm

>  <SCORE>
0.516923

>  <SCORE.INTER>
1.33382

>  <SCORE.INTER.CONST>
1

>  <SCORE.INTER.POLAR>
0

>  <SCORE.INTER.ROT>
13

>  <SCORE.INTER.SOLV>
30.582

>  <SCORE.INTER.VDW>
-21.5715

>  <SCORE.INTER.norm>
0.028996

>  <SCORE.INTRA>
-0.816894

>  <SCORE.INTRA.DIHEDRAL>
-7.76049

>  <SCORE.INTRA.DIHEDRAL.0>
19.7146

>  <SCORE.INTRA.POLAR>
0

>  <SCORE.INTRA.POLAR.0>
0

>  <SCORE.INTRA.REPUL>
0

>  <SCORE.INTRA.REPUL.0>
0

>  <SCORE.INTRA.SOLV>
1.69935

>  <SCORE.INTRA.SOLV.lig_0>
-116.697

>  <SCORE.INTRA.VDW>
2.21367

>  <SCORE.INTRA.VDW.0>
-7.06424

>  <SCORE.INTRA.norm>
-0.0177586

>  <SCORE.RESTR>
0

>  <SCORE.RESTR.CAVITY>
0

>  <SCORE.RESTR.norm>
0

>  <SCORE.SYSTEM>
0

>  <SCORE.SYSTEM.CONST>
0

>  <SCORE.SYSTEM.DIHEDRAL>
0

>  <SCORE.SYSTEM.SOLV>
0

>  <SCORE.SYSTEM.norm>
0

>  <SCORE.heavy>
46

>  <SCORE.norm>
0.0112374

>  <RMSD>
2.298

$$$$
lig.pdb
 OpenBabel03061811583D
libRbt.so/2013.1/901 2013/11/27
 46 49  0  0  0  0  0  0  0  0999 V2000
   10.7937   -9.5557    4.2722 C   0  0  1  0  0  0  0  0  0  0  0  0
   13.0418  -10.5569    4.8651 C   0  0  1  0  0  0  0  0  0  0  0  0
   12.6427  -11.9725    5.3814 C   0  0  1  0  0  0  0  0  0  0  0  0
   13.7818  -12.4969    6.3964 C   0  0  2  0  0  0  0  0  0  0  0  0
   10.7108  -12.6667    6.8728 C   0  0  2  0  0  0  0  0  0  0  0  0
    9.3311  -12.1485    7.3694 C   0  0  1  0  0  0  0  0  0  0  0  0
    8.6948  -13.4882    7.6506 C   0  0  1  0  0  0  0  0  0  0  0  0
    9.0333  -14.3589    6.3990 C   0  0  1  0  0  0  0  0  0  0  0  0
    8.1141  -14.1781    5.1403 C   0  0  0  0  0  0  0  0  0  0  0  0
    8.6142  -15.1066    9.5102 C   0  0  1  0  0  0  0  0  0  0  0  0
    9.1559  -15.5141   10.8478 C   0  0  1  0  0  0  0  0  0  0  0  0
    9.7647   -9.8536    3.1561 C   0  0  1  0  0  0  0  0  0  0  0  0
    8.3161  -16.7309   11.3755 C   0  0  0  0  0  0  0  0  0  0  0  0
    8.3497  -17.8934   10.5353 C   0  0  0  0  0  0  0  0  0  0  0  0
    7.7997  -17.5471    9.2420 C   0  0  2  0  0  0  0  0  0  0  0  0
    7.8188  -18.7894    8.2667 C   0  0  0  0  0  0  0  0  0  0  0  0
   18.6620  -12.6271    8.0842 C   0  0  2  0  0  0  0  0  0  0  0  0
   16.3255  -12.5064    7.8032 C   0  0  0  0  0  0  0  0  0  0  0  0
   19.7461  -13.0118    8.8503 C   0  0  0  0  0  0  0  0  0  0  0  0
   17.5421  -13.1971    8.5944 C   0  0  1  0  0  0  0  0  0  0  0  0
   10.1213   -9.0562    1.8201 C   0  0  0  0  0  0  0  0  0  0  0  0
   10.1525   -7.4900    2.1643 C   0  0  0  0  0  0  0  0  0  0  0  0
   11.2550   -7.2576    3.2985 C   0  0  1  0  0  0  0  0  0  0  0  0
   11.3527   -5.7830    3.7076 C   0  0  0  0  0  0  0  0  0  0  0  0
   15.1445  -12.6240    5.5853 C   0  0  1  0  0  0  0  0  0  0  0  0
   15.5189  -11.1250    5.0967 C   0  0  0  0  0  0  0  0  0  0  0  0
   14.4021  -10.5808    4.1249 C   0  0  2  0  0  0  0  0  0  0  0  0
   18.8984  -12.9787    6.7021 F   0  0  0  0  0  0  0  0  0  0  0  0
    7.1768  -18.4883    6.8820 N   0  0  0  0  0  0  0  0  0  0  0  0
    9.7287  -11.3468    2.9364 N   0  0  0  0  0  0  0  0  0  0  0  0
   10.4792  -15.9631   10.8168 N   0  0  0  0  0  0  0  0  0  0  0  0
   20.3422  -14.2776    9.0596 N   0  0  0  0  0  0  0  0  0  0  0  0
   12.4483   -5.5674    4.5704 N   0  0  0  0  0  0  0  0  0  0  0  0
   16.2115  -13.1146    6.4759 N   0  0  0  0  0  0  0  0  0  0  0  0
   14.7246   -9.2068    3.6803 N   0  0  0  0  0  0  0  0  0  0  0  0
   12.0793  -10.0778    3.9348 O   0  0  0  0  0  0  0  0  0  0  0  0
   11.3195  -11.8225    6.0740 O   0  0  0  0  0  0  0  0  0  0  0  0
   13.4070  -13.7464    6.8371 O   0  0  0  0  0  0  0  0  0  0  0  0
    9.5407  -11.3661    8.5057 O   0  0  0  0  0  0  0  0  0  0  0  0
   10.4181  -13.9883    6.2960 O   0  0  0  0  0  0  0  0  0  0  0  0
    8.6258  -15.0427    4.1065 O   0  0  0  0  0  0  0  0  0  0  0  0
    9.3015  -14.0719    8.9137 O   0  0  0  0  0  0  0  0  0  0  0  0
   17.4978  -14.6278    8.4011 O   0  0  0  0  0  0  0  0  0  0  0  0
   15.5991  -11.6118    8.2666 O   0  0  0  0  0  0  0  0  0  0  0  0
    8.5591  -16.3875    8.6417 O   0  0  0  0  0  0  0  0  0  0  0  0
   10.9089   -8.0803    4.5287 O   0  0  0  0  0  0  0  0  0  0  0  0
  1 36  1  6  0  0  0
  2 36  1  6  0  0  0
  2  3  1  0  0  0  0
  3 37  1  1  0  0  0
  3  4  1  0  0  0  0
  4 38  1  6  0  0  0
  5 37  1  6  0  0  0
  5  6  1  0  0  0  0
  6  7  1  0  0  0  0
  6 39  1  1  0  0  0
  7 42  1  1  0  0  0
  8  9  1  6  0  0  0
  8  7  1  0  0  0  0
 10 42  1  6  0  0  0
 10 11  1  0  0  0  0
 11 31  1  6  0  0  0
 11 13  1  0  0  0  0
 12 30  1  6  0  0  0
 12  1  1  0  0  0  0
 14 13  1  0  0  0  0
 15 16  1  6  0  0  0
 15 14  1  0  0  0  0
 17 19  1  1  0  0  0
 17 28  1  0  0  0  0
 18 34  1  0  0  0  0
 19 32  1  0  0  0  0
 20 18  1  6  0  0  0
 20 17  1  0  0  0  0
 20 43  1  0  0  0  0
 21 12  1  0  0  0  0
 22 21  1  0  0  0  0
 22 23  1  0  0  0  0
 23 24  1  1  0  0  0
 23 46  1  0  0  0  0
 24 33  1  0  0  0  0
 25 34  1  1  0  0  0
 25  4  1  0  0  0  0
 26 25  1  0  0  0  0
 27 35  1  1  0  0  0
 27 26  1  0  0  0  0
 27  2  1  0  0  0  0
 29 16  1  0  0  0  0
 40  8  1  0  0  0  0
 40  5  1  0  0  0  0
 41  9  1  0  0  0  0
 44 18  2  0  0  0  0
 45 15  1  0  0  0  0
 45 10  1  0  0  0  0
 46  1  1  0  0  0  0
M  END
>  <CHROM.1>
-148.62904721,76.47646281,-165.95016399,-178.88952373,163.68581601,178.51826829
-171.99782527,177.32505274,65.27942456,78.19214581,170.86124511,-171.97262660
-45.23355969,12.06144634,-12.62007713,6.57018822,0.83203435,-0.14798832,-0.64573714

>  <Name>
lig.pdb

>  <RI>
0

>  <Rbt.Current_Directory>
/home/afrankz/demos/rdock_decoys_rna/rnas/3wru

>  <Rbt.Executable>
rbdock ($Id: //depot/dev/client3/rdock/2013.1/src/exe/rbdock.cxx#4 $)

>  <Rbt.Library>
libRbt.so (2013.1, Build901 2013/11/27)

>  <Rbt.Parameter_File>
/export/apps/rDock/src/rDock_2013.1_src/data/scripts/dock_solv.prm

>  <Rbt.Receptor>
prm/pocket_docking_4.prm

>  <SCORE>
-3.92083

>  <SCORE.INTER>
-0.468346

>  <SCORE.INTER.CONST>
1

>  <SCORE.INTER.POLAR>
0

>  <SCORE.INTER.ROT>
13

>  <SCORE.INTER.SOLV>
25.7283

>  <SCORE.INTER.VDW>
-21.155

>  <SCORE.INTER.norm>
-0.0101814

>  <SCORE.INTRA>
-3.45248

>  <SCORE.INTRA.DIHEDRAL>
-9.97183

>  <SCORE.INTRA.DIHEDRAL.0>
19.7146

>  <SCORE.INTRA.POLAR>
0

>  <SCORE.INTRA.POLAR.0>
0

>  <SCORE.INTRA.REPUL>
0

>  <SCORE.INTRA.REPUL.0>
0

>  <SCORE.INTRA.SOLV>
0.0444478

>  <SCORE.INTRA.SOLV.lig_0>
-116.697

>  <SCORE.INTRA.VDW>
1.5112

>  <SCORE.INTRA.VDW.0>
-7.06424

>  <SCORE.INTRA.norm>
-0.075054

>  <SCORE.RESTR>
0

>  <SCORE.RESTR.CAVITY>
0

>  <SCORE.RESTR.norm>
0

>  <SCORE.SYSTEM>
0

>  <SCORE.SYSTEM.CONST>
0

>  <SCORE.SYSTEM.DIHEDRAL>
0

>  <SCORE.SYSTEM.SOLV>
0

>  <SCORE.SYSTEM.norm>
0

>  <SCORE.heavy>
46

>  <SCORE.norm>
-0.0852354

>  <RMSD>
2.310

$$$$
lig.pdb
 OpenBabel03061811583D
libRbt.so/2013.1/901 2013/11/27
 46 49  0  0  0  0  0  0  0  0999 V2000
   11.8027  -11.4615    3.4590 C   0  0  1  0  0  0  0  0  0  0  0  0
   13.0693  -10.9196    5.5826 C   0  0  1  0  0  0  0  0  0  0  0  0
   13.0016  -12.3067    6.2905 C   0  0  1  0  0  0  0  0  0  0  0  0
   14.2862  -12.4628    7.2541 C   0  0  2  0  0  0  0  0  0  0  0  0
   11.3424  -13.1776    8.0012 C   0  0  2  0  0  0  0  0  0  0  0  0
   11.3653  -12.5685    9.4320 C   0  0  1  0  0  0  0  0  0  0  0  0
   10.3352  -13.4755   10.0605 C   0  0  1  0  0  0  0  0  0  0  0  0
    9.1671  -13.5271    9.0251 C   0  0  1  0  0  0  0  0  0  0  0  0
    8.1452  -12.3368    9.0497 C   0  0  0  0  0  0  0  0  0  0  0  0
   10.1314  -15.8079   10.8363 C   0  0  1  0  0  0  0  0  0  0  0  0
   10.8655  -16.9979   11.3785 C   0  0  1  0  0  0  0  0  0  0  0  0
   10.6853  -10.8165    2.6054 C   0  0  1  0  0  0  0  0  0  0  0  0
    9.8127  -18.0250   11.9270 C   0  0  0  0  0  0  0  0  0  0  0  0
    8.8834  -18.5130   10.9487 C   0  0  0  0  0  0  0  0  0  0  0  0
    8.1290  -17.3934   10.4267 C   0  0  2  0  0  0  0  0  0  0  0  0
    7.0919  -17.8687    9.3343 C   0  0  0  0  0  0  0  0  0  0  0  0
   18.9971  -14.1801    8.2499 C   0  0  2  0  0  0  0  0  0  0  0  0
   18.0593  -12.8808    6.5221 C   0  0  0  0  0  0  0  0  0  0  0  0
   20.1755  -14.6047    8.8341 C   0  0  0  0  0  0  0  0  0  0  0  0
   19.2195  -12.9953    7.6284 C   0  0  1  0  0  0  0  0  0  0  0  0
    9.2592  -10.9925    3.3006 C   0  0  0  0  0  0  0  0  0  0  0  0
    8.9900  -12.5607    3.5023 C   0  0  0  0  0  0  0  0  0  0  0  0
   10.1642  -13.1479    4.4147 C   0  0  1  0  0  0  0  0  0  0  0  0
   10.0022  -14.6534    4.6565 C   0  0  0  0  0  0  0  0  0  0  0  0
   15.5916  -12.4258    6.3457 C   0  0  1  0  0  0  0  0  0  0  0  0
   15.6199  -10.9588    5.6580 C   0  0  0  0  0  0  0  0  0  0  0  0
   14.3559  -10.7734    4.7328 C   0  0  2  0  0  0  0  0  0  0  0  0
   17.9591  -14.1084    9.2534 F   0  0  0  0  0  0  0  0  0  0  0  0
    6.0081  -18.8312    9.8992 N   0  0  0  0  0  0  0  0  0  0  0  0
   11.0384   -9.3648    2.3883 N   0  0  0  0  0  0  0  0  0  0  0  0
   11.6039  -17.6997   10.4215 N   0  0  0  0  0  0  0  0  0  0  0  0
   20.9646  -14.0426    9.8649 N   0  0  0  0  0  0  0  0  0  0  0  0
   10.7899  -15.0798    5.7468 N   0  0  0  0  0  0  0  0  0  0  0  0
   16.7908  -12.5792    7.1888 N   0  0  0  0  0  0  0  0  0  0  0  0
   14.3618   -9.4324    4.1075 N   0  0  0  0  0  0  0  0  0  0  0  0
   11.9720  -10.7621    4.6923 O   0  0  0  0  0  0  0  0  0  0  0  0
   11.7225  -12.3292    7.0755 O   0  0  0  0  0  0  0  0  0  0  0  0
   14.2034  -13.6936    7.8660 O   0  0  0  0  0  0  0  0  0  0  0  0
   12.6517  -12.7193    9.9512 O   0  0  0  0  0  0  0  0  0  0  0  0
    9.9787  -13.7102    7.8531 O   0  0  0  0  0  0  0  0  0  0  0  0
    7.1020  -12.6462    8.1041 O   0  0  0  0  0  0  0  0  0  0  0  0
   10.9465  -14.8480   10.2770 O   0  0  0  0  0  0  0  0  0  0  0  0
   19.1497  -11.8651    8.5250 O   0  0  0  0  0  0  0  0  0  0  0  0
   18.2336  -13.0143    5.2996 O   0  0  0  0  0  0  0  0  0  0  0  0
    9.0621  -16.3512    9.8569 O   0  0  0  0  0  0  0  0  0  0  0  0
   11.5066  -12.9061    3.7443 O   0  0  0  0  0  0  0  0  0  0  0  0
  1 36  1  1  0  0  0
  2 36  1  6  0  0  0
  2  3  1  0  0  0  0
  3 37  1  1  0  0  0
  3  4  1  0  0  0  0
  4 38  1  6  0  0  0
  5 37  1  6  0  0  0
  5  6  1  0  0  0  0
  6  7  1  0  0  0  0
  6 39  1  1  0  0  0
  7 42  1  6  0  0  0
  8  9  1  6  0  0  0
  8  7  1  0  0  0  0
 10 42  1  6  0  0  0
 10 11  1  0  0  0  0
 11 31  1  6  0  0  0
 11 13  1  0  0  0  0
 12 30  1  1  0  0  0
 12  1  1  0  0  0  0
 14 13  1  0  0  0  0
 15 16  1  6  0  0  0
 15 14  1  0  0  0  0
 17 19  1  1  0  0  0
 17 28  1  0  0  0  0
 18 34  1  0  0  0  0
 19 32  1  0  0  0  0
 20 18  1  6  0  0  0
 20 17  1  0  0  0  0
 20 43  1  0  0  0  0
 21 12  1  0  0  0  0
 22 21  1  0  0  0  0
 22 23  1  0  0  0  0
 23 24  1  6  0  0  0
 23 46  1  0  0  0  0
 24 33  1  0  0  0  0
 25 34  1  1  0  0  0
 25  4  1  0  0  0  0
 26 25  1  0  0  0  0
 27 35  1  1  0  0  0
 27 26  1  0  0  0  0
 27  2  1  0  0  0  0
 29 16  1  0  0  0  0
 40  8  1  0  0  0  0
 40  5  1  0  0  0  0
 41  9  1  0  0  0  0
 44 18  2  0  0  0  0
 45 15  1  0  0  0  0
 45 10  1  0  0  0  0
 46  1  1  0  0  0  0
M  END
>  <CHROM.1>
-166.94474975,-70.84755830,-167.14735401,107.65806793,-179.46135264,-175.11721869
-163.66172916,63.18794641,63.40177915,73.75083576,157.51438164,-162.97805474
166.10817346,12.51260929,-13.56375130,7.44777560,0.41658123,-0.13143788,-0.88732643

>  <Name>
lig.pdb

>  <RI>
0

>  <Rbt.Current_Directory>
/home/afrankz/demos/rdock_decoys_rna/rnas/3wru

>  <Rbt.Executable>
rbdock ($Id: //depot/dev/client3/rdock/2013.1/src/exe/rbdock.cxx#4 $)

>  <Rbt.Library>
libRbt.so (2013.1, Build901 2013/11/27)

>  <Rbt.Parameter_File>
/export/apps/rDock/src/rDock_2013.1_src/data/scripts/dock_solv.prm

>  <Rbt.Receptor>
prm/pocket_docking_2.prm

>  <SCORE>
3.91162

>  <SCORE.INTER>
3.75582

>  <SCORE.INTER.CONST>
1

>  <SCORE.INTER.POLAR>
0

>  <SCORE.INTER.ROT>
13

>  <SCORE.INTER.SOLV>
21.6868

>  <SCORE.INTER.VDW>
-16.9917

>  <SCORE.INTER.norm>
0.0816482

>  <SCORE.INTRA>
-1.11023

>  <SCORE.INTRA.DIHEDRAL>
-5.86428

>  <SCORE.INTRA.DIHEDRAL.0>
19.7146

>  <SCORE.INTRA.POLAR>
0

>  <SCORE.INTRA.POLAR.0>
0

>  <SCORE.INTRA.REPUL>
0.0157601

>  <SCORE.INTRA.REPUL.0>
0

>  <SCORE.INTRA.SOLV>
3.3365

>  <SCORE.INTRA.SOLV.lig_0>
-116.697

>  <SCORE.INTRA.VDW>
0.0748591

>  <SCORE.INTRA.VDW.0>
-7.06424

>  <SCORE.INTRA.norm>
-0.0241354

>  <SCORE.RESTR>
1.26603

>  <SCORE.RESTR.CAVITY>
1.26603

>  <SCORE.RESTR.norm>
0.0275225

>  <SCORE.SYSTEM>
0

>  <SCORE.SYSTEM.CONST>
0

>  <SCORE.SYSTEM.DIHEDRAL>
0

>  <SCORE.SYSTEM.SOLV>
0

>  <SCORE.SYSTEM.norm>
0

>  <SCORE.heavy>
46

>  <SCORE.norm>
0.0850353

>  <RMSD>
2.321

$$$$
lig.pdb
 OpenBabel03061811583D
libRbt.so/2013.1/901 2013/11/27
 46 49  0  0  0  0  0  0  0  0999 V2000
   10.7826  -10.1790    4.5953 C   0  0  1  0  0  0  0  0  0  0  0  0
   13.1530  -10.6345    5.3581 C   0  0  1  0  0  0  0  0  0  0  0  0
   12.9389  -11.8544    6.3046 C   0  0  1  0  0  0  0  0  0  0  0  0
   14.1412  -11.8968    7.3796 C   0  0  2  0  0  0  0  0  0  0  0  0
   10.8922  -12.5193    7.6488 C   0  0  2  0  0  0  0  0  0  0  0  0
    9.4959  -11.9673    8.0542 C   0  0  1  0  0  0  0  0  0  0  0  0
    8.7765  -13.2890    8.1735 C   0  0  1  0  0  0  0  0  0  0  0  0
    9.1937  -14.0848    6.8961 C   0  0  1  0  0  0  0  0  0  0  0  0
    8.4079  -13.7677    5.5755 C   0  0  0  0  0  0  0  0  0  0  0  0
    9.0293  -15.3531    9.5000 C   0  0  1  0  0  0  0  0  0  0  0  0
    7.5913  -15.7649    9.3919 C   0  0  1  0  0  0  0  0  0  0  0  0
    9.8760  -10.5829    3.4087 C   0  0  1  0  0  0  0  0  0  0  0  0
    7.5084  -17.3260    9.5341 C   0  0  0  0  0  0  0  0  0  0  0  0
    8.0024  -17.8430   10.7780 C   0  0  0  0  0  0  0  0  0  0  0  0
    9.4019  -17.4949   10.9018 C   0  0  2  0  0  0  0  0  0  0  0  0
   10.0015  -18.0312   12.2612 C   0  0  0  0  0  0  0  0  0  0  0  0
   19.4064  -12.7512    8.1704 C   0  0  2  0  0  0  0  0  0  0  0  0
   17.1892  -13.4830    7.8523 C   0  0  0  0  0  0  0  0  0  0  0  0
   20.4182  -12.3720    9.0322 C   0  0  0  0  0  0  0  0  0  0  0  0
   18.4003  -13.3028    8.8934 C   0  0  1  0  0  0  0  0  0  0  0  0
   10.2653   -9.7742    2.0887 C   0  0  0  0  0  0  0  0  0  0  0  0
   10.1299   -8.2072    2.4027 C   0  0  0  0  0  0  0  0  0  0  0  0
   11.1140   -7.8616    3.6143 C   0  0  1  0  0  0  0  0  0  0  0  0
   11.0477   -6.3790    4.0000 C   0  0  0  0  0  0  0  0  0  0  0  0
   15.5041  -12.1091    6.5871 C   0  0  1  0  0  0  0  0  0  0  0  0
   15.6833  -10.8048    5.6424 C   0  0  0  0  0  0  0  0  0  0  0  0
   14.5010  -10.7276    4.6012 C   0  0  2  0  0  0  0  0  0  0  0  0
   19.9378  -13.6434    7.1649 F   0  0  0  0  0  0  0  0  0  0  0  0
   11.4789  -17.6003   12.4889 N   0  0  0  0  0  0  0  0  0  0  0  0
    9.9901  -12.0761    3.2169 N   0  0  0  0  0  0  0  0  0  0  0  0
    6.7728  -15.2567   10.4045 N   0  0  0  0  0  0  0  0  0  0  0  0
   21.6739  -11.7662    8.7924 N   0  0  0  0  0  0  0  0  0  0  0  0
   12.1385   -6.0186    4.8195 N   0  0  0  0  0  0  0  0  0  0  0  0
   16.6298  -12.1669    7.5369 N   0  0  0  0  0  0  0  0  0  0  0  0
   14.6447   -9.5336    3.7392 N   0  0  0  0  0  0  0  0  0  0  0  0
   12.1322  -10.5875    4.3696 O   0  0  0  0  0  0  0  0  0  0  0  0
   11.6115  -11.6530    6.9756 O   0  0  0  0  0  0  0  0  0  0  0  0
   13.9297  -12.9810    8.2017 O   0  0  0  0  0  0  0  0  0  0  0  0
    9.6308  -11.2796    9.2609 O   0  0  0  0  0  0  0  0  0  0  0  0
   10.5972  -13.7797    6.9492 O   0  0  0  0  0  0  0  0  0  0  0  0
    7.0095  -13.9940    5.8424 O   0  0  0  0  0  0  0  0  0  0  0  0
    9.2331  -13.9916    9.4393 O   0  0  0  0  0  0  0  0  0  0  0  0
   18.7488  -14.5846    9.4605 O   0  0  0  0  0  0  0  0  0  0  0  0
   16.8129  -14.5720    7.3884 O   0  0  0  0  0  0  0  0  0  0  0  0
    9.5827  -15.9990   10.7939 O   0  0  0  0  0  0  0  0  0  0  0  0
   10.7458   -8.6959    4.8302 O   0  0  0  0  0  0  0  0  0  0  0  0
  1 36  1  6  0  0  0
  2 36  1  6  0  0  0
  2  3  1  0  0  0  0
  3 37  1  1  0  0  0
  3  4  1  0  0  0  0
  4 38  1  1  0  0  0
  5 37  1  6  0  0  0
  5  6  1  0  0  0  0
  6  7  1  0  0  0  0
  6 39  1  1  0  0  0
  7 42  1  1  0  0  0
  8  9  1  6  0  0  0
  8  7  1  0  0  0  0
 10 42  1  1  0  0  0
 10 11  1  0  0  0  0
 11 31  1  1  0  0  0
 11 13  1  0  0  0  0
 12 30  1  6  0  0  0
 12  1  1  0  0  0  0
 14 13  1  0  0  0  0
 15 16  1  1  0  0  0
 15 14  1  0  0  0  0
 17 19  1  1  0  0  0
 17 28  1  0  0  0  0
 18 34  1  0  0  0  0
 19 32  1  0  0  0  0
 20 18  1  6  0  0  0
 20 17  1  0  0  0  0
 20 43  1  0  0  0  0
 21 12  1  0  0  0  0
 22 21  1  0  0  0  0
 22 23  1  0  0  0  0
 23 24  1  1  0  0  0
 23 46  1  0  0  0  0
 24 33  1  0  0  0  0
 25 34  1  1  0  0  0
 25  4  1  0  0  0  0
 26 25  1  0  0  0  0
 27 35  1  6  0  0  0
 27 26  1  0  0  0  0
 27  2  1  0  0  0  0
 29 16  1  0  0  0  0
 40  8  1  0  0  0  0
 40  5  1  0  0  0  0
 41  9  1  0  0  0  0
 44 18  2  0  0  0  0
 45 15  1  0  0  0  0
 45 10  1  0  0  0  0
 46  1  1  0  0  0  0
M  END
>  <CHROM.1>
-165.77171067,74.53666856,165.59097812,-173.48984610,-159.74059431,-56.87510613
-60.13496386,-176.07699548,179.53681288,-72.02797386,170.89769524,-165.19172973
102.64191787,12.34209022,-12.63902037,7.19635733,0.45002809,-0.08666418,-0.73681557

>  <Name>
lig.pdb

>  <RI>
0

>  <Rbt.Current_Directory>
/home/afrankz/demos/rdock_decoys_rna/rnas/3wru

>  <Rbt.Executable>
rbdock ($Id: //depot/dev/client3/rdock/2013.1/src/exe/rbdock.cxx#4 $)

>  <Rbt.Library>
libRbt.so (2013.1, Build901 2013/11/27)

>  <Rbt.Parameter_File>
/export/apps/rDock/src/rDock_2013.1_src/data/scripts/dock_solv.prm

>  <Rbt.Receptor>
prm/pocket_docking_3.prm

>  <SCORE>
-9.73341

>  <SCORE.INTER>
-4.39731

>  <SCORE.INTER.CONST>
1

>  <SCORE.INTER.POLAR>
0

>  <SCORE.INTER.ROT>
13

>  <SCORE.INTER.SOLV>
29.3684

>  <SCORE.INTER.VDW>
-24.9877

>  <SCORE.INTER.norm>
-0.0955938

>  <SCORE.INTRA>
-5.3361

>  <SCORE.INTRA.DIHEDRAL>
-11.4929

>  <SCORE.INTRA.DIHEDRAL.0>
19.7146

>  <SCORE.INTRA.POLAR>
0

>  <SCORE.INTRA.POLAR.0>
0

>  <SCORE.INTRA.REPUL>
0

>  <SCORE.INTRA.REPUL.0>
0

>  <SCORE.INTRA.SOLV>
-1.78057

>  <SCORE.INTRA.SOLV.lig_0>
-116.697

>  <SCORE.INTRA.VDW>
1.30066

>  <SCORE.INTRA.VDW.0>
-7.06424

>  <SCORE.INTRA.norm>
-0.116002

>  <SCORE.RESTR>
0

>  <SCORE.RESTR.CAVITY>
0

>  <SCORE.RESTR.norm>
0

>  <SCORE.SYSTEM>
0

>  <SCORE.SYSTEM.CONST>
0

>  <SCORE.SYSTEM.DIHEDRAL>
0

>  <SCORE.SYSTEM.SOLV>
0

>  <SCORE.SYSTEM.norm>
0

>  <SCORE.heavy>
46

>  <SCORE.norm>
-0.211596

>  <RMSD>
2.345

$$$$
lig.pdb
 OpenBabel03061811583D
libRbt.so/2013.1/901 2013/11/27
 46 49  0  0  0  0  0  0  0  0999 V2000
   12.7042  -10.5451    4.2247 C   0  0  1  0  0  0  0  0  0  0  0  0
   13.8585  -11.2071    6.3781 C   0  0  1  0  0  0  0  0  0  0  0  0
   13.6413  -12.2626    7.5044 C   0  0  1  0  0  0  0  0  0  0  0  0
   14.9554  -12.3042    8.4395 C   0  0  2  0  0  0  0  0  0  0  0  0
   11.6358  -12.5455    9.0328 C   0  0  2  0  0  0  0  0  0  0  0  0
   10.4091  -11.7475    9.5590 C   0  0  1  0  0  0  0  0  0  0  0  0
    9.4762  -12.9155    9.7698 C   0  0  1  0  0  0  0  0  0  0  0  0
    9.6162  -13.7743    8.4729 C   0  0  1  0  0  0  0  0  0  0  0  0
    8.7773  -13.3194    7.2275 C   0  0  0  0  0  0  0  0  0  0  0  0
    9.0825  -14.6975   11.4290 C   0  0  1  0  0  0  0  0  0  0  0  0
    9.4929  -15.3233   12.7285 C   0  0  1  0  0  0  0  0  0  0  0  0
   12.3151   -9.0526    4.3451 C   0  0  1  0  0  0  0  0  0  0  0  0
    8.4900  -16.4844   13.0608 C   0  0  0  0  0  0  0  0  0  0  0  0
    8.4418  -17.5344   12.0841 C   0  0  0  0  0  0  0  0  0  0  0  0
    8.0136  -16.9732   10.8205 C   0  0  2  0  0  0  0  0  0  0  0  0
    7.9501  -18.0839    9.6993 C   0  0  0  0  0  0  0  0  0  0  0  0
   20.4325  -13.5472    8.5071 C   0  0  2  0  0  0  0  0  0  0  0  0
   18.1447  -14.0999    8.3911 C   0  0  0  0  0  0  0  0  0  0  0  0
   20.3487  -12.1807    8.3176 C   0  0  0  0  0  0  0  0  0  0  0  0
   19.4331  -13.9352    9.3377 C   0  0  1  0  0  0  0  0  0  0  0  0
   10.8072   -8.8919    4.8433 C   0  0  0  0  0  0  0  0  0  0  0  0
    9.8515   -9.6485    3.8008 C   0  0  0  0  0  0  0  0  0  0  0  0
   10.2935  -11.1842    3.7536 C   0  0  1  0  0  0  0  0  0  0  0  0
    9.4415  -11.9946    2.7693 C   0  0  0  0  0  0  0  0  0  0  0  0
   16.1839  -12.7718    7.5432 C   0  0  1  0  0  0  0  0  0  0  0  0
   16.3752  -11.6289    6.4105 C   0  0  0  0  0  0  0  0  0  0  0  0
   15.0884  -11.5509    5.5016 C   0  0  2  0  0  0  0  0  0  0  0  0
   21.7470  -13.8860    9.0039 F   0  0  0  0  0  0  0  0  0  0  0  0
    7.4735  -17.5360    8.3234 N   0  0  0  0  0  0  0  0  0  0  0  0
   13.2975   -8.3845    5.2766 N   0  0  0  0  0  0  0  0  0  0  0  0
   10.7560  -15.9211   12.7023 N   0  0  0  0  0  0  0  0  0  0  0  0
   21.0834  -11.3046    7.4845 N   0  0  0  0  0  0  0  0  0  0  0  0
    9.6892  -13.3773    2.9029 N   0  0  0  0  0  0  0  0  0  0  0  0
   17.4055  -12.8360    8.3653 N   0  0  0  0  0  0  0  0  0  0  0  0
   15.2438  -10.5020    4.4697 N   0  0  0  0  0  0  0  0  0  0  0  0
   12.7347  -11.1706    5.5080 O   0  0  0  0  0  0  0  0  0  0  0  0
   12.4322  -11.8254    8.2788 O   0  0  0  0  0  0  0  0  0  0  0  0
   14.7392  -13.2423    9.4240 O   0  0  0  0  0  0  0  0  0  0  0  0
   10.7828  -11.0958   10.7350 O   0  0  0  0  0  0  0  0  0  0  0  0
   11.0503  -13.7310    8.3870 O   0  0  0  0  0  0  0  0  0  0  0  0
    7.3895  -13.3278    7.6175 O   0  0  0  0  0  0  0  0  0  0  0  0
    9.9176  -13.6894   10.9988 O   0  0  0  0  0  0  0  0  0  0  0  0
   19.7078  -15.1855   10.0068 O   0  0  0  0  0  0  0  0  0  0  0  0
   17.8488  -15.1371    7.7752 O   0  0  0  0  0  0  0  0  0  0  0  0
    8.9346  -15.8501   10.4055 O   0  0  0  0  0  0  0  0  0  0  0  0
   11.7504  -11.2876    3.3332 O   0  0  0  0  0  0  0  0  0  0  0  0
  1 36  1  1  0  0  0
  2 36  1  6  0  0  0
  2  3  1  0  0  0  0
  3 37  1  1  0  0  0
  3  4  1  0  0  0  0
  4 38  1  1  0  0  0
  5 37  1  6  0  0  0
  5  6  1  0  0  0  0
  6  7  1  0  0  0  0
  6 39  1  1  0  0  0
  7 42  1  1  0  0  0
  8  9  1  6  0  0  0
  8  7  1  0  0  0  0
 10 42  1  6  0  0  0
 10 11  1  0  0  0  0
 11 31  1  6  0  0  0
 11 13  1  0  0  0  0
 12 30  1  1  0  0  0
 12  1  1  0  0  0  0
 14 13  1  0  0  0  0
 15 16  1  6  0  0  0
 15 14  1  0  0  0  0
 17 19  1  1  0  0  0
 17 28  1  0  0  0  0
 18 34  1  0  0  0  0
 19 32  1  0  0  0  0
 20 18  1  6  0  0  0
 20 17  1  0  0  0  0
 20 43  1  0  0  0  0
 21 12  1  0  0  0  0
 22 21  1  0  0  0  0
 22 23  1  0  0  0  0
 23 24  1  6  0  0  0
 23 46  1  0  0  0  0
 24 33  1  0  0  0  0
 25 34  1  1  0  0  0
 25  4  1  0  0  0  0
 26 25  1  0  0  0  0
 27 35  1  6  0  0  0
 27 26  1  0  0  0  0
 27  2  1  0  0  0  0
 29 16  1  0  0  0  0
 40  8  1  0  0  0  0
 40  5  1  0  0  0  0
 41  9  1  0  0  0  0
 44 18  2  0  0  0  0
 45 15  1  0  0  0  0
 45 10  1  0  0  0  0
 46  1  1  0  0  0  0
M  END
>  <CHROM.1>
-87.67092641,-165.74391267,157.73508970,-174.47565283,172.55741937,-58.69428046
-173.59094962,179.13426223,-175.18557531,-91.85605577,82.98779340,-170.10084901
124.85289081,12.85189590,-13.05039047,7.95252250,0.26731309,-0.06588567,-0.91709905

>  <Name>
lig.pdb

>  <RI>
0

>  <Rbt.Current_Directory>
/home/afrankz/demos/rdock_decoys_rna/rnas/3wru

>  <Rbt.Executable>
rbdock ($Id: //depot/dev/client3/rdock/2013.1/src/exe/rbdock.cxx#4 $)

>  <Rbt.Library>
libRbt.so (2013.1, Build901 2013/11/27)

>  <Rbt.Parameter_File>
/export/apps/rDock/src/rDock_2013.1_src/data/scripts/dock_solv.prm

>  <Rbt.Receptor>
prm/pocket_docking_3.prm

>  <SCORE>
0.107718

>  <SCORE.INTER>
0.0939359

>  <SCORE.INTER.CONST>
1

>  <SCORE.INTER.POLAR>
0

>  <SCORE.INTER.ROT>
13

>  <SCORE.INTER.SOLV>
28.5015

>  <SCORE.INTER.VDW>
-21.7045

>  <SCORE.INTER.norm>
0.00204208

>  <SCORE.INTRA>
0.00634425

>  <SCORE.INTRA.DIHEDRAL>
-7.76463

>  <SCORE.INTRA.DIHEDRAL.0>
19.7146

>  <SCORE.INTRA.POLAR>
0

>  <SCORE.INTRA.POLAR.0>
0

>  <SCORE.INTRA.REPUL>
0

>  <SCORE.INTRA.REPUL.0>
0

>  <SCORE.INTRA.SOLV>
1.06395

>  <SCORE.INTRA.SOLV.lig_0>
-116.697

>  <SCORE.INTRA.VDW>
3.35668

>  <SCORE.INTRA.VDW.0>
-7.06424

>  <SCORE.INTRA.norm>
0.000137918

>  <SCORE.RESTR>
0.00743757

>  <SCORE.RESTR.CAVITY>
0.00743757

>  <SCORE.RESTR.norm>
0.000161686

>  <SCORE.SYSTEM>
0

>  <SCORE.SYSTEM.CONST>
0

>  <SCORE.SYSTEM.DIHEDRAL>
0

>  <SCORE.SYSTEM.SOLV>
0

>  <SCORE.SYSTEM.norm>
0

>  <SCORE.heavy>
46

>  <SCORE.norm>
0.00234169

>  <RMSD>
2.369

$$$$
lig.pdb
 OpenBabel03061811583D
libRbt.so/2013.1/901 2013/11/27
 46 49  0  0  0  0  0  0  0  0999 V2000
   12.4849  -10.8278    4.1617 C   0  0  1  0  0  0  0  0  0  0  0  0
   13.9946  -11.1915    6.1608 C   0  0  1  0  0  0  0  0  0  0  0  0
   13.5032  -12.5542    6.7364 C   0  0  1  0  0  0  0  0  0  0  0  0
   14.7439  -13.2936    7.4554 C   0  0  2  0  0  0  0  0  0  0  0  0
   11.7077  -13.0666    8.4545 C   0  0  2  0  0  0  0  0  0  0  0  0
   10.7678  -12.3385    9.4571 C   0  0  1  0  0  0  0  0  0  0  0  0
    9.7424  -13.4351    9.6146 C   0  0  1  0  0  0  0  0  0  0  0  0
    9.4522  -13.9194    8.1585 C   0  0  1  0  0  0  0  0  0  0  0  0
    8.4300  -13.0736    7.3208 C   0  0  0  0  0  0  0  0  0  0  0  0
    9.4552  -15.5128   10.9126 C   0  0  1  0  0  0  0  0  0  0  0  0
   10.0927  -16.5764   11.7559 C   0  0  1  0  0  0  0  0  0  0  0  0
   11.4285   -9.8006    3.6903 C   0  0  1  0  0  0  0  0  0  0  0  0
    8.9946  -17.6289   12.1440 C   0  0  0  0  0  0  0  0  0  0  0  0
    8.3750  -18.2888   11.0308 C   0  0  0  0  0  0  0  0  0  0  0  0
    7.7167  -17.2947   10.2101 C   0  0  2  0  0  0  0  0  0  0  0  0
    7.0214  -17.9625    8.9589 C   0  0  0  0  0  0  0  0  0  0  0  0
   19.8396  -14.1624    8.0291 C   0  0  2  0  0  0  0  0  0  0  0  0
   17.5308  -13.7308    8.2184 C   0  0  0  0  0  0  0  0  0  0  0  0
   20.2114  -12.9518    8.5828 C   0  0  0  0  0  0  0  0  0  0  0  0
   18.7643  -14.6396    8.7038 C   0  0  1  0  0  0  0  0  0  0  0  0
   10.0881   -9.9223    4.5482 C   0  0  0  0  0  0  0  0  0  0  0  0
    9.5331  -11.4199    4.4014 C   0  0  0  0  0  0  0  0  0  0  0  0
   10.6632  -12.4176    4.9338 C   0  0  1  0  0  0  0  0  0  0  0  0
   10.2299  -13.8843    4.8228 C   0  0  0  0  0  0  0  0  0  0  0  0
   15.8514  -13.5850    6.3512 C   0  0  1  0  0  0  0  0  0  0  0  0
   16.3386  -12.1376    5.8095 C   0  0  0  0  0  0  0  0  0  0  0  0
   15.1323  -11.3841    5.1276 C   0  0  2  0  0  0  0  0  0  0  0  0
   20.9669  -15.0672    8.0452 F   0  0  0  0  0  0  0  0  0  0  0  0
    8.0086  -18.7769    8.0743 N   0  0  0  0  0  0  0  0  0  0  0  0
   12.0397   -8.4230    3.7799 N   0  0  0  0  0  0  0  0  0  0  0  0
   11.0894  -17.3053   11.1010 N   0  0  0  0  0  0  0  0  0  0  0  0
   21.0666  -11.9293    8.1090 N   0  0  0  0  0  0  0  0  0  0  0  0
    9.8995  -14.2164    3.4918 N   0  0  0  0  0  0  0  0  0  0  0  0
   17.0001  -14.2740    6.9663 N   0  0  0  0  0  0  0  0  0  0  0  0
   15.5595  -10.0544    4.6389 N   0  0  0  0  0  0  0  0  0  0  0  0
   12.9357  -10.5276    5.4830 O   0  0  0  0  0  0  0  0  0  0  0  0
   12.4105  -12.2404    7.7164 O   0  0  0  0  0  0  0  0  0  0  0  0
   14.2850  -14.4923    7.9540 O   0  0  0  0  0  0  0  0  0  0  0  0
   11.4934  -12.0643   10.6170 O   0  0  0  0  0  0  0  0  0  0  0  0
   10.8187  -13.9778    7.7167 O   0  0  0  0  0  0  0  0  0  0  0  0
    7.1864  -13.0570    8.0498 O   0  0  0  0  0  0  0  0  0  0  0  0
   10.3305  -14.5480   10.4631 O   0  0  0  0  0  0  0  0  0  0  0  0
   18.4877  -16.0280    8.4169 O   0  0  0  0  0  0  0  0  0  0  0  0
   17.1008  -12.7389    8.8299 O   0  0  0  0  0  0  0  0  0  0  0  0
    8.7039  -16.2394    9.7701 O   0  0  0  0  0  0  0  0  0  0  0  0
   11.9387  -12.2265    4.1295 O   0  0  0  0  0  0  0  0  0  0  0  0
  1 36  1  1  0  0  0
  2 36  1  6  0  0  0
  2  3  1  0  0  0  0
  3 37  1  1  0  0  0
  3  4  1  0  0  0  0
  4 38  1  6  0  0  0
  5 37  1  6  0  0  0
  5  6  1  0  0  0  0
  6  7  1  0  0  0  0
  6 39  1  1  0  0  0
  7 42  1  1  0  0  0
  8  9  1  6  0  0  0
  8  7  1  0  0  0  0
 10 42  1  6  0  0  0
 10 11  1  0  0  0  0
 11 31  1  6  0  0  0
 11 13  1  0  0  0  0
 12 30  1  1  0  0  0
 12  1  1  0  0  0  0
 14 13  1  0  0  0  0
 15 16  1  6  0  0  0
 15 14  1  0  0  0  0
 17 19  1  1  0  0  0
 17 28  1  0  0  0  0
 18 34  1  0  0  0  0
 19 32  1  0  0  0  0
 20 18  1  6  0  0  0
 20 17  1  0  0  0  0
 20 43  1  0  0  0  0
 21 12  1  0  0  0  0
 22 21  1  0  0  0  0
 22 23  1  0  0  0  0
 23 24  1  6  0  0  0
 23 46  1  0  0  0  0
 24 33  1  0  0  0  0
 25 34  1  1  0  0  0
 25  4  1  0  0  0  0
 26 25  1  0  0  0  0
 27 35  1  1  0  0  0
 27 26  1  0  0  0  0
 27  2  1  0  0  0  0
 29 16  1  0  0  0  0
 40  8  1  0  0  0  0
 40  5  1  0  0  0  0
 41  9  1  0  0  0  0
 44 18  2  0  0  0  0
 45 15  1  0  0  0  0
 45 10  1  0  0  0  0
 46  1  1  0  0  0  0
M  END
>  <CHROM.1>
-173.45859623,-79.17367103,-179.36002166,173.91097181,168.42033837,-58.14050206
-179.42027172,-57.07756848,-165.43130958,84.20488382,74.04001106,57.36267940
-47.09519567,12.71974485,-13.60552915,7.60668923,0.32733305,-0.05414649,-0.78641932

>  <Name>
lig.pdb

>  <RI>
0

>  <Rbt.Current_Directory>
/home/afrankz/demos/rdock_decoys_rna/rnas/3wru

>  <Rbt.Executable>
rbdock ($Id: //depot/dev/client3/rdock/2013.1/src/exe/rbdock.cxx#4 $)

>  <Rbt.Library>
libRbt.so (2013.1, Build901 2013/11/27)

>  <Rbt.Parameter_File>
/export/apps/rDock/src/rDock_2013.1_src/data/scripts/dock_solv.prm

>  <Rbt.Receptor>
prm/pocket_docking_2.prm

>  <SCORE>
4.60142

>  <SCORE.INTER>
8.73525

>  <SCORE.INTER.CONST>
1

>  <SCORE.INTER.POLAR>
0

>  <SCORE.INTER.ROT>
13

>  <SCORE.INTER.SOLV>
17.6157

>  <SCORE.INTER.VDW>
-12.3151

>  <SCORE.INTER.norm>
0.189897

>  <SCORE.INTRA>
-4.58775

>  <SCORE.INTRA.DIHEDRAL>
-13.892

>  <SCORE.INTRA.DIHEDRAL.0>
19.7146

>  <SCORE.INTRA.POLAR>
0

>  <SCORE.INTRA.POLAR.0>
0

>  <SCORE.INTRA.REPUL>
0

>  <SCORE.INTRA.REPUL.0>
0

>  <SCORE.INTRA.SOLV>
0.625407

>  <SCORE.INTRA.SOLV.lig_0>
-116.697

>  <SCORE.INTRA.VDW>
2.04557

>  <SCORE.INTRA.VDW.0>
-7.06424

>  <SCORE.INTRA.norm>
-0.0997337

>  <SCORE.RESTR>
0.453917

>  <SCORE.RESTR.CAVITY>
0.453917

>  <SCORE.RESTR.norm>
0.00986777

>  <SCORE.SYSTEM>
0

>  <SCORE.SYSTEM.CONST>
0

>  <SCORE.SYSTEM.DIHEDRAL>
0

>  <SCORE.SYSTEM.SOLV>
0

>  <SCORE.SYSTEM.norm>
0

>  <SCORE.heavy>
46

>  <SCORE.norm>
0.100031

>  <RMSD>
2.395

$$$$
lig.pdb
 OpenBabel03061811583D
libRbt.so/2013.1/901 2013/11/27
 46 49  0  0  0  0  0  0  0  0999 V2000
   11.3475   -9.8511    5.2312 C   0  0  1  0  0  0  0  0  0  0  0  0
   13.6619  -10.8643    5.3892 C   0  0  1  0  0  0  0  0  0  0  0  0
   13.4490  -12.2111    6.1446 C   0  0  1  0  0  0  0  0  0  0  0  0
   14.8169  -12.6037    6.9047 C   0  0  2  0  0  0  0  0  0  0  0  0
   11.4222  -12.8412    7.5348 C   0  0  2  0  0  0  0  0  0  0  0  0
   11.9954  -14.2658    7.7811 C   0  0  1  0  0  0  0  0  0  0  0  0
   10.9729  -14.7297    8.7902 C   0  0  1  0  0  0  0  0  0  0  0  0
   10.8277  -13.5353    9.7859 C   0  0  1  0  0  0  0  0  0  0  0  0
   11.9065  -13.4225   10.9196 C   0  0  0  0  0  0  0  0  0  0  0  0
    8.8110  -15.9125    8.6863 C   0  0  1  0  0  0  0  0  0  0  0  0
    7.8275  -15.2793    9.6247 C   0  0  1  0  0  0  0  0  0  0  0  0
   10.1065  -10.0315    4.3253 C   0  0  1  0  0  0  0  0  0  0  0  0
    6.9664  -16.4144   10.2839 C   0  0  0  0  0  0  0  0  0  0  0  0
    7.7165  -17.3730   11.0435 C   0  0  0  0  0  0  0  0  0  0  0  0
    8.6552  -18.0322   10.1607 C   0  0  2  0  0  0  0  0  0  0  0  0
    9.5196  -19.0965   10.9450 C   0  0  0  0  0  0  0  0  0  0  0  0
   18.8182  -14.0671    8.4765 C   0  0  2  0  0  0  0  0  0  0  0  0
   17.8090  -12.2332    7.3941 C   0  0  0  0  0  0  0  0  0  0  0  0
   19.9639  -14.7457    8.8465 C   0  0  0  0  0  0  0  0  0  0  0  0
   19.1690  -12.8521    7.9864 C   0  0  1  0  0  0  0  0  0  0  0  0
   10.2957   -9.2694    2.9357 C   0  0  0  0  0  0  0  0  0  0  0  0
   10.5546   -7.7174    3.2463 C   0  0  0  0  0  0  0  0  0  0  0  0
   11.8639   -7.6100    4.1575 C   0  0  1  0  0  0  0  0  0  0  0  0
   12.1901   -6.1565    4.5212 C   0  0  0  0  0  0  0  0  0  0  0  0
   15.9476  -12.8174    5.8062 C   0  0  1  0  0  0  0  0  0  0  0  0
   16.1403  -11.3847    5.0740 C   0  0  0  0  0  0  0  0  0  0  0  0
   14.8038  -10.9671    4.3478 C   0  0  2  0  0  0  0  0  0  0  0  0
   17.9195  -13.9854    9.6058 F   0  0  0  0  0  0  0  0  0  0  0  0
   10.9143  -19.3439   10.3017 N   0  0  0  0  0  0  0  0  0  0  0  0
    9.8732  -11.5112    4.1370 N   0  0  0  0  0  0  0  0  0  0  0  0
    8.4144  -14.5928   10.6913 N   0  0  0  0  0  0  0  0  0  0  0  0
   20.1700  -16.0885    9.2414 N   0  0  0  0  0  0  0  0  0  0  0  0
   12.3834   -5.3747    3.3625 N   0  0  0  0  0  0  0  0  0  0  0  0
   17.2144  -13.1917    6.4602 N   0  0  0  0  0  0  0  0  0  0  0  0
   14.9611   -9.6536    3.6849 N   0  0  0  0  0  0  0  0  0  0  0  0
   12.4874  -10.5054    4.6729 O   0  0  0  0  0  0  0  0  0  0  0  0
   12.3272  -11.9885    7.1167 O   0  0  0  0  0  0  0  0  0  0  0  0
   14.6035  -13.7944    7.5625 O   0  0  0  0  0  0  0  0  0  0  0  0
   11.9640  -14.9649    6.5738 O   0  0  0  0  0  0  0  0  0  0  0  0
   10.7570  -12.4918    8.8000 O   0  0  0  0  0  0  0  0  0  0  0  0
   13.1532  -13.0616   10.2924 O   0  0  0  0  0  0  0  0  0  0  0  0
    9.6651  -15.0197    8.0762 O   0  0  0  0  0  0  0  0  0  0  0  0
   19.7059  -11.9692    8.9955 O   0  0  0  0  0  0  0  0  0  0  0  0
   17.3446  -11.1237    7.7037 O   0  0  0  0  0  0  0  0  0  0  0  0
    9.5462  -17.0151    9.4873 O   0  0  0  0  0  0  0  0  0  0  0  0
   11.6631   -8.3979    5.4417 O   0  0  0  0  0  0  0  0  0  0  0  0
  1 36  1  6  0  0  0
  2 36  1  6  0  0  0
  2  3  1  0  0  0  0
  3 37  1  1  0  0  0
  3  4  1  0  0  0  0
  4 38  1  6  0  0  0
  5 37  1  1  0  0  0
  5  6  1  0  0  0  0
  6  7  1  0  0  0  0
  6 39  1  6  0  0  0
  7 42  1  6  0  0  0
  8  9  1  1  0  0  0
  8  7  1  0  0  0  0
 10 42  1  1  0  0  0
 10 11  1  0  0  0  0
 11 31  1  1  0  0  0
 11 13  1  0  0  0  0
 12 30  1  6  0  0  0
 12  1  1  0  0  0  0
 14 13  1  0  0  0  0
 15 16  1  1  0  0  0
 15 14  1  0  0  0  0
 17 19  1  1  0  0  0
 17 28  1  0  0  0  0
 18 34  1  0  0  0  0
 19 32  1  0  0  0  0
 20 18  1  1  0  0  0
 20 17  1  0  0  0  0
 20 43  1  0  0  0  0
 21 12  1  0  0  0  0
 22 21  1  0  0  0  0
 22 23  1  0  0  0  0
 23 24  1  1  0  0  0
 23 46  1  0  0  0  0
 24 33  1  0  0  0  0
 25 34  1  1  0  0  0
 25  4  1  0  0  0  0
 26 25  1  0  0  0  0
 27 35  1  1  0  0  0
 27 26  1  0  0  0  0
 27  2  1  0  0  0  0
 29 16  1  0  0  0  0
 40  8  1  0  0  0  0
 40  5  1  0  0  0  0
 41  9  1  0  0  0  0
 44 18  2  0  0  0  0
 45 15  1  0  0  0  0
 45 10  1  0  0  0  0
 46  1  1  0  0  0  0
M  END
>  <CHROM.1>
-161.22020377,82.13167638,147.51081457,39.51783603,155.42964380,69.29330958
90.40639594,-153.03476569,-170.56155911,-53.30163154,172.09928695,-58.47094226
-61.49008508,12.91773555,-12.84152519,7.39443331,0.97730969,-0.04183538,-0.63720171

>  <Name>
lig.pdb

>  <RI>
0

>  <Rbt.Current_Directory>
/home/afrankz/demos/rdock_decoys_rna/rnas/3wru

>  <Rbt.Executable>
rbdock ($Id: //depot/dev/client3/rdock/2013.1/src/exe/rbdock.cxx#4 $)

>  <Rbt.Library>
libRbt.so (2013.1, Build901 2013/11/27)

>  <Rbt.Parameter_File>
/export/apps/rDock/src/rDock_2013.1_src/data/scripts/dock_solv.prm

>  <Rbt.Receptor>
prm/pocket_docking_2.prm

>  <SCORE>
9.99919

>  <SCORE.INTER>
3.758

>  <SCORE.INTER.CONST>
1

>  <SCORE.INTER.POLAR>
0

>  <SCORE.INTER.ROT>
13

>  <SCORE.INTER.SOLV>
26.1948

>  <SCORE.INTER.VDW>
-18.4929

>  <SCORE.INTER.norm>
0.0816957

>  <SCORE.INTRA>
4.07484

>  <SCORE.INTRA.DIHEDRAL>
0.281979

>  <SCORE.INTRA.DIHEDRAL.0>
19.7146

>  <SCORE.INTRA.POLAR>
0

>  <SCORE.INTRA.POLAR.0>
0

>  <SCORE.INTRA.REPUL>
0

>  <SCORE.INTRA.REPUL.0>
0

>  <SCORE.INTRA.SOLV>
2.409

>  <SCORE.INTRA.SOLV.lig_0>
-116.697

>  <SCORE.INTRA.VDW>
2.72935

>  <SCORE.INTRA.VDW.0>
-7.06424

>  <SCORE.INTRA.norm>
0.0885835

>  <SCORE.RESTR>
2.16635

>  <SCORE.RESTR.CAVITY>
2.16635

>  <SCORE.RESTR.norm>
0.0470945

>  <SCORE.SYSTEM>
0

>  <SCORE.SYSTEM.CONST>
0

>  <SCORE.SYSTEM.DIHEDRAL>
0

>  <SCORE.SYSTEM.SOLV>
0

>  <SCORE.SYSTEM.norm>
0

>  <SCORE.heavy>
46

>  <SCORE.norm>
0.217374

>  <RMSD>
2.415

$$$$
lig.pdb
 OpenBabel03061811583D
libRbt.so/2013.1/901 2013/11/27
 46 49  0  0  0  0  0  0  0  0999 V2000
   12.9117  -10.9416    5.2003 C   0  0  1  0  0  0  0  0  0  0  0  0
   14.4591  -12.5829    6.3492 C   0  0  1  0  0  0  0  0  0  0  0  0
   14.2065  -14.0058    6.9334 C   0  0  1  0  0  0  0  0  0  0  0  0
   15.3946  -14.3638    7.9645 C   0  0  2  0  0  0  0  0  0  0  0  0
   12.2736  -14.9008    8.3121 C   0  0  2  0  0  0  0  0  0  0  0  0
   11.0645  -14.3755    9.1372 C   0  0  1  0  0  0  0  0  0  0  0  0
   10.2922  -15.6699    9.2215 C   0  0  1  0  0  0  0  0  0  0  0  0
   10.3249  -16.2467    7.7705 C   0  0  1  0  0  0  0  0  0  0  0  0
    9.2720  -15.6759    6.7570 C   0  0  0  0  0  0  0  0  0  0  0  0
   10.2528  -17.6759   10.6561 C   0  0  1  0  0  0  0  0  0  0  0  0
   10.4819  -18.9412    9.8845 C   0  0  1  0  0  0  0  0  0  0  0  0
   11.9243  -10.5682    6.3311 C   0  0  1  0  0  0  0  0  0  0  0  0
    9.5481  -20.0583   10.4713 C   0  0  0  0  0  0  0  0  0  0  0  0
    8.1449  -19.7681   10.3977 C   0  0  0  0  0  0  0  0  0  0  0  0
    7.8785  -18.5688   11.1630 C   0  0  2  0  0  0  0  0  0  0  0  0
    6.3454  -18.1922   11.1115 C   0  0  0  0  0  0  0  0  0  0  0  0
   20.8807  -14.6858    8.6114 C   0  0  2  0  0  0  0  0  0  0  0  0
   18.9726  -15.5328    7.5184 C   0  0  0  0  0  0  0  0  0  0  0  0
   21.7483  -14.7200    9.6866 C   0  0  0  0  0  0  0  0  0  0  0  0
   20.0663  -15.7685    8.6723 C   0  0  1  0  0  0  0  0  0  0  0  0
   10.6226  -11.4908    6.2832 C   0  0  0  0  0  0  0  0  0  0  0  0
    9.9359  -11.3144    4.8446 C   0  0  0  0  0  0  0  0  0  0  0  0
   11.0022  -11.7459    3.7343 C   0  0  1  0  0  0  0  0  0  0  0  0
   10.4410  -11.6000    2.3148 C   0  0  0  0  0  0  0  0  0  0  0  0
   16.7618  -14.3902    7.1516 C   0  0  1  0  0  0  0  0  0  0  0  0
   16.9814  -12.8855    6.5915 C   0  0  0  0  0  0  0  0  0  0  0  0
   15.8137  -12.5035    5.6024 C   0  0  2  0  0  0  0  0  0  0  0  0
   21.6379  -14.6139    7.3821 F   0  0  0  0  0  0  0  0  0  0  0  0
    6.0042  -16.9095   11.9231 N   0  0  0  0  0  0  0  0  0  0  0  0
   12.6539  -10.6798    7.6482 N   0  0  0  0  0  0  0  0  0  0  0  0
   10.1489  -18.8538    8.5299 N   0  0  0  0  0  0  0  0  0  0  0  0
   22.7588  -13.8217   10.1028 N   0  0  0  0  0  0  0  0  0  0  0  0
   10.1654  -10.2491    2.0145 N   0  0  0  0  0  0  0  0  0  0  0  0
   17.8745  -14.7277    8.0574 N   0  0  0  0  0  0  0  0  0  0  0  0
   15.9943  -11.1263    5.0923 N   0  0  0  0  0  0  0  0  0  0  0  0
   13.4515  -12.2480    5.4037 O   0  0  0  0  0  0  0  0  0  0  0  0
   12.8760  -13.9583    7.6266 O   0  0  0  0  0  0  0  0  0  0  0  0
   15.1492  -15.6228    8.4652 O   0  0  0  0  0  0  0  0  0  0  0  0
   11.5402  -13.9134   10.3650 O   0  0  0  0  0  0  0  0  0  0  0  0
   11.7196  -16.0085    7.5177 O   0  0  0  0  0  0  0  0  0  0  0  0
    7.9641  -16.0194    7.2566 O   0  0  0  0  0  0  0  0  0  0  0  0
   10.9830  -16.5983   10.2039 O   0  0  0  0  0  0  0  0  0  0  0  0
   20.7614  -17.0125    8.4367 O   0  0  0  0  0  0  0  0  0  0  0  0
   19.0690  -15.9601    6.3561 O   0  0  0  0  0  0  0  0  0  0  0  0
    8.7249  -17.4243   10.6574 O   0  0  0  0  0  0  0  0  0  0  0  0
   12.2477  -10.8831    3.8544 O   0  0  0  0  0  0  0  0  0  0  0  0
  1 36  1  1  0  0  0
  2 36  1  6  0  0  0
  2  3  1  0  0  0  0
  3 37  1  1  0  0  0
  3  4  1  0  0  0  0
  4 38  1  6  0  0  0
  5 37  1  6  0  0  0
  5  6  1  0  0  0  0
  6  7  1  0  0  0  0
  6 39  1  1  0  0  0
  7 42  1  1  0  0  0
  8  9  1  6  0  0  0
  8  7  1  0  0  0  0
 10 42  1  6  0  0  0
 10 11  1  0  0  0  0
 11 31  1  6  0  0  0
 11 13  1  0  0  0  0
 12 30  1  1  0  0  0
 12  1  1  0  0  0  0
 14 13  1  0  0  0  0
 15 16  1  6  0  0  0
 15 14  1  0  0  0  0
 17 19  1  1  0  0  0
 17 28  1  0  0  0  0
 18 34  1  0  0  0  0
 19 32  1  0  0  0  0
 20 18  1  6  0  0  0
 20 17  1  0  0  0  0
 20 43  1  0  0  0  0
 21 12  1  0  0  0  0
 22 21  1  0  0  0  0
 22 23  1  0  0  0  0
 23 24  1  6  0  0  0
 23 46  1  0  0  0  0
 24 33  1  0  0  0  0
 25 34  1  1  0  0  0
 25  4  1  0  0  0  0
 26 25  1  0  0  0  0
 27 35  1  1  0  0  0
 27 26  1  0  0  0  0
 27  2  1  0  0  0  0
 29 16  1  0  0  0  0
 40  8  1  0  0  0  0
 40  5  1  0  0  0  0
 41  9  1  0  0  0  0
 44 18  2  0  0  0  0
 45 15  1  0  0  0  0
 45 10  1  0  0  0  0
 46  1  1  0  0  0  0
M  END
>  <CHROM.1>
-76.03839128,144.85805776,-176.80776089,167.15331175,164.32877429,-62.91989620
94.80987748,179.85893365,-178.09926750,-86.43724690,172.20443642,64.33480920
145.22538655,13.29602060,-14.70342684,7.72909399,0.26228059,-0.03976004,-0.71768924

>  <Name>
lig.pdb

>  <RI>
0

>  <Rbt.Current_Directory>
/home/afrankz/demos/rdock_decoys_rna/rnas/3wru

>  <Rbt.Executable>
rbdock ($Id: //depot/dev/client3/rdock/2013.1/src/exe/rbdock.cxx#4 $)

>  <Rbt.Library>
libRbt.so (2013.1, Build901 2013/11/27)

>  <Rbt.Parameter_File>
/export/apps/rDock/src/rDock_2013.1_src/data/scripts/dock_solv.prm

>  <Rbt.Receptor>
prm/pocket_docking_3.prm

>  <SCORE>
7.24833

>  <SCORE.INTER>
7.11126

>  <SCORE.INTER.CONST>
1

>  <SCORE.INTER.POLAR>
0

>  <SCORE.INTER.ROT>
13

>  <SCORE.INTER.SOLV>
19.3412

>  <SCORE.INTER.VDW>
-13.9729

>  <SCORE.INTER.norm>
0.154593

>  <SCORE.INTRA>
0.137064

>  <SCORE.INTRA.DIHEDRAL>
-4.74133

>  <SCORE.INTRA.DIHEDRAL.0>
19.7146

>  <SCORE.INTRA.POLAR>
0

>  <SCORE.INTRA.POLAR.0>
0

>  <SCORE.INTRA.REPUL>
0

>  <SCORE.INTRA.REPUL.0>
0

>  <SCORE.INTRA.SOLV>
2.89366

>  <SCORE.INTRA.SOLV.lig_0>
-116.697

>  <SCORE.INTRA.VDW>
1.0609

>  <SCORE.INTRA.VDW.0>
-7.06424

>  <SCORE.INTRA.norm>
0.00297965

>  <SCORE.RESTR>
0

>  <SCORE.RESTR.CAVITY>
0

>  <SCORE.RESTR.norm>
0

>  <SCORE.SYSTEM>
0

>  <SCORE.SYSTEM.CONST>
0

>  <SCORE.SYSTEM.DIHEDRAL>
0

>  <SCORE.SYSTEM.SOLV>
0

>  <SCORE.SYSTEM.norm>
0

>  <SCORE.heavy>
46

>  <SCORE.norm>
0.157572

>  <RMSD>
2.472

$$$$
lig.pdb
 OpenBabel03061811583D
libRbt.so/2013.1/901 2013/11/27
 46 49  0  0  0  0  0  0  0  0999 V2000
   12.0932  -11.3031    3.6714 C   0  0  1  0  0  0  0  0  0  0  0  0
   13.2931  -10.6857    5.8132 C   0  0  1  0  0  0  0  0  0  0  0  0
   13.1132  -11.8966    6.7781 C   0  0  1  0  0  0  0  0  0  0  0  0
   14.3970  -11.9821    7.7514 C   0  0  2  0  0  0  0  0  0  0  0  0
   11.2165  -12.4554    8.3681 C   0  0  2  0  0  0  0  0  0  0  0  0
   10.0742  -11.7523    9.1551 C   0  0  1  0  0  0  0  0  0  0  0  0
    9.2238  -12.9710    9.4205 C   0  0  1  0  0  0  0  0  0  0  0  0
    9.1669  -13.7210    8.0518 C   0  0  1  0  0  0  0  0  0  0  0  0
    8.1172  -13.2071    7.0051 C   0  0  0  0  0  0  0  0  0  0  0  0
    9.1815  -14.9111   10.9430 C   0  0  1  0  0  0  0  0  0  0  0  0
    9.8792  -15.6934   12.0154 C   0  0  1  0  0  0  0  0  0  0  0  0
   10.7677  -10.9606    2.9511 C   0  0  1  0  0  0  0  0  0  0  0  0
    8.9887  -16.9314   12.3880 C   0  0  0  0  0  0  0  0  0  0  0  0
    8.7344  -17.8363   11.3040 C   0  0  0  0  0  0  0  0  0  0  0  0
    8.0281  -17.1237   10.2608 C   0  0  2  0  0  0  0  0  0  0  0  0
    7.7272  -18.0693    9.0319 C   0  0  0  0  0  0  0  0  0  0  0  0
   19.7921  -11.7918    8.1393 C   0  0  2  0  0  0  0  0  0  0  0  0
   18.0472  -13.0409    7.1658 C   0  0  0  0  0  0  0  0  0  0  0  0
   20.7941  -11.6703    9.0835 C   0  0  0  0  0  0  0  0  0  0  0  0
   19.2245  -13.0176    8.2597 C   0  0  1  0  0  0  0  0  0  0  0  0
    9.5124  -11.5142    3.7670 C   0  0  0  0  0  0  0  0  0  0  0  0
    9.6802  -13.1010    3.9292 C   0  0  0  0  0  0  0  0  0  0  0  0
   11.0511  -13.3737    4.7052 C   0  0  1  0  0  0  0  0  0  0  0  0
   11.3098  -14.8726    4.9000 C   0  0  0  0  0  0  0  0  0  0  0  0
   15.6821  -12.2442    6.8510 C   0  0  1  0  0  0  0  0  0  0  0  0
   15.8304  -10.9476    5.8903 C   0  0  0  0  0  0  0  0  0  0  0  0
   14.5705  -10.8280    4.9489 C   0  0  2  0  0  0  0  0  0  0  0  0
   20.3366  -11.5454    6.8231 F   0  0  0  0  0  0  0  0  0  0  0  0
    6.7155  -19.2026    9.3671 N   0  0  0  0  0  0  0  0  0  0  0  0
   10.7091   -9.4640    2.7611 N   0  0  0  0  0  0  0  0  0  0  0  0
   11.1108  -16.2270   11.6254 N   0  0  0  0  0  0  0  0  0  0  0  0
   22.0207  -12.3576    9.2402 N   0  0  0  0  0  0  0  0  0  0  0  0
   10.2177  -15.4971    5.5390 N   0  0  0  0  0  0  0  0  0  0  0  0
   16.8788  -12.3424    7.7057 N   0  0  0  0  0  0  0  0  0  0  0  0
   14.6862   -9.6404    4.0740 N   0  0  0  0  0  0  0  0  0  0  0  0
   12.1973  -10.6021    4.9112 O   0  0  0  0  0  0  0  0  0  0  0  0
   11.8532  -11.6468    7.5547 O   0  0  0  0  0  0  0  0  0  0  0  0
   14.2145  -13.0575    8.5918 O   0  0  0  0  0  0  0  0  0  0  0  0
   10.6225  -11.1778   10.3025 O   0  0  0  0  0  0  0  0  0  0  0  0
   10.5641  -13.6112    7.7327 O   0  0  0  0  0  0  0  0  0  0  0  0
    6.8160  -13.3034    7.6182 O   0  0  0  0  0  0  0  0  0  0  0  0
    9.8882  -13.8180   10.4907 O   0  0  0  0  0  0  0  0  0  0  0  0
   20.1495  -14.0965    8.0015 O   0  0  0  0  0  0  0  0  0  0  0  0
   18.1384  -13.5598    6.0411 O   0  0  0  0  0  0  0  0  0  0  0  0
    8.8207  -15.9153    9.8209 O   0  0  0  0  0  0  0  0  0  0  0  0
   12.2115  -12.7789    3.9243 O   0  0  0  0  0  0  0  0  0  0  0  0
  1 36  1  1  0  0  0
  2 36  1  6  0  0  0
  2  3  1  0  0  0  0
  3 37  1  1  0  0  0
  3  4  1  0  0  0  0
  4 38  1  1  0  0  0
  5 37  1  6  0  0  0
  5  6  1  0  0  0  0
  6  7  1  0  0  0  0
  6 39  1  1  0  0  0
  7 42  1  1  0  0  0
  8  9  1  6  0  0  0
  8  7  1  0  0  0  0
 10 42  1  6  0  0  0
 10 11  1  0  0  0  0
 11 31  1  6  0  0  0
 11 13  1  0  0  0  0
 12 30  1  1  0  0  0
 12  1  1  0  0  0  0
 14 13  1  0  0  0  0
 15 16  1  6  0  0  0
 15 14  1  0  0  0  0
 17 19  1  1  0  0  0
 17 28  1  0  0  0  0
 18 34  1  0  0  0  0
 19 32  1  0  0  0  0
 20 18  1  6  0  0  0
 20 17  1  0  0  0  0
 20 43  1  0  0  0  0
 21 12  1  0  0  0  0
 22 21  1  0  0  0  0
 22 23  1  0  0  0  0
 23 24  1  6  0  0  0
 23 46  1  0  0  0  0
 24 33  1  0  0  0  0
 25 34  1  1  0  0  0
 25  4  1  0  0  0  0
 26 25  1  0  0  0  0
 27 35  1  6  0  0  0
 27 26  1  0  0  0  0
 27  2  1  0  0  0  0
 29 16  1  0  0  0  0
 40  8  1  0  0  0  0
 40  5  1  0  0  0  0
 41  9  1  0  0  0  0
 44 18  2  0  0  0  0
 45 15  1  0  0  0  0
 45 10  1  0  0  0  0
 46  1  1  0  0  0  0
M  END
>  <CHROM.1>
-179.58665882,-85.92609391,171.35257820,170.82392495,174.24095714,-58.68564983
-178.98759866,66.85064642,65.07542251,-80.59714906,177.99578097,-54.52005517
158.37342740,12.59588899,-13.20648700,7.49555880,0.34901179,-0.16402550,-0.96116571

>  <Name>
lig.pdb

>  <RI>
0

>  <Rbt.Current_Directory>
/home/afrankz/demos/rdock_decoys_rna/rnas/3wru

>  <Rbt.Executable>
rbdock ($Id: //depot/dev/client3/rdock/2013.1/src/exe/rbdock.cxx#4 $)

>  <Rbt.Library>
libRbt.so (2013.1, Build901 2013/11/27)

>  <Rbt.Parameter_File>
/export/apps/rDock/src/rDock_2013.1_src/data/scripts/dock_solv.prm

>  <Rbt.Receptor>
prm/pocket_docking_3.prm

>  <SCORE>
-6.01877

>  <SCORE.INTER>
-0.694496

>  <SCORE.INTER.CONST>
1

>  <SCORE.INTER.POLAR>
0

>  <SCORE.INTER.ROT>
13

>  <SCORE.INTER.SOLV>
19.1987

>  <SCORE.INTER.VDW>
-19.1292

>  <SCORE.INTER.norm>
-0.0150977

>  <SCORE.INTRA>
-5.32428

>  <SCORE.INTRA.DIHEDRAL>
-13.6994

>  <SCORE.INTRA.DIHEDRAL.0>
19.7146

>  <SCORE.INTRA.POLAR>
0

>  <SCORE.INTRA.POLAR.0>
0

>  <SCORE.INTRA.REPUL>
0

>  <SCORE.INTRA.REPUL.0>
0

>  <SCORE.INTRA.SOLV>
1.68725

>  <SCORE.INTRA.SOLV.lig_0>
-116.697

>  <SCORE.INTRA.VDW>
0.681813

>  <SCORE.INTRA.VDW.0>
-7.06424

>  <SCORE.INTRA.norm>
-0.115745

>  <SCORE.RESTR>
0

>  <SCORE.RESTR.CAVITY>
0

>  <SCORE.RESTR.norm>
0

>  <SCORE.SYSTEM>
0

>  <SCORE.SYSTEM.CONST>
0

>  <SCORE.SYSTEM.DIHEDRAL>
0

>  <SCORE.SYSTEM.SOLV>
0

>  <SCORE.SYSTEM.norm>
0

>  <SCORE.heavy>
46

>  <SCORE.norm>
-0.130843

>  <RMSD>
2.581

$$$$
lig.pdb
 OpenBabel03061811583D
libRbt.so/2013.1/901 2013/11/27
 46 49  0  0  0  0  0  0  0  0999 V2000
   12.9510  -11.9436    6.6197 C   0  0  1  0  0  0  0  0  0  0  0  0
   14.9657  -11.7355    8.1382 C   0  0  1  0  0  0  0  0  0  0  0  0
   14.6187  -13.1657    8.6517 C   0  0  1  0  0  0  0  0  0  0  0  0
   15.8977  -13.7631    9.4329 C   0  0  2  0  0  0  0  0  0  0  0  0
   12.5105  -13.9043    9.8550 C   0  0  2  0  0  0  0  0  0  0  0  0
   11.1555  -13.2553   10.2570 C   0  0  1  0  0  0  0  0  0  0  0  0
   10.2541  -14.4067    9.8817 C   0  0  1  0  0  0  0  0  0  0  0  0
   10.7554  -14.8606    8.4739 C   0  0  1  0  0  0  0  0  0  0  0  0
   10.2372  -14.0427    7.2394 C   0  0  0  0  0  0  0  0  0  0  0  0
    9.7932  -16.7137   10.6226 C   0  0  1  0  0  0  0  0  0  0  0  0
    8.5244  -16.5825    9.8341 C   0  0  1  0  0  0  0  0  0  0  0  0
   13.6032  -12.4071    5.2957 C   0  0  1  0  0  0  0  0  0  0  0  0
    7.9120  -18.0141    9.6344 C   0  0  0  0  0  0  0  0  0  0  0  0
    7.5835  -18.7018   10.8501 C   0  0  0  0  0  0  0  0  0  0  0  0
    8.7935  -18.8790   11.6243 C   0  0  2  0  0  0  0  0  0  0  0  0
    8.4927  -19.6250   12.9837 C   0  0  0  0  0  0  0  0  0  0  0  0
   21.4224  -14.0742    9.6410 C   0  0  2  0  0  0  0  0  0  0  0  0
   19.5323  -14.5091    8.3026 C   0  0  0  0  0  0  0  0  0  0  0  0
   22.4500  -14.5297   10.4451 C   0  0  0  0  0  0  0  0  0  0  0  0
   20.6840  -15.1358    9.2322 C   0  0  1  0  0  0  0  0  0  0  0  0
   13.9296  -11.1625    4.3511 C   0  0  0  0  0  0  0  0  0  0  0  0
   12.5611  -10.3755    4.0682 C   0  0  0  0  0  0  0  0  0  0  0  0
   11.9650   -9.9042    5.4748 C   0  0  1  0  0  0  0  0  0  0  0  0
   10.6411   -9.1481    5.3106 C   0  0  0  0  0  0  0  0  0  0  0  0
   17.0987  -13.8795    8.3961 C   0  0  1  0  0  0  0  0  0  0  0  0
   17.4286  -12.3667    7.9179 C   0  0  0  0  0  0  0  0  0  0  0  0
   16.1795  -11.7521    7.1762 C   0  0  2  0  0  0  0  0  0  0  0  0
   21.9707  -13.3084    8.5443 F   0  0  0  0  0  0  0  0  0  0  0  0
    9.5627  -19.3522   14.0795 N   0  0  0  0  0  0  0  0  0  0  0  0
   14.8391  -13.2052    5.6347 N   0  0  0  0  0  0  0  0  0  0  0  0
    7.5279  -15.8391   10.4727 N   0  0  0  0  0  0  0  0  0  0  0  0
   23.5875  -15.3185   10.1532 N   0  0  0  0  0  0  0  0  0  0  0  0
   10.8269   -7.9509    4.5872 N   0  0  0  0  0  0  0  0  0  0  0  0
   18.2865  -14.4354    9.0688 N   0  0  0  0  0  0  0  0  0  0  0  0
   16.4619  -10.3653    6.7446 N   0  0  0  0  0  0  0  0  0  0  0  0
   13.8738  -11.1912    7.4081 O   0  0  0  0  0  0  0  0  0  0  0  0
   13.4371  -13.0217    9.5660 O   0  0  0  0  0  0  0  0  0  0  0  0
   15.5666  -15.0244    9.8752 O   0  0  0  0  0  0  0  0  0  0  0  0
   11.1907  -12.9801   11.6246 O   0  0  0  0  0  0  0  0  0  0  0  0
   12.1614  -14.8365    8.7714 O   0  0  0  0  0  0  0  0  0  0  0  0
    8.8147  -14.2578    7.1475 O   0  0  0  0  0  0  0  0  0  0  0  0
   10.4069  -15.5136   10.9091 O   0  0  0  0  0  0  0  0  0  0  0  0
   21.4495  -16.0988    8.4753 O   0  0  0  0  0  0  0  0  0  0  0  0
   19.6963  -14.1377    7.1288 O   0  0  0  0  0  0  0  0  0  0  0  0
    9.4511  -17.5441   11.8841 O   0  0  0  0  0  0  0  0  0  0  0  0
   11.7256  -11.1138    6.3634 O   0  0  0  0  0  0  0  0  0  0  0  0
  1 36  1  6  0  0  0
  2 36  1  6  0  0  0
  2  3  1  0  0  0  0
  3 37  1  1  0  0  0
  3  4  1  0  0  0  0
  4 38  1  6  0  0  0
  5 37  1  6  0  0  0
  5  6  1  0  0  0  0
  6  7  1  0  0  0  0
  6 39  1  1  0  0  0
  7 42  1  1  0  0  0
  8  9  1  6  0  0  0
  8  7  1  0  0  0  0
 10 42  1  1  0  0  0
 10 11  1  0  0  0  0
 11 31  1  1  0  0  0
 11 13  1  0  0  0  0
 12 30  1  1  0  0  0
 12  1  1  0  0  0  0
 14 13  1  0  0  0  0
 15 16  1  1  0  0  0
 15 14  1  0  0  0  0
 17 19  1  1  0  0  0
 17 28  1  0  0  0  0
 18 34  1  0  0  0  0
 19 32  1  0  0  0  0
 20 18  1  6  0  0  0
 20 17  1  0  0  0  0
 20 43  1  0  0  0  0
 21 12  1  0  0  0  0
 22 21  1  0  0  0  0
 22 23  1  0  0  0  0
 23 24  1  6  0  0  0
 23 46  1  0  0  0  0
 24 33  1  0  0  0  0
 25 34  1  1  0  0  0
 25  4  1  0  0  0  0
 26 25  1  0  0  0  0
 27 35  1  1  0  0  0
 27 26  1  0  0  0  0
 27  2  1  0  0  0  0
 29 16  1  0  0  0  0
 40  8  1  0  0  0  0
 40  5  1  0  0  0  0
 41  9  1  0  0  0  0
 44 18  2  0  0  0  0
 45 15  1  0  0  0  0
 45 10  1  0  0  0  0
 46  1  1  0  0  0  0
M  END
>  <CHROM.1>
-74.31882112,-32.13360665,153.22945092,-152.78901463,-171.41411927,-65.68593980
-32.24212455,-156.86624080,67.29663343,-101.46501900,-179.57836510,-63.65475492
-174.78940760,13.79404173,-14.00808951,8.66530228,0.28930562,-0.01922718
-0.70065708

>  <Name>
lig.pdb

>  <RI>
0

>  <Rbt.Current_Directory>
/home/afrankz/demos/rdock_decoys_rna/rnas/3wru

>  <Rbt.Executable>
rbdock ($Id: //depot/dev/client3/rdock/2013.1/src/exe/rbdock.cxx#4 $)

>  <Rbt.Library>
libRbt.so (2013.1, Build901 2013/11/27)

>  <Rbt.Parameter_File>
/export/apps/rDock/src/rDock_2013.1_src/data/scripts/dock_solv.prm

>  <Rbt.Receptor>
prm/pocket_docking_2.prm

>  <SCORE>
19.6295

>  <SCORE.INTER>
10.0898

>  <SCORE.INTER.CONST>
1

>  <SCORE.INTER.POLAR>
0

>  <SCORE.INTER.ROT>
13

>  <SCORE.INTER.SOLV>
28.0779

>  <SCORE.INTER.VDW>
-14.8994

>  <SCORE.INTER.norm>
0.219343

>  <SCORE.INTRA>
7.49247

>  <SCORE.INTRA.DIHEDRAL>
-1.5472

>  <SCORE.INTRA.DIHEDRAL.0>
19.7146

>  <SCORE.INTRA.POLAR>
0

>  <SCORE.INTRA.POLAR.0>
0

>  <SCORE.INTRA.REPUL>
0

>  <SCORE.INTRA.REPUL.0>
0

>  <SCORE.INTRA.SOLV>
5.68677

>  <SCORE.INTRA.SOLV.lig_0>
-116.697

>  <SCORE.INTRA.VDW>
5.42268

>  <SCORE.INTRA.VDW.0>
-7.06424

>  <SCORE.INTRA.norm>
0.16288

>  <SCORE.RESTR>
2.04724

>  <SCORE.RESTR.CAVITY>
2.04724

>  <SCORE.RESTR.norm>
0.0445053

>  <SCORE.SYSTEM>
0

>  <SCORE.SYSTEM.CONST>
0

>  <SCORE.SYSTEM.DIHEDRAL>
0

>  <SCORE.SYSTEM.SOLV>
0

>  <SCORE.SYSTEM.norm>
0

>  <SCORE.heavy>
46

>  <SCORE.norm>
0.426728

>  <RMSD>
2.593

$$$$
lig.pdb
 OpenBabel03061811583D
libRbt.so/2013.1/901 2013/11/27
 46 49  0  0  0  0  0  0  0  0999 V2000
   10.9497  -10.6563    4.7642 C   0  0  1  0  0  0  0  0  0  0  0  0
   13.2991  -11.4536    5.2667 C   0  0  1  0  0  0  0  0  0  0  0  0
   13.6324  -12.9302    5.6383 C   0  0  1  0  0  0  0  0  0  0  0  0
   14.9860  -12.9535    6.5160 C   0  0  2  0  0  0  0  0  0  0  0  0
   12.3402  -14.6012    7.0440 C   0  0  2  0  0  0  0  0  0  0  0  0
   11.1124  -14.6482    7.9974 C   0  0  1  0  0  0  0  0  0  0  0  0
   10.9069  -16.1437    7.9983 C   0  0  1  0  0  0  0  0  0  0  0  0
   11.0106  -16.5595    6.4965 C   0  0  1  0  0  0  0  0  0  0  0  0
    9.7225  -16.3755    5.6197 C   0  0  0  0  0  0  0  0  0  0  0  0
   11.9155  -16.6273   10.1967 C   0  0  1  0  0  0  0  0  0  0  0  0
   13.2227  -16.7876   10.9139 C   0  0  1  0  0  0  0  0  0  0  0  0
    9.7702  -11.0990    3.8663 C   0  0  1  0  0  0  0  0  0  0  0  0
   12.9682  -16.6277   12.4547 C   0  0  0  0  0  0  0  0  0  0  0  0
   12.0593  -17.5856   13.0159 C   0  0  0  0  0  0  0  0  0  0  0  0
   10.7720  -17.4367   12.3711 C   0  0  2  0  0  0  0  0  0  0  0  0
    9.7280  -18.4750   12.9429 C   0  0  0  0  0  0  0  0  0  0  0  0
   20.0884  -11.4970    6.9010 C   0  0  2  0  0  0  0  0  0  0  0  0
   18.6263  -12.9058    5.7050 C   0  0  0  0  0  0  0  0  0  0  0  0
   20.8943  -11.3269    8.0108 C   0  0  0  0  0  0  0  0  0  0  0  0
   19.8721  -12.8232    6.7171 C   0  0  1  0  0  0  0  0  0  0  0  0
   10.0341  -10.7107    2.3407 C   0  0  0  0  0  0  0  0  0  0  0  0
   10.2502   -9.1236    2.2576 C   0  0  0  0  0  0  0  0  0  0  0  0
   11.4985   -8.7481    3.1831 C   0  0  1  0  0  0  0  0  0  0  0  0
   11.7798   -7.2407    3.1802 C   0  0  0  0  0  0  0  0  0  0  0  0
   16.1673  -12.3833    5.6159 C   0  0  1  0  0  0  0  0  0  0  0  0
   15.7776  -10.8460    5.2830 C   0  0  0  0  0  0  0  0  0  0  0  0
   14.4396  -10.7982    4.4490 C   0  0  2  0  0  0  0  0  0  0  0  0
   20.6999  -10.8579    5.7576 F   0  0  0  0  0  0  0  0  0  0  0  0
    8.3371  -18.3859   12.2518 N   0  0  0  0  0  0  0  0  0  0  0  0
    9.5711  -12.5842    4.0503 N   0  0  0  0  0  0  0  0  0  0  0  0
   13.8071  -18.0483   10.7639 N   0  0  0  0  0  0  0  0  0  0  0  0
   22.2170  -11.7500    8.2806 N   0  0  0  0  0  0  0  0  0  0  0  0
   10.6587   -6.5144    3.6348 N   0  0  0  0  0  0  0  0  0  0  0  0
   17.4284  -12.3999    6.3786 N   0  0  0  0  0  0  0  0  0  0  0  0
   14.0644   -9.3989    4.1482 N   0  0  0  0  0  0  0  0  0  0  0  0
   12.1317  -11.3964    4.4572 O   0  0  0  0  0  0  0  0  0  0  0  0
   12.4634  -13.4532    6.4212 O   0  0  0  0  0  0  0  0  0  0  0  0
   15.2586  -14.2660    6.8305 O   0  0  0  0  0  0  0  0  0  0  0  0
   11.4969  -14.1239    9.2321 O   0  0  0  0  0  0  0  0  0  0  0  0
   12.1747  -15.7791    6.1776 O   0  0  0  0  0  0  0  0  0  0  0  0
    8.6523  -17.0864    6.2733 O   0  0  0  0  0  0  0  0  0  0  0  0
   11.9960  -16.7951    8.8313 O   0  0  0  0  0  0  0  0  0  0  0  0
   21.0088  -13.5073    6.1460 O   0  0  0  0  0  0  0  0  0  0  0  0
   18.6923  -13.3209    4.5362 O   0  0  0  0  0  0  0  0  0  0  0  0
   10.9126  -17.5924   10.8752 O   0  0  0  0  0  0  0  0  0  0  0  0
   11.2299   -9.1885    4.6128 O   0  0  0  0  0  0  0  0  0  0  0  0
  1 36  1  6  0  0  0
  2 36  1  6  0  0  0
  2  3  1  0  0  0  0
  3 37  1  1  0  0  0
  3  4  1  0  0  0  0
  4 38  1  6  0  0  0
  5 37  1  6  0  0  0
  5  6  1  0  0  0  0
  6  7  1  0  0  0  0
  6 39  1  1  0  0  0
  7 42  1  1  0  0  0
  8  9  1  6  0  0  0
  8  7  1  0  0  0  0
 10 42  1  6  0  0  0
 10 11  1  0  0  0  0
 11 31  1  1  0  0  0
 11 13  1  0  0  0  0
 12 30  1  6  0  0  0
 12  1  1  0  0  0  0
 14 13  1  0  0  0  0
 15 16  1  1  0  0  0
 15 14  1  0  0  0  0
 17 19  1  1  0  0  0
 17 28  1  0  0  0  0
 18 34  1  0  0  0  0
 19 32  1  0  0  0  0
 20 18  1  6  0  0  0
 20 17  1  0  0  0  0
 20 43  1  0  0  0  0
 21 12  1  0  0  0  0
 22 21  1  0  0  0  0
 22 23  1  0  0  0  0
 23 24  1  1  0  0  0
 23 46  1  0  0  0  0
 24 33  1  0  0  0  0
 25 34  1  1  0  0  0
 25  4  1  0  0  0  0
 26 25  1  0  0  0  0
 27 35  1  1  0  0  0
 27 26  1  0  0  0  0
 27  2  1  0  0  0  0
 29 16  1  0  0  0  0
 40  8  1  0  0  0  0
 40  5  1  0  0  0  0
 41  9  1  0  0  0  0
 44 18  2  0  0  0  0
 45 15  1  0  0  0  0
 45 10  1  0  0  0  0
 46  1  1  0  0  0  0
M  END
>  <CHROM.1>
-165.61551382,122.85212242,-173.32126347,167.25491716,72.09163270,-54.97356075
-156.89998651,-178.25778007,62.23854406,-67.15189889,164.36318974,58.90670365
134.74148037,13.52881409,-13.39668859,6.87112348,0.98284169,-0.11426451,-0.76178364

>  <Name>
lig.pdb

>  <RI>
0

>  <Rbt.Current_Directory>
/home/afrankz/demos/rdock_decoys_rna/rnas/3wru

>  <Rbt.Executable>
rbdock ($Id: //depot/dev/client3/rdock/2013.1/src/exe/rbdock.cxx#4 $)

>  <Rbt.Library>
libRbt.so (2013.1, Build901 2013/11/27)

>  <Rbt.Parameter_File>
/export/apps/rDock/src/rDock_2013.1_src/data/scripts/dock_solv.prm

>  <Rbt.Receptor>
prm/pocket_docking_5.prm

>  <SCORE>
-4.27041

>  <SCORE.INTER>
-4.82058

>  <SCORE.INTER.CONST>
1

>  <SCORE.INTER.POLAR>
0

>  <SCORE.INTER.ROT>
13

>  <SCORE.INTER.SOLV>
23.6753

>  <SCORE.INTER.VDW>
-23.3722

>  <SCORE.INTER.norm>
-0.104795

>  <SCORE.INTRA>
0.550176

>  <SCORE.INTRA.DIHEDRAL>
-4.6096

>  <SCORE.INTRA.DIHEDRAL.0>
19.7146

>  <SCORE.INTRA.POLAR>
0

>  <SCORE.INTRA.POLAR.0>
0

>  <SCORE.INTRA.REPUL>
0

>  <SCORE.INTRA.REPUL.0>
0

>  <SCORE.INTRA.SOLV>
1.89615

>  <SCORE.INTRA.SOLV.lig_0>
-116.697

>  <SCORE.INTRA.VDW>
1.9069

>  <SCORE.INTRA.VDW.0>
-7.06424

>  <SCORE.INTRA.norm>
0.0119603

>  <SCORE.RESTR>
0

>  <SCORE.RESTR.CAVITY>
0

>  <SCORE.RESTR.norm>
0

>  <SCORE.SYSTEM>
0

>  <SCORE.SYSTEM.CONST>
0

>  <SCORE.SYSTEM.DIHEDRAL>
0

>  <SCORE.SYSTEM.SOLV>
0

>  <SCORE.SYSTEM.norm>
0

>  <SCORE.heavy>
46

>  <SCORE.norm>
-0.0928349

>  <RMSD>
2.635

$$$$
lig.pdb
 OpenBabel03061811583D
libRbt.so/2013.1/901 2013/11/27
 46 49  0  0  0  0  0  0  0  0999 V2000
   11.8931  -11.4026    3.5769 C   0  0  1  0  0  0  0  0  0  0  0  0
   13.5370  -10.9967    5.4586 C   0  0  1  0  0  0  0  0  0  0  0  0
   13.5867  -12.4056    6.1235 C   0  0  1  0  0  0  0  0  0  0  0  0
   15.0336  -12.6075    6.8082 C   0  0  2  0  0  0  0  0  0  0  0  0
   12.0263  -13.4661    7.8200 C   0  0  2  0  0  0  0  0  0  0  0  0
   12.1182  -13.2735    9.3605 C   0  0  1  0  0  0  0  0  0  0  0  0
   11.0026  -14.2112    9.7543 C   0  0  1  0  0  0  0  0  0  0  0  0
    9.8310  -13.8648    8.7814 C   0  0  1  0  0  0  0  0  0  0  0  0
    8.9375  -12.6315    9.1587 C   0  0  0  0  0  0  0  0  0  0  0  0
   10.6463  -16.6315   10.0689 C   0  0  1  0  0  0  0  0  0  0  0  0
   11.1650  -18.0239    9.8659 C   0  0  1  0  0  0  0  0  0  0  0  0
   10.4942  -10.9069    3.1402 C   0  0  1  0  0  0  0  0  0  0  0  0
   10.1038  -19.0369   10.4245 C   0  0  0  0  0  0  0  0  0  0  0  0
    8.8179  -18.9698    9.7916 C   0  0  0  0  0  0  0  0  0  0  0  0
    8.2682  -17.6467    9.9974 C   0  0  2  0  0  0  0  0  0  0  0  0
    6.8515  -17.5085    9.3126 C   0  0  0  0  0  0  0  0  0  0  0  0
   19.2516  -12.6548    8.8375 C   0  0  2  0  0  0  0  0  0  0  0  0
   18.0120  -11.6793    7.0868 C   0  0  0  0  0  0  0  0  0  0  0  0
   18.8299  -13.9608    8.6745 C   0  0  0  0  0  0  0  0  0  0  0  0
   19.4679  -12.1096    7.6146 C   0  0  1  0  0  0  0  0  0  0  0  0
    9.3661  -11.4121    4.1502 C   0  0  0  0  0  0  0  0  0  0  0  0
    9.4152  -13.0145    4.1957 C   0  0  0  0  0  0  0  0  0  0  0  0
   10.8751  -13.4482    4.6819 C   0  0  1  0  0  0  0  0  0  0  0  0
   11.0270  -14.9727    4.7467 C   0  0  0  0  0  0  0  0  0  0  0  0
   16.1340  -12.5548    5.6605 C   0  0  1  0  0  0  0  0  0  0  0  0
   16.0510  -11.0662    5.0256 C   0  0  0  0  0  0  0  0  0  0  0  0
   14.6324  -10.8366    4.3753 C   0  0  2  0  0  0  0  0  0  0  0  0
   20.4217  -12.6275    9.6859 F   0  0  0  0  0  0  0  0  0  0  0  0
    6.2035  -16.1106    9.5271 N   0  0  0  0  0  0  0  0  0  0  0  0
   10.5387   -9.4010    3.0420 N   0  0  0  0  0  0  0  0  0  0  0  0
   11.3454  -18.3778    8.5258 N   0  0  0  0  0  0  0  0  0  0  0  0
   18.4162  -14.9348    9.6134 N   0  0  0  0  0  0  0  0  0  0  0  0
   10.9372  -15.5467    3.4608 N   0  0  0  0  0  0  0  0  0  0  0  0
   17.4734  -12.7491    6.2441 N   0  0  0  0  0  0  0  0  0  0  0  0
   14.5376   -9.4758    3.8021 N   0  0  0  0  0  0  0  0  0  0  0  0
   12.2882  -10.7978    4.8087 O   0  0  0  0  0  0  0  0  0  0  0  0
   12.4879  -12.4400    7.1455 O   0  0  0  0  0  0  0  0  0  0  0  0
   15.0522  -13.8569    7.3869 O   0  0  0  0  0  0  0  0  0  0  0  0
   13.3844  -13.6853    9.7783 O   0  0  0  0  0  0  0  0  0  0  0  0
   10.6142  -13.8019    7.5779 O   0  0  0  0  0  0  0  0  0  0  0  0
    8.4551  -12.8444   10.5004 O   0  0  0  0  0  0  0  0  0  0  0  0
   11.4697  -15.6441    9.5730 O   0  0  0  0  0  0  0  0  0  0  0  0
   20.3314  -10.9525    7.6565 O   0  0  0  0  0  0  0  0  0  0  0  0
   17.4443  -10.6122    7.3722 O   0  0  0  0  0  0  0  0  0  0  0  0
    9.2178  -16.5958    9.4723 O   0  0  0  0  0  0  0  0  0  0  0  0
   11.9206  -12.8969    3.7264 O   0  0  0  0  0  0  0  0  0  0  0  0
  1 36  1  1  0  0  0
  2 36  1  6  0  0  0
  2  3  1  0  0  0  0
  3 37  1  1  0  0  0
  3  4  1  0  0  0  0
  4 38  1  6  0  0  0
  5 37  1  6  0  0  0
  5  6  1  0  0  0  0
  6  7  1  0  0  0  0
  6 39  1  1  0  0  0
  7 42  1  6  0  0  0
  8  9  1  1  0  0  0
  8  7  1  0  0  0  0
 10 42  1  6  0  0  0
 10 11  1  0  0  0  0
 11 31  1  6  0  0  0
 11 13  1  0  0  0  0
 12 30  1  1  0  0  0
 12  1  1  0  0  0  0
 14 13  1  0  0  0  0
 15 16  1  6  0  0  0
 15 14  1  0  0  0  0
 17 19  1  6  0  0  0
 17 28  1  0  0  0  0
 18 34  1  0  0  0  0
 19 32  1  0  0  0  0
 20 18  1  1  0  0  0
 20 17  1  0  0  0  0
 20 43  1  0  0  0  0
 21 12  1  0  0  0  0
 22 21  1  0  0  0  0
 22 23  1  0  0  0  0
 23 24  1  6  0  0  0
 23 46  1  0  0  0  0
 24 33  1  0  0  0  0
 25 34  1  1  0  0  0
 25  4  1  0  0  0  0
 26 25  1  0  0  0  0
 27 35  1  1  0  0  0
 27 26  1  0  0  0  0
 27  2  1  0  0  0  0
 29 16  1  0  0  0  0
 40  8  1  0  0  0  0
 40  5  1  0  0  0  0
 41  9  1  0  0  0  0
 44 18  2  0  0  0  0
 45 15  1  0  0  0  0
 45 10  1  0  0  0  0
 46  1  1  0  0  0  0
M  END
>  <CHROM.1>
-177.44148068,-74.21174839,169.68116190,122.27804002,170.85678732,-54.35891647
-179.69733137,178.91935765,-176.59944333,-95.14568604,80.83155133,65.49636712
-69.30449661,12.86790477,-13.56782621,7.28484128,0.43709302,-0.22752850,-0.85086973

>  <Name>
lig.pdb

>  <RI>
0

>  <Rbt.Current_Directory>
/home/afrankz/demos/rdock_decoys_rna/rnas/3wru

>  <Rbt.Executable>
rbdock ($Id: //depot/dev/client3/rdock/2013.1/src/exe/rbdock.cxx#4 $)

>  <Rbt.Library>
libRbt.so (2013.1, Build901 2013/11/27)

>  <Rbt.Parameter_File>
/export/apps/rDock/src/rDock_2013.1_src/data/scripts/dock_solv.prm

>  <Rbt.Receptor>
prm/pocket_docking_3.prm

>  <SCORE>
3.23227

>  <SCORE.INTER>
5.30456

>  <SCORE.INTER.CONST>
1

>  <SCORE.INTER.POLAR>
0

>  <SCORE.INTER.ROT>
13

>  <SCORE.INTER.SOLV>
22.0781

>  <SCORE.INTER.VDW>
-16.0897

>  <SCORE.INTER.norm>
0.115316

>  <SCORE.INTRA>
-2.07229

>  <SCORE.INTRA.DIHEDRAL>
-6.95283

>  <SCORE.INTRA.DIHEDRAL.0>
19.7146

>  <SCORE.INTRA.POLAR>
0

>  <SCORE.INTRA.POLAR.0>
0

>  <SCORE.INTRA.REPUL>
0

>  <SCORE.INTRA.REPUL.0>
0

>  <SCORE.INTRA.SOLV>
0.087047

>  <SCORE.INTRA.SOLV.lig_0>
-116.697

>  <SCORE.INTRA.VDW>
1.3606

>  <SCORE.INTRA.VDW.0>
-7.06424

>  <SCORE.INTRA.norm>
-0.0450497

>  <SCORE.RESTR>
0

>  <SCORE.RESTR.CAVITY>
0

>  <SCORE.RESTR.norm>
0

>  <SCORE.SYSTEM>
0

>  <SCORE.SYSTEM.CONST>
0

>  <SCORE.SYSTEM.DIHEDRAL>
0

>  <SCORE.SYSTEM.SOLV>
0

>  <SCORE.SYSTEM.norm>
0

>  <SCORE.heavy>
46

>  <SCORE.norm>
0.0702667

>  <RMSD>
2.673

$$$$
lig.pdb
 OpenBabel03061811583D
libRbt.so/2013.1/901 2013/11/27
 46 49  0  0  0  0  0  0  0  0999 V2000
   12.0596  -10.3069    4.8167 C   0  0  1  0  0  0  0  0  0  0  0  0
   13.8379  -11.8806    5.6935 C   0  0  1  0  0  0  0  0  0  0  0  0
   13.5664  -13.3502    6.1365 C   0  0  1  0  0  0  0  0  0  0  0  0
   14.6966  -13.7907    7.2002 C   0  0  2  0  0  0  0  0  0  0  0  0
   11.4426  -14.4031    7.0414 C   0  0  2  0  0  0  0  0  0  0  0  0
   10.0656  -14.0018    7.6428 C   0  0  1  0  0  0  0  0  0  0  0  0
    9.2964  -15.2381    7.2442 C   0  0  1  0  0  0  0  0  0  0  0  0
    9.6909  -15.4878    5.7539 C   0  0  1  0  0  0  0  0  0  0  0  0
    8.9253  -14.6525    4.6686 C   0  0  0  0  0  0  0  0  0  0  0  0
    9.0004  -17.5640    8.0097 C   0  0  1  0  0  0  0  0  0  0  0  0
    7.5342  -17.4164    8.2878 C   0  0  1  0  0  0  0  0  0  0  0  0
   10.8285  -10.5709    5.7156 C   0  0  1  0  0  0  0  0  0  0  0  0
    6.8599  -18.8290    8.1679 C   0  0  0  0  0  0  0  0  0  0  0  0
    7.3646  -19.8148    9.0800 C   0  0  0  0  0  0  0  0  0  0  0  0
    8.7745  -20.0110    8.8174 C   0  0  2  0  0  0  0  0  0  0  0  0
    9.3905  -21.0829    9.8005 C   0  0  0  0  0  0  0  0  0  0  0  0
   19.8112  -13.8416    8.5568 C   0  0  2  0  0  0  0  0  0  0  0  0
   18.4208  -14.6587    6.8387 C   0  0  0  0  0  0  0  0  0  0  0  0
   20.6115  -14.0755    9.6590 C   0  0  0  0  0  0  0  0  0  0  0  0
   19.4259  -15.0329    8.0358 C   0  0  1  0  0  0  0  0  0  0  0  0
    9.8471  -11.6361    5.0450 C   0  0  0  0  0  0  0  0  0  0  0  0
    9.3973  -11.0713    3.6129 C   0  0  0  0  0  0  0  0  0  0  0  0
   10.7150  -10.8530    2.7344 C   0  0  1  0  0  0  0  0  0  0  0  0
   10.3890  -10.2995    1.3420 C   0  0  0  0  0  0  0  0  0  0  0  0
   16.1086  -13.7393    6.4693 C   0  0  1  0  0  0  0  0  0  0  0  0
   16.3450  -12.1905    6.0555 C   0  0  0  0  0  0  0  0  0  0  0  0
   15.2324  -11.7296    5.0367 C   0  0  2  0  0  0  0  0  0  0  0  0
   20.5228  -13.0120    7.6108 F   0  0  0  0  0  0  0  0  0  0  0  0
    9.1815  -20.7269   11.3005 N   0  0  0  0  0  0  0  0  0  0  0  0
   11.3229  -11.0236    7.0684 N   0  0  0  0  0  0  0  0  0  0  0  0
    7.2384  -16.9733    9.5799 N   0  0  0  0  0  0  0  0  0  0  0  0
   21.8575  -14.7329    9.7883 N   0  0  0  0  0  0  0  0  0  0  0  0
    9.9090   -8.9750    1.4221 N   0  0  0  0  0  0  0  0  0  0  0  0
   17.1705  -14.1489    7.4058 N   0  0  0  0  0  0  0  0  0  0  0  0
   15.4283  -10.3124    4.6593 N   0  0  0  0  0  0  0  0  0  0  0  0
   12.8832  -11.4696    4.7234 O   0  0  0  0  0  0  0  0  0  0  0  0
   12.1977  -13.3700    6.7523 O   0  0  0  0  0  0  0  0  0  0  0  0
   14.4354  -15.0898    7.5748 O   0  0  0  0  0  0  0  0  0  0  0  0
   10.2191  -13.8442    9.0207 O   0  0  0  0  0  0  0  0  0  0  0  0
   11.1046  -15.2794    5.9087 O   0  0  0  0  0  0  0  0  0  0  0  0
    9.5138  -14.9661    3.3905 O   0  0  0  0  0  0  0  0  0  0  0  0
    9.7190  -16.3947    8.1319 O   0  0  0  0  0  0  0  0  0  0  0  0
   20.5302  -15.8074    7.5191 O   0  0  0  0  0  0  0  0  0  0  0  0
   18.6863  -14.7754    5.6311 O   0  0  0  0  0  0  0  0  0  0  0  0
    9.5166  -18.6999    8.9268 O   0  0  0  0  0  0  0  0  0  0  0  0
   11.6466   -9.8793    3.4374 O   0  0  0  0  0  0  0  0  0  0  0  0
  1 36  1  6  0  0  0
  2 36  1  6  0  0  0
  2  3  1  0  0  0  0
  3 37  1  1  0  0  0
  3  4  1  0  0  0  0
  4 38  1  6  0  0  0
  5 37  1  6  0  0  0
  5  6  1  0  0  0  0
  6  7  1  0  0  0  0
  6 39  1  1  0  0  0
  7 42  1  1  0  0  0
  8  9  1  6  0  0  0
  8  7  1  0  0  0  0
 10 42  1  1  0  0  0
 10 11  1  0  0  0  0
 11 31  1  1  0  0  0
 11 13  1  0  0  0  0
 12 30  1  1  0  0  0
 12  1  1  0  0  0  0
 14 13  1  0  0  0  0
 15 16  1  1  0  0  0
 15 14  1  0  0  0  0
 17 19  1  1  0  0  0
 17 28  1  0  0  0  0
 18 34  1  0  0  0  0
 19 32  1  0  0  0  0
 20 18  1  6  0  0  0
 20 17  1  0  0  0  0
 20 43  1  0  0  0  0
 21 12  1  0  0  0  0
 22 21  1  0  0  0  0
 22 23  1  0  0  0  0
 23 24  1  6  0  0  0
 23 46  1  0  0  0  0
 24 33  1  0  0  0  0
 25 34  1  1  0  0  0
 25  4  1  0  0  0  0
 26 25  1  0  0  0  0
 27 35  1  1  0  0  0
 27 26  1  0  0  0  0
 27  2  1  0  0  0  0
 29 16  1  0  0  0  0
 40  8  1  0  0  0  0
 40  5  1  0  0  0  0
 41  9  1  0  0  0  0
 44 18  2  0  0  0  0
 45 15  1  0  0  0  0
 45 10  1  0  0  0  0
 46  1  1  0  0  0  0
M  END
>  <CHROM.1>
-81.05710737,125.75008680,166.10989522,-178.57563078,172.54071864,175.74824930
-58.71756251,-56.19394294,61.74925069,-71.03001217,175.91791219,68.48496806
157.05180148,12.71819668,-14.28507539,6.68032912,0.30476759,-0.16174791,-0.63036073

>  <Name>
lig.pdb

>  <RI>
0

>  <Rbt.Current_Directory>
/home/afrankz/demos/rdock_decoys_rna/rnas/3wru

>  <Rbt.Executable>
rbdock ($Id: //depot/dev/client3/rdock/2013.1/src/exe/rbdock.cxx#4 $)

>  <Rbt.Library>
libRbt.so (2013.1, Build901 2013/11/27)

>  <Rbt.Parameter_File>
/export/apps/rDock/src/rDock_2013.1_src/data/scripts/dock_solv.prm

>  <Rbt.Receptor>
prm/pocket_docking_3.prm

>  <SCORE>
5.23345

>  <SCORE.INTER>
5.65934

>  <SCORE.INTER.CONST>
1

>  <SCORE.INTER.POLAR>
0

>  <SCORE.INTER.ROT>
13

>  <SCORE.INTER.SOLV>
23.1627

>  <SCORE.INTER.VDW>
-16.2147

>  <SCORE.INTER.norm>
0.123029

>  <SCORE.INTRA>
-0.435608

>  <SCORE.INTRA.DIHEDRAL>
-7.50316

>  <SCORE.INTRA.DIHEDRAL.0>
19.7146

>  <SCORE.INTRA.POLAR>
0

>  <SCORE.INTRA.POLAR.0>
0

>  <SCORE.INTRA.REPUL>
0

>  <SCORE.INTRA.REPUL.0>
0

>  <SCORE.INTRA.SOLV>
4.24271

>  <SCORE.INTRA.SOLV.lig_0>
-116.697

>  <SCORE.INTRA.VDW>
1.19462

>  <SCORE.INTRA.VDW.0>
-7.06424

>  <SCORE.INTRA.norm>
-0.00946973

>  <SCORE.RESTR>
0.00972552

>  <SCORE.RESTR.CAVITY>
0.00972552

>  <SCORE.RESTR.norm>
0.000211424

>  <SCORE.SYSTEM>
0

>  <SCORE.SYSTEM.CONST>
0

>  <SCORE.SYSTEM.DIHEDRAL>
0

>  <SCORE.SYSTEM.SOLV>
0

>  <SCORE.SYSTEM.norm>
0

>  <SCORE.heavy>
46

>  <SCORE.norm>
0.113771

>  <RMSD>
2.700

$$$$
lig.pdb
 OpenBabel03061811583D
libRbt.so/2013.1/901 2013/11/27
 46 49  0  0  0  0  0  0  0  0999 V2000
   12.3643  -12.0645    4.8751 C   0  0  1  0  0  0  0  0  0  0  0  0
   14.2812  -12.4192    6.4899 C   0  0  1  0  0  0  0  0  0  0  0  0
   14.5582  -13.3039    7.7430 C   0  0  1  0  0  0  0  0  0  0  0  0
   15.9537  -12.8424    8.4081 C   0  0  2  0  0  0  0  0  0  0  0  0
   12.4086  -13.9000    8.9521 C   0  0  2  0  0  0  0  0  0  0  0  0
   12.5729  -14.6420   10.3090 C   0  0  1  0  0  0  0  0  0  0  0  0
   11.1111  -14.9011   10.5825 C   0  0  1  0  0  0  0  0  0  0  0  0
   10.4031  -13.5432   10.2761 C   0  0  1  0  0  0  0  0  0  0  0  0
   10.4304  -12.4582   11.4091 C   0  0  0  0  0  0  0  0  0  0  0  0
    9.2616  -16.2316    9.6376 C   0  0  1  0  0  0  0  0  0  0  0  0
    8.7388  -16.9582   10.8408 C   0  0  1  0  0  0  0  0  0  0  0  0
   11.8231  -10.7489    5.4829 C   0  0  1  0  0  0  0  0  0  0  0  0
    7.1991  -17.1965   10.6486 C   0  0  0  0  0  0  0  0  0  0  0  0
    6.8517  -17.9811    9.4987 C   0  0  0  0  0  0  0  0  0  0  0  0
    7.3103  -17.2920    8.3112 C   0  0  2  0  0  0  0  0  0  0  0  0
    6.9632  -18.1150    7.0085 C   0  0  0  0  0  0  0  0  0  0  0  0
   20.6187  -12.8161    9.3890 C   0  0  2  0  0  0  0  0  0  0  0  0
   19.6247  -13.2180    7.2906 C   0  0  0  0  0  0  0  0  0  0  0  0
   21.6309  -13.5486    9.9799 C   0  0  0  0  0  0  0  0  0  0  0  0
   20.9085  -12.6516    8.0744 C   0  0  1  0  0  0  0  0  0  0  0  0
   10.6995  -11.0431    6.5778 C   0  0  0  0  0  0  0  0  0  0  0  0
    9.5212  -11.8745    5.8759 C   0  0  0  0  0  0  0  0  0  0  0  0
   10.1490  -13.2278    5.3012 C   0  0  1  0  0  0  0  0  0  0  0  0
    9.0970  -14.0921    4.5958 C   0  0  0  0  0  0  0  0  0  0  0  0
   17.1128  -13.0960    7.3484 C   0  0  1  0  0  0  0  0  0  0  0  0
   16.7849  -12.1363    6.0845 C   0  0  0  0  0  0  0  0  0  0  0  0
   15.4084  -12.5517    5.4359 C   0  0  2  0  0  0  0  0  0  0  0  0
   20.4528  -11.5653   10.0943 F   0  0  0  0  0  0  0  0  0  0  0  0
    5.4790  -18.5782    6.9563 N   0  0  0  0  0  0  0  0  0  0  0  0
   12.9899   -9.9808    6.0556 N   0  0  0  0  0  0  0  0  0  0  0  0
    9.2900  -18.2292   11.0262 N   0  0  0  0  0  0  0  0  0  0  0  0
   22.1278  -14.8453    9.7102 N   0  0  0  0  0  0  0  0  0  0  0  0
    8.6637  -13.4867    3.3972 N   0  0  0  0  0  0  0  0  0  0  0  0
   18.4105  -12.6987    7.9234 N   0  0  0  0  0  0  0  0  0  0  0  0
   15.0896  -11.6751    4.2873 N   0  0  0  0  0  0  0  0  0  0  0  0
   13.0767  -12.8240    5.8523 O   0  0  0  0  0  0  0  0  0  0  0  0
   13.4075  -13.0931    8.6835 O   0  0  0  0  0  0  0  0  0  0  0  0
   16.1754  -13.6376    9.5103 O   0  0  0  0  0  0  0  0  0  0  0  0
   13.3259  -15.7959   10.0884 O   0  0  0  0  0  0  0  0  0  0  0  0
   11.0848  -13.2637    9.0420 O   0  0  0  0  0  0  0  0  0  0  0  0
    9.6813  -11.3217   10.9342 O   0  0  0  0  0  0  0  0  0  0  0  0
   10.6203  -16.0036    9.6616 O   0  0  0  0  0  0  0  0  0  0  0  0
   21.1287  -11.2707    7.7127 O   0  0  0  0  0  0  0  0  0  0  0  0
   19.6752  -13.9635    6.2985 O   0  0  0  0  0  0  0  0  0  0  0  0
    8.7957  -17.0311    8.3960 O   0  0  0  0  0  0  0  0  0  0  0  0
   11.2533  -12.9019    4.3090 O   0  0  0  0  0  0  0  0  0  0  0  0
  1 36  1  1  0  0  0
  2 36  1  6  0  0  0
  2  3  1  0  0  0  0
  3 37  1  1  0  0  0
  3  4  1  0  0  0  0
  4 38  1  1  0  0  0
  5 37  1  1  0  0  0
  5  6  1  0  0  0  0
  6  7  1  0  0  0  0
  6 39  1  6  0  0  0
  7 42  1  6  0  0  0
  8  9  1  1  0  0  0
  8  7  1  0  0  0  0
 10 42  1  1  0  0  0
 10 11  1  0  0  0  0
 11 31  1  6  0  0  0
 11 13  1  0  0  0  0
 12 30  1  1  0  0  0
 12  1  1  0  0  0  0
 14 13  1  0  0  0  0
 15 16  1  6  0  0  0
 15 14  1  0  0  0  0
 17 19  1  1  0  0  0
 17 28  1  0  0  0  0
 18 34  1  0  0  0  0
 19 32  1  0  0  0  0
 20 18  1  6  0  0  0
 20 17  1  0  0  0  0
 20 43  1  0  0  0  0
 21 12  1  0  0  0  0
 22 21  1  0  0  0  0
 22 23  1  0  0  0  0
 23 24  1  6  0  0  0
 23 46  1  0  0  0  0
 24 33  1  0  0  0  0
 25 34  1  1  0  0  0
 25  4  1  0  0  0  0
 26 25  1  0  0  0  0
 27 35  1  6  0  0  0
 27 26  1  0  0  0  0
 27  2  1  0  0  0  0
 29 16  1  0  0  0  0
 40  8  1  0  0  0  0
 40  5  1  0  0  0  0
 41  9  1  0  0  0  0
 44 18  2  0  0  0  0
 45 15  1  0  0  0  0
 45 10  1  0  0  0  0
 46  1  1  0  0  0  0
M  END
>  <CHROM.1>
-64.42753326,165.03698692,105.39210642,102.36417696,-170.66882478,-177.77173656
-75.31773124,49.51989790,-59.35815337,45.68481978,124.90550933,68.83775148
161.75990296,13.18593859,-13.83247878,7.98848575,2.96396806,0.22347712,2.19219213

>  <Name>
lig.pdb

>  <RI>
0

>  <Rbt.Current_Directory>
/home/afrankz/demos/rdock_decoys_rna/rnas/3wru

>  <Rbt.Executable>
rbdock ($Id: //depot/dev/client3/rdock/2013.1/src/exe/rbdock.cxx#4 $)

>  <Rbt.Library>
libRbt.so (2013.1, Build901 2013/11/27)

>  <Rbt.Parameter_File>
/export/apps/rDock/src/rDock_2013.1_src/data/scripts/dock_solv.prm

>  <Rbt.Receptor>
prm/pocket_docking_2.prm

>  <SCORE>
17.0999

>  <SCORE.INTER>
9.77665

>  <SCORE.INTER.CONST>
1

>  <SCORE.INTER.POLAR>
0

>  <SCORE.INTER.ROT>
13

>  <SCORE.INTER.SOLV>
24.3742

>  <SCORE.INTER.VDW>
-13.8736

>  <SCORE.INTER.norm>
0.212536

>  <SCORE.INTRA>
4.24928

>  <SCORE.INTRA.DIHEDRAL>
1.69571

>  <SCORE.INTRA.DIHEDRAL.0>
19.7146

>  <SCORE.INTRA.POLAR>
0

>  <SCORE.INTRA.POLAR.0>
0

>  <SCORE.INTRA.REPUL>
0

>  <SCORE.INTRA.REPUL.0>
0

>  <SCORE.INTRA.SOLV>
2.38915

>  <SCORE.INTRA.SOLV.lig_0>
-116.697

>  <SCORE.INTRA.VDW>
2.20685

>  <SCORE.INTRA.VDW.0>
-7.06424

>  <SCORE.INTRA.norm>
0.0923756

>  <SCORE.RESTR>
3.07396

>  <SCORE.RESTR.CAVITY>
3.07396

>  <SCORE.RESTR.norm>
0.0668251

>  <SCORE.SYSTEM>
0

>  <SCORE.SYSTEM.CONST>
0

>  <SCORE.SYSTEM.DIHEDRAL>
0

>  <SCORE.SYSTEM.SOLV>
0

>  <SCORE.SYSTEM.norm>
0

>  <SCORE.heavy>
46

>  <SCORE.norm>
0.371737

>  <RMSD>
2.718

$$$$
lig.pdb
 OpenBabel03061811583D
libRbt.so/2013.1/901 2013/11/27
 46 49  0  0  0  0  0  0  0  0999 V2000
   11.0221  -10.7225    5.1103 C   0  0  1  0  0  0  0  0  0  0  0  0
   13.4629  -10.9659    5.7355 C   0  0  1  0  0  0  0  0  0  0  0  0
   13.4069  -12.1098    6.7929 C   0  0  1  0  0  0  0  0  0  0  0  0
   14.6801  -11.9744    7.7745 C   0  0  2  0  0  0  0  0  0  0  0  0
   11.5518  -12.7625    8.3961 C   0  0  2  0  0  0  0  0  0  0  0  0
   10.4818  -12.0708    9.2878 C   0  0  1  0  0  0  0  0  0  0  0  0
    9.6558  -13.2933    9.6077 C   0  0  1  0  0  0  0  0  0  0  0  0
    9.4813  -14.0237    8.2383 C   0  0  1  0  0  0  0  0  0  0  0  0
    8.3463  -13.4952    7.2927 C   0  0  0  0  0  0  0  0  0  0  0  0
   10.4808  -13.6863   11.8987 C   0  0  1  0  0  0  0  0  0  0  0  0
   11.4466  -14.4325   12.7700 C   0  0  1  0  0  0  0  0  0  0  0  0
   10.0944  -11.0853    3.9267 C   0  0  1  0  0  0  0  0  0  0  0  0
   11.3797  -13.8292   14.2178 C   0  0  0  0  0  0  0  0  0  0  0  0
   10.0925  -13.9153   14.8455 C   0  0  0  0  0  0  0  0  0  0  0  0
    9.1376  -13.1743   14.0492 C   0  0  2  0  0  0  0  0  0  0  0  0
    7.6943  -13.2406   14.6876 C   0  0  0  0  0  0  0  0  0  0  0  0
   20.7961  -11.8445    7.5666 C   0  0  2  0  0  0  0  0  0  0  0  0
   18.5024  -12.1657    7.1321 C   0  0  0  0  0  0  0  0  0  0  0  0
   21.7628  -11.3641    8.4295 C   0  0  0  0  0  0  0  0  0  0  0  0
   19.6412  -12.0168    8.2564 C   0  0  1  0  0  0  0  0  0  0  0  0
   10.4231  -10.1914    2.6458 C   0  0  0  0  0  0  0  0  0  0  0  0
   10.2518   -8.6496    3.0532 C   0  0  0  0  0  0  0  0  0  0  0  0
   11.2593   -8.3441    4.2564 C   0  0  1  0  0  0  0  0  0  0  0  0
   11.1615   -6.8885    4.7288 C   0  0  0  0  0  0  0  0  0  0  0  0
   15.9974  -12.1609    6.9023 C   0  0  1  0  0  0  0  0  0  0  0  0
   16.0125  -10.9353    5.8422 C   0  0  0  0  0  0  0  0  0  0  0  0
   14.7589  -11.0318    4.8898 C   0  0  2  0  0  0  0  0  0  0  0  0
   21.2688  -13.0581    6.9394 F   0  0  0  0  0  0  0  0  0  0  0  0
    7.1312  -14.6881   14.7748 N   0  0  0  0  0  0  0  0  0  0  0  0
   10.2458  -12.5610    3.6461 N   0  0  0  0  0  0  0  0  0  0  0  0
   11.1506  -15.7902   12.9205 N   0  0  0  0  0  0  0  0  0  0  0  0
   23.1221  -11.0320    8.2209 N   0  0  0  0  0  0  0  0  0  0  0  0
   11.4802   -5.9939    3.6851 N   0  0  0  0  0  0  0  0  0  0  0  0
   17.1870  -12.0571    7.7664 N   0  0  0  0  0  0  0  0  0  0  0  0
   14.7526   -9.9111    3.9238 N   0  0  0  0  0  0  0  0  0  0  0  0
   12.3759  -11.0766    4.8258 O   0  0  0  0  0  0  0  0  0  0  0  0
   12.1175  -11.9423    7.5426 O   0  0  0  0  0  0  0  0  0  0  0  0
   14.6080  -12.9941    8.6970 O   0  0  0  0  0  0  0  0  0  0  0  0
   11.1269  -11.5126   10.3921 O   0  0  0  0  0  0  0  0  0  0  0  0
   10.8461  -13.9092    7.8025 O   0  0  0  0  0  0  0  0  0  0  0  0
    7.1008  -13.6120    8.0089 O   0  0  0  0  0  0  0  0  0  0  0  0
   10.4085  -14.1553   10.6050 O   0  0  0  0  0  0  0  0  0  0  0  0
   19.6537  -13.1931    9.0945 O   0  0  0  0  0  0  0  0  0  0  0  0
   18.7230  -12.3301    5.9209 O   0  0  0  0  0  0  0  0  0  0  0  0
    9.1172  -13.6973   12.6322 O   0  0  0  0  0  0  0  0  0  0  0  0
   10.9494   -9.2570    5.4314 O   0  0  0  0  0  0  0  0  0  0  0  0
  1 36  1  6  0  0  0
  2 36  1  6  0  0  0
  2  3  1  0  0  0  0
  3 37  1  1  0  0  0
  3  4  1  0  0  0  0
  4 38  1  1  0  0  0
  5 37  1  6  0  0  0
  5  6  1  0  0  0  0
  6  7  1  0  0  0  0
  6 39  1  1  0  0  0
  7 42  1  1  0  0  0
  8  9  1  6  0  0  0
  8  7  1  0  0  0  0
 10 42  1  6  0  0  0
 10 11  1  0  0  0  0
 11 31  1  1  0  0  0
 11 13  1  0  0  0  0
 12 30  1  6  0  0  0
 12  1  1  0  0  0  0
 14 13  1  0  0  0  0
 15 16  1  1  0  0  0
 15 14  1  0  0  0  0
 17 19  1  1  0  0  0
 17 28  1  0  0  0  0
 18 34  1  0  0  0  0
 19 32  1  0  0  0  0
 20 18  1  6  0  0  0
 20 17  1  0  0  0  0
 20 43  1  0  0  0  0
 21 12  1  0  0  0  0
 22 21  1  0  0  0  0
 22 23  1  0  0  0  0
 23 24  1  1  0  0  0
 23 46  1  0  0  0  0
 24 33  1  0  0  0  0
 25 34  1  1  0  0  0
 25  4  1  0  0  0  0
 26 25  1  0  0  0  0
 27 35  1  6  0  0  0
 27 26  1  0  0  0  0
 27  2  1  0  0  0  0
 29 16  1  0  0  0  0
 40  8  1  0  0  0  0
 40  5  1  0  0  0  0
 41  9  1  0  0  0  0
 44 18  2  0  0  0  0
 45 15  1  0  0  0  0
 45 10  1  0  0  0  0
 46  1  1  0  0  0  0
M  END
>  <CHROM.1>
-175.30661040,75.66955320,169.89221690,161.85574225,72.56915016,-59.21287113
-168.85274259,-61.53120440,179.41513577,-167.48225883,164.50786280,-60.42843600
-178.31218493,12.99790813,-12.04677417,8.07240369,2.61853640,-0.03374342
2.03818338

>  <Name>
lig.pdb

>  <RI>
0

>  <Rbt.Current_Directory>
/home/afrankz/demos/rdock_decoys_rna/rnas/3wru

>  <Rbt.Executable>
rbdock ($Id: //depot/dev/client3/rdock/2013.1/src/exe/rbdock.cxx#4 $)

>  <Rbt.Library>
libRbt.so (2013.1, Build901 2013/11/27)

>  <Rbt.Parameter_File>
/export/apps/rDock/src/rDock_2013.1_src/data/scripts/dock_solv.prm

>  <Rbt.Receptor>
prm/pocket_docking_7.prm

>  <SCORE>
-15.2811

>  <SCORE.INTER>
-10.0426

>  <SCORE.INTER.CONST>
1

>  <SCORE.INTER.POLAR>
0

>  <SCORE.INTER.ROT>
13

>  <SCORE.INTER.SOLV>
25.1518

>  <SCORE.INTER.VDW>
-27.3457

>  <SCORE.INTER.norm>
-0.218318

>  <SCORE.INTRA>
-5.23845

>  <SCORE.INTRA.DIHEDRAL>
-13.1652

>  <SCORE.INTRA.DIHEDRAL.0>
19.7146

>  <SCORE.INTRA.POLAR>
0

>  <SCORE.INTRA.POLAR.0>
0

>  <SCORE.INTRA.REPUL>
0

>  <SCORE.INTRA.REPUL.0>
0

>  <SCORE.INTRA.SOLV>
-2.58288

>  <SCORE.INTRA.SOLV.lig_0>
-116.697

>  <SCORE.INTRA.VDW>
2.63558

>  <SCORE.INTRA.VDW.0>
-7.06424

>  <SCORE.INTRA.norm>
-0.113879

>  <SCORE.RESTR>
0

>  <SCORE.RESTR.CAVITY>
0

>  <SCORE.RESTR.norm>
0

>  <SCORE.SYSTEM>
0

>  <SCORE.SYSTEM.CONST>
0

>  <SCORE.SYSTEM.DIHEDRAL>
0

>  <SCORE.SYSTEM.SOLV>
0

>  <SCORE.SYSTEM.norm>
0

>  <SCORE.heavy>
46

>  <SCORE.norm>
-0.332197

>  <RMSD>
2.719

$$$$
lig.pdb
 OpenBabel03061811583D
libRbt.so/2013.1/901 2013/11/27
 46 49  0  0  0  0  0  0  0  0999 V2000
   10.8602  -11.0859    5.3895 C   0  0  1  0  0  0  0  0  0  0  0  0
   13.0379  -11.9507    6.3473 C   0  0  1  0  0  0  0  0  0  0  0  0
   13.3820  -13.3974    6.8146 C   0  0  1  0  0  0  0  0  0  0  0  0
   14.6159  -13.3300    7.8518 C   0  0  2  0  0  0  0  0  0  0  0  0
   11.9822  -15.0959    8.0770 C   0  0  2  0  0  0  0  0  0  0  0  0
   10.5698  -15.2539    8.7086 C   0  0  1  0  0  0  0  0  0  0  0  0
   10.5079  -16.7622    8.7047 C   0  0  1  0  0  0  0  0  0  0  0  0
   11.0094  -17.1764    7.2848 C   0  0  1  0  0  0  0  0  0  0  0  0
    9.9606  -17.1229    6.1192 C   0  0  0  0  0  0  0  0  0  0  0  0
   10.8124  -17.7005   10.9653 C   0  0  1  0  0  0  0  0  0  0  0  0
    9.9522  -18.9210   10.8269 C   0  0  1  0  0  0  0  0  0  0  0  0
    9.5452  -11.8489    5.6756 C   0  0  1  0  0  0  0  0  0  0  0  0
    9.2875  -19.2220   12.2169 C   0  0  0  0  0  0  0  0  0  0  0  0
    8.4508  -18.1718   12.7225 C   0  0  0  0  0  0  0  0  0  0  0  0
    9.2566  -16.9831   12.9034 C   0  0  2  0  0  0  0  0  0  0  0  0
    8.3851  -15.7853   13.4516 C   0  0  0  0  0  0  0  0  0  0  0  0
   20.3691  -11.4467    8.1741 C   0  0  2  0  0  0  0  0  0  0  0  0
   18.3436  -12.3784    7.4114 C   0  0  0  0  0  0  0  0  0  0  0  0
   21.1197  -11.0527    9.2657 C   0  0  0  0  0  0  0  0  0  0  0  0
   19.4432  -12.3492    8.5832 C   0  0  1  0  0  0  0  0  0  0  0  0
    9.1968  -12.8561    4.4873 C   0  0  0  0  0  0  0  0  0  0  0  0
    9.0815  -12.0093    3.1301 C   0  0  0  0  0  0  0  0  0  0  0  0
   10.4816  -11.2768    2.8870 C   0  0  1  0  0  0  0  0  0  0  0  0
   10.4683  -10.4262    1.6112 C   0  0  0  0  0  0  0  0  0  0  0  0
   15.8758  -12.7381    7.0817 C   0  0  1  0  0  0  0  0  0  0  0  0
   15.4687  -11.2320    6.6435 C   0  0  0  0  0  0  0  0  0  0  0  0
   14.2438  -11.2728    5.6506 C   0  0  2  0  0  0  0  0  0  0  0  0
   21.2456  -11.9596    7.1453 F   0  0  0  0  0  0  0  0  0  0  0  0
    7.1909  -15.4238   12.5224 N   0  0  0  0  0  0  0  0  0  0  0  0
    9.6923  -12.5587    7.0000 N   0  0  0  0  0  0  0  0  0  0  0  0
    8.8887  -18.7733    9.9320 N   0  0  0  0  0  0  0  0  0  0  0  0
   22.1099  -10.0525    9.4089 N   0  0  0  0  0  0  0  0  0  0  0  0
    9.7316   -9.2379    1.8013 N   0  0  0  0  0  0  0  0  0  0  0  0
   17.0322  -12.6721    7.9932 N   0  0  0  0  0  0  0  0  0  0  0  0
   13.8525   -9.9027    5.2515 N   0  0  0  0  0  0  0  0  0  0  0  0
   11.9787  -11.9735    5.3992 O   0  0  0  0  0  0  0  0  0  0  0  0
   12.1470  -13.9456    7.4681 O   0  0  0  0  0  0  0  0  0  0  0  0
   14.9003  -14.6176    8.2485 O   0  0  0  0  0  0  0  0  0  0  0  0
   10.5946  -14.6866    9.9833 O   0  0  0  0  0  0  0  0  0  0  0  0
   12.1397  -16.2901    7.2318 O   0  0  0  0  0  0  0  0  0  0  0  0
    8.9201  -18.0699    6.4332 O   0  0  0  0  0  0  0  0  0  0  0  0
   11.4179  -17.3003    9.7940 O   0  0  0  0  0  0  0  0  0  0  0  0
   19.9889  -13.6732    8.7710 O   0  0  0  0  0  0  0  0  0  0  0  0
   18.5846  -12.1673    6.2114 O   0  0  0  0  0  0  0  0  0  0  0  0
    9.9289  -16.6018   11.6055 O   0  0  0  0  0  0  0  0  0  0  0  0
   10.8022  -10.3750    4.0677 O   0  0  0  0  0  0  0  0  0  0  0  0
  1 36  1  6  0  0  0
  2 36  1  6  0  0  0
  2  3  1  0  0  0  0
  3 37  1  1  0  0  0
  3  4  1  0  0  0  0
  4 38  1  6  0  0  0
  5 37  1  6  0  0  0
  5  6  1  0  0  0  0
  6  7  1  0  0  0  0
  6 39  1  1  0  0  0
  7 42  1  1  0  0  0
  8  9  1  6  0  0  0
  8  7  1  0  0  0  0
 10 42  1  6  0  0  0
 10 11  1  0  0  0  0
 11 31  1  6  0  0  0
 11 13  1  0  0  0  0
 12 30  1  1  0  0  0
 12  1  1  0  0  0  0
 14 13  1  0  0  0  0
 15 16  1  6  0  0  0
 15 14  1  0  0  0  0
 17 19  1  1  0  0  0
 17 28  1  0  0  0  0
 18 34  1  0  0  0  0
 19 32  1  0  0  0  0
 20 18  1  6  0  0  0
 20 17  1  0  0  0  0
 20 43  1  0  0  0  0
 21 12  1  0  0  0  0
 22 21  1  0  0  0  0
 22 23  1  0  0  0  0
 23 24  1  6  0  0  0
 23 46  1  0  0  0  0
 24 33  1  0  0  0  0
 25 34  1  1  0  0  0
 25  4  1  0  0  0  0
 26 25  1  0  0  0  0
 27 35  1  1  0  0  0
 27 26  1  0  0  0  0
 27  2  1  0  0  0  0
 29 16  1  0  0  0  0
 40  8  1  0  0  0  0
 40  5  1  0  0  0  0
 41  9  1  0  0  0  0
 44 18  2  0  0  0  0
 45 15  1  0  0  0  0
 45 10  1  0  0  0  0
 46  1  1  0  0  0  0
M  END
>  <CHROM.1>
-114.08382264,135.98852581,-175.82890542,176.13544098,100.83722438,-62.71878182
67.94747899,-58.22293048,-173.05062049,-148.70573118,161.90264526,74.87345398
169.41056372,12.80980085,-13.90135507,7.71928851,0.52774782,-0.25192594,-0.89252537

>  <Name>
lig.pdb

>  <RI>
0

>  <Rbt.Current_Directory>
/home/afrankz/demos/rdock_decoys_rna/rnas/3wru

>  <Rbt.Executable>
rbdock ($Id: //depot/dev/client3/rdock/2013.1/src/exe/rbdock.cxx#4 $)

>  <Rbt.Library>
libRbt.so (2013.1, Build901 2013/11/27)

>  <Rbt.Parameter_File>
/export/apps/rDock/src/rDock_2013.1_src/data/scripts/dock_solv.prm

>  <Rbt.Receptor>
prm/pocket_docking_4.prm

>  <SCORE>
3.6933

>  <SCORE.INTER>
-1.21185

>  <SCORE.INTER.CONST>
1

>  <SCORE.INTER.POLAR>
0

>  <SCORE.INTER.ROT>
13

>  <SCORE.INTER.SOLV>
24.1198

>  <SCORE.INTER.VDW>
-21.1145

>  <SCORE.INTER.norm>
-0.0263445

>  <SCORE.INTRA>
4.89527

>  <SCORE.INTRA.DIHEDRAL>
3.10823

>  <SCORE.INTRA.DIHEDRAL.0>
19.7146

>  <SCORE.INTRA.POLAR>
0

>  <SCORE.INTRA.POLAR.0>
0

>  <SCORE.INTRA.REPUL>
0

>  <SCORE.INTRA.REPUL.0>
0

>  <SCORE.INTRA.SOLV>
4.30612

>  <SCORE.INTRA.SOLV.lig_0>
-116.697

>  <SCORE.INTRA.VDW>
1.1881

>  <SCORE.INTRA.VDW.0>
-7.06424

>  <SCORE.INTRA.norm>
0.106419

>  <SCORE.RESTR>
0.00987247

>  <SCORE.RESTR.CAVITY>
0.00987247

>  <SCORE.RESTR.norm>
0.000214619

>  <SCORE.SYSTEM>
0

>  <SCORE.SYSTEM.CONST>
0

>  <SCORE.SYSTEM.DIHEDRAL>
0

>  <SCORE.SYSTEM.SOLV>
0

>  <SCORE.SYSTEM.norm>
0

>  <SCORE.heavy>
46

>  <SCORE.norm>
0.0802891

>  <RMSD>
2.720

$$$$
lig.pdb
 OpenBabel03061811583D
libRbt.so/2013.1/901 2013/11/27
 46 49  0  0  0  0  0  0  0  0999 V2000
   12.6965  -11.0307    4.3131 C   0  0  1  0  0  0  0  0  0  0  0  0
   14.0431  -11.6381    6.3687 C   0  0  1  0  0  0  0  0  0  0  0  0
   13.4800  -13.0234    6.8085 C   0  0  1  0  0  0  0  0  0  0  0  0
   14.6565  -13.8582    7.5309 C   0  0  2  0  0  0  0  0  0  0  0  0
   11.4767  -13.5916    8.2583 C   0  0  2  0  0  0  0  0  0  0  0  0
   10.6670  -12.9928    9.4434 C   0  0  1  0  0  0  0  0  0  0  0  0
    9.4460  -13.8729    9.3267 C   0  0  1  0  0  0  0  0  0  0  0  0
    9.1084  -13.8830    7.8019 C   0  0  1  0  0  0  0  0  0  0  0  0
    8.2912  -12.6632    7.2488 C   0  0  0  0  0  0  0  0  0  0  0  0
    8.8054  -16.2246    9.7043 C   0  0  1  0  0  0  0  0  0  0  0  0
    7.6197  -16.0129   10.5977 C   0  0  1  0  0  0  0  0  0  0  0  0
   11.6010  -10.0155    3.9098 C   0  0  1  0  0  0  0  0  0  0  0  0
    6.6202  -17.2054   10.3896 C   0  0  0  0  0  0  0  0  0  0  0  0
    7.1561  -18.4995   10.7002 C   0  0  0  0  0  0  0  0  0  0  0  0
    8.2845  -18.7552    9.8305 C   0  0  2  0  0  0  0  0  0  0  0  0
    8.9248  -20.1672   10.1328 C   0  0  0  0  0  0  0  0  0  0  0  0
   19.7845  -14.9380    8.1627 C   0  0  2  0  0  0  0  0  0  0  0  0
   17.5086  -14.3448    8.3094 C   0  0  0  0  0  0  0  0  0  0  0  0
   20.3624  -13.9139    8.8889 C   0  0  0  0  0  0  0  0  0  0  0  0
   18.6621  -15.3490    8.8036 C   0  0  1  0  0  0  0  0  0  0  0  0
   10.2226  -10.3364    4.6480 C   0  0  0  0  0  0  0  0  0  0  0  0
    9.7847  -11.8309    4.2645 C   0  0  0  0  0  0  0  0  0  0  0  0
   10.9478  -12.8207    4.7371 C   0  0  1  0  0  0  0  0  0  0  0  0
   10.6266  -14.2822    4.4016 C   0  0  0  0  0  0  0  0  0  0  0  0
   15.8137  -14.1015    6.4666 C   0  0  1  0  0  0  0  0  0  0  0  0
   16.3732  -12.6341    6.0670 C   0  0  0  0  0  0  0  0  0  0  0  0
   15.2294  -11.7893    5.3844 C   0  0  2  0  0  0  0  0  0  0  0  0
   20.7487  -15.9978    7.9710 F   0  0  0  0  0  0  0  0  0  0  0  0
    9.2745  -20.3700   11.6350 N   0  0  0  0  0  0  0  0  0  0  0  0
   12.1069   -8.6283    4.2247 N   0  0  0  0  0  0  0  0  0  0  0  0
    7.9230  -16.0176   11.9621 N   0  0  0  0  0  0  0  0  0  0  0  0
   21.5230  -13.1397    8.6548 N   0  0  0  0  0  0  0  0  0  0  0  0
   10.4952  -14.4660    3.0088 N   0  0  0  0  0  0  0  0  0  0  0  0
   16.9056  -14.8749    7.0846 N   0  0  0  0  0  0  0  0  0  0  0  0
   15.7227  -10.4414    5.0251 N   0  0  0  0  0  0  0  0  0  0  0  0
   13.0435  -10.8879    5.6909 O   0  0  0  0  0  0  0  0  0  0  0  0
   12.3452  -12.7488    7.7517 O   0  0  0  0  0  0  0  0  0  0  0  0
   14.1351  -15.0754    7.9087 O   0  0  0  0  0  0  0  0  0  0  0  0
   11.3995  -13.1851   10.6154 O   0  0  0  0  0  0  0  0  0  0  0  0
   10.4498  -14.0825    7.3258 O   0  0  0  0  0  0  0  0  0  0  0  0
    7.0539  -12.6046    7.9862 O   0  0  0  0  0  0  0  0  0  0  0  0
    9.7857  -15.2643    9.8295 O   0  0  0  0  0  0  0  0  0  0  0  0
   18.2938  -16.7082    8.4828 O   0  0  0  0  0  0  0  0  0  0  0  0
   17.1841  -13.2988    8.8952 O   0  0  0  0  0  0  0  0  0  0  0  0
    9.3164  -17.6614    9.9735 O   0  0  0  0  0  0  0  0  0  0  0  0
   12.2533  -12.4427    4.0567 O   0  0  0  0  0  0  0  0  0  0  0  0
  1 36  1  1  0  0  0
  2 36  1  6  0  0  0
  2  3  1  0  0  0  0
  3 37  1  1  0  0  0
  3  4  1  0  0  0  0
  4 38  1  6  0  0  0
  5 37  1  6  0  0  0
  5  6  1  0  0  0  0
  6  7  1  0  0  0  0
  6 39  1  1  0  0  0
  7 42  1  6  0  0  0
  8  9  1  6  0  0  0
  8  7  1  0  0  0  0
 10 42  1  1  0  0  0
 10 11  1  0  0  0  0
 11 31  1  1  0  0  0
 11 13  1  0  0  0  0
 12 30  1  1  0  0  0
 12  1  1  0  0  0  0
 14 13  1  0  0  0  0
 15 16  1  1  0  0  0
 15 14  1  0  0  0  0
 17 19  1  1  0  0  0
 17 28  1  0  0  0  0
 18 34  1  0  0  0  0
 19 32  1  0  0  0  0
 20 18  1  6  0  0  0
 20 17  1  0  0  0  0
 20 43  1  0  0  0  0
 21 12  1  0  0  0  0
 22 21  1  0  0  0  0
 22 23  1  0  0  0  0
 23 24  1  6  0  0  0
 23 46  1  0  0  0  0
 24 33  1  0  0  0  0
 25 34  1  1  0  0  0
 25  4  1  0  0  0  0
 26 25  1  0  0  0  0
 27 35  1  1  0  0  0
 27 26  1  0  0  0  0
 27  2  1  0  0  0  0
 29 16  1  0  0  0  0
 40  8  1  0  0  0  0
 40  5  1  0  0  0  0
 41  9  1  0  0  0  0
 44 18  2  0  0  0  0
 45 15  1  0  0  0  0
 45 10  1  0  0  0  0
 46  1  1  0  0  0  0
M  END
>  <CHROM.1>
-177.99703859,-81.99958727,171.52722000,166.49292074,-175.51227669,-58.18733650
-68.90275694,-52.48371053,-179.29726013,88.14982903,84.67851267,61.50440808
-55.38090891,12.60843024,-14.09925809,7.63935423,0.33142276,-0.00561064,-0.71640938

>  <Name>
lig.pdb

>  <RI>
0

>  <Rbt.Current_Directory>
/home/afrankz/demos/rdock_decoys_rna/rnas/3wru

>  <Rbt.Executable>
rbdock ($Id: //depot/dev/client3/rdock/2013.1/src/exe/rbdock.cxx#4 $)

>  <Rbt.Library>
libRbt.so (2013.1, Build901 2013/11/27)

>  <Rbt.Parameter_File>
/export/apps/rDock/src/rDock_2013.1_src/data/scripts/dock_solv.prm

>  <Rbt.Receptor>
prm/pocket_docking_3.prm

>  <SCORE>
2.30232

>  <SCORE.INTER>
6.93134

>  <SCORE.INTER.CONST>
1

>  <SCORE.INTER.POLAR>
0

>  <SCORE.INTER.ROT>
13

>  <SCORE.INTER.SOLV>
17.8454

>  <SCORE.INTER.VDW>
-13.5943

>  <SCORE.INTER.norm>
0.150681

>  <SCORE.INTRA>
-4.62903

>  <SCORE.INTRA.DIHEDRAL>
-12.1914

>  <SCORE.INTRA.DIHEDRAL.0>
19.7146

>  <SCORE.INTRA.POLAR>
0

>  <SCORE.INTRA.POLAR.0>
0

>  <SCORE.INTRA.REPUL>
0

>  <SCORE.INTRA.REPUL.0>
0

>  <SCORE.INTRA.SOLV>
-0.129288

>  <SCORE.INTRA.SOLV.lig_0>
-116.697

>  <SCORE.INTRA.VDW>
1.5313

>  <SCORE.INTRA.VDW.0>
-7.06424

>  <SCORE.INTRA.norm>
-0.100631

>  <SCORE.RESTR>
0

>  <SCORE.RESTR.CAVITY>
0

>  <SCORE.RESTR.norm>
0

>  <SCORE.SYSTEM>
0

>  <SCORE.SYSTEM.CONST>
0

>  <SCORE.SYSTEM.DIHEDRAL>
0

>  <SCORE.SYSTEM.SOLV>
0

>  <SCORE.SYSTEM.norm>
0

>  <SCORE.heavy>
46

>  <SCORE.norm>
0.0500504

>  <RMSD>
2.787

$$$$
lig.pdb
 OpenBabel03061811583D
libRbt.so/2013.1/901 2013/11/27
 46 49  0  0  0  0  0  0  0  0999 V2000
   11.7323  -10.6070    6.0653 C   0  0  1  0  0  0  0  0  0  0  0  0
   14.1437  -11.3653    5.9315 C   0  0  1  0  0  0  0  0  0  0  0  0
   14.2674  -12.5418    6.9465 C   0  0  1  0  0  0  0  0  0  0  0  0
   15.7950  -12.6298    7.4581 C   0  0  2  0  0  0  0  0  0  0  0  0
   12.1121  -12.6869    8.2776 C   0  0  2  0  0  0  0  0  0  0  0  0
   12.0242  -14.2394    8.2499 C   0  0  1  0  0  0  0  0  0  0  0  0
   10.7885  -14.3929    9.1032 C   0  0  1  0  0  0  0  0  0  0  0  0
   11.0217  -13.4360   10.3153 C   0  0  1  0  0  0  0  0  0  0  0  0
   11.9089  -13.9817   11.4887 C   0  0  0  0  0  0  0  0  0  0  0  0
    8.4587  -14.7861    8.3954 C   0  0  1  0  0  0  0  0  0  0  0  0
    7.2139  -14.1919    7.8068 C   0  0  1  0  0  0  0  0  0  0  0  0
   10.3866  -10.9569    5.3869 C   0  0  1  0  0  0  0  0  0  0  0  0
    6.0256  -15.1899    8.0436 C   0  0  0  0  0  0  0  0  0  0  0  0
    5.7457  -15.4745    9.4217 C   0  0  0  0  0  0  0  0  0  0  0  0
    6.9162  -16.0838   10.0165 C   0  0  2  0  0  0  0  0  0  0  0  0
    6.6710  -16.4128   11.5418 C   0  0  0  0  0  0  0  0  0  0  0  0
   20.2193  -12.5891    8.8280 C   0  0  2  0  0  0  0  0  0  0  0  0
   18.7781  -11.8379    7.1217 C   0  0  0  0  0  0  0  0  0  0  0  0
   21.3374  -13.3465    9.1217 C   0  0  0  0  0  0  0  0  0  0  0  0
   20.2917  -12.1865    7.5349 C   0  0  1  0  0  0  0  0  0  0  0  0
   10.3265  -10.3782    3.9006 C   0  0  0  0  0  0  0  0  0  0  0  0
   10.5331   -8.7894    3.9725 C   0  0  0  0  0  0  0  0  0  0  0  0
   11.9514   -8.5082    4.6548 C   0  0  1  0  0  0  0  0  0  0  0  0
   12.2380   -7.0071    4.7809 C   0  0  0  0  0  0  0  0  0  0  0  0
   16.7178  -12.9507    6.2026 C   0  0  1  0  0  0  0  0  0  0  0  0
   16.5668  -11.6877    5.1986 C   0  0  0  0  0  0  0  0  0  0  0  0
   15.0726  -11.5652    4.7084 C   0  0  2  0  0  0  0  0  0  0  0  0
   20.1230  -11.4886    9.7603 F   0  0  0  0  0  0  0  0  0  0  0  0
    7.9169  -17.0277   12.2416 N   0  0  0  0  0  0  0  0  0  0  0  0
   10.2187  -12.4569    5.4220 N   0  0  0  0  0  0  0  0  0  0  0  0
    6.8148  -12.9925    8.4033 N   0  0  0  0  0  0  0  0  0  0  0  0
   22.7067  -13.0006    9.2052 N   0  0  0  0  0  0  0  0  0  0  0  0
   12.3228   -6.3983    3.5108 N   0  0  0  0  0  0  0  0  0  0  0  0
   18.1246  -13.0528    6.6304 N   0  0  0  0  0  0  0  0  0  0  0  0
   14.9169  -10.4077    3.8000 N   0  0  0  0  0  0  0  0  0  0  0  0
   12.8171  -11.2817    5.4271 O   0  0  0  0  0  0  0  0  0  0  0  0
   13.3282  -12.2375    8.0772 O   0  0  0  0  0  0  0  0  0  0  0  0
   15.8779  -13.6746    8.3511 O   0  0  0  0  0  0  0  0  0  0  0  0
   11.8573  -14.6447    6.9251 O   0  0  0  0  0  0  0  0  0  0  0  0
   11.4991  -12.3095    9.5609 O   0  0  0  0  0  0  0  0  0  0  0  0
   11.8797  -12.9988   12.5428 O   0  0  0  0  0  0  0  0  0  0  0  0
    9.5715  -13.9796    8.2955 O   0  0  0  0  0  0  0  0  0  0  0  0
   21.1262  -11.0219    7.3514 O   0  0  0  0  0  0  0  0  0  0  0  0
   18.2587  -10.7144    7.2250 O   0  0  0  0  0  0  0  0  0  0  0  0
    8.1178  -15.1832    9.8527 O   0  0  0  0  0  0  0  0  0  0  0  0
   11.9863   -9.1269    6.0427 O   0  0  0  0  0  0  0  0  0  0  0  0
  1 36  1  6  0  0  0
  2 36  1  6  0  0  0
  2  3  1  0  0  0  0
  3 37  1  1  0  0  0
  3  4  1  0  0  0  0
  4 38  1  1  0  0  0
  5 37  1  1  0  0  0
  5  6  1  0  0  0  0
  6  7  1  0  0  0  0
  6 39  1  6  0  0  0
  7 42  1  6  0  0  0
  8  9  1  1  0  0  0
  8  7  1  0  0  0  0
 10 42  1  1  0  0  0
 10 11  1  0  0  0  0
 11 31  1  1  0  0  0
 11 13  1  0  0  0  0
 12 30  1  6  0  0  0
 12  1  1  0  0  0  0
 14 13  1  0  0  0  0
 15 16  1  1  0  0  0
 15 14  1  0  0  0  0
 17 19  1  1  0  0  0
 17 28  1  0  0  0  0
 18 34  1  0  0  0  0
 19 32  1  0  0  0  0
 20 18  1  1  0  0  0
 20 17  1  0  0  0  0
 20 43  1  0  0  0  0
 21 12  1  0  0  0  0
 22 21  1  0  0  0  0
 22 23  1  0  0  0  0
 23 24  1  1  0  0  0
 23 46  1  0  0  0  0
 24 33  1  0  0  0  0
 25 34  1  1  0  0  0
 25  4  1  0  0  0  0
 26 25  1  0  0  0  0
 27 35  1  6  0  0  0
 27 26  1  0  0  0  0
 27  2  1  0  0  0  0
 29 16  1  0  0  0  0
 40  8  1  0  0  0  0
 40  5  1  0  0  0  0
 41  9  1  0  0  0  0
 44 18  2  0  0  0  0
 45 15  1  0  0  0  0
 45 10  1  0  0  0  0
 46  1  1  0  0  0  0
M  END
>  <CHROM.1>
-168.62876047,84.28386600,98.03078065,53.65222539,136.70795010,-174.40627951
168.31800493,-178.10801645,66.67227877,-87.81026498,158.69817157,-63.29063299
-66.57794959,13.06451977,-12.46310565,7.63069602,2.87426316,0.07900304,2.31873134

>  <Name>
lig.pdb

>  <RI>
0

>  <Rbt.Current_Directory>
/home/afrankz/demos/rdock_decoys_rna/rnas/3wru

>  <Rbt.Executable>
rbdock ($Id: //depot/dev/client3/rdock/2013.1/src/exe/rbdock.cxx#4 $)

>  <Rbt.Library>
libRbt.so (2013.1, Build901 2013/11/27)

>  <Rbt.Parameter_File>
/export/apps/rDock/src/rDock_2013.1_src/data/scripts/dock_solv.prm

>  <Rbt.Receptor>
prm/pocket_docking_3.prm

>  <SCORE>
-0.638585

>  <SCORE.INTER>
-1.87438

>  <SCORE.INTER.CONST>
1

>  <SCORE.INTER.POLAR>
0

>  <SCORE.INTER.ROT>
13

>  <SCORE.INTER.SOLV>
21.5485

>  <SCORE.INTER.VDW>
-20.6991

>  <SCORE.INTER.norm>
-0.0407475

>  <SCORE.INTRA>
1.2096

>  <SCORE.INTRA.DIHEDRAL>
-1.39231

>  <SCORE.INTRA.DIHEDRAL.0>
19.7146

>  <SCORE.INTRA.POLAR>
0

>  <SCORE.INTRA.POLAR.0>
0

>  <SCORE.INTRA.REPUL>
0

>  <SCORE.INTRA.REPUL.0>
0

>  <SCORE.INTRA.SOLV>
2.0946

>  <SCORE.INTRA.SOLV.lig_0>
-116.697

>  <SCORE.INTRA.VDW>
0.858452

>  <SCORE.INTRA.VDW.0>
-7.06424

>  <SCORE.INTRA.norm>
0.0262956

>  <SCORE.RESTR>
0.0261997

>  <SCORE.RESTR.CAVITY>
0.0261997

>  <SCORE.RESTR.norm>
0.00056956

>  <SCORE.SYSTEM>
0

>  <SCORE.SYSTEM.CONST>
0

>  <SCORE.SYSTEM.DIHEDRAL>
0

>  <SCORE.SYSTEM.SOLV>
0

>  <SCORE.SYSTEM.norm>
0

>  <SCORE.heavy>
46

>  <SCORE.norm>
-0.0138823

>  <RMSD>
2.807

$$$$
lig.pdb
 OpenBabel03061811583D
libRbt.so/2013.1/901 2013/11/27
 46 49  0  0  0  0  0  0  0  0999 V2000
   12.3209  -12.0906    5.0897 C   0  0  1  0  0  0  0  0  0  0  0  0
   13.9554  -11.5099    6.9334 C   0  0  1  0  0  0  0  0  0  0  0  0
   13.9968  -12.8562    7.7180 C   0  0  1  0  0  0  0  0  0  0  0  0
   15.4367  -12.9991    8.4314 C   0  0  2  0  0  0  0  0  0  0  0  0
   12.0507  -13.7480    9.0801 C   0  0  2  0  0  0  0  0  0  0  0  0
   12.4736  -14.4821   10.3843 C   0  0  1  0  0  0  0  0  0  0  0  0
   11.1043  -14.9532   10.8110 C   0  0  1  0  0  0  0  0  0  0  0  0
   10.1817  -13.7059   10.6317 C   0  0  1  0  0  0  0  0  0  0  0  0
   10.1871  -12.6479   11.7904 C   0  0  0  0  0  0  0  0  0  0  0  0
    9.3255  -16.3986    9.8999 C   0  0  1  0  0  0  0  0  0  0  0  0
    8.8821  -17.2886   11.0224 C   0  0  1  0  0  0  0  0  0  0  0  0
   11.4528  -11.2113    4.1588 C   0  0  1  0  0  0  0  0  0  0  0  0
    7.3517  -17.5894   10.8446 C   0  0  0  0  0  0  0  0  0  0  0  0
    7.0083  -18.2531    9.6198 C   0  0  0  0  0  0  0  0  0  0  0  0
    7.3901  -17.4057    8.5102 C   0  0  2  0  0  0  0  0  0  0  0  0
    7.0442  -18.0898    7.1291 C   0  0  0  0  0  0  0  0  0  0  0  0
   20.5458  -14.1674    7.9641 C   0  0  2  0  0  0  0  0  0  0  0  0
   18.2587  -14.5098    8.4168 C   0  0  0  0  0  0  0  0  0  0  0  0
   21.8629  -14.3324    8.3488 C   0  0  0  0  0  0  0  0  0  0  0  0
   19.7441  -14.4318    9.0256 C   0  0  1  0  0  0  0  0  0  0  0  0
   10.0505  -10.8671    4.8392 C   0  0  0  0  0  0  0  0  0  0  0  0
    9.3061  -12.2465    5.1787 C   0  0  0  0  0  0  0  0  0  0  0  0
   10.2467  -13.0834    6.1640 C   0  0  1  0  0  0  0  0  0  0  0  0
    9.6241  -14.4334    6.5399 C   0  0  0  0  0  0  0  0  0  0  0  0
   16.5481  -13.0465    7.2941 C   0  0  1  0  0  0  0  0  0  0  0  0
   16.4734  -11.6183    6.5321 C   0  0  0  0  0  0  0  0  0  0  0  0
   15.0613  -11.4447    5.8509 C   0  0  2  0  0  0  0  0  0  0  0  0
   20.2680  -15.0066    6.8204 F   0  0  0  0  0  0  0  0  0  0  0  0
    5.5223  -18.3533    6.9426 N   0  0  0  0  0  0  0  0  0  0  0  0
   12.2404   -9.9696    3.8162 N   0  0  0  0  0  0  0  0  0  0  0  0
    9.5056  -18.5393   11.0417 N   0  0  0  0  0  0  0  0  0  0  0  0
   22.5315  -14.0206    9.5559 N   0  0  0  0  0  0  0  0  0  0  0  0
   10.5814  -15.2877    7.1271 N   0  0  0  0  0  0  0  0  0  0  0  0
   17.8816  -13.1904    7.9051 N   0  0  0  0  0  0  0  0  0  0  0  0
   14.9740  -10.1385    5.1614 N   0  0  0  0  0  0  0  0  0  0  0  0
   12.7132  -11.3672    6.2567 O   0  0  0  0  0  0  0  0  0  0  0  0
   12.8883  -12.8015    8.7285 O   0  0  0  0  0  0  0  0  0  0  0  0
   15.4481  -14.1938    9.1160 O   0  0  0  0  0  0  0  0  0  0  0  0
   13.3508  -15.5119   10.0420 O   0  0  0  0  0  0  0  0  0  0  0  0
   10.6700  -13.3100    9.3392 O   0  0  0  0  0  0  0  0  0  0  0  0
   11.5485  -12.2069   11.9637 O   0  0  0  0  0  0  0  0  0  0  0  0
   10.6703  -16.0985    9.9143 O   0  0  0  0  0  0  0  0  0  0  0  0
   20.0669  -15.6777    9.6811 O   0  0  0  0  0  0  0  0  0  0  0  0
   17.5633  -15.5383    8.3807 O   0  0  0  0  0  0  0  0  0  0  0  0
    8.8617  -17.0730    8.5854 O   0  0  0  0  0  0  0  0  0  0  0  0
   11.5904  -13.3370    5.5007 O   0  0  0  0  0  0  0  0  0  0  0  0
  1 36  1  1  0  0  0
  2 36  1  6  0  0  0
  2  3  1  0  0  0  0
  3 37  1  1  0  0  0
  3  4  1  0  0  0  0
  4 38  1  6  0  0  0
  5 37  1  1  0  0  0
  5  6  1  0  0  0  0
  6  7  1  0  0  0  0
  6 39  1  6  0  0  0
  7 42  1  6  0  0  0
  8  9  1  1  0  0  0
  8  7  1  0  0  0  0
 10 42  1  6  0  0  0
 10 11  1  0  0  0  0
 11 31  1  6  0  0  0
 11 13  1  0  0  0  0
 12 30  1  1  0  0  0
 12  1  1  0  0  0  0
 14 13  1  0  0  0  0
 15 16  1  6  0  0  0
 15 14  1  0  0  0  0
 17 19  1  1  0  0  0
 17 28  1  0  0  0  0
 18 34  1  0  0  0  0
 19 32  1  0  0  0  0
 20 18  1  6  0  0  0
 20 17  1  0  0  0  0
 20 43  1  0  0  0  0
 21 12  1  0  0  0  0
 22 21  1  0  0  0  0
 22 23  1  0  0  0  0
 23 24  1  6  0  0  0
 23 46  1  0  0  0  0
 24 33  1  0  0  0  0
 25 34  1  1  0  0  0
 25  4  1  0  0  0  0
 26 25  1  0  0  0  0
 27 35  1  1  0  0  0
 27 26  1  0  0  0  0
 27  2  1  0  0  0  0
 29 16  1  0  0  0  0
 40  8  1  0  0  0  0
 40  5  1  0  0  0  0
 41  9  1  0  0  0  0
 44 18  2  0  0  0  0
 45 15  1  0  0  0  0
 45 10  1  0  0  0  0
 46  1  1  0  0  0  0
M  END
>  <CHROM.1>
-145.35096135,-73.20659477,138.66539481,98.13317948,-162.05177944,57.13091955
-83.36452163,61.76138256,-38.09221928,-65.29094660,-168.80416435,165.55776430
76.04339287,13.01999933,-14.17152948,8.14487483,2.93125066,0.10165449,2.38384050

>  <Name>
lig.pdb

>  <RI>
0

>  <Rbt.Current_Directory>
/home/afrankz/demos/rdock_decoys_rna/rnas/3wru

>  <Rbt.Executable>
rbdock ($Id: //depot/dev/client3/rdock/2013.1/src/exe/rbdock.cxx#4 $)

>  <Rbt.Library>
libRbt.so (2013.1, Build901 2013/11/27)

>  <Rbt.Parameter_File>
/export/apps/rDock/src/rDock_2013.1_src/data/scripts/dock_solv.prm

>  <Rbt.Receptor>
prm/pocket_docking_2.prm

>  <SCORE>
23.0785

>  <SCORE.INTER>
12.0093

>  <SCORE.INTER.CONST>
1

>  <SCORE.INTER.POLAR>
0

>  <SCORE.INTER.ROT>
13

>  <SCORE.INTER.SOLV>
18.4334

>  <SCORE.INTER.VDW>
-10.4049

>  <SCORE.INTER.norm>
0.261072

>  <SCORE.INTRA>
8.69183

>  <SCORE.INTRA.DIHEDRAL>
4.02132

>  <SCORE.INTRA.DIHEDRAL.0>
19.7146

>  <SCORE.INTRA.POLAR>
0

>  <SCORE.INTRA.POLAR.0>
0

>  <SCORE.INTRA.REPUL>
0

>  <SCORE.INTRA.REPUL.0>
0

>  <SCORE.INTRA.SOLV>
9.19477

>  <SCORE.INTRA.SOLV.lig_0>
-116.697

>  <SCORE.INTRA.VDW>
2.08378

>  <SCORE.INTRA.VDW.0>
-7.06424

>  <SCORE.INTRA.norm>
0.188953

>  <SCORE.RESTR>
2.3774

>  <SCORE.RESTR.CAVITY>
2.3774

>  <SCORE.RESTR.norm>
0.0516827

>  <SCORE.SYSTEM>
0

>  <SCORE.SYSTEM.CONST>
0

>  <SCORE.SYSTEM.DIHEDRAL>
0

>  <SCORE.SYSTEM.SOLV>
0

>  <SCORE.SYSTEM.norm>
0

>  <SCORE.heavy>
46

>  <SCORE.norm>
0.501707

>  <RMSD>
2.870

$$$$
lig.pdb
 OpenBabel03061811583D
libRbt.so/2013.1/901 2013/11/27
 46 49  0  0  0  0  0  0  0  0999 V2000
   11.8752  -12.5330    4.9894 C   0  0  1  0  0  0  0  0  0  0  0  0
   13.3687  -11.4525    6.7244 C   0  0  1  0  0  0  0  0  0  0  0  0
   13.5295  -12.6973    7.6487 C   0  0  1  0  0  0  0  0  0  0  0  0
   14.9286  -12.5787    8.4432 C   0  0  2  0  0  0  0  0  0  0  0  0
   11.5755  -13.6816    8.9338 C   0  0  2  0  0  0  0  0  0  0  0  0
   12.1448  -14.5349   10.1028 C   0  0  1  0  0  0  0  0  0  0  0  0
   10.8344  -15.0726   10.6250 C   0  0  1  0  0  0  0  0  0  0  0  0
    9.8877  -13.8314   10.6748 C   0  0  1  0  0  0  0  0  0  0  0  0
   10.0116  -12.8954   11.9279 C   0  0  0  0  0  0  0  0  0  0  0  0
    9.1056  -16.7116    9.9857 C   0  0  1  0  0  0  0  0  0  0  0  0
    9.2192  -17.9346   10.8461 C   0  0  1  0  0  0  0  0  0  0  0  0
   10.8527  -12.0048    3.9556 C   0  0  1  0  0  0  0  0  0  0  0  0
    7.7797  -18.5171   11.0761 C   0  0  0  0  0  0  0  0  0  0  0  0
    7.0911  -18.9065    9.8791 C   0  0  0  0  0  0  0  0  0  0  0  0
    6.9307  -17.7408    9.0362 C   0  0  2  0  0  0  0  0  0  0  0  0
    6.1843  -18.1100    7.6940 C   0  0  0  0  0  0  0  0  0  0  0  0
   20.1116  -13.9594    8.8230 C   0  0  2  0  0  0  0  0  0  0  0  0
   18.5968  -12.9415    7.3322 C   0  0  0  0  0  0  0  0  0  0  0  0
   20.8586  -14.7205    7.9439 C   0  0  0  0  0  0  0  0  0  0  0  0
   19.8889  -12.7425    8.2672 C   0  0  1  0  0  0  0  0  0  0  0  0
    9.4263  -11.7658    4.6310 C   0  0  0  0  0  0  0  0  0  0  0  0
    8.9325  -13.1542    5.2640 C   0  0  0  0  0  0  0  0  0  0  0  0
   10.0204  -13.6190    6.3393 C   0  0  1  0  0  0  0  0  0  0  0  0
    9.6424  -14.9521    6.9960 C   0  0  0  0  0  0  0  0  0  0  0  0
   16.1060  -12.5923    7.3734 C   0  0  1  0  0  0  0  0  0  0  0  0
   15.9004  -11.2688    6.4613 C   0  0  0  0  0  0  0  0  0  0  0  0
   14.5231  -11.3503    5.6969 C   0  0  2  0  0  0  0  0  0  0  0  0
   20.7918  -13.8857   10.0963 F   0  0  0  0  0  0  0  0  0  0  0  0
    5.7136  -16.8616    6.8939 N   0  0  0  0  0  0  0  0  0  0  0  0
   11.4123  -10.7432    3.3434 N   0  0  0  0  0  0  0  0  0  0  0  0
    9.9519  -18.9751   10.2681 N   0  0  0  0  0  0  0  0  0  0  0  0
   20.5562  -15.2357    6.6615 N   0  0  0  0  0  0  0  0  0  0  0  0
    9.5601  -15.9845    6.0376 N   0  0  0  0  0  0  0  0  0  0  0  0
   17.4063  -12.4988    8.0611 N   0  0  0  0  0  0  0  0  0  0  0  0
   14.3158  -10.1416    4.8689 N   0  0  0  0  0  0  0  0  0  0  0  0
   12.1630  -11.5417    5.9762 O   0  0  0  0  0  0  0  0  0  0  0  0
   12.3620  -12.6887    8.5920 O   0  0  0  0  0  0  0  0  0  0  0  0
   15.0470  -13.6879    9.2506 O   0  0  0  0  0  0  0  0  0  0  0  0
   12.9874  -15.5081    9.5642 O   0  0  0  0  0  0  0  0  0  0  0  0
   10.2281  -13.2984    9.3841 O   0  0  0  0  0  0  0  0  0  0  0  0
   11.3498  -12.3594   11.9336 O   0  0  0  0  0  0  0  0  0  0  0  0
   10.3139  -16.1300    9.6683 O   0  0  0  0  0  0  0  0  0  0  0  0
   19.6267  -11.7135    9.2463 O   0  0  0  0  0  0  0  0  0  0  0  0
   18.6256  -13.3866    6.1730 O   0  0  0  0  0  0  0  0  0  0  0  0
    8.2742  -17.1154    8.7434 O   0  0  0  0  0  0  0  0  0  0  0  0
   11.3742  -13.7765    5.6665 O   0  0  0  0  0  0  0  0  0  0  0  0
  1 36  1  1  0  0  0
  2 36  1  6  0  0  0
  2  3  1  0  0  0  0
  3 37  1  1  0  0  0
  3  4  1  0  0  0  0
  4 38  1  1  0  0  0
  5 37  1  1  0  0  0
  5  6  1  0  0  0  0
  6  7  1  0  0  0  0
  6 39  1  6  0  0  0
  7 42  1  6  0  0  0
  8  9  1  1  0  0  0
  8  7  1  0  0  0  0
 10 42  1  6  0  0  0
 10 11  1  0  0  0  0
 11 31  1  6  0  0  0
 11 13  1  0  0  0  0
 12 30  1  1  0  0  0
 12  1  1  0  0  0  0
 14 13  1  0  0  0  0
 15 16  1  6  0  0  0
 15 14  1  0  0  0  0
 17 19  1  6  0  0  0
 17 28  1  0  0  0  0
 18 34  1  0  0  0  0
 19 32  1  0  0  0  0
 20 18  1  6  0  0  0
 20 17  1  0  0  0  0
 20 43  1  0  0  0  0
 21 12  1  0  0  0  0
 22 21  1  0  0  0  0
 22 23  1  0  0  0  0
 23 24  1  6  0  0  0
 23 46  1  0  0  0  0
 24 33  1  0  0  0  0
 25 34  1  1  0  0  0
 25  4  1  0  0  0  0
 26 25  1  0  0  0  0
 27 35  1  1  0  0  0
 27 26  1  0  0  0  0
 27  2  1  0  0  0  0
 29 16  1  0  0  0  0
 40  8  1  0  0  0  0
 40  5  1  0  0  0  0
 41  9  1  0  0  0  0
 44 18  2  0  0  0  0
 45 15  1  0  0  0  0
 45 10  1  0  0  0  0
 46  1  1  0  0  0  0
M  END
>  <CHROM.1>
-153.83300700,-64.77838135,133.78096120,85.16729832,-178.91337175,61.84501443
-89.73738379,167.59121133,-65.62294570,97.30731826,84.52664958,61.13630646
159.75754353,12.69248543,-14.08016697,8.03541951,2.86003196,0.19051825,2.28655422

>  <Name>
lig.pdb

>  <RI>
0

>  <Rbt.Current_Directory>
/home/afrankz/demos/rdock_decoys_rna/rnas/3wru

>  <Rbt.Executable>
rbdock ($Id: //depot/dev/client3/rdock/2013.1/src/exe/rbdock.cxx#4 $)

>  <Rbt.Library>
libRbt.so (2013.1, Build901 2013/11/27)

>  <Rbt.Parameter_File>
/export/apps/rDock/src/rDock_2013.1_src/data/scripts/dock_solv.prm

>  <Rbt.Receptor>
prm/pocket_docking_2.prm

>  <SCORE>
15.6304

>  <SCORE.INTER>
8.55437

>  <SCORE.INTER.CONST>
1

>  <SCORE.INTER.POLAR>
0

>  <SCORE.INTER.ROT>
13

>  <SCORE.INTER.SOLV>
18.8877

>  <SCORE.INTER.VDW>
-12.8597

>  <SCORE.INTER.norm>
0.185965

>  <SCORE.INTRA>
3.74534

>  <SCORE.INTRA.DIHEDRAL>
0.567985

>  <SCORE.INTRA.DIHEDRAL.0>
19.7146

>  <SCORE.INTRA.POLAR>
0

>  <SCORE.INTRA.POLAR.0>
0

>  <SCORE.INTRA.REPUL>
0

>  <SCORE.INTRA.REPUL.0>
0

>  <SCORE.INTRA.SOLV>
5.71055

>  <SCORE.INTRA.SOLV.lig_0>
-116.697

>  <SCORE.INTRA.VDW>
0.606072

>  <SCORE.INTRA.VDW.0>
-7.06424

>  <SCORE.INTRA.norm>
0.0814204

>  <SCORE.RESTR>
3.33068

>  <SCORE.RESTR.CAVITY>
3.33068

>  <SCORE.RESTR.norm>
0.0724062

>  <SCORE.SYSTEM>
0

>  <SCORE.SYSTEM.CONST>
0

>  <SCORE.SYSTEM.DIHEDRAL>
0

>  <SCORE.SYSTEM.SOLV>
0

>  <SCORE.SYSTEM.norm>
0

>  <SCORE.heavy>
46

>  <SCORE.norm>
0.339791

>  <RMSD>
2.878

$$$$
lig.pdb
 OpenBabel03061811583D
libRbt.so/2013.1/901 2013/11/27
 46 49  0  0  0  0  0  0  0  0999 V2000
    9.9556  -12.7738    5.1760 C   0  0  1  0  0  0  0  0  0  0  0  0
   12.3707  -13.3263    5.6955 C   0  0  1  0  0  0  0  0  0  0  0  0
   12.0894  -13.8308    7.1432 C   0  0  1  0  0  0  0  0  0  0  0  0
   13.4550  -13.7477    7.9982 C   0  0  2  0  0  0  0  0  0  0  0  0
   10.2188  -13.1600    8.7209 C   0  0  2  0  0  0  0  0  0  0  0  0
    9.3737  -11.9148    9.1132 C   0  0  1  0  0  0  0  0  0  0  0  0
    8.2120  -12.6427    9.7453 C   0  0  1  0  0  0  0  0  0  0  0  0
    7.8736  -13.7939    8.7456 C   0  0  1  0  0  0  0  0  0  0  0  0
    6.9785  -13.4211    7.5122 C   0  0  0  0  0  0  0  0  0  0  0  0
    7.6509  -13.7177   11.8932 C   0  0  1  0  0  0  0  0  0  0  0  0
    8.1331  -14.2158   13.2229 C   0  0  1  0  0  0  0  0  0  0  0  0
    8.9548  -12.9729    4.0132 C   0  0  1  0  0  0  0  0  0  0  0  0
    6.9151  -14.8389   13.9927 C   0  0  0  0  0  0  0  0  0  0  0  0
    6.2885  -15.9464   13.3298 C   0  0  0  0  0  0  0  0  0  0  0  0
    5.7774  -15.4941   12.0534 C   0  0  2  0  0  0  0  0  0  0  0  0
    5.0818  -16.6762   11.2701 C   0  0  0  0  0  0  0  0  0  0  0  0
   18.7440  -13.6469    8.2380 C   0  0  2  0  0  0  0  0  0  0  0  0
   16.4040  -13.3787    8.3102 C   0  0  0  0  0  0  0  0  0  0  0  0
   19.1144  -12.3619    7.8892 C   0  0  0  0  0  0  0  0  0  0  0  0
   17.7526  -13.5805    9.1610 C   0  0  1  0  0  0  0  0  0  0  0  0
    9.4506  -12.2212    2.6953 C   0  0  0  0  0  0  0  0  0  0  0  0
    9.6217  -10.6643    3.0406 C   0  0  0  0  0  0  0  0  0  0  0  0
   10.6882  -10.5375    4.2249 C   0  0  1  0  0  0  0  0  0  0  0  0
   10.9133   -9.0781    4.6382 C   0  0  0  0  0  0  0  0  0  0  0  0
   14.5183  -14.7209    7.3251 C   0  0  1  0  0  0  0  0  0  0  0  0
   14.7870  -14.1347    5.8384 C   0  0  0  0  0  0  0  0  0  0  0  0
   13.4560  -14.1796    4.9933 C   0  0  2  0  0  0  0  0  0  0  0  0
   19.9037  -14.3744    8.7023 F   0  0  0  0  0  0  0  0  0  0  0  0
    6.0381  -17.8719   10.9942 N   0  0  0  0  0  0  0  0  0  0  0  0
    8.7804  -14.4562    3.7920 N   0  0  0  0  0  0  0  0  0  0  0  0
    9.0820  -15.2387   13.1411 N   0  0  0  0  0  0  0  0  0  0  0  0
   18.4267  -11.3498    7.1792 N   0  0  0  0  0  0  0  0  0  0  0  0
   11.9549   -8.9736    5.5843 N   0  0  0  0  0  0  0  0  0  0  0  0
   15.7801  -14.6845    8.0860 N   0  0  0  0  0  0  0  0  0  0  0  0
   13.6833  -13.6351    3.6364 N   0  0  0  0  0  0  0  0  0  0  0  0
   11.1970  -13.4228    4.8989 O   0  0  0  0  0  0  0  0  0  0  0  0
   11.0302  -12.9341    7.7151 O   0  0  0  0  0  0  0  0  0  0  0  0
   13.1808  -14.1982    9.2702 O   0  0  0  0  0  0  0  0  0  0  0  0
   10.1188  -11.1440   10.0065 O   0  0  0  0  0  0  0  0  0  0  0  0
    9.2244  -14.2235    8.5080 O   0  0  0  0  0  0  0  0  0  0  0  0
    6.7397  -14.6346    6.7717 O   0  0  0  0  0  0  0  0  0  0  0  0
    8.6416  -13.1879   11.0953 O   0  0  0  0  0  0  0  0  0  0  0  0
   17.6467  -14.7767    9.9636 O   0  0  0  0  0  0  0  0  0  0  0  0
   15.9685  -12.2806    7.9268 O   0  0  0  0  0  0  0  0  0  0  0  0
    6.8881  -14.8892   11.2273 O   0  0  0  0  0  0  0  0  0  0  0  0
   10.2052  -11.3160    5.4377 O   0  0  0  0  0  0  0  0  0  0  0  0
  1 36  1  6  0  0  0
  2 36  1  6  0  0  0
  2  3  1  0  0  0  0
  3 37  1  1  0  0  0
  3  4  1  0  0  0  0
  4 38  1  1  0  0  0
  5 37  1  6  0  0  0
  5  6  1  0  0  0  0
  6  7  1  0  0  0  0
  6 39  1  1  0  0  0
  7 42  1  1  0  0  0
  8  9  1  6  0  0  0
  8  7  1  0  0  0  0
 10 42  1  6  0  0  0
 10 11  1  0  0  0  0
 11 31  1  6  0  0  0
 11 13  1  0  0  0  0
 12 30  1  6  0  0  0
 12  1  1  0  0  0  0
 14 13  1  0  0  0  0
 15 16  1  6  0  0  0
 15 14  1  0  0  0  0
 17 19  1  1  0  0  0
 17 28  1  0  0  0  0
 18 34  1  0  0  0  0
 19 32  1  0  0  0  0
 20 18  1  6  0  0  0
 20 17  1  0  0  0  0
 20 43  1  0  0  0  0
 21 12  1  0  0  0  0
 22 21  1  0  0  0  0
 22 23  1  0  0  0  0
 23 24  1  1  0  0  0
 23 46  1  0  0  0  0
 24 33  1  0  0  0  0
 25 34  1  1  0  0  0
 25  4  1  0  0  0  0
 26 25  1  0  0  0  0
 27 35  1  6  0  0  0
 27 26  1  0  0  0  0
 27  2  1  0  0  0  0
 29 16  1  0  0  0  0
 40  8  1  0  0  0  0
 40  5  1  0  0  0  0
 41  9  1  0  0  0  0
 44 18  2  0  0  0  0
 45 15  1  0  0  0  0
 45 10  1  0  0  0  0
 46  1  1  0  0  0  0
M  END
>  <CHROM.1>
173.45752051,59.14677218,159.40856357,173.29350043,171.10097878,-177.12515172
-178.90727174,-59.03323626,-68.34171270,94.96388230,83.15186237,-173.89855458
-54.52613275,11.33220197,-13.45214543,8.05800349,2.75359996,0.01882124,1.95730857

>  <Name>
lig.pdb

>  <RI>
0

>  <Rbt.Current_Directory>
/home/afrankz/demos/rdock_decoys_rna/rnas/3wru

>  <Rbt.Executable>
rbdock ($Id: //depot/dev/client3/rdock/2013.1/src/exe/rbdock.cxx#4 $)

>  <Rbt.Library>
libRbt.so (2013.1, Build901 2013/11/27)

>  <Rbt.Parameter_File>
/export/apps/rDock/src/rDock_2013.1_src/data/scripts/dock_solv.prm

>  <Rbt.Receptor>
prm/pocket_docking_6.prm

>  <SCORE>
-5.19672

>  <SCORE.INTER>
-0.160035

>  <SCORE.INTER.CONST>
1

>  <SCORE.INTER.POLAR>
0

>  <SCORE.INTER.ROT>
13

>  <SCORE.INTER.SOLV>
21.3933

>  <SCORE.INTER.VDW>
-19.5044

>  <SCORE.INTER.norm>
-0.00347901

>  <SCORE.INTRA>
-5.03668

>  <SCORE.INTRA.DIHEDRAL>
-13.019

>  <SCORE.INTRA.DIHEDRAL.0>
19.7146

>  <SCORE.INTRA.POLAR>
0

>  <SCORE.INTRA.POLAR.0>
0

>  <SCORE.INTRA.REPUL>
0

>  <SCORE.INTRA.REPUL.0>
0

>  <SCORE.INTRA.SOLV>
0.456895

>  <SCORE.INTRA.SOLV.lig_0>
-116.697

>  <SCORE.INTRA.VDW>
1.24438

>  <SCORE.INTRA.VDW.0>
-7.06424

>  <SCORE.INTRA.norm>
-0.109493

>  <SCORE.RESTR>
0

>  <SCORE.RESTR.CAVITY>
0

>  <SCORE.RESTR.norm>
0

>  <SCORE.SYSTEM>
0

>  <SCORE.SYSTEM.CONST>
0

>  <SCORE.SYSTEM.DIHEDRAL>
0

>  <SCORE.SYSTEM.SOLV>
0

>  <SCORE.SYSTEM.norm>
0

>  <SCORE.heavy>
46

>  <SCORE.norm>
-0.112972

>  <RMSD>
2.895

$$$$
lig.pdb
 OpenBabel03061811583D
libRbt.so/2013.1/901 2013/11/27
 46 49  0  0  0  0  0  0  0  0999 V2000
   12.0336  -11.7841    4.2180 C   0  0  1  0  0  0  0  0  0  0  0  0
   13.3178  -11.3908    6.3637 C   0  0  1  0  0  0  0  0  0  0  0  0
   13.5119  -12.8278    6.9356 C   0  0  1  0  0  0  0  0  0  0  0  0
   14.8779  -12.8668    7.7932 C   0  0  2  0  0  0  0  0  0  0  0  0
   11.9901  -14.2329    8.4011 C   0  0  2  0  0  0  0  0  0  0  0  0
   11.6161  -14.0298    9.8969 C   0  0  1  0  0  0  0  0  0  0  0  0
   10.7345  -15.2446   10.0577 C   0  0  1  0  0  0  0  0  0  0  0  0
    9.8130  -15.2359    8.7968 C   0  0  1  0  0  0  0  0  0  0  0  0
    8.5514  -14.3045    8.8473 C   0  0  0  0  0  0  0  0  0  0  0  0
   11.1376  -17.5439   10.8541 C   0  0  1  0  0  0  0  0  0  0  0  0
    9.7900  -18.0503   10.4342 C   0  0  1  0  0  0  0  0  0  0  0  0
   11.1329  -10.8414    3.3853 C   0  0  1  0  0  0  0  0  0  0  0  0
    9.3658  -19.2049   11.4096 C   0  0  0  0  0  0  0  0  0  0  0  0
    9.2603  -18.8188   12.7875 C   0  0  0  0  0  0  0  0  0  0  0  0
   10.5551  -18.3562   13.2400 C   0  0  2  0  0  0  0  0  0  0  0  0
   10.4995  -17.9068   14.7532 C   0  0  0  0  0  0  0  0  0  0  0  0
   20.0551  -14.1572    8.1116 C   0  0  2  0  0  0  0  0  0  0  0  0
   18.5824  -12.8691    6.7981 C   0  0  0  0  0  0  0  0  0  0  0  0
   21.3839  -14.3152    8.4572 C   0  0  0  0  0  0  0  0  0  0  0  0
   19.8353  -12.8545    7.8047 C   0  0  1  0  0  0  0  0  0  0  0  0
    9.6202  -10.8988    3.8918 C   0  0  0  0  0  0  0  0  0  0  0  0
    9.1125  -12.4162    3.7832 C   0  0  0  0  0  0  0  0  0  0  0  0
   10.0695  -13.3211    4.6894 C   0  0  1  0  0  0  0  0  0  0  0  0
    9.6708  -14.8010    4.6420 C   0  0  0  0  0  0  0  0  0  0  0  0
   16.0873  -12.5503    6.8092 C   0  0  1  0  0  0  0  0  0  0  0  0
   15.8441  -11.0425    6.2677 C   0  0  0  0  0  0  0  0  0  0  0  0
   14.4971  -10.9749    5.4498 C   0  0  2  0  0  0  0  0  0  0  0  0
   19.2162  -14.6361    9.1870 F   0  0  0  0  0  0  0  0  0  0  0  0
    9.3958  -16.8473   15.0353 N   0  0  0  0  0  0  0  0  0  0  0  0
   11.7088   -9.4481    3.4665 N   0  0  0  0  0  0  0  0  0  0  0  0
    8.7692  -17.0995   10.5196 N   0  0  0  0  0  0  0  0  0  0  0  0
   22.1086  -13.9052    9.6008 N   0  0  0  0  0  0  0  0  0  0  0  0
    9.7908  -15.3172    3.3343 N   0  0  0  0  0  0  0  0  0  0  0  0
   17.3592  -12.5893    7.5530 N   0  0  0  0  0  0  0  0  0  0  0  0
   14.2553   -9.6000    4.9593 N   0  0  0  0  0  0  0  0  0  0  0  0
   12.1420  -11.3279    5.5668 O   0  0  0  0  0  0  0  0  0  0  0  0
   12.3167  -13.1152    7.7968 O   0  0  0  0  0  0  0  0  0  0  0  0
   15.0266  -14.1439    8.2861 O   0  0  0  0  0  0  0  0  0  0  0  0
   12.7895  -14.0719   10.6510 O   0  0  0  0  0  0  0  0  0  0  0  0
   10.8385  -14.9500    7.8311 O   0  0  0  0  0  0  0  0  0  0  0  0
    7.8646  -14.4421    7.5874 O   0  0  0  0  0  0  0  0  0  0  0  0
   11.6040  -16.4881   10.1015 O   0  0  0  0  0  0  0  0  0  0  0  0
   19.5211  -12.0469    8.9603 O   0  0  0  0  0  0  0  0  0  0  0  0
   18.6614  -13.0716    5.5752 O   0  0  0  0  0  0  0  0  0  0  0  0
   11.0433  -17.2246   12.3664 O   0  0  0  0  0  0  0  0  0  0  0  0
   11.5061  -13.1903    4.2106 O   0  0  0  0  0  0  0  0  0  0  0  0
  1 36  1  1  0  0  0
  2 36  1  6  0  0  0
  2  3  1  0  0  0  0
  3 37  1  1  0  0  0
  3  4  1  0  0  0  0
  4 38  1  6  0  0  0
  5 37  1  6  0  0  0
  5  6  1  0  0  0  0
  6  7  1  0  0  0  0
  6 39  1  1  0  0  0
  7 42  1  6  0  0  0
  8  9  1  1  0  0  0
  8  7  1  0  0  0  0
 10 42  1  6  0  0  0
 10 11  1  0  0  0  0
 11 31  1  1  0  0  0
 11 13  1  0  0  0  0
 12 30  1  1  0  0  0
 12  1  1  0  0  0  0
 14 13  1  0  0  0  0
 15 16  1  1  0  0  0
 15 14  1  0  0  0  0
 17 19  1  1  0  0  0
 17 28  1  0  0  0  0
 18 34  1  0  0  0  0
 19 32  1  0  0  0  0
 20 18  1  6  0  0  0
 20 17  1  0  0  0  0
 20 43  1  0  0  0  0
 21 12  1  0  0  0  0
 22 21  1  0  0  0  0
 22 23  1  0  0  0  0
 23 24  1  6  0  0  0
 23 46  1  0  0  0  0
 24 33  1  0  0  0  0
 25 34  1  1  0  0  0
 25  4  1  0  0  0  0
 26 25  1  0  0  0  0
 27 35  1  1  0  0  0
 27 26  1  0  0  0  0
 27  2  1  0  0  0  0
 29 16  1  0  0  0  0
 40  8  1  0  0  0  0
 40  5  1  0  0  0  0
 41  9  1  0  0  0  0
 44 18  2  0  0  0  0
 45 15  1  0  0  0  0
 45 10  1  0  0  0  0
 46  1  1  0  0  0  0
M  END
>  <CHROM.1>
-142.34222906,-79.41470014,174.25088244,131.25304328,149.22528327,179.32637361
58.10374107,-54.29173593,71.46735873,97.39824821,153.96193870,62.36616142
155.57596132,13.04945292,-14.06197374,8.00844716,0.61795264,-0.15117834,-0.95243317

>  <Name>
lig.pdb

>  <RI>
0

>  <Rbt.Current_Directory>
/home/afrankz/demos/rdock_decoys_rna/rnas/3wru

>  <Rbt.Executable>
rbdock ($Id: //depot/dev/client3/rdock/2013.1/src/exe/rbdock.cxx#4 $)

>  <Rbt.Library>
libRbt.so (2013.1, Build901 2013/11/27)

>  <Rbt.Parameter_File>
/export/apps/rDock/src/rDock_2013.1_src/data/scripts/dock_solv.prm

>  <Rbt.Receptor>
prm/pocket_docking_2.prm

>  <SCORE>
17.5621

>  <SCORE.INTER>
6.55147

>  <SCORE.INTER.CONST>
1

>  <SCORE.INTER.POLAR>
0

>  <SCORE.INTER.ROT>
13

>  <SCORE.INTER.SOLV>
17.4755

>  <SCORE.INTER.VDW>
-13.7242

>  <SCORE.INTER.norm>
0.142423

>  <SCORE.INTRA>
5.78221

>  <SCORE.INTRA.DIHEDRAL>
2.44976

>  <SCORE.INTRA.DIHEDRAL.0>
19.7146

>  <SCORE.INTRA.POLAR>
0

>  <SCORE.INTRA.POLAR.0>
0

>  <SCORE.INTRA.REPUL>
0

>  <SCORE.INTRA.REPUL.0>
0

>  <SCORE.INTRA.SOLV>
5.70977

>  <SCORE.INTRA.SOLV.lig_0>
-116.697

>  <SCORE.INTRA.VDW>
1.70244

>  <SCORE.INTRA.VDW.0>
-7.06424

>  <SCORE.INTRA.norm>
0.1257

>  <SCORE.RESTR>
5.2284

>  <SCORE.RESTR.CAVITY>
5.2284

>  <SCORE.RESTR.norm>
0.113661

>  <SCORE.SYSTEM>
0

>  <SCORE.SYSTEM.CONST>
0

>  <SCORE.SYSTEM.DIHEDRAL>
0

>  <SCORE.SYSTEM.SOLV>
0

>  <SCORE.SYSTEM.norm>
0

>  <SCORE.heavy>
46

>  <SCORE.norm>
0.381784

>  <RMSD>
2.901

$$$$
lig.pdb
 OpenBabel03061811583D
libRbt.so/2013.1/901 2013/11/27
 46 49  0  0  0  0  0  0  0  0999 V2000
   11.8265  -11.8001    5.1011 C   0  0  1  0  0  0  0  0  0  0  0  0
   13.3252  -11.2763    7.0728 C   0  0  1  0  0  0  0  0  0  0  0  0
   13.4556  -12.5388    7.9776 C   0  0  1  0  0  0  0  0  0  0  0  0
   14.9085  -12.5290    8.6790 C   0  0  2  0  0  0  0  0  0  0  0  0
   11.4340  -13.3446    9.2822 C   0  0  2  0  0  0  0  0  0  0  0  0
   10.8552  -13.1810   10.7164 C   0  0  1  0  0  0  0  0  0  0  0  0
    9.5133  -13.8286   10.4741 C   0  0  1  0  0  0  0  0  0  0  0  0
    9.0130  -13.2136    9.1285 C   0  0  1  0  0  0  0  0  0  0  0  0
    8.3275  -11.8043    9.2048 C   0  0  0  0  0  0  0  0  0  0  0  0
    8.5605  -16.0828   10.1670 C   0  0  1  0  0  0  0  0  0  0  0  0
    8.7799  -17.5639   10.2513 C   0  0  1  0  0  0  0  0  0  0  0  0
   10.3967  -11.4550    4.6217 C   0  0  1  0  0  0  0  0  0  0  0  0
    7.4188  -18.2867    9.9522 C   0  0  0  0  0  0  0  0  0  0  0  0
    6.8669  -18.0155    8.6559 C   0  0  0  0  0  0  0  0  0  0  0  0
    6.6077  -16.5955    8.5500 C   0  0  2  0  0  0  0  0  0  0  0  0
    6.0053  -16.2331    7.1354 C   0  0  0  0  0  0  0  0  0  0  0  0
   20.2124  -13.5720    8.0666 C   0  0  2  0  0  0  0  0  0  0  0  0
   17.9252  -13.9170    8.5166 C   0  0  0  0  0  0  0  0  0  0  0  0
   20.1298  -12.2836    7.5732 C   0  0  0  0  0  0  0  0  0  0  0  0
   19.3887  -13.6832    9.1383 C   0  0  1  0  0  0  0  0  0  0  0  0
    9.2991  -12.2019    5.5078 C   0  0  0  0  0  0  0  0  0  0  0  0
    9.5675  -13.7803    5.4127 C   0  0  0  0  0  0  0  0  0  0  0  0
   11.0465  -14.0610    5.9508 C   0  0  1  0  0  0  0  0  0  0  0  0
   11.4048  -15.5507    5.8884 C   0  0  0  0  0  0  0  0  0  0  0  0
   16.0095  -12.6160    7.5341 C   0  0  1  0  0  0  0  0  0  0  0  0
   15.8411  -11.2719    6.6447 C   0  0  0  0  0  0  0  0  0  0  0  0
   14.4145  -11.2466    5.9721 C   0  0  2  0  0  0  0  0  0  0  0  0
   21.5899  -13.8836    8.3748 F   0  0  0  0  0  0  0  0  0  0  0  0
    6.9622  -16.5772    5.9581 N   0  0  0  0  0  0  0  0  0  0  0  0
   10.2369   -9.9542    4.6619 N   0  0  0  0  0  0  0  0  0  0  0  0
    9.6802  -18.0639    9.3063 N   0  0  0  0  0  0  0  0  0  0  0  0
   20.7332  -11.6711    6.4498 N   0  0  0  0  0  0  0  0  0  0  0  0
   12.6117  -15.8113    6.5714 N   0  0  0  0  0  0  0  0  0  0  0  0
   17.3552  -12.6230    8.1353 N   0  0  0  0  0  0  0  0  0  0  0  0
   14.2416  -10.0177    5.1663 N   0  0  0  0  0  0  0  0  0  0  0  0
   12.0701  -11.2711    6.4050 O   0  0  0  0  0  0  0  0  0  0  0  0
   12.3558  -12.4561    8.9957 O   0  0  0  0  0  0  0  0  0  0  0  0
   14.9988  -13.6520    9.4708 O   0  0  0  0  0  0  0  0  0  0  0  0
   11.6756  -13.8812   11.6018 O   0  0  0  0  0  0  0  0  0  0  0  0
   10.2505  -13.3364    8.4079 O   0  0  0  0  0  0  0  0  0  0  0  0
    9.2809  -10.8935    9.7877 O   0  0  0  0  0  0  0  0  0  0  0  0
    9.6986  -15.3311   10.3631 O   0  0  0  0  0  0  0  0  0  0  0  0
   19.7321  -14.7883   10.0026 O   0  0  0  0  0  0  0  0  0  0  0  0
   17.3869  -15.0274    8.3756 O   0  0  0  0  0  0  0  0  0  0  0  0
    7.8721  -15.8101    8.8070 O   0  0  0  0  0  0  0  0  0  0  0  0
   12.0532  -13.2848    5.1177 O   0  0  0  0  0  0  0  0  0  0  0  0
  1 36  1  1  0  0  0
  2 36  1  6  0  0  0
  2  3  1  0  0  0  0
  3 37  1  1  0  0  0
  3  4  1  0  0  0  0
  4 38  1  1  0  0  0
  5 37  1  6  0  0  0
  5  6  1  0  0  0  0
  6  7  1  0  0  0  0
  6 39  1  1  0  0  0
  7 42  1  6  0  0  0
  8  9  1  1  0  0  0
  8  7  1  0  0  0  0
 10 42  1  6  0  0  0
 10 11  1  0  0  0  0
 11 31  1  6  0  0  0
 11 13  1  0  0  0  0
 12 30  1  1  0  0  0
 12  1  1  0  0  0  0
 14 13  1  0  0  0  0
 15 16  1  6  0  0  0
 15 14  1  0  0  0  0
 17 19  1  1  0  0  0
 17 28  1  0  0  0  0
 18 34  1  0  0  0  0
 19 32  1  0  0  0  0
 20 18  1  6  0  0  0
 20 17  1  0  0  0  0
 20 43  1  0  0  0  0
 21 12  1  0  0  0  0
 22 21  1  0  0  0  0
 22 23  1  0  0  0  0
 23 24  1  6  0  0  0
 23 46  1  0  0  0  0
 24 33  1  0  0  0  0
 25 34  1  1  0  0  0
 25  4  1  0  0  0  0
 26 25  1  0  0  0  0
 27 35  1  1  0  0  0
 27 26  1  0  0  0  0
 27  2  1  0  0  0  0
 29 16  1  0  0  0  0
 40  8  1  0  0  0  0
 40  5  1  0  0  0  0
 41  9  1  0  0  0  0
 44 18  2  0  0  0  0
 45 15  1  0  0  0  0
 45 10  1  0  0  0  0
 46  1  1  0  0  0  0
M  END
>  <CHROM.1>
-172.48765006,-93.16661138,125.74801632,156.64121967,178.72752279,58.40161293
-172.11816426,-61.27299325,-176.97310109,-82.03246871,81.16552301,-169.96876211
88.11131392,12.52008878,-13.70594092,7.96403396,2.94153822,0.11378361,2.43616813

>  <Name>
lig.pdb

>  <RI>
0

>  <Rbt.Current_Directory>
/home/afrankz/demos/rdock_decoys_rna/rnas/3wru

>  <Rbt.Executable>
rbdock ($Id: //depot/dev/client3/rdock/2013.1/src/exe/rbdock.cxx#4 $)

>  <Rbt.Library>
libRbt.so (2013.1, Build901 2013/11/27)

>  <Rbt.Parameter_File>
/export/apps/rDock/src/rDock_2013.1_src/data/scripts/dock_solv.prm

>  <Rbt.Receptor>
prm/pocket_docking_3.prm

>  <SCORE>
5.88636

>  <SCORE.INTER>
5.35524

>  <SCORE.INTER.CONST>
1

>  <SCORE.INTER.POLAR>
0

>  <SCORE.INTER.ROT>
13

>  <SCORE.INTER.SOLV>
20.1961

>  <SCORE.INTER.VDW>
-15.4285

>  <SCORE.INTER.norm>
0.116418

>  <SCORE.INTRA>
0.51892

>  <SCORE.INTRA.DIHEDRAL>
-1.75788

>  <SCORE.INTRA.DIHEDRAL.0>
19.7146

>  <SCORE.INTRA.POLAR>
0

>  <SCORE.INTRA.POLAR.0>
0

>  <SCORE.INTRA.REPUL>
0

>  <SCORE.INTRA.REPUL.0>
0

>  <SCORE.INTRA.SOLV>
2.4891

>  <SCORE.INTRA.SOLV.lig_0>
-116.697

>  <SCORE.INTRA.VDW>
0.153308

>  <SCORE.INTRA.VDW.0>
-7.06424

>  <SCORE.INTRA.norm>
0.0112809

>  <SCORE.RESTR>
0.0121903

>  <SCORE.RESTR.CAVITY>
0.0121903

>  <SCORE.RESTR.norm>
0.000265006

>  <SCORE.SYSTEM>
0

>  <SCORE.SYSTEM.CONST>
0

>  <SCORE.SYSTEM.DIHEDRAL>
0

>  <SCORE.SYSTEM.SOLV>
0

>  <SCORE.SYSTEM.norm>
0

>  <SCORE.heavy>
46

>  <SCORE.norm>
0.127964

>  <RMSD>
2.959

$$$$
lig.pdb
 OpenBabel03061811583D
libRbt.so/2013.1/901 2013/11/27
 46 49  0  0  0  0  0  0  0  0999 V2000
   12.3708  -10.9106    4.0421 C   0  0  1  0  0  0  0  0  0  0  0  0
   13.5845  -11.5355    6.1738 C   0  0  1  0  0  0  0  0  0  0  0  0
   13.2463  -13.0109    6.5462 C   0  0  1  0  0  0  0  0  0  0  0  0
   14.5121  -13.6589    7.3083 C   0  0  2  0  0  0  0  0  0  0  0  0
   11.0869  -13.8601    7.5726 C   0  0  2  0  0  0  0  0  0  0  0  0
   11.1023  -14.5548    8.9639 C   0  0  1  0  0  0  0  0  0  0  0  0
    9.6459  -14.9483    9.0160 C   0  0  1  0  0  0  0  0  0  0  0  0
    8.8731  -13.6717    8.5554 C   0  0  1  0  0  0  0  0  0  0  0  0
    8.6209  -12.5661    9.6398 C   0  0  0  0  0  0  0  0  0  0  0  0
    9.1942  -17.3446    8.6455 C   0  0  1  0  0  0  0  0  0  0  0  0
    8.0980  -18.1400    8.0015 C   0  0  1  0  0  0  0  0  0  0  0  0
   11.4678   -9.7358    3.5974 C   0  0  1  0  0  0  0  0  0  0  0  0
    7.9278  -19.4850    8.7928 C   0  0  0  0  0  0  0  0  0  0  0  0
    7.5782  -19.3283   10.1755 C   0  0  0  0  0  0  0  0  0  0  0  0
    8.6333  -18.5934   10.8403 C   0  0  2  0  0  0  0  0  0  0  0  0
    8.2995  -18.3807   12.3694 C   0  0  0  0  0  0  0  0  0  0  0  0
   19.5921  -14.0178    8.1755 C   0  0  2  0  0  0  0  0  0  0  0  0
   17.2484  -13.8151    8.3120 C   0  0  0  0  0  0  0  0  0  0  0  0
   20.7737  -14.4543    8.7443 C   0  0  0  0  0  0  0  0  0  0  0  0
   18.5535  -14.6013    8.8237 C   0  0  1  0  0  0  0  0  0  0  0  0
    9.9626   -9.9548    4.0815 C   0  0  0  0  0  0  0  0  0  0  0  0
    9.4365  -11.3415    3.4713 C   0  0  0  0  0  0  0  0  0  0  0  0
   10.3974  -12.5062    3.9970 C   0  0  1  0  0  0  0  0  0  0  0  0
    9.9816  -13.8791    3.4551 C   0  0  0  0  0  0  0  0  0  0  0  0
   15.7439  -13.6647    6.3016 C   0  0  1  0  0  0  0  0  0  0  0  0
   16.0626  -12.1106    5.9713 C   0  0  0  0  0  0  0  0  0  0  0  0
   14.8253  -11.4487    5.2509 C   0  0  2  0  0  0  0  0  0  0  0  0
   19.6061  -14.2989    6.7576 F   0  0  0  0  0  0  0  0  0  0  0  0
    9.3188  -17.4552   13.0938 N   0  0  0  0  0  0  0  0  0  0  0  0
   12.0603   -8.4568    4.1382 N   0  0  0  0  0  0  0  0  0  0  0  0
    6.8439  -17.5245    8.0431 N   0  0  0  0  0  0  0  0  0  0  0  0
   21.3163  -14.2645   10.0369 N   0  0  0  0  0  0  0  0  0  0  0  0
    8.7415  -14.2829    3.9938 N   0  0  0  0  0  0  0  0  0  0  0  0
   16.9210  -14.2629    6.9567 N   0  0  0  0  0  0  0  0  0  0  0  0
   15.0973  -10.0248    4.9542 N   0  0  0  0  0  0  0  0  0  0  0  0
   12.5051  -10.9425    5.4634 O   0  0  0  0  0  0  0  0  0  0  0  0
   12.0370  -12.9661    7.4341 O   0  0  0  0  0  0  0  0  0  0  0  0
   14.1892  -14.9593    7.6254 O   0  0  0  0  0  0  0  0  0  0  0  0
   11.9839  -15.6348    8.9040 O   0  0  0  0  0  0  0  0  0  0  0  0
    9.7126  -13.3530    7.4332 O   0  0  0  0  0  0  0  0  0  0  0  0
    7.9524  -11.4682    8.9871 O   0  0  0  0  0  0  0  0  0  0  0  0
    9.4106  -16.1116    8.0696 O   0  0  0  0  0  0  0  0  0  0  0  0
   18.4208  -16.0086    8.5267 O   0  0  0  0  0  0  0  0  0  0  0  0
   16.6218  -12.9765    8.9804 O   0  0  0  0  0  0  0  0  0  0  0  0
    8.8609  -17.2663   10.1556 O   0  0  0  0  0  0  0  0  0  0  0  0
   11.8277  -12.2273    3.5652 O   0  0  0  0  0  0  0  0  0  0  0  0
  1 36  1  1  0  0  0
  2 36  1  6  0  0  0
  2  3  1  0  0  0  0
  3 37  1  1  0  0  0
  3  4  1  0  0  0  0
  4 38  1  6  0  0  0
  5 37  1  1  0  0  0
  5  6  1  0  0  0  0
  6  7  1  0  0  0  0
  6 39  1  6  0  0  0
  7 42  1  6  0  0  0
  8  9  1  1  0  0  0
  8  7  1  0  0  0  0
 10 42  1  6  0  0  0
 10 11  1  0  0  0  0
 11 31  1  1  0  0  0
 11 13  1  0  0  0  0
 12 30  1  1  0  0  0
 12  1  1  0  0  0  0
 14 13  1  0  0  0  0
 15 16  1  1  0  0  0
 15 14  1  0  0  0  0
 17 19  1  1  0  0  0
 17 28  1  0  0  0  0
 18 34  1  0  0  0  0
 19 32  1  0  0  0  0
 20 18  1  6  0  0  0
 20 17  1  0  0  0  0
 20 43  1  0  0  0  0
 21 12  1  0  0  0  0
 22 21  1  0  0  0  0
 22 23  1  0  0  0  0
 23 24  1  6  0  0  0
 23 46  1  0  0  0  0
 24 33  1  0  0  0  0
 25 34  1  1  0  0  0
 25  4  1  0  0  0  0
 26 25  1  0  0  0  0
 27 35  1  1  0  0  0
 27 26  1  0  0  0  0
 27  2  1  0  0  0  0
 29 16  1  0  0  0  0
 40  8  1  0  0  0  0
 40  5  1  0  0  0  0
 41  9  1  0  0  0  0
 44 18  2  0  0  0  0
 45 15  1  0  0  0  0
 45 10  1  0  0  0  0
 46  1  1  0  0  0  0
M  END
>  <CHROM.1>
-156.09494711,-92.73709696,150.03099026,111.48251083,107.36604639,177.53567854
137.76175933,-173.28541250,-65.14287063,75.78205609,168.56970073,-67.71507777
-46.66469692,12.42759768,-14.04847849,7.39998612,0.37575450,-0.09438340,-0.73938668

>  <Name>
lig.pdb

>  <RI>
0

>  <Rbt.Current_Directory>
/home/afrankz/demos/rdock_decoys_rna/rnas/3wru

>  <Rbt.Executable>
rbdock ($Id: //depot/dev/client3/rdock/2013.1/src/exe/rbdock.cxx#4 $)

>  <Rbt.Library>
libRbt.so (2013.1, Build901 2013/11/27)

>  <Rbt.Parameter_File>
/export/apps/rDock/src/rDock_2013.1_src/data/scripts/dock_solv.prm

>  <Rbt.Receptor>
prm/pocket_docking_2.prm

>  <SCORE>
20.1862

>  <SCORE.INTER>
9.4342

>  <SCORE.INTER.CONST>
1

>  <SCORE.INTER.POLAR>
0

>  <SCORE.INTER.ROT>
13

>  <SCORE.INTER.SOLV>
21.1368

>  <SCORE.INTER.VDW>
-13.0228

>  <SCORE.INTER.norm>
0.205091

>  <SCORE.INTRA>
8.94468

>  <SCORE.INTRA.DIHEDRAL>
11.6401

>  <SCORE.INTRA.DIHEDRAL.0>
19.7146

>  <SCORE.INTRA.POLAR>
0

>  <SCORE.INTRA.POLAR.0>
0

>  <SCORE.INTRA.REPUL>
0

>  <SCORE.INTRA.REPUL.0>
0

>  <SCORE.INTRA.SOLV>
0.914344

>  <SCORE.INTRA.SOLV.lig_0>
-116.697

>  <SCORE.INTRA.VDW>
2.66745

>  <SCORE.INTRA.VDW.0>
-7.06424

>  <SCORE.INTRA.norm>
0.19445

>  <SCORE.RESTR>
1.8073

>  <SCORE.RESTR.CAVITY>
1.8073

>  <SCORE.RESTR.norm>
0.0392891

>  <SCORE.SYSTEM>
0

>  <SCORE.SYSTEM.CONST>
0

>  <SCORE.SYSTEM.DIHEDRAL>
0

>  <SCORE.SYSTEM.SOLV>
0

>  <SCORE.SYSTEM.norm>
0

>  <SCORE.heavy>
46

>  <SCORE.norm>
0.43883

>  <RMSD>
2.979

$$$$
lig.pdb
 OpenBabel03061811583D
libRbt.so/2013.1/901 2013/11/27
 46 49  0  0  0  0  0  0  0  0999 V2000
   10.7420  -10.3980    4.7763 C   0  0  1  0  0  0  0  0  0  0  0  0
   13.1094  -10.7780    5.5880 C   0  0  1  0  0  0  0  0  0  0  0  0
   12.8254  -11.8374    6.6955 C   0  0  1  0  0  0  0  0  0  0  0  0
   14.0210  -11.7928    7.7779 C   0  0  2  0  0  0  0  0  0  0  0  0
   10.6033  -12.2574    7.8462 C   0  0  2  0  0  0  0  0  0  0  0  0
   10.7078  -13.7268    7.3477 C   0  0  1  0  0  0  0  0  0  0  0  0
   10.0584  -14.3958    8.5350 C   0  0  1  0  0  0  0  0  0  0  0  0
   10.7195  -13.7234    9.7800 C   0  0  1  0  0  0  0  0  0  0  0  0
   12.1190  -14.2761   10.2245 C   0  0  0  0  0  0  0  0  0  0  0  0
    7.8486  -14.7953    7.5150 C   0  0  1  0  0  0  0  0  0  0  0  0
    6.3685  -14.5611    7.5726 C   0  0  1  0  0  0  0  0  0  0  0  0
    9.8457  -10.8989    3.6191 C   0  0  1  0  0  0  0  0  0  0  0  0
    5.6856  -15.4100    6.4423 C   0  0  0  0  0  0  0  0  0  0  0  0
    5.8926  -16.8259    6.5465 C   0  0  0  0  0  0  0  0  0  0  0  0
    7.3121  -17.0949    6.4589 C   0  0  2  0  0  0  0  0  0  0  0  0
    7.6043  -18.6427    6.5770 C   0  0  0  0  0  0  0  0  0  0  0  0
   19.9268  -12.1292    8.1968 C   0  0  2  0  0  0  0  0  0  0  0  0
   17.7508  -12.7960    7.5857 C   0  0  0  0  0  0  0  0  0  0  0  0
   20.5417  -13.1105    7.4424 C   0  0  0  0  0  0  0  0  0  0  0  0
   18.8195  -12.6543    8.7778 C   0  0  1  0  0  0  0  0  0  0  0  0
   10.2404  -10.1944    2.2423 C   0  0  0  0  0  0  0  0  0  0  0  0
   10.0952   -8.6084    2.4311 C   0  0  0  0  0  0  0  0  0  0  0  0
   11.0690   -8.1632    3.6183 C   0  0  1  0  0  0  0  0  0  0  0  0
   10.9928   -6.6552    3.8858 C   0  0  0  0  0  0  0  0  0  0  0  0
   15.3717  -12.1902    7.0374 C   0  0  1  0  0  0  0  0  0  0  0  0
   15.6257  -11.0452    5.9192 C   0  0  0  0  0  0  0  0  0  0  0  0
   14.4519  -11.0517    4.8656 C   0  0  2  0  0  0  0  0  0  0  0  0
   19.6406  -10.9855    7.3604 F   0  0  0  0  0  0  0  0  0  0  0  0
    7.0103  -19.2794    7.8662 N   0  0  0  0  0  0  0  0  0  0  0  0
    9.9685  -12.4019    3.5462 N   0  0  0  0  0  0  0  0  0  0  0  0
    5.7687  -14.9795    8.7637 N   0  0  0  0  0  0  0  0  0  0  0  0
   21.8414  -13.1891    6.8894 N   0  0  0  0  0  0  0  0  0  0  0  0
   12.0545   -6.2324    4.7135 N   0  0  0  0  0  0  0  0  0  0  0  0
   16.4903  -12.1744    7.9971 N   0  0  0  0  0  0  0  0  0  0  0  0
   14.6641  -10.0020    3.8447 N   0  0  0  0  0  0  0  0  0  0  0  0
   12.0951  -10.8158    4.5925 O   0  0  0  0  0  0  0  0  0  0  0  0
   11.5098  -11.4699    7.3177 O   0  0  0  0  0  0  0  0  0  0  0  0
   13.7474  -12.7359    8.7431 O   0  0  0  0  0  0  0  0  0  0  0  0
    9.9817  -13.8391    6.1614 O   0  0  0  0  0  0  0  0  0  0  0  0
   10.6345  -12.3667    9.3133 O   0  0  0  0  0  0  0  0  0  0  0  0
   12.4565  -13.6383   11.4725 O   0  0  0  0  0  0  0  0  0  0  0  0
    8.5628  -14.1396    8.4941 O   0  0  0  0  0  0  0  0  0  0  0  0
   19.0546  -13.9476    9.3763 O   0  0  0  0  0  0  0  0  0  0  0  0
   17.9812  -13.3360    6.4912 O   0  0  0  0  0  0  0  0  0  0  0  0
    8.0586  -16.3294    7.5259 O   0  0  0  0  0  0  0  0  0  0  0  0
   10.6963   -8.9014    4.8936 O   0  0  0  0  0  0  0  0  0  0  0  0
  1 36  1  6  0  0  0
  2 36  1  6  0  0  0
  2  3  1  0  0  0  0
  3 37  1  1  0  0  0
  3  4  1  0  0  0  0
  4 38  1  1  0  0  0
  5 37  1  6  0  0  0
  5  6  1  0  0  0  0
  6  7  1  0  0  0  0
  6 39  1  6  0  0  0
  7 42  1  1  0  0  0
  8  9  1  6  0  0  0
  8  7  1  0  0  0  0
 10 42  1  1  0  0  0
 10 11  1  0  0  0  0
 11 31  1  1  0  0  0
 11 13  1  0  0  0  0
 12 30  1  6  0  0  0
 12  1  1  0  0  0  0
 14 13  1  0  0  0  0
 15 16  1  1  0  0  0
 15 14  1  0  0  0  0
 17 19  1  6  0  0  0
 17 28  1  0  0  0  0
 18 34  1  0  0  0  0
 19 32  1  0  0  0  0
 20 18  1  6  0  0  0
 20 17  1  0  0  0  0
 20 43  1  0  0  0  0
 21 12  1  0  0  0  0
 22 21  1  0  0  0  0
 22 23  1  0  0  0  0
 23 24  1  1  0  0  0
 23 46  1  0  0  0  0
 24 33  1  0  0  0  0
 25 34  1  1  0  0  0
 25  4  1  0  0  0  0
 26 25  1  0  0  0  0
 27 35  1  6  0  0  0
 27 26  1  0  0  0  0
 27  2  1  0  0  0  0
 29 16  1  0  0  0  0
 40  8  1  0  0  0  0
 40  5  1  0  0  0  0
 41  9  1  0  0  0  0
 44 18  2  0  0  0  0
 45 15  1  0  0  0  0
 45 10  1  0  0  0  0
 46  1  1  0  0  0  0
M  END
>  <CHROM.1>
-165.84511876,69.53195751,148.94619311,-21.45026448,71.16617606,-172.86798922
176.81608464,-55.24382344,-164.14957281,-128.97370762,-73.79205763,-166.89222172
166.59631862,12.27611019,-12.62392351,6.78447242,2.91450745,0.19034031,2.51884642

>  <Name>
lig.pdb

>  <RI>
0

>  <Rbt.Current_Directory>
/home/afrankz/demos/rdock_decoys_rna/rnas/3wru

>  <Rbt.Executable>
rbdock ($Id: //depot/dev/client3/rdock/2013.1/src/exe/rbdock.cxx#4 $)

>  <Rbt.Library>
libRbt.so (2013.1, Build901 2013/11/27)

>  <Rbt.Parameter_File>
/export/apps/rDock/src/rDock_2013.1_src/data/scripts/dock_solv.prm

>  <Rbt.Receptor>
prm/pocket_docking_3.prm

>  <SCORE>
-2.79918

>  <SCORE.INTER>
-7.8138

>  <SCORE.INTER.CONST>
1

>  <SCORE.INTER.POLAR>
0

>  <SCORE.INTER.ROT>
13

>  <SCORE.INTER.SOLV>
26.295

>  <SCORE.INTER.VDW>
-26.2409

>  <SCORE.INTER.norm>
-0.169865

>  <SCORE.INTRA>
5.01461

>  <SCORE.INTRA.DIHEDRAL>
-3.69839

>  <SCORE.INTRA.DIHEDRAL.0>
19.7146

>  <SCORE.INTRA.POLAR>
0

>  <SCORE.INTRA.POLAR.0>
0

>  <SCORE.INTRA.REPUL>
0

>  <SCORE.INTRA.REPUL.0>
0

>  <SCORE.INTRA.SOLV>
0.674457

>  <SCORE.INTRA.SOLV.lig_0>
-116.697

>  <SCORE.INTRA.VDW>
6.52658

>  <SCORE.INTRA.VDW.0>
-7.06424

>  <SCORE.INTRA.norm>
0.109013

>  <SCORE.RESTR>
0

>  <SCORE.RESTR.CAVITY>
0

>  <SCORE.RESTR.norm>
0

>  <SCORE.SYSTEM>
0

>  <SCORE.SYSTEM.CONST>
0

>  <SCORE.SYSTEM.DIHEDRAL>
0

>  <SCORE.SYSTEM.SOLV>
0

>  <SCORE.SYSTEM.norm>
0

>  <SCORE.heavy>
46

>  <SCORE.norm>
-0.0608518

>  <RMSD>
2.996

$$$$
lig.pdb
 OpenBabel03061811583D
libRbt.so/2013.1/901 2013/11/27
 46 49  0  0  0  0  0  0  0  0999 V2000
   10.4314  -11.2806    4.6017 C   0  0  1  0  0  0  0  0  0  0  0  0
   12.7012  -12.0833    5.3838 C   0  0  1  0  0  0  0  0  0  0  0  0
   13.3681  -13.4761    5.1715 C   0  0  1  0  0  0  0  0  0  0  0  0
   14.4977  -13.6905    6.3033 C   0  0  2  0  0  0  0  0  0  0  0  0
   11.4125  -14.6725    6.2587 C   0  0  2  0  0  0  0  0  0  0  0  0
   12.0873  -14.9703    7.6279 C   0  0  1  0  0  0  0  0  0  0  0  0
   10.9749  -14.4749    8.5201 C   0  0  1  0  0  0  0  0  0  0  0  0
   10.5513  -13.1044    7.9025 C   0  0  1  0  0  0  0  0  0  0  0  0
   11.4224  -11.8561    8.2828 C   0  0  0  0  0  0  0  0  0  0  0  0
    8.8415  -15.2554    7.5592 C   0  0  1  0  0  0  0  0  0  0  0  0
    7.8874  -14.1567    7.9216 C   0  0  1  0  0  0  0  0  0  0  0  0
    9.4969  -11.5480    3.3982 C   0  0  1  0  0  0  0  0  0  0  0  0
    6.7892  -14.0620    6.8038 C   0  0  0  0  0  0  0  0  0  0  0  0
    6.0108  -15.2538    6.6240 C   0  0  0  0  0  0  0  0  0  0  0  0
    6.8959  -16.3319    6.2375 C   0  0  2  0  0  0  0  0  0  0  0  0
    6.0946  -17.6777    6.0332 C   0  0  0  0  0  0  0  0  0  0  0  0
   20.0384  -11.6353    7.8729 C   0  0  2  0  0  0  0  0  0  0  0  0
   17.8689  -11.9068    6.9940 C   0  0  0  0  0  0  0  0  0  0  0  0
   20.9121  -11.7415    8.9384 C   0  0  0  0  0  0  0  0  0  0  0  0
   18.8759  -12.2537    8.1976 C   0  0  1  0  0  0  0  0  0  0  0  0
    9.9940  -10.7622    2.1009 C   0  0  0  0  0  0  0  0  0  0  0  0
   10.0415   -9.1975    2.4499 C   0  0  0  0  0  0  0  0  0  0  0  0
   11.0457   -8.9978    3.6778 C   0  0  1  0  0  0  0  0  0  0  0  0
   11.1509   -7.5266    4.0972 C   0  0  0  0  0  0  0  0  0  0  0  0
   15.6081  -12.5676    6.1109 C   0  0  1  0  0  0  0  0  0  0  0  0
   14.8641  -11.1508    6.3661 C   0  0  0  0  0  0  0  0  0  0  0  0
   13.7346  -10.9337    5.2867 C   0  0  2  0  0  0  0  0  0  0  0  0
   20.6574  -12.1785    6.6848 F   0  0  0  0  0  0  0  0  0  0  0  0
    6.9634  -18.8206    5.4339 N   0  0  0  0  0  0  0  0  0  0  0  0
    9.4358  -13.0396    3.1729 N   0  0  0  0  0  0  0  0  0  0  0  0
    7.1871  -14.3759    9.1112 N   0  0  0  0  0  0  0  0  0  0  0  0
   22.2630  -11.3473    9.0840 N   0  0  0  0  0  0  0  0  0  0  0  0
   11.7744   -6.7560    3.0930 N   0  0  0  0  0  0  0  0  0  0  0  0
   16.6688  -12.7365    7.1203 N   0  0  0  0  0  0  0  0  0  0  0  0
   13.0377   -9.6486    5.5149 N   0  0  0  0  0  0  0  0  0  0  0  0
   11.7257  -11.8412    4.3783 O   0  0  0  0  0  0  0  0  0  0  0  0
   12.2766  -14.4999    5.2868 O   0  0  0  0  0  0  0  0  0  0  0  0
   15.0710  -14.9249    6.0942 O   0  0  0  0  0  0  0  0  0  0  0  0
   12.3182  -16.3439    7.7123 O   0  0  0  0  0  0  0  0  0  0  0  0
   10.5253  -13.5303    6.5300 O   0  0  0  0  0  0  0  0  0  0  0  0
   11.3048  -11.6676    9.7071 O   0  0  0  0  0  0  0  0  0  0  0  0
    9.8321  -15.4737    8.4918 O   0  0  0  0  0  0  0  0  0  0  0  0
   19.0128  -13.6864    8.3194 O   0  0  0  0  0  0  0  0  0  0  0  0
   18.0850  -11.0559    6.1154 O   0  0  0  0  0  0  0  0  0  0  0  0
    7.9853  -16.5124    7.2683 O   0  0  0  0  0  0  0  0  0  0  0  0
   10.5676   -9.8092    4.8707 O   0  0  0  0  0  0  0  0  0  0  0  0
  1 36  1  6  0  0  0
  2 36  1  6  0  0  0
  2  3  1  0  0  0  0
  3 37  1  1  0  0  0
  3  4  1  0  0  0  0
  4 38  1  6  0  0  0
  5 37  1  6  0  0  0
  5  6  1  0  0  0  0
  6  7  1  0  0  0  0
  6 39  1  1  0  0  0
  7 42  1  6  0  0  0
  8  9  1  6  0  0  0
  8  7  1  0  0  0  0
 10 42  1  1  0  0  0
 10 11  1  0  0  0  0
 11 31  1  1  0  0  0
 11 13  1  0  0  0  0
 12 30  1  6  0  0  0
 12  1  1  0  0  0  0
 14 13  1  0  0  0  0
 15 16  1  1  0  0  0
 15 14  1  0  0  0  0
 17 19  1  1  0  0  0
 17 28  1  0  0  0  0
 18 34  1  0  0  0  0
 19 32  1  0  0  0  0
 20 18  1  6  0  0  0
 20 17  1  0  0  0  0
 20 43  1  0  0  0  0
 21 12  1  0  0  0  0
 22 21  1  0  0  0  0
 22 23  1  0  0  0  0
 23 24  1  1  0  0  0
 23 46  1  0  0  0  0
 24 33  1  0  0  0  0
 25 34  1  1  0  0  0
 25  4  1  0  0  0  0
 26 25  1  0  0  0  0
 27 35  1  1  0  0  0
 27 26  1  0  0  0  0
 27  2  1  0  0  0  0
 29 16  1  0  0  0  0
 40  8  1  0  0  0  0
 40  5  1  0  0  0  0
 41  9  1  0  0  0  0
 44 18  2  0  0  0  0
 45 15  1  0  0  0  0
 45 10  1  0  0  0  0
 46  1  1  0  0  0  0
M  END
>  <CHROM.1>
-162.92737673,136.85422330,-53.42054481,-59.68414396,-92.33701514,-62.85011990
-76.37658738,172.27830896,175.53295302,169.22646122,172.53318643,-67.23677307
172.03632704,12.45420326,-12.86135476,6.33553700,2.97718424,0.22653243,2.57131091

>  <Name>
lig.pdb

>  <RI>
0

>  <Rbt.Current_Directory>
/home/afrankz/demos/rdock_decoys_rna/rnas/3wru

>  <Rbt.Executable>
rbdock ($Id: //depot/dev/client3/rdock/2013.1/src/exe/rbdock.cxx#4 $)

>  <Rbt.Library>
libRbt.so (2013.1, Build901 2013/11/27)

>  <Rbt.Parameter_File>
/export/apps/rDock/src/rDock_2013.1_src/data/scripts/dock_solv.prm

>  <Rbt.Receptor>
prm/pocket_docking_8.prm

>  <SCORE>
-6.73443

>  <SCORE.INTER>
-10.473

>  <SCORE.INTER.CONST>
1

>  <SCORE.INTER.POLAR>
0

>  <SCORE.INTER.ROT>
13

>  <SCORE.INTER.SOLV>
20.565

>  <SCORE.INTER.VDW>
-26.1036

>  <SCORE.INTER.norm>
-0.227673

>  <SCORE.INTRA>
3.73853

>  <SCORE.INTRA.DIHEDRAL>
-5.16545

>  <SCORE.INTRA.DIHEDRAL.0>
19.7146

>  <SCORE.INTRA.POLAR>
0

>  <SCORE.INTRA.POLAR.0>
0

>  <SCORE.INTRA.REPUL>
0

>  <SCORE.INTRA.REPUL.0>
0

>  <SCORE.INTRA.SOLV>
3.48171

>  <SCORE.INTRA.SOLV.lig_0>
-116.697

>  <SCORE.INTRA.VDW>
4.58039

>  <SCORE.INTRA.VDW.0>
-7.06424

>  <SCORE.INTRA.norm>
0.0812723

>  <SCORE.RESTR>
0

>  <SCORE.RESTR.CAVITY>
0

>  <SCORE.RESTR.norm>
0

>  <SCORE.SYSTEM>
0

>  <SCORE.SYSTEM.CONST>
0

>  <SCORE.SYSTEM.DIHEDRAL>
0

>  <SCORE.SYSTEM.SOLV>
0

>  <SCORE.SYSTEM.norm>
0

>  <SCORE.heavy>
46

>  <SCORE.norm>
-0.146401

>  <RMSD>
3.005

$$$$
lig.pdb
 OpenBabel03061811583D
libRbt.so/2013.1/901 2013/11/27
 46 49  0  0  0  0  0  0  0  0999 V2000
   10.7174  -11.1402    4.2987 C   0  0  1  0  0  0  0  0  0  0  0  0
   13.0633  -11.8219    4.9620 C   0  0  1  0  0  0  0  0  0  0  0  0
   13.6970  -13.2148    4.6652 C   0  0  1  0  0  0  0  0  0  0  0  0
   14.8565  -13.5012    5.7498 C   0  0  2  0  0  0  0  0  0  0  0  0
   11.9185  -14.5999    5.8297 C   0  0  2  0  0  0  0  0  0  0  0  0
   12.7842  -15.3951    6.8480 C   0  0  1  0  0  0  0  0  0  0  0  0
   11.9796  -15.0895    8.0882 C   0  0  1  0  0  0  0  0  0  0  0  0
   11.7004  -13.5548    8.0120 C   0  0  1  0  0  0  0  0  0  0  0  0
   12.8427  -12.6010    8.5091 C   0  0  0  0  0  0  0  0  0  0  0  0
    9.8277  -15.7199    9.1156 C   0  0  1  0  0  0  0  0  0  0  0  0
    8.6233  -16.6126    9.0782 C   0  0  1  0  0  0  0  0  0  0  0  0
    9.8012  -11.3347    3.0675 C   0  0  1  0  0  0  0  0  0  0  0  0
    7.7097  -16.2681   10.3074 C   0  0  0  0  0  0  0  0  0  0  0  0
    7.2311  -14.9158   10.3398 C   0  0  0  0  0  0  0  0  0  0  0  0
    8.3681  -14.0230   10.4123 C   0  0  2  0  0  0  0  0  0  0  0  0
    7.9029  -12.5138   10.4415 C   0  0  0  0  0  0  0  0  0  0  0  0
   20.0738  -11.4832    7.5727 C   0  0  2  0  0  0  0  0  0  0  0  0
   18.4391  -12.3408    6.1080 C   0  0  0  0  0  0  0  0  0  0  0  0
   20.7690  -11.5973    8.7617 C   0  0  0  0  0  0  0  0  0  0  0  0
   19.4483  -12.6593    7.3177 C   0  0  1  0  0  0  0  0  0  0  0  0
   10.1911  -10.3217    1.8972 C   0  0  0  0  0  0  0  0  0  0  0  0
   10.0713   -8.8273    2.4672 C   0  0  0  0  0  0  0  0  0  0  0  0
   11.0644   -8.6951    3.7129 C   0  0  1  0  0  0  0  0  0  0  0  0
   11.0133   -7.2963    4.3393 C   0  0  0  0  0  0  0  0  0  0  0  0
   15.9814  -12.3900    5.5744 C   0  0  1  0  0  0  0  0  0  0  0  0
   15.2724  -10.9738    5.9175 C   0  0  0  0  0  0  0  0  0  0  0  0
   14.1147  -10.6872    4.8853 C   0  0  2  0  0  0  0  0  0  0  0  0
   20.9799  -11.0826    6.5200 F   0  0  0  0  0  0  0  0  0  0  0  0
    7.2173  -12.0606    9.1206 N   0  0  0  0  0  0  0  0  0  0  0  0
    9.9011  -12.7764    2.6304 N   0  0  0  0  0  0  0  0  0  0  0  0
    7.8134  -16.4342    7.9532 N   0  0  0  0  0  0  0  0  0  0  0  0
   21.9057  -12.3634    9.1114 N   0  0  0  0  0  0  0  0  0  0  0  0
   11.5409   -6.3270    3.4600 N   0  0  0  0  0  0  0  0  0  0  0  0
   17.0691  -12.6240    6.5410 N   0  0  0  0  0  0  0  0  0  0  0  0
   13.4494   -9.4022    5.1941 N   0  0  0  0  0  0  0  0  0  0  0  0
   12.0621  -11.5164    3.9998 O   0  0  0  0  0  0  0  0  0  0  0  0
   12.5904  -14.2237    4.7676 O   0  0  0  0  0  0  0  0  0  0  0  0
   15.3997  -14.7343    5.4664 O   0  0  0  0  0  0  0  0  0  0  0  0
   12.7720  -16.7401    6.4764 O   0  0  0  0  0  0  0  0  0  0  0  0
   11.3265  -13.5125    6.6248 O   0  0  0  0  0  0  0  0  0  0  0  0
   13.2030  -13.0192    9.8408 O   0  0  0  0  0  0  0  0  0  0  0  0
   10.6908  -15.8908    8.0551 O   0  0  0  0  0  0  0  0  0  0  0  0
   20.3587  -13.7105    6.9274 O   0  0  0  0  0  0  0  0  0  0  0  0
   18.7839  -11.9088    4.9958 O   0  0  0  0  0  0  0  0  0  0  0  0
    9.3040  -14.2691    9.2525 O   0  0  0  0  0  0  0  0  0  0  0  0
   10.6949   -9.7163    4.7763 O   0  0  0  0  0  0  0  0  0  0  0  0
  1 36  1  6  0  0  0
  2 36  1  6  0  0  0
  2  3  1  0  0  0  0
  3 37  1  1  0  0  0
  3  4  1  0  0  0  0
  4 38  1  6  0  0  0
  5 37  1  6  0  0  0
  5  6  1  0  0  0  0
  6  7  1  0  0  0  0
  6 39  1  6  0  0  0
  7 42  1  6  0  0  0
  8  9  1  6  0  0  0
  8  7  1  0  0  0  0
 10 42  1  6  0  0  0
 10 11  1  0  0  0  0
 11 31  1  6  0  0  0
 11 13  1  0  0  0  0
 12 30  1  6  0  0  0
 12  1  1  0  0  0  0
 14 13  1  0  0  0  0
 15 16  1  6  0  0  0
 15 14  1  0  0  0  0
 17 19  1  1  0  0  0
 17 28  1  0  0  0  0
 18 34  1  0  0  0  0
 19 32  1  0  0  0  0
 20 18  1  6  0  0  0
 20 17  1  0  0  0  0
 20 43  1  0  0  0  0
 21 12  1  0  0  0  0
 22 21  1  0  0  0  0
 22 23  1  0  0  0  0
 23 24  1  1  0  0  0
 23 46  1  0  0  0  0
 24 33  1  0  0  0  0
 25 34  1  1  0  0  0
 25  4  1  0  0  0  0
 26 25  1  0  0  0  0
 27 35  1  1  0  0  0
 27 26  1  0  0  0  0
 27  2  1  0  0  0  0
 29 16  1  0  0  0  0
 40  8  1  0  0  0  0
 40  5  1  0  0  0  0
 41  9  1  0  0  0  0
 44 18  2  0  0  0  0
 45 15  1  0  0  0  0
 45 10  1  0  0  0  0
 46  1  1  0  0  0  0
M  END
>  <CHROM.1>
-161.29725112,126.62925192,-67.47516745,-68.15609871,-179.45241031,-53.24779895
-175.62803355,-65.94680897,68.01920825,-120.17606479,168.57375684,-67.54678191
143.74752368,13.02960217,-12.65890677,6.52380323,2.93870428,0.04660766,2.37244851

>  <Name>
lig.pdb

>  <RI>
0

>  <Rbt.Current_Directory>
/home/afrankz/demos/rdock_decoys_rna/rnas/3wru

>  <Rbt.Executable>
rbdock ($Id: //depot/dev/client3/rdock/2013.1/src/exe/rbdock.cxx#4 $)

>  <Rbt.Library>
libRbt.so (2013.1, Build901 2013/11/27)

>  <Rbt.Parameter_File>
/export/apps/rDock/src/rDock_2013.1_src/data/scripts/dock_solv.prm

>  <Rbt.Receptor>
prm/pocket_docking_3.prm

>  <SCORE>
-2.11828

>  <SCORE.INTER>
-1.48041

>  <SCORE.INTER.CONST>
1

>  <SCORE.INTER.POLAR>
0

>  <SCORE.INTER.ROT>
13

>  <SCORE.INTER.SOLV>
22.1463

>  <SCORE.INTER.VDW>
-20.6357

>  <SCORE.INTER.norm>
-0.0321827

>  <SCORE.INTRA>
-1.41576

>  <SCORE.INTRA.DIHEDRAL>
-5.85006

>  <SCORE.INTRA.DIHEDRAL.0>
19.7146

>  <SCORE.INTRA.POLAR>
0

>  <SCORE.INTRA.POLAR.0>
0

>  <SCORE.INTRA.REPUL>
0

>  <SCORE.INTRA.REPUL.0>
0

>  <SCORE.INTRA.SOLV>
3.17187

>  <SCORE.INTRA.SOLV.lig_0>
-116.697

>  <SCORE.INTRA.VDW>
-0.0766624

>  <SCORE.INTRA.VDW.0>
-7.06424

>  <SCORE.INTRA.norm>
-0.0307774

>  <SCORE.RESTR>
0.777884

>  <SCORE.RESTR.CAVITY>
0.777884

>  <SCORE.RESTR.norm>
0.0169105

>  <SCORE.SYSTEM>
0

>  <SCORE.SYSTEM.CONST>
0

>  <SCORE.SYSTEM.DIHEDRAL>
0

>  <SCORE.SYSTEM.SOLV>
0

>  <SCORE.SYSTEM.norm>
0

>  <SCORE.heavy>
46

>  <SCORE.norm>
-0.0460496

>  <RMSD>
3.026

$$$$
lig.pdb
 OpenBabel03061811583D
libRbt.so/2013.1/901 2013/11/27
 46 49  0  0  0  0  0  0  0  0999 V2000
   11.2033  -12.1077    4.4565 C   0  0  1  0  0  0  0  0  0  0  0  0
   13.6753  -12.0757    5.0006 C   0  0  1  0  0  0  0  0  0  0  0  0
   14.4168  -13.4382    5.1549 C   0  0  1  0  0  0  0  0  0  0  0  0
   15.6735  -13.2377    6.1465 C   0  0  2  0  0  0  0  0  0  0  0  0
   12.4153  -14.1761    6.5288 C   0  0  2  0  0  0  0  0  0  0  0  0
   11.6371  -15.4645    6.9201 C   0  0  1  0  0  0  0  0  0  0  0  0
   11.0718  -14.9756    8.2318 C   0  0  1  0  0  0  0  0  0  0  0  0
   12.2759  -14.2892    8.9516 C   0  0  1  0  0  0  0  0  0  0  0  0
   13.2701  -15.2277    9.7213 C   0  0  0  0  0  0  0  0  0  0  0  0
    8.8561  -14.4682    7.2743 C   0  0  1  0  0  0  0  0  0  0  0  0
    7.7840  -13.4470    7.0367 C   0  0  1  0  0  0  0  0  0  0  0  0
   10.2990  -12.6375    3.3186 C   0  0  1  0  0  0  0  0  0  0  0  0
    6.5816  -14.1472    6.3097 C   0  0  0  0  0  0  0  0  0  0  0  0
    5.9819  -15.2250    7.0427 C   0  0  0  0  0  0  0  0  0  0  0  0
    6.9807  -16.2497    7.2610 C   0  0  2  0  0  0  0  0  0  0  0  0
    6.3797  -17.4631    8.0744 C   0  0  0  0  0  0  0  0  0  0  0  0
   19.8389  -13.0039    8.2461 C   0  0  2  0  0  0  0  0  0  0  0  0
   19.0597  -12.7494    6.0368 C   0  0  0  0  0  0  0  0  0  0  0  0
   20.9180  -13.0143    9.1094 C   0  0  0  0  0  0  0  0  0  0  0  0
   20.1989  -12.3671    7.1041 C   0  0  1  0  0  0  0  0  0  0  0  0
   10.3889  -11.6988    2.0308 C   0  0  0  0  0  0  0  0  0  0  0  0
    9.9555  -10.2156    2.4605 C   0  0  0  0  0  0  0  0  0  0  0  0
   10.9497   -9.7272    3.6132 C   0  0  1  0  0  0  0  0  0  0  0  0
   10.6078   -8.3149    4.1032 C   0  0  0  0  0  0  0  0  0  0  0  0
   16.6710  -12.1966    5.4743 C   0  0  1  0  0  0  0  0  0  0  0  0
   15.8560  -10.8004    5.3624 C   0  0  0  0  0  0  0  0  0  0  0  0
   14.6047  -10.9815    4.4193 C   0  0  2  0  0  0  0  0  0  0  0  0
   18.7026  -12.3957    8.9008 F   0  0  0  0  0  0  0  0  0  0  0  0
    7.3958  -18.6230    8.2803 N   0  0  0  0  0  0  0  0  0  0  0  0
   10.7072  -14.0595    3.0173 N   0  0  0  0  0  0  0  0  0  0  0  0
    7.2438  -12.9017    8.2048 N   0  0  0  0  0  0  0  0  0  0  0  0
   21.6376  -11.9608    9.7209 N   0  0  0  0  0  0  0  0  0  0  0  0
   11.5652   -7.8544    5.0318 N   0  0  0  0  0  0  0  0  0  0  0  0
   17.8430  -11.9948    6.3449 N   0  0  0  0  0  0  0  0  0  0  0  0
   13.8432   -9.7170    4.3176 N   0  0  0  0  0  0  0  0  0  0  0  0
   12.5827  -12.2039    4.0999 O   0  0  0  0  0  0  0  0  0  0  0  0
   13.4223  -14.4095    5.7210 O   0  0  0  0  0  0  0  0  0  0  0  0
   16.3107  -14.4526    6.2657 O   0  0  0  0  0  0  0  0  0  0  0  0
   10.6750  -15.7094    5.9395 O   0  0  0  0  0  0  0  0  0  0  0  0
   12.7648  -13.5556    7.8165 O   0  0  0  0  0  0  0  0  0  0  0  0
   14.2521  -14.3852   10.3568 O   0  0  0  0  0  0  0  0  0  0  0  0
    9.9539  -13.9870    7.9542 O   0  0  0  0  0  0  0  0  0  0  0  0
   20.2632  -10.9319    7.2535 O   0  0  0  0  0  0  0  0  0  0  0  0
   19.2112  -13.5480    5.0977 O   0  0  0  0  0  0  0  0  0  0  0  0
    8.1792  -15.6713    7.9757 O   0  0  0  0  0  0  0  0  0  0  0  0
   10.8764  -10.6812    4.7942 O   0  0  0  0  0  0  0  0  0  0  0  0
  1 36  1  6  0  0  0
  2 36  1  6  0  0  0
  2  3  1  0  0  0  0
  3 37  1  1  0  0  0
  3  4  1  0  0  0  0
  4 38  1  6  0  0  0
  5 37  1  1  0  0  0
  5  6  1  0  0  0  0
  6  7  1  0  0  0  0
  6 39  1  6  0  0  0
  7 42  1  6  0  0  0
  8  9  1  6  0  0  0
  8  7  1  0  0  0  0
 10 42  1  1  0  0  0
 10 11  1  0  0  0  0
 11 31  1  1  0  0  0
 11 13  1  0  0  0  0
 12 30  1  6  0  0  0
 12  1  1  0  0  0  0
 14 13  1  0  0  0  0
 15 16  1  1  0  0  0
 15 14  1  0  0  0  0
 17 19  1  1  0  0  0
 17 28  1  0  0  0  0
 18 34  1  0  0  0  0
 19 32  1  0  0  0  0
 20 18  1  6  0  0  0
 20 17  1  0  0  0  0
 20 43  1  0  0  0  0
 21 12  1  0  0  0  0
 22 21  1  0  0  0  0
 22 23  1  0  0  0  0
 23 24  1  1  0  0  0
 23 46  1  0  0  0  0
 24 33  1  0  0  0  0
 25 34  1  1  0  0  0
 25  4  1  0  0  0  0
 26 25  1  0  0  0  0
 27 35  1  1  0  0  0
 27 26  1  0  0  0  0
 27  2  1  0  0  0  0
 29 16  1  0  0  0  0
 40  8  1  0  0  0  0
 40  5  1  0  0  0  0
 41  9  1  0  0  0  0
 44 18  2  0  0  0  0
 45 15  1  0  0  0  0
 45 10  1  0  0  0  0
 46  1  1  0  0  0  0
M  END
>  <CHROM.1>
-165.94994290,112.42325191,-31.09025556,-178.42136883,62.41340203,-177.19351689
179.70773509,177.36481297,61.94382634,74.72613388,164.95946653,-174.70462328
97.92891367,12.98024198,-13.11203192,6.39329747,3.04209674,0.18666017,2.37688746

>  <Name>
lig.pdb

>  <RI>
0

>  <Rbt.Current_Directory>
/home/afrankz/demos/rdock_decoys_rna/rnas/3wru

>  <Rbt.Executable>
rbdock ($Id: //depot/dev/client3/rdock/2013.1/src/exe/rbdock.cxx#4 $)

>  <Rbt.Library>
libRbt.so (2013.1, Build901 2013/11/27)

>  <Rbt.Parameter_File>
/export/apps/rDock/src/rDock_2013.1_src/data/scripts/dock_solv.prm

>  <Rbt.Receptor>
prm/pocket_docking_3.prm

>  <SCORE>
-4.58681

>  <SCORE.INTER>
-5.20984

>  <SCORE.INTER.CONST>
1

>  <SCORE.INTER.POLAR>
0

>  <SCORE.INTER.ROT>
13

>  <SCORE.INTER.SOLV>
25.3676

>  <SCORE.INTER.VDW>
-24.1958

>  <SCORE.INTER.norm>
-0.113257

>  <SCORE.INTRA>
0.578062

>  <SCORE.INTRA.DIHEDRAL>
-5.47819

>  <SCORE.INTRA.DIHEDRAL.0>
19.7146

>  <SCORE.INTRA.POLAR>
0

>  <SCORE.INTRA.POLAR.0>
0

>  <SCORE.INTRA.REPUL>
0

>  <SCORE.INTRA.REPUL.0>
0

>  <SCORE.INTRA.SOLV>
4.20067

>  <SCORE.INTRA.SOLV.lig_0>
-116.697

>  <SCORE.INTRA.VDW>
1.21682

>  <SCORE.INTRA.VDW.0>
-7.06424

>  <SCORE.INTRA.norm>
0.0125666

>  <SCORE.RESTR>
0.0449654

>  <SCORE.RESTR.CAVITY>
0.0449654

>  <SCORE.RESTR.norm>
0.000977508

>  <SCORE.SYSTEM>
0

>  <SCORE.SYSTEM.CONST>
0

>  <SCORE.SYSTEM.DIHEDRAL>
0

>  <SCORE.SYSTEM.SOLV>
0

>  <SCORE.SYSTEM.norm>
0

>  <SCORE.heavy>
46

>  <SCORE.norm>
-0.0997133

>  <RMSD>
3.197

$$$$
lig.pdb
 OpenBabel03061811583D
libRbt.so/2013.1/901 2013/11/27
 46 49  0  0  0  0  0  0  0  0999 V2000
   12.1514  -11.2373    4.0623 C   0  0  1  0  0  0  0  0  0  0  0  0
   13.6049  -10.7179    6.0687 C   0  0  1  0  0  0  0  0  0  0  0  0
   13.6638  -11.7776    7.2103 C   0  0  1  0  0  0  0  0  0  0  0  0
   15.1150  -11.7071    7.9117 C   0  0  2  0  0  0  0  0  0  0  0  0
   11.3749  -11.9591    8.2900 C   0  0  2  0  0  0  0  0  0  0  0  0
   11.4043  -13.4347    8.7801 C   0  0  1  0  0  0  0  0  0  0  0  0
   10.0231  -13.4796    9.3877 C   0  0  1  0  0  0  0  0  0  0  0  0
    9.9123  -12.1622   10.2192 C   0  0  1  0  0  0  0  0  0  0  0  0
   10.5512  -12.1728   11.6522 C   0  0  0  0  0  0  0  0  0  0  0  0
    8.7033  -14.7612    7.7448 C   0  0  1  0  0  0  0  0  0  0  0  0
    7.7327  -14.7302    6.6020 C   0  0  1  0  0  0  0  0  0  0  0  0
   10.6934  -10.9938    3.6058 C   0  0  1  0  0  0  0  0  0  0  0  0
    7.4580  -16.2057    6.1418 C   0  0  0  0  0  0  0  0  0  0  0  0
    6.8933  -17.0545    7.1514 C   0  0  0  0  0  0  0  0  0  0  0  0
    7.8209  -17.1377    8.2594 C   0  0  2  0  0  0  0  0  0  0  0  0
    7.2480  -18.0549    9.4108 C   0  0  0  0  0  0  0  0  0  0  0  0
   19.8969  -13.2501    8.4939 C   0  0  2  0  0  0  0  0  0  0  0  0
   18.6796  -12.5120    6.6161 C   0  0  0  0  0  0  0  0  0  0  0  0
   20.1356  -14.5261    8.0197 C   0  0  0  0  0  0  0  0  0  0  0  0
   20.0337  -12.3709    7.4704 C   0  0  1  0  0  0  0  0  0  0  0  0
    9.6739  -11.8972    4.4378 C   0  0  0  0  0  0  0  0  0  0  0  0
   10.0859  -13.4339    4.2357 C   0  0  0  0  0  0  0  0  0  0  0  0
   11.5872  -13.6130    4.7552 C   0  0  1  0  0  0  0  0  0  0  0  0
   12.0808  -15.0556    4.5919 C   0  0  0  0  0  0  0  0  0  0  0  0
   16.2092  -12.0837    6.8201 C   0  0  1  0  0  0  0  0  0  0  0  0
   16.1169  -10.9391    5.6768 C   0  0  0  0  0  0  0  0  0  0  0  0
   14.6940  -10.9709    4.9968 C   0  0  2  0  0  0  0  0  0  0  0  0
   20.7830  -12.9732    9.6020 F   0  0  0  0  0  0  0  0  0  0  0  0
    6.0093  -17.4392   10.1225 N   0  0  0  0  0  0  0  0  0  0  0  0
   10.3964   -9.5203    3.7479 N   0  0  0  0  0  0  0  0  0  0  0  0
    6.4795  -14.2050    6.9295 N   0  0  0  0  0  0  0  0  0  0  0  0
   20.1751  -15.7773    8.6788 N   0  0  0  0  0  0  0  0  0  0  0  0
   11.3456  -15.9391    5.4104 N   0  0  0  0  0  0  0  0  0  0  0  0
   17.5525  -12.0441    7.4255 N   0  0  0  0  0  0  0  0  0  0  0  0
   14.5906   -9.9218    3.9585 N   0  0  0  0  0  0  0  0  0  0  0  0
   12.3519  -10.7779    5.3994 O   0  0  0  0  0  0  0  0  0  0  0  0
   12.5705  -11.4308    8.1785 O   0  0  0  0  0  0  0  0  0  0  0  0
   15.1419  -12.6509    8.9141 O   0  0  0  0  0  0  0  0  0  0  0  0
   11.5660  -14.2620    7.6681 O   0  0  0  0  0  0  0  0  0  0  0  0
   10.4660  -11.2811    9.2278 O   0  0  0  0  0  0  0  0  0  0  0  0
    9.8738  -13.1895   12.4175 O   0  0  0  0  0  0  0  0  0  0  0  0
    8.9912  -13.5224    8.2752 O   0  0  0  0  0  0  0  0  0  0  0  0
   20.1878  -11.0053    7.9152 O   0  0  0  0  0  0  0  0  0  0  0  0
   18.6210  -12.9374    5.4507 O   0  0  0  0  0  0  0  0  0  0  0  0
    8.1357  -15.7572    8.7857 O   0  0  0  0  0  0  0  0  0  0  0  0
   12.5138  -12.6925    3.9780 O   0  0  0  0  0  0  0  0  0  0  0  0
  1 36  1  1  0  0  0
  2 36  1  6  0  0  0
  2  3  1  0  0  0  0
  3 37  1  1  0  0  0
  3  4  1  0  0  0  0
  4 38  1  1  0  0  0
  5 37  1  1  0  0  0
  5  6  1  0  0  0  0
  6  7  1  0  0  0  0
  6 39  1  6  0  0  0
  7 42  1  6  0  0  0
  8  9  1  1  0  0  0
  8  7  1  0  0  0  0
 10 42  1  1  0  0  0
 10 11  1  0  0  0  0
 11 31  1  1  0  0  0
 11 13  1  0  0  0  0
 12 30  1  1  0  0  0
 12  1  1  0  0  0  0
 14 13  1  0  0  0  0
 15 16  1  1  0  0  0
 15 14  1  0  0  0  0
 17 19  1  6  0  0  0
 17 28  1  0  0  0  0
 18 34  1  0  0  0  0
 19 32  1  0  0  0  0
 20 18  1  6  0  0  0
 20 17  1  0  0  0  0
 20 43  1  0  0  0  0
 21 12  1  0  0  0  0
 22 21  1  0  0  0  0
 22 23  1  0  0  0  0
 23 24  1  6  0  0  0
 23 46  1  0  0  0  0
 24 33  1  0  0  0  0
 25 34  1  1  0  0  0
 25  4  1  0  0  0  0
 26 25  1  0  0  0  0
 27 35  1  6  0  0  0
 27 26  1  0  0  0  0
 27  2  1  0  0  0  0
 29 16  1  0  0  0  0
 40  8  1  0  0  0  0
 40  5  1  0  0  0  0
 41  9  1  0  0  0  0
 44 18  2  0  0  0  0
 45 15  1  0  0  0  0
 45 10  1  0  0  0  0
 46  1  1  0  0  0  0
M  END
>  <CHROM.1>
-172.76883585,-110.70916040,99.34998390,67.50071992,84.26035252,-60.93761079
-176.90465611,-67.85243970,177.05183340,65.93263198,77.26696696,-65.07783848
173.10294455,12.68489837,-13.16036410,7.23329322,0.16159068,-0.17595417,-1.00172391

>  <Name>
lig.pdb

>  <RI>
0

>  <Rbt.Current_Directory>
/home/afrankz/demos/rdock_decoys_rna/rnas/3wru

>  <Rbt.Executable>
rbdock ($Id: //depot/dev/client3/rdock/2013.1/src/exe/rbdock.cxx#4 $)

>  <Rbt.Library>
libRbt.so (2013.1, Build901 2013/11/27)

>  <Rbt.Parameter_File>
/export/apps/rDock/src/rDock_2013.1_src/data/scripts/dock_solv.prm

>  <Rbt.Receptor>
prm/pocket_docking_4.prm

>  <SCORE>
2.84577

>  <SCORE.INTER>
1.17723

>  <SCORE.INTER.CONST>
1

>  <SCORE.INTER.POLAR>
0

>  <SCORE.INTER.ROT>
13

>  <SCORE.INTER.SOLV>
24.6191

>  <SCORE.INTER.VDW>
-19.6882

>  <SCORE.INTER.norm>
0.025592

>  <SCORE.INTRA>
1.66854

>  <SCORE.INTRA.DIHEDRAL>
-2.25307

>  <SCORE.INTRA.DIHEDRAL.0>
19.7146

>  <SCORE.INTRA.POLAR>
0

>  <SCORE.INTRA.POLAR.0>
0

>  <SCORE.INTRA.REPUL>
0

>  <SCORE.INTRA.REPUL.0>
0

>  <SCORE.INTRA.SOLV>
1.993

>  <SCORE.INTRA.SOLV.lig_0>
-116.697

>  <SCORE.INTRA.VDW>
1.79858

>  <SCORE.INTRA.VDW.0>
-7.06424

>  <SCORE.INTRA.norm>
0.0362725

>  <SCORE.RESTR>
0

>  <SCORE.RESTR.CAVITY>
0

>  <SCORE.RESTR.norm>
0

>  <SCORE.SYSTEM>
0

>  <SCORE.SYSTEM.CONST>
0

>  <SCORE.SYSTEM.DIHEDRAL>
0

>  <SCORE.SYSTEM.SOLV>
0

>  <SCORE.SYSTEM.norm>
0

>  <SCORE.heavy>
46

>  <SCORE.norm>
0.0618645

>  <RMSD>
3.362

$$$$
lig.pdb
 OpenBabel03061811583D
libRbt.so/2013.1/901 2013/11/27
 46 49  0  0  0  0  0  0  0  0999 V2000
   11.7562  -11.9195    3.4339 C   0  0  1  0  0  0  0  0  0  0  0  0
   12.8326  -11.1418    5.5890 C   0  0  1  0  0  0  0  0  0  0  0  0
   12.8346  -12.4645    6.4137 C   0  0  1  0  0  0  0  0  0  0  0  0
   14.0733  -12.4321    7.4469 C   0  0  2  0  0  0  0  0  0  0  0  0
   10.8008  -13.5779    7.4443 C   0  0  2  0  0  0  0  0  0  0  0  0
   11.5547  -14.5845    8.3592 C   0  0  1  0  0  0  0  0  0  0  0  0
   10.3482  -15.2283    8.9985 C   0  0  1  0  0  0  0  0  0  0  0  0
    9.4229  -14.0334    9.3926 C   0  0  1  0  0  0  0  0  0  0  0  0
    9.7517  -13.2962   10.7380 C   0  0  0  0  0  0  0  0  0  0  0  0
    8.7952  -17.0749    8.4865 C   0  0  1  0  0  0  0  0  0  0  0  0
    8.1478  -17.9300    7.4384 C   0  0  1  0  0  0  0  0  0  0  0  0
   10.5144  -11.5754    2.5778 C   0  0  1  0  0  0  0  0  0  0  0  0
    7.1345  -18.8999    8.1432 C   0  0  0  0  0  0  0  0  0  0  0  0
    6.0801  -18.2464    8.8643 C   0  0  0  0  0  0  0  0  0  0  0  0
    6.6666  -17.4367    9.9109 C   0  0  2  0  0  0  0  0  0  0  0  0
    5.5510  -16.6825   10.7365 C   0  0  0  0  0  0  0  0  0  0  0  0
   19.4039  -13.2772    8.1296 C   0  0  2  0  0  0  0  0  0  0  0  0
   17.0777  -13.6325    8.0056 C   0  0  0  0  0  0  0  0  0  0  0  0
   19.4889  -11.9798    7.6610 C   0  0  0  0  0  0  0  0  0  0  0  0
   18.3401  -13.3711    8.9655 C   0  0  1  0  0  0  0  0  0  0  0  0
    9.1709  -12.0379    3.3051 C   0  0  0  0  0  0  0  0  0  0  0  0
    9.2620  -13.6172    3.5692 C   0  0  0  0  0  0  0  0  0  0  0  0
   10.5466  -13.8900    4.4809 C   0  0  1  0  0  0  0  0  0  0  0  0
   10.7286  -15.3828    4.7808 C   0  0  0  0  0  0  0  0  0  0  0  0
   15.4192  -12.3655    6.6014 C   0  0  1  0  0  0  0  0  0  0  0  0
   15.3707  -10.9649    5.7878 C   0  0  0  0  0  0  0  0  0  0  0  0
   14.1481  -10.9633    4.7911 C   0  0  2  0  0  0  0  0  0  0  0  0
   20.6527  -13.6468    8.7569 F   0  0  0  0  0  0  0  0  0  0  0  0
    6.1146  -15.9219   11.9711 N   0  0  0  0  0  0  0  0  0  0  0  0
   10.5310  -10.0913    2.3010 N   0  0  0  0  0  0  0  0  0  0  0  0
    7.3900  -17.2166    6.5055 N   0  0  0  0  0  0  0  0  0  0  0  0
   20.4026  -11.3629    6.7744 N   0  0  0  0  0  0  0  0  0  0  0  0
   10.9044  -16.1216    3.5916 N   0  0  0  0  0  0  0  0  0  0  0  0
   16.5793  -12.3476    7.5105 N   0  0  0  0  0  0  0  0  0  0  0  0
   14.0837   -9.6845    4.0497 N   0  0  0  0  0  0  0  0  0  0  0  0
   11.7763  -11.1512    4.6374 O   0  0  0  0  0  0  0  0  0  0  0  0
   11.5205  -12.5251    7.1364 O   0  0  0  0  0  0  0  0  0  0  0  0
   14.0534  -13.6090    8.1615 O   0  0  0  0  0  0  0  0  0  0  0  0
   12.2968  -15.4430    7.5471 O   0  0  0  0  0  0  0  0  0  0  0  0
    9.5461  -13.3018    8.1617 O   0  0  0  0  0  0  0  0  0  0  0  0
    8.8497  -12.1770   10.8467 O   0  0  0  0  0  0  0  0  0  0  0  0
    9.6769  -16.1406    7.9879 O   0  0  0  0  0  0  0  0  0  0  0  0
   18.4611  -14.4528    9.9150 O   0  0  0  0  0  0  0  0  0  0  0  0
   16.6222  -14.7540    7.7276 O   0  0  0  0  0  0  0  0  0  0  0  0
    7.6513  -16.4528    9.3244 O   0  0  0  0  0  0  0  0  0  0  0  0
   11.7942  -13.3812    3.7775 O   0  0  0  0  0  0  0  0  0  0  0  0
  1 36  1  1  0  0  0
  2 36  1  6  0  0  0
  2  3  1  0  0  0  0
  3 37  1  1  0  0  0
  3  4  1  0  0  0  0
  4 38  1  6  0  0  0
  5 37  1  1  0  0  0
  5  6  1  0  0  0  0
  6  7  1  0  0  0  0
  6 39  1  6  0  0  0
  7 42  1  6  0  0  0
  8  9  1  1  0  0  0
  8  7  1  0  0  0  0
 10 42  1  6  0  0  0
 10 11  1  0  0  0  0
 11 31  1  6  0  0  0
 11 13  1  0  0  0  0
 12 30  1  1  0  0  0
 12  1  1  0  0  0  0
 14 13  1  0  0  0  0
 15 16  1  6  0  0  0
 15 14  1  0  0  0  0
 17 19  1  1  0  0  0
 17 28  1  0  0  0  0
 18 34  1  0  0  0  0
 19 32  1  0  0  0  0
 20 18  1  6  0  0  0
 20 17  1  0  0  0  0
 20 43  1  0  0  0  0
 21 12  1  0  0  0  0
 22 21  1  0  0  0  0
 22 23  1  0  0  0  0
 23 24  1  6  0  0  0
 23 46  1  0  0  0  0
 24 33  1  0  0  0  0
 25 34  1  1  0  0  0
 25  4  1  0  0  0  0
 26 25  1  0  0  0  0
 27 35  1  1  0  0  0
 27 26  1  0  0  0  0
 27  2  1  0  0  0  0
 29 16  1  0  0  0  0
 40  8  1  0  0  0  0
 40  5  1  0  0  0  0
 41  9  1  0  0  0  0
 44 18  2  0  0  0  0
 45 15  1  0  0  0  0
 45 10  1  0  0  0  0
 46  1  1  0  0  0  0
M  END
>  <CHROM.1>
-174.44111516,-73.85119176,146.69212339,59.89433541,162.85123120,175.54763044
179.02727240,173.66738939,-179.93303615,-84.54026412,84.66110934,60.57542933
84.05680265,12.09416339,-13.87054848,7.13794215,0.29258228,-0.24243733,-1.00264275

>  <Name>
lig.pdb

>  <RI>
0

>  <Rbt.Current_Directory>
/home/afrankz/demos/rdock_decoys_rna/rnas/3wru

>  <Rbt.Executable>
rbdock ($Id: //depot/dev/client3/rdock/2013.1/src/exe/rbdock.cxx#4 $)

>  <Rbt.Library>
libRbt.so (2013.1, Build901 2013/11/27)

>  <Rbt.Parameter_File>
/export/apps/rDock/src/rDock_2013.1_src/data/scripts/dock_solv.prm

>  <Rbt.Receptor>
prm/pocket_docking_4.prm

>  <SCORE>
-0.995244

>  <SCORE.INTER>
2.47553

>  <SCORE.INTER.CONST>
1

>  <SCORE.INTER.POLAR>
0

>  <SCORE.INTER.ROT>
13

>  <SCORE.INTER.SOLV>
19.3593

>  <SCORE.INTER.VDW>
-17.0694

>  <SCORE.INTER.norm>
0.0538158

>  <SCORE.INTRA>
-3.47077

>  <SCORE.INTRA.DIHEDRAL>
-9.138

>  <SCORE.INTRA.DIHEDRAL.0>
19.7146

>  <SCORE.INTRA.POLAR>
0

>  <SCORE.INTRA.POLAR.0>
0

>  <SCORE.INTRA.REPUL>
0

>  <SCORE.INTRA.REPUL.0>
0

>  <SCORE.INTRA.SOLV>
0.151691

>  <SCORE.INTRA.SOLV.lig_0>
-116.697

>  <SCORE.INTRA.VDW>
1.02238

>  <SCORE.INTRA.VDW.0>
-7.06424

>  <SCORE.INTRA.norm>
-0.0754515

>  <SCORE.RESTR>
0

>  <SCORE.RESTR.CAVITY>
0

>  <SCORE.RESTR.norm>
0

>  <SCORE.SYSTEM>
0

>  <SCORE.SYSTEM.CONST>
0

>  <SCORE.SYSTEM.DIHEDRAL>
0

>  <SCORE.SYSTEM.SOLV>
0

>  <SCORE.SYSTEM.norm>
0

>  <SCORE.heavy>
46

>  <SCORE.norm>
-0.0216357

>  <RMSD>
3.370

$$$$
lig.pdb
 OpenBabel03061811583D
libRbt.so/2013.1/901 2013/11/27
 46 49  0  0  0  0  0  0  0  0999 V2000
   12.5560  -11.2802    4.4299 C   0  0  1  0  0  0  0  0  0  0  0  0
   14.3712  -11.8220    6.1090 C   0  0  1  0  0  0  0  0  0  0  0  0
   14.7446  -13.0088    7.0480 C   0  0  1  0  0  0  0  0  0  0  0  0
   16.0029  -12.5752    7.9601 C   0  0  2  0  0  0  0  0  0  0  0  0
   13.0837  -14.4502    8.3135 C   0  0  2  0  0  0  0  0  0  0  0  0
   14.1525  -15.2694    9.0915 C   0  0  1  0  0  0  0  0  0  0  0  0
   13.2094  -16.1024    9.9255 C   0  0  1  0  0  0  0  0  0  0  0  0
   12.1544  -15.0857   10.4664 C   0  0  1  0  0  0  0  0  0  0  0  0
   12.5560  -14.2557   11.7359 C   0  0  0  0  0  0  0  0  0  0  0  0
   11.8225  -18.1274    9.6810 C   0  0  1  0  0  0  0  0  0  0  0  0
   11.2001  -19.1308    8.7566 C   0  0  1  0  0  0  0  0  0  0  0  0
   11.8182  -10.2198    5.2809 C   0  0  1  0  0  0  0  0  0  0  0  0
   10.3457  -20.1326    9.6116 C   0  0  0  0  0  0  0  0  0  0  0  0
    9.2792  -19.5281   10.3570 C   0  0  0  0  0  0  0  0  0  0  0  0
    9.8459  -18.5758   11.2882 C   0  0  2  0  0  0  0  0  0  0  0  0
    8.7151  -17.8684   12.1343 C   0  0  0  0  0  0  0  0  0  0  0  0
   21.1429  -11.6259    8.2754 C   0  0  2  0  0  0  0  0  0  0  0  0
   19.2131  -12.9730    8.3935 C   0  0  0  0  0  0  0  0  0  0  0  0
   22.1029  -10.8690    8.9201 C   0  0  0  0  0  0  0  0  0  0  0  0
   20.4390  -12.3212    9.2031 C   0  0  1  0  0  0  0  0  0  0  0  0
   10.6685  -10.8906    6.1618 C   0  0  0  0  0  0  0  0  0  0  0  0
    9.6506  -11.6375    5.1728 C   0  0  0  0  0  0  0  0  0  0  0  0
   10.4766  -12.7336    4.3529 C   0  0  1  0  0  0  0  0  0  0  0  0
    9.5880  -13.4984    3.3645 C   0  0  0  0  0  0  0  0  0  0  0  0
   17.2359  -12.2905    6.9961 C   0  0  1  0  0  0  0  0  0  0  0  0
   16.7994  -11.0380    6.0651 C   0  0  0  0  0  0  0  0  0  0  0  0
   15.5509  -11.4309    5.1848 C   0  0  2  0  0  0  0  0  0  0  0  0
   21.7773  -12.4740    7.2916 F   0  0  0  0  0  0  0  0  0  0  0  0
    7.7236  -17.0464   11.2616 N   0  0  0  0  0  0  0  0  0  0  0  0
   12.8412   -9.5029    6.1289 N   0  0  0  0  0  0  0  0  0  0  0  0
   10.3092  -18.5808    7.8307 N   0  0  0  0  0  0  0  0  0  0  0  0
   22.0007   -9.9197    9.9641 N   0  0  0  0  0  0  0  0  0  0  0  0
   10.2711  -14.6069    2.8209 N   0  0  0  0  0  0  0  0  0  0  0  0
   18.4135  -11.9029    7.7933 N   0  0  0  0  0  0  0  0  0  0  0  0
   15.1329  -10.2918    4.3379 N   0  0  0  0  0  0  0  0  0  0  0  0
   13.2892  -12.1818    5.2597 O   0  0  0  0  0  0  0  0  0  0  0  0
   13.5330  -13.2938    7.8868 O   0  0  0  0  0  0  0  0  0  0  0  0
   16.3129  -13.6384    8.7784 O   0  0  0  0  0  0  0  0  0  0  0  0
   14.8985  -16.0034    8.1684 O   0  0  0  0  0  0  0  0  0  0  0  0
   11.9346  -14.3858    9.2305 O   0  0  0  0  0  0  0  0  0  0  0  0
   12.7496  -15.1897   12.8168 O   0  0  0  0  0  0  0  0  0  0  0  0
   12.5640  -17.1562    9.0440 O   0  0  0  0  0  0  0  0  0  0  0  0
   21.2132  -13.3638    9.8354 O   0  0  0  0  0  0  0  0  0  0  0  0
   19.0032  -14.1929    8.2915 O   0  0  0  0  0  0  0  0  0  0  0  0
   10.6784  -17.5527   10.5519 O   0  0  0  0  0  0  0  0  0  0  0  0
   11.5964  -12.0597    3.5770 O   0  0  0  0  0  0  0  0  0  0  0  0
  1 36  1  1  0  0  0
  2 36  1  6  0  0  0
  2  3  1  0  0  0  0
  3 37  1  1  0  0  0
  3  4  1  0  0  0  0
  4 38  1  1  0  0  0
  5 37  1  1  0  0  0
  5  6  1  0  0  0  0
  6  7  1  0  0  0  0
  6 39  1  6  0  0  0
  7 42  1  6  0  0  0
  8  9  1  1  0  0  0
  8  7  1  0  0  0  0
 10 42  1  6  0  0  0
 10 11  1  0  0  0  0
 11 31  1  6  0  0  0
 11 13  1  0  0  0  0
 12 30  1  1  0  0  0
 12  1  1  0  0  0  0
 14 13  1  0  0  0  0
 15 16  1  6  0  0  0
 15 14  1  0  0  0  0
 17 19  1  1  0  0  0
 17 28  1  0  0  0  0
 18 34  1  0  0  0  0
 19 32  1  0  0  0  0
 20 18  1  6  0  0  0
 20 17  1  0  0  0  0
 20 43  1  0  0  0  0
 21 12  1  0  0  0  0
 22 21  1  0  0  0  0
 22 23  1  0  0  0  0
 23 24  1  6  0  0  0
 23 46  1  0  0  0  0
 24 33  1  0  0  0  0
 25 34  1  1  0  0  0
 25  4  1  0  0  0  0
 26 25  1  0  0  0  0
 27 35  1  1  0  0  0
 27 26  1  0  0  0  0
 27  2  1  0  0  0  0
 29 16  1  0  0  0  0
 40  8  1  0  0  0  0
 40  5  1  0  0  0  0
 41  9  1  0  0  0  0
 44 18  2  0  0  0  0
 45 15  1  0  0  0  0
 45 10  1  0  0  0  0
 46  1  1  0  0  0  0
M  END
>  <CHROM.1>
-62.98082950,169.52996187,144.06216544,54.17010754,170.83214236,-62.92781709
179.43728569,-61.95254400,-54.58181689,-60.01381458,171.12044801,-169.84412746
82.15061431,14.07258608,-13.96875213,7.95436139,0.44224764,-0.30354897,-0.81662370

>  <Name>
lig.pdb

>  <RI>
0

>  <Rbt.Current_Directory>
/home/afrankz/demos/rdock_decoys_rna/rnas/3wru

>  <Rbt.Executable>
rbdock ($Id: //depot/dev/client3/rdock/2013.1/src/exe/rbdock.cxx#4 $)

>  <Rbt.Library>
libRbt.so (2013.1, Build901 2013/11/27)

>  <Rbt.Parameter_File>
/export/apps/rDock/src/rDock_2013.1_src/data/scripts/dock_solv.prm

>  <Rbt.Receptor>
prm/pocket_docking_4.prm

>  <SCORE>
-2.00815

>  <SCORE.INTER>
-0.408111

>  <SCORE.INTER.CONST>
1

>  <SCORE.INTER.POLAR>
0

>  <SCORE.INTER.ROT>
13

>  <SCORE.INTER.SOLV>
27.5586

>  <SCORE.INTER.VDW>
-21.7249

>  <SCORE.INTER.norm>
-0.00887197

>  <SCORE.INTRA>
-1.60004

>  <SCORE.INTRA.DIHEDRAL>
-11.6794

>  <SCORE.INTRA.DIHEDRAL.0>
19.7146

>  <SCORE.INTRA.POLAR>
0

>  <SCORE.INTRA.POLAR.0>
0

>  <SCORE.INTRA.REPUL>
0

>  <SCORE.INTRA.REPUL.0>
0

>  <SCORE.INTRA.SOLV>
3.33634

>  <SCORE.INTRA.SOLV.lig_0>
-116.697

>  <SCORE.INTRA.VDW>
2.57151

>  <SCORE.INTRA.VDW.0>
-7.06424

>  <SCORE.INTRA.norm>
-0.0347834

>  <SCORE.RESTR>
0

>  <SCORE.RESTR.CAVITY>
0

>  <SCORE.RESTR.norm>
0

>  <SCORE.SYSTEM>
0

>  <SCORE.SYSTEM.CONST>
0

>  <SCORE.SYSTEM.DIHEDRAL>
0

>  <SCORE.SYSTEM.SOLV>
0

>  <SCORE.SYSTEM.norm>
0

>  <SCORE.heavy>
46

>  <SCORE.norm>
-0.0436554

>  <RMSD>
3.379

$$$$
lig.pdb
 OpenBabel03061811583D
libRbt.so/2013.1/901 2013/11/27
 46 49  0  0  0  0  0  0  0  0999 V2000
   11.5779  -12.1853    4.7439 C   0  0  1  0  0  0  0  0  0  0  0  0
   13.9856  -11.8954    5.4697 C   0  0  1  0  0  0  0  0  0  0  0  0
   14.3729  -13.2215    6.1917 C   0  0  1  0  0  0  0  0  0  0  0  0
   15.5430  -12.9113    7.2581 C   0  0  2  0  0  0  0  0  0  0  0  0
   12.4230  -13.1467    7.8136 C   0  0  2  0  0  0  0  0  0  0  0  0
   11.2850  -14.0549    8.3602 C   0  0  1  0  0  0  0  0  0  0  0  0
   11.1531  -13.4239    9.7253 C   0  0  1  0  0  0  0  0  0  0  0  0
   12.6216  -13.2636   10.2321 C   0  0  1  0  0  0  0  0  0  0  0  0
   13.2921  -14.5288   10.8735 C   0  0  0  0  0  0  0  0  0  0  0  0
    9.6697  -11.6785   10.6400 C   0  0  1  0  0  0  0  0  0  0  0  0
   10.4190  -11.4307   11.9152 C   0  0  1  0  0  0  0  0  0  0  0  0
   10.8291  -12.8733    3.5780 C   0  0  1  0  0  0  0  0  0  0  0  0
    9.3867  -11.0409   13.0317 C   0  0  0  0  0  0  0  0  0  0  0  0
    8.3980  -12.0423   13.3117 C   0  0  0  0  0  0  0  0  0  0  0  0
    7.6287  -12.2834   12.1096 C   0  0  2  0  0  0  0  0  0  0  0  0
    6.5261  -13.3877   12.3540 C   0  0  0  0  0  0  0  0  0  0  0  0
   21.3592  -12.7657    7.9360 C   0  0  2  0  0  0  0  0  0  0  0  0
   19.2843  -12.2988    6.9212 C   0  0  0  0  0  0  0  0  0  0  0  0
   22.3151  -12.1363    7.1613 C   0  0  0  0  0  0  0  0  0  0  0  0
   20.3083  -11.9247    8.1021 C   0  0  1  0  0  0  0  0  0  0  0  0
   10.9106  -11.9955    2.2473 C   0  0  0  0  0  0  0  0  0  0  0  0
   10.2806  -10.5538    2.5584 C   0  0  0  0  0  0  0  0  0  0  0  0
   11.1219   -9.8957    3.7479 C   0  0  1  0  0  0  0  0  0  0  0  0
   10.5859   -8.5107    4.1296 C   0  0  0  0  0  0  0  0  0  0  0  0
   16.8134  -12.3859    6.4575 C   0  0  1  0  0  0  0  0  0  0  0  0
   16.3587  -11.0001    5.7512 C   0  0  0  0  0  0  0  0  0  0  0  0
   15.1938  -11.2762    4.7243 C   0  0  2  0  0  0  0  0  0  0  0  0
   21.9514  -13.1875    9.1853 F   0  0  0  0  0  0  0  0  0  0  0  0
    5.7168  -13.7367   11.0720 N   0  0  0  0  0  0  0  0  0  0  0  0
   11.4174  -14.2508    3.3893 N   0  0  0  0  0  0  0  0  0  0  0  0
   11.0939  -12.5505   12.4093 N   0  0  0  0  0  0  0  0  0  0  0  0
   23.1836  -11.0553    7.4416 N   0  0  0  0  0  0  0  0  0  0  0  0
   11.4445   -7.8697    5.0479 N   0  0  0  0  0  0  0  0  0  0  0  0
   17.9132  -12.1026    7.3969 N   0  0  0  0  0  0  0  0  0  0  0  0
   14.7593  -10.0168    4.0803 N   0  0  0  0  0  0  0  0  0  0  0  0
   12.9825  -12.1369    4.4915 O   0  0  0  0  0  0  0  0  0  0  0  0
   13.1316  -13.7220    6.8712 O   0  0  0  0  0  0  0  0  0  0  0  0
   15.8670  -14.0960    7.8807 O   0  0  0  0  0  0  0  0  0  0  0  0
   10.1646  -13.8911    7.5448 O   0  0  0  0  0  0  0  0  0  0  0  0
   13.1726  -12.7393    9.0125 O   0  0  0  0  0  0  0  0  0  0  0  0
   14.6230  -14.1513   11.2787 O   0  0  0  0  0  0  0  0  0  0  0  0
   10.4633  -12.0787    9.5871 O   0  0  0  0  0  0  0  0  0  0  0  0
   19.6547  -12.0826    9.3805 O   0  0  0  0  0  0  0  0  0  0  0  0
   19.6217  -12.6770    5.7873 O   0  0  0  0  0  0  0  0  0  0  0  0
    8.5405  -12.6841   10.9739 O   0  0  0  0  0  0  0  0  0  0  0  0
   11.0668  -10.7919    4.9743 O   0  0  0  0  0  0  0  0  0  0  0  0
  1 36  1  6  0  0  0
  2 36  1  6  0  0  0
  2  3  1  0  0  0  0
  3 37  1  1  0  0  0
  3  4  1  0  0  0  0
  4 38  1  6  0  0  0
  5 37  1  6  0  0  0
  5  6  1  0  0  0  0
  6  7  1  0  0  0  0
  6 39  1  6  0  0  0
  7 42  1  6  0  0  0
  8  9  1  6  0  0  0
  8  7  1  0  0  0  0
 10 42  1  6  0  0  0
 10 11  1  0  0  0  0
 11 31  1  1  0  0  0
 11 13  1  0  0  0  0
 12 30  1  6  0  0  0
 12  1  1  0  0  0  0
 14 13  1  0  0  0  0
 15 16  1  1  0  0  0
 15 14  1  0  0  0  0
 17 19  1  6  0  0  0
 17 28  1  0  0  0  0
 18 34  1  0  0  0  0
 19 32  1  0  0  0  0
 20 18  1  6  0  0  0
 20 17  1  0  0  0  0
 20 43  1  0  0  0  0
 21 12  1  0  0  0  0
 22 21  1  0  0  0  0
 22 23  1  0  0  0  0
 23 24  1  1  0  0  0
 23 46  1  0  0  0  0
 24 33  1  0  0  0  0
 25 34  1  1  0  0  0
 25  4  1  0  0  0  0
 26 25  1  0  0  0  0
 27 35  1  1  0  0  0
 27 26  1  0  0  0  0
 27  2  1  0  0  0  0
 29 16  1  0  0  0  0
 40  8  1  0  0  0  0
 40  5  1  0  0  0  0
 41  9  1  0  0  0  0
 44 18  2  0  0  0  0
 45 15  1  0  0  0  0
 45 10  1  0  0  0  0
 46  1  1  0  0  0  0
M  END
>  <CHROM.1>
-163.00474479,84.87387172,-61.65638147,-174.05409265,147.96063430,-179.36512038
65.15408757,-177.09669377,70.62314611,146.78225108,93.21363502,-171.94868280
148.39449963,13.54114490,-12.28181164,7.74648040,2.90093946,-0.04052350,1.79636521

>  <Name>
lig.pdb

>  <RI>
0

>  <Rbt.Current_Directory>
/home/afrankz/demos/rdock_decoys_rna/rnas/3wru

>  <Rbt.Executable>
rbdock ($Id: //depot/dev/client3/rdock/2013.1/src/exe/rbdock.cxx#4 $)

>  <Rbt.Library>
libRbt.so (2013.1, Build901 2013/11/27)

>  <Rbt.Parameter_File>
/export/apps/rDock/src/rDock_2013.1_src/data/scripts/dock_solv.prm

>  <Rbt.Receptor>
prm/pocket_docking_5.prm

>  <SCORE>
-2.37091

>  <SCORE.INTER>
-2.01323

>  <SCORE.INTER.CONST>
1

>  <SCORE.INTER.POLAR>
0

>  <SCORE.INTER.ROT>
13

>  <SCORE.INTER.SOLV>
24.9155

>  <SCORE.INTER.VDW>
-21.914

>  <SCORE.INTER.norm>
-0.0437659

>  <SCORE.INTRA>
-0.35768

>  <SCORE.INTRA.DIHEDRAL>
-5.49207

>  <SCORE.INTRA.DIHEDRAL.0>
19.7146

>  <SCORE.INTRA.POLAR>
0

>  <SCORE.INTRA.POLAR.0>
0

>  <SCORE.INTRA.REPUL>
0

>  <SCORE.INTRA.REPUL.0>
0

>  <SCORE.INTRA.SOLV>
1.83402

>  <SCORE.INTRA.SOLV.lig_0>
-116.697

>  <SCORE.INTRA.VDW>
1.47134

>  <SCORE.INTRA.VDW.0>
-7.06424

>  <SCORE.INTRA.norm>
-0.00777564

>  <SCORE.RESTR>
0

>  <SCORE.RESTR.CAVITY>
0

>  <SCORE.RESTR.norm>
0

>  <SCORE.SYSTEM>
0

>  <SCORE.SYSTEM.CONST>
0

>  <SCORE.SYSTEM.DIHEDRAL>
0

>  <SCORE.SYSTEM.SOLV>
0

>  <SCORE.SYSTEM.norm>
0

>  <SCORE.heavy>
46

>  <SCORE.norm>
-0.0515416

>  <RMSD>
3.403

$$$$
lig.pdb
 OpenBabel03061811583D
libRbt.so/2013.1/901 2013/11/27
 46 49  0  0  0  0  0  0  0  0999 V2000
   12.7000  -10.7071    4.3166 C   0  0  1  0  0  0  0  0  0  0  0  0
   13.9687  -11.0460    6.4807 C   0  0  1  0  0  0  0  0  0  0  0  0
   13.3016  -12.2420    7.2252 C   0  0  1  0  0  0  0  0  0  0  0  0
   14.4248  -13.0044    8.0970 C   0  0  2  0  0  0  0  0  0  0  0  0
   11.0172  -12.1123    8.3217 C   0  0  2  0  0  0  0  0  0  0  0  0
   11.0013  -13.5264    8.9688 C   0  0  1  0  0  0  0  0  0  0  0  0
    9.6510  -13.4339    9.6375 C   0  0  1  0  0  0  0  0  0  0  0  0
    9.6432  -12.0310   10.3237 C   0  0  1  0  0  0  0  0  0  0  0  0
   10.3505  -11.9211   11.7200 C   0  0  0  0  0  0  0  0  0  0  0  0
    8.3377  -14.7940    8.0535 C   0  0  1  0  0  0  0  0  0  0  0  0
    7.5172  -14.7914    6.7983 C   0  0  1  0  0  0  0  0  0  0  0  0
   11.5731   -9.7990    3.7701 C   0  0  1  0  0  0  0  0  0  0  0  0
    7.2930  -16.2781    6.3468 C   0  0  0  0  0  0  0  0  0  0  0  0
    6.6018  -17.0976    7.3003 C   0  0  0  0  0  0  0  0  0  0  0  0
    7.3836  -17.1533    8.5171 C   0  0  2  0  0  0  0  0  0  0  0  0
    6.6663  -18.0373    9.6120 C   0  0  0  0  0  0  0  0  0  0  0  0
   19.4679  -15.0022    8.2244 C   0  0  2  0  0  0  0  0  0  0  0  0
   17.3990  -15.2523    7.1244 C   0  0  0  0  0  0  0  0  0  0  0  0
   20.3351  -15.3944    9.2265 C   0  0  0  0  0  0  0  0  0  0  0  0
   18.4584  -15.9041    8.1423 C   0  0  1  0  0  0  0  0  0  0  0  0
   10.1950  -10.0782    4.5256 C   0  0  0  0  0  0  0  0  0  0  0  0
    9.8233  -11.6266    4.3345 C   0  0  0  0  0  0  0  0  0  0  0  0
   11.0156  -12.4978    4.9473 C   0  0  1  0  0  0  0  0  0  0  0  0
   10.7583  -14.0025    4.8011 C   0  0  0  0  0  0  0  0  0  0  0  0
   15.5177  -13.5827    7.0960 C   0  0  1  0  0  0  0  0  0  0  0  0
   16.1899  -12.2979    6.3726 C   0  0  0  0  0  0  0  0  0  0  0  0
   15.1016  -11.5200    5.5368 C   0  0  2  0  0  0  0  0  0  0  0  0
   20.1976  -14.8528    6.9855 F   0  0  0  0  0  0  0  0  0  0  0  0
    7.4470  -18.0966   10.9564 N   0  0  0  0  0  0  0  0  0  0  0  0
   12.0181   -8.3630    3.9080 N   0  0  0  0  0  0  0  0  0  0  0  0
    6.2362  -14.2540    6.9529 N   0  0  0  0  0  0  0  0  0  0  0  0
   21.4782  -14.7660    9.7741 N   0  0  0  0  0  0  0  0  0  0  0  0
   11.8687  -14.7524    5.2437 N   0  0  0  0  0  0  0  0  0  0  0  0
   16.5584  -14.3005    7.8538 N   0  0  0  0  0  0  0  0  0  0  0  0
   15.6987  -10.3361    4.8802 N   0  0  0  0  0  0  0  0  0  0  0  0
   13.0158  -10.3725    5.6684 O   0  0  0  0  0  0  0  0  0  0  0  0
   12.2294  -11.6619    8.1009 O   0  0  0  0  0  0  0  0  0  0  0  0
   13.8118  -14.0546    8.7431 O   0  0  0  0  0  0  0  0  0  0  0  0
   11.0692  -14.4755    7.9481 O   0  0  0  0  0  0  0  0  0  0  0  0
   10.1884  -11.2913    9.2185 O   0  0  0  0  0  0  0  0  0  0  0  0
    9.7157  -12.8706   12.5995 O   0  0  0  0  0  0  0  0  0  0  0  0
    8.5649  -13.5421    8.5825 O   0  0  0  0  0  0  0  0  0  0  0  0
   18.8878  -17.1887    7.6405 O   0  0  0  0  0  0  0  0  0  0  0  0
   17.3304  -15.5151    5.9125 O   0  0  0  0  0  0  0  0  0  0  0  0
    7.6389  -15.7599    9.0417 O   0  0  0  0  0  0  0  0  0  0  0  0
   12.3174  -12.1575    4.2407 O   0  0  0  0  0  0  0  0  0  0  0  0
  1 36  1  1  0  0  0
  2 36  1  6  0  0  0
  2  3  1  0  0  0  0
  3 37  1  1  0  0  0
  3  4  1  0  0  0  0
  4 38  1  6  0  0  0
  5 37  1  1  0  0  0
  5  6  1  0  0  0  0
  6  7  1  0  0  0  0
  6 39  1  6  0  0  0
  7 42  1  6  0  0  0
  8  9  1  1  0  0  0
  8  7  1  0  0  0  0
 10 42  1  1  0  0  0
 10 11  1  0  0  0  0
 11 31  1  1  0  0  0
 11 13  1  0  0  0  0
 12 30  1  1  0  0  0
 12  1  1  0  0  0  0
 14 13  1  0  0  0  0
 15 16  1  1  0  0  0
 15 14  1  0  0  0  0
 17 19  1  1  0  0  0
 17 28  1  0  0  0  0
 18 34  1  0  0  0  0
 19 32  1  0  0  0  0
 20 18  1  6  0  0  0
 20 17  1  0  0  0  0
 20 43  1  0  0  0  0
 21 12  1  0  0  0  0
 22 21  1  0  0  0  0
 22 23  1  0  0  0  0
 23 24  1  6  0  0  0
 23 46  1  0  0  0  0
 24 33  1  0  0  0  0
 25 34  1  1  0  0  0
 25  4  1  0  0  0  0
 26 25  1  0  0  0  0
 27 35  1  1  0  0  0
 27 26  1  0  0  0  0
 27  2  1  0  0  0  0
 29 16  1  0  0  0  0
 40  8  1  0  0  0  0
 40  5  1  0  0  0  0
 41  9  1  0  0  0  0
 44 18  2  0  0  0  0
 45 15  1  0  0  0  0
 45 10  1  0  0  0  0
 46  1  1  0  0  0  0
M  END
>  <CHROM.1>
177.48888863,-88.18313405,138.45432173,61.15011240,74.49336479,-57.61538115
-165.49403218,-178.34817439,-174.93612436,-82.45754222,171.53487258,175.02808233
160.78937006,12.47364188,-13.57486180,7.41182285,0.07408337,0.04009830,-0.68672476

>  <Name>
lig.pdb

>  <RI>
0

>  <Rbt.Current_Directory>
/home/afrankz/demos/rdock_decoys_rna/rnas/3wru

>  <Rbt.Executable>
rbdock ($Id: //depot/dev/client3/rdock/2013.1/src/exe/rbdock.cxx#4 $)

>  <Rbt.Library>
libRbt.so (2013.1, Build901 2013/11/27)

>  <Rbt.Parameter_File>
/export/apps/rDock/src/rDock_2013.1_src/data/scripts/dock_solv.prm

>  <Rbt.Receptor>
prm/pocket_docking_4.prm

>  <SCORE>
1.56044

>  <SCORE.INTER>
3.9424

>  <SCORE.INTER.CONST>
1

>  <SCORE.INTER.POLAR>
0

>  <SCORE.INTER.ROT>
13

>  <SCORE.INTER.SOLV>
19.7144

>  <SCORE.INTER.VDW>
-16.2099

>  <SCORE.INTER.norm>
0.0857044

>  <SCORE.INTRA>
-2.38196

>  <SCORE.INTRA.DIHEDRAL>
-6.52869

>  <SCORE.INTRA.DIHEDRAL.0>
19.7146

>  <SCORE.INTRA.POLAR>
0

>  <SCORE.INTRA.POLAR.0>
0

>  <SCORE.INTRA.REPUL>
0

>  <SCORE.INTRA.REPUL.0>
0

>  <SCORE.INTRA.SOLV>
1.1597

>  <SCORE.INTRA.SOLV.lig_0>
-116.697

>  <SCORE.INTRA.VDW>
0.302539

>  <SCORE.INTRA.VDW.0>
-7.06424

>  <SCORE.INTRA.norm>
-0.0517817

>  <SCORE.RESTR>
0

>  <SCORE.RESTR.CAVITY>
0

>  <SCORE.RESTR.norm>
0

>  <SCORE.SYSTEM>
0

>  <SCORE.SYSTEM.CONST>
0

>  <SCORE.SYSTEM.DIHEDRAL>
0

>  <SCORE.SYSTEM.SOLV>
0

>  <SCORE.SYSTEM.norm>
0

>  <SCORE.heavy>
46

>  <SCORE.norm>
0.0339226

>  <RMSD>
3.414

$$$$
lig.pdb
 OpenBabel03061811583D
libRbt.so/2013.1/901 2013/11/27
 46 49  0  0  0  0  0  0  0  0999 V2000
   10.6440  -10.7590    3.9190 C   0  0  1  0  0  0  0  0  0  0  0  0
   12.9065  -11.6217    4.6572 C   0  0  1  0  0  0  0  0  0  0  0  0
   13.5241  -13.0105    4.3114 C   0  0  1  0  0  0  0  0  0  0  0  0
   14.6165  -13.3894    5.4365 C   0  0  2  0  0  0  0  0  0  0  0  0
   11.5493  -14.2937    5.2556 C   0  0  2  0  0  0  0  0  0  0  0  0
   12.1693  -15.2155    6.3440 C   0  0  1  0  0  0  0  0  0  0  0  0
   11.2654  -14.8236    7.4878 C   0  0  1  0  0  0  0  0  0  0  0  0
   11.2040  -13.2641    7.4288 C   0  0  1  0  0  0  0  0  0  0  0  0
   12.3927  -12.4826    8.0906 C   0  0  0  0  0  0  0  0  0  0  0  0
    8.9517  -15.2094    8.2505 C   0  0  1  0  0  0  0  0  0  0  0  0
    7.6235  -15.8541    7.9877 C   0  0  1  0  0  0  0  0  0  0  0  0
    9.7134  -11.0358    2.7146 C   0  0  1  0  0  0  0  0  0  0  0  0
    6.6398  -15.4579    9.1452 C   0  0  0  0  0  0  0  0  0  0  0  0
    6.4053  -14.0486    9.2780 C   0  0  0  0  0  0  0  0  0  0  0  0
    7.6633  -13.3944    9.5684 C   0  0  2  0  0  0  0  0  0  0  0  0
    7.4697  -11.8338    9.7170 C   0  0  0  0  0  0  0  0  0  0  0  0
   19.7053  -11.9150    7.5255 C   0  0  2  0  0  0  0  0  0  0  0  0
   18.1854  -12.7594    5.9349 C   0  0  0  0  0  0  0  0  0  0  0  0
   20.4815  -12.1010    8.6537 C   0  0  0  0  0  0  0  0  0  0  0  0
   19.1248  -13.0954    7.1950 C   0  0  1  0  0  0  0  0  0  0  0  0
   10.1504  -10.1754    1.4432 C   0  0  0  0  0  0  0  0  0  0  0  0
   10.1113   -8.6245    1.8499 C   0  0  0  0  0  0  0  0  0  0  0  0
   11.1156   -8.4120    3.0755 C   0  0  1  0  0  0  0  0  0  0  0  0
   11.1403   -6.9536    3.5486 C   0  0  0  0  0  0  0  0  0  0  0  0
   15.7737  -12.2989    5.3873 C   0  0  1  0  0  0  0  0  0  0  0  0
   15.0791  -10.8876    5.7768 C   0  0  0  0  0  0  0  0  0  0  0  0
   13.9856  -10.5116    4.7040 C   0  0  2  0  0  0  0  0  0  0  0  0
   20.5193  -11.3664    6.4644 F   0  0  0  0  0  0  0  0  0  0  0  0
    8.7451  -11.1066   10.2314 N   0  0  0  0  0  0  0  0  0  0  0  0
    9.7360  -12.5191    2.4344 N   0  0  0  0  0  0  0  0  0  0  0  0
    7.0023  -15.4262    6.8110 N   0  0  0  0  0  0  0  0  0  0  0  0
   21.3164  -11.2132    9.3721 N   0  0  0  0  0  0  0  0  0  0  0  0
   12.1891   -6.7359    4.4672 N   0  0  0  0  0  0  0  0  0  0  0  0
   16.8021  -12.6168    6.3942 N   0  0  0  0  0  0  0  0  0  0  0  0
   13.3334   -9.2303    5.0537 N   0  0  0  0  0  0  0  0  0  0  0  0
   11.9659  -11.2349    3.6636 O   0  0  0  0  0  0  0  0  0  0  0  0
   12.3912  -13.9951    4.2949 O   0  0  0  0  0  0  0  0  0  0  0  0
   15.1466  -14.6173    5.1088 O   0  0  0  0  0  0  0  0  0  0  0  0
   12.0245  -16.5402    5.9299 O   0  0  0  0  0  0  0  0  0  0  0  0
   11.0133  -13.1490    6.0089 O   0  0  0  0  0  0  0  0  0  0  0  0
   12.1707  -11.0786    7.8505 O   0  0  0  0  0  0  0  0  0  0  0  0
    9.8956  -15.4418    7.2739 O   0  0  0  0  0  0  0  0  0  0  0  0
   20.0822  -14.1134    6.8299 O   0  0  0  0  0  0  0  0  0  0  0  0
   18.5893  -12.6296    4.7676 O   0  0  0  0  0  0  0  0  0  0  0  0
    8.6774  -13.7048    8.4928 O   0  0  0  0  0  0  0  0  0  0  0  0
   10.6980   -9.2931    4.2415 O   0  0  0  0  0  0  0  0  0  0  0  0
  1 36  1  6  0  0  0
  2 36  1  6  0  0  0
  2  3  1  0  0  0  0
  3 37  1  1  0  0  0
  3  4  1  0  0  0  0
  4 38  1  6  0  0  0
  5 37  1  6  0  0  0
  5  6  1  0  0  0  0
  6  7  1  0  0  0  0
  6 39  1  6  0  0  0
  7 42  1  6  0  0  0
  8  9  1  6  0  0  0
  8  7  1  0  0  0  0
 10 42  1  6  0  0  0
 10 11  1  0  0  0  0
 11 31  1  6  0  0  0
 11 13  1  0  0  0  0
 12 30  1  6  0  0  0
 12  1  1  0  0  0  0
 14 13  1  0  0  0  0
 15 16  1  6  0  0  0
 15 14  1  0  0  0  0
 17 19  1  1  0  0  0
 17 28  1  0  0  0  0
 18 34  1  0  0  0  0
 19 32  1  0  0  0  0
 20 18  1  6  0  0  0
 20 17  1  0  0  0  0
 20 43  1  0  0  0  0
 21 12  1  0  0  0  0
 22 21  1  0  0  0  0
 22 23  1  0  0  0  0
 23 24  1  1  0  0  0
 23 46  1  0  0  0  0
 24 33  1  0  0  0  0
 25 34  1  1  0  0  0
 25  4  1  0  0  0  0
 26 25  1  0  0  0  0
 27 35  1  1  0  0  0
 27 26  1  0  0  0  0
 27  2  1  0  0  0  0
 29 16  1  0  0  0  0
 40  8  1  0  0  0  0
 40  5  1  0  0  0  0
 41  9  1  0  0  0  0
 44 18  2  0  0  0  0
 45 15  1  0  0  0  0
 45 10  1  0  0  0  0
 46  1  1  0  0  0  0
M  END
>  <CHROM.1>
-154.27749907,130.98072444,-58.17143451,-76.72778254,178.43578523,176.65157105
-179.55361584,171.63866901,177.75841501,-99.99600328,176.83296871,-169.89642254
124.56248644,12.70862375,-12.38777171,6.09425285,3.03520525,0.04375602,2.38859102

>  <Name>
lig.pdb

>  <RI>
0

>  <Rbt.Current_Directory>
/home/afrankz/demos/rdock_decoys_rna/rnas/3wru

>  <Rbt.Executable>
rbdock ($Id: //depot/dev/client3/rdock/2013.1/src/exe/rbdock.cxx#4 $)

>  <Rbt.Library>
libRbt.so (2013.1, Build901 2013/11/27)

>  <Rbt.Parameter_File>
/export/apps/rDock/src/rDock_2013.1_src/data/scripts/dock_solv.prm

>  <Rbt.Receptor>
prm/pocket_docking_4.prm

>  <SCORE>
-3.77741

>  <SCORE.INTER>
-2.90572

>  <SCORE.INTER.CONST>
1

>  <SCORE.INTER.POLAR>
0

>  <SCORE.INTER.ROT>
13

>  <SCORE.INTER.SOLV>
26.4866

>  <SCORE.INTER.VDW>
-23.0327

>  <SCORE.INTER.norm>
-0.0631678

>  <SCORE.INTRA>
-0.871696

>  <SCORE.INTRA.DIHEDRAL>
-4.80842

>  <SCORE.INTRA.DIHEDRAL.0>
19.7146

>  <SCORE.INTRA.POLAR>
0

>  <SCORE.INTRA.POLAR.0>
0

>  <SCORE.INTRA.REPUL>
0.00263041

>  <SCORE.INTRA.REPUL.0>
0

>  <SCORE.INTRA.SOLV>
4.64187

>  <SCORE.INTRA.SOLV.lig_0>
-116.697

>  <SCORE.INTRA.VDW>
-0.801575

>  <SCORE.INTRA.VDW.0>
-7.06424

>  <SCORE.INTRA.norm>
-0.0189499

>  <SCORE.RESTR>
0

>  <SCORE.RESTR.CAVITY>
0

>  <SCORE.RESTR.norm>
0

>  <SCORE.SYSTEM>
0

>  <SCORE.SYSTEM.CONST>
0

>  <SCORE.SYSTEM.DIHEDRAL>
0

>  <SCORE.SYSTEM.SOLV>
0

>  <SCORE.SYSTEM.norm>
0

>  <SCORE.heavy>
46

>  <SCORE.norm>
-0.0821177

>  <RMSD>
3.415

$$$$
lig.pdb
 OpenBabel03061811583D
libRbt.so/2013.1/901 2013/11/27
 46 49  0  0  0  0  0  0  0  0999 V2000
   10.4038  -11.8039    7.1781 C   0  0  1  0  0  0  0  0  0  0  0  0
   12.7759  -12.2672    7.9308 C   0  0  1  0  0  0  0  0  0  0  0  0
   13.5373  -13.4004    8.6831 C   0  0  1  0  0  0  0  0  0  0  0  0
   15.0602  -12.9290    8.9307 C   0  0  2  0  0  0  0  0  0  0  0  0
   11.6178  -14.1194   10.1786 C   0  0  2  0  0  0  0  0  0  0  0  0
   11.4636  -15.5664    9.6297 C   0  0  1  0  0  0  0  0  0  0  0  0
   10.3456  -16.0156   10.5392 C   0  0  1  0  0  0  0  0  0  0  0  0
   10.7752  -15.5373   11.9624 C   0  0  1  0  0  0  0  0  0  0  0  0
   11.7860  -16.4498   12.7418 C   0  0  0  0  0  0  0  0  0  0  0  0
    7.9005  -16.1043   10.2272 C   0  0  1  0  0  0  0  0  0  0  0  0
    7.4457  -16.2951   11.6434 C   0  0  1  0  0  0  0  0  0  0  0  0
    9.0977  -12.0055    7.9824 C   0  0  1  0  0  0  0  0  0  0  0  0
    6.1679  -17.2070   11.6376 C   0  0  0  0  0  0  0  0  0  0  0  0
    6.3651  -18.5136   11.0786 C   0  0  0  0  0  0  0  0  0  0  0  0
    6.7717  -18.3705    9.6969 C   0  0  2  0  0  0  0  0  0  0  0  0
    7.0137  -19.7809    9.0281 C   0  0  0  0  0  0  0  0  0  0  0  0
   19.8895  -12.7525    8.1729 C   0  0  2  0  0  0  0  0  0  0  0  0
   18.1054  -12.6368    6.6377 C   0  0  0  0  0  0  0  0  0  0  0  0
   21.2425  -12.5925    8.4045 C   0  0  0  0  0  0  0  0  0  0  0  0
   19.5565  -12.0779    7.0445 C   0  0  1  0  0  0  0  0  0  0  0  0
    8.4859  -13.4574    7.7272 C   0  0  0  0  0  0  0  0  0  0  0  0
    8.2181  -13.6192    6.1542 C   0  0  0  0  0  0  0  0  0  0  0  0
    9.6125  -13.4285    5.3958 C   0  0  1  0  0  0  0  0  0  0  0  0
    9.4585  -13.5537    3.8752 C   0  0  0  0  0  0  0  0  0  0  0  0
   15.7481  -12.7180    7.5119 C   0  0  1  0  0  0  0  0  0  0  0  0
   14.9324  -11.5181    6.7903 C   0  0  0  0  0  0  0  0  0  0  0  0
   13.4314  -11.9471    6.5645 C   0  0  2  0  0  0  0  0  0  0  0  0
   19.1462  -12.3179    9.3341 F   0  0  0  0  0  0  0  0  0  0  0  0
    5.7009  -20.5871    8.8113 N   0  0  0  0  0  0  0  0  0  0  0  0
    9.4020  -11.7633    9.4412 N   0  0  0  0  0  0  0  0  0  0  0  0
    8.3695  -16.9571   12.4569 N   0  0  0  0  0  0  0  0  0  0  0  0
   21.9808  -11.5030    8.9235 N   0  0  0  0  0  0  0  0  0  0  0  0
   10.7171  -13.6420    3.2434 N   0  0  0  0  0  0  0  0  0  0  0  0
   17.1493  -12.2984    7.6940 N   0  0  0  0  0  0  0  0  0  0  0  0
   12.6706  -10.8555    5.9173 N   0  0  0  0  0  0  0  0  0  0  0  0
   11.4379  -12.6636    7.6586 O   0  0  0  0  0  0  0  0  0  0  0  0
   12.8143  -13.6195    9.9801 O   0  0  0  0  0  0  0  0  0  0  0  0
   15.7103  -13.9452    9.5948 O   0  0  0  0  0  0  0  0  0  0  0  0
   11.1073  -15.4878    8.2828 O   0  0  0  0  0  0  0  0  0  0  0  0
   11.1949  -14.2155   11.5847 O   0  0  0  0  0  0  0  0  0  0  0  0
   13.0193  -16.4604   11.9955 O   0  0  0  0  0  0  0  0  0  0  0  0
    9.0509  -15.3566   10.0991 O   0  0  0  0  0  0  0  0  0  0  0  0
   19.4897  -10.6484    7.2397 O   0  0  0  0  0  0  0  0  0  0  0  0
   17.8521  -13.2428    5.5836 O   0  0  0  0  0  0  0  0  0  0  0  0
    8.0134  -17.5158    9.6005 O   0  0  0  0  0  0  0  0  0  0  0  0
   10.1878  -12.0580    5.7136 O   0  0  0  0  0  0  0  0  0  0  0  0
  1 36  1  1  0  0  0
  2 36  1  6  0  0  0
  2  3  1  0  0  0  0
  3 37  1  1  0  0  0
  3  4  1  0  0  0  0
  4 38  1  1  0  0  0
  5 37  1  1  0  0  0
  5  6  1  0  0  0  0
  6  7  1  0  0  0  0
  6 39  1  6  0  0  0
  7 42  1  6  0  0  0
  8  9  1  6  0  0  0
  8  7  1  0  0  0  0
 10 42  1  1  0  0  0
 10 11  1  0  0  0  0
 11 31  1  1  0  0  0
 11 13  1  0  0  0  0
 12 30  1  1  0  0  0
 12  1  1  0  0  0  0
 14 13  1  0  0  0  0
 15 16  1  1  0  0  0
 15 14  1  0  0  0  0
 17 19  1  1  0  0  0
 17 28  1  0  0  0  0
 18 34  1  0  0  0  0
 19 32  1  0  0  0  0
 20 18  1  1  0  0  0
 20 17  1  0  0  0  0
 20 43  1  0  0  0  0
 21 12  1  0  0  0  0
 22 21  1  0  0  0  0
 22 23  1  0  0  0  0
 23 24  1  6  0  0  0
 23 46  1  0  0  0  0
 24 33  1  0  0  0  0
 25 34  1  1  0  0  0
 25  4  1  0  0  0  0
 26 25  1  0  0  0  0
 27 35  1  1  0  0  0
 27 26  1  0  0  0  0
 27  2  1  0  0  0  0
 29 16  1  0  0  0  0
 40  8  1  0  0  0  0
 40  5  1  0  0  0  0
 41  9  1  0  0  0  0
 44 18  2  0  0  0  0
 45 15  1  0  0  0  0
 45 10  1  0  0  0  0
 46  1  1  0  0  0  0
M  END
>  <CHROM.1>
-133.49131503,169.50503656,68.35449745,59.30210585,144.65936998,63.98966140
71.78573959,69.82538501,76.73568737,63.34256413,164.96488064,-168.63343826
152.30936669,12.27683066,-14.16386942,8.63467003,2.75721389,0.24563779,2.17310144

>  <Name>
lig.pdb

>  <RI>
0

>  <Rbt.Current_Directory>
/home/afrankz/demos/rdock_decoys_rna/rnas/3wru

>  <Rbt.Executable>
rbdock ($Id: //depot/dev/client3/rdock/2013.1/src/exe/rbdock.cxx#4 $)

>  <Rbt.Library>
libRbt.so (2013.1, Build901 2013/11/27)

>  <Rbt.Parameter_File>
/export/apps/rDock/src/rDock_2013.1_src/data/scripts/dock_solv.prm

>  <Rbt.Receptor>
prm/pocket_docking_3.prm

>  <SCORE>
4.00702

>  <SCORE.INTER>
2.69044

>  <SCORE.INTER.CONST>
1

>  <SCORE.INTER.POLAR>
0

>  <SCORE.INTER.ROT>
13

>  <SCORE.INTER.SOLV>
12.2187

>  <SCORE.INTER.VDW>
-14.5459

>  <SCORE.INTER.norm>
0.0584879

>  <SCORE.INTRA>
1.31658

>  <SCORE.INTRA.DIHEDRAL>
-3.32296

>  <SCORE.INTRA.DIHEDRAL.0>
19.7146

>  <SCORE.INTRA.POLAR>
0

>  <SCORE.INTRA.POLAR.0>
0

>  <SCORE.INTRA.REPUL>
0.0275757

>  <SCORE.INTRA.REPUL.0>
0

>  <SCORE.INTRA.SOLV>
5.48761

>  <SCORE.INTRA.SOLV.lig_0>
-116.697

>  <SCORE.INTRA.VDW>
0.096378

>  <SCORE.INTRA.VDW.0>
-7.06424

>  <SCORE.INTRA.norm>
0.0286213

>  <SCORE.RESTR>
0

>  <SCORE.RESTR.CAVITY>
0

>  <SCORE.RESTR.norm>
0

>  <SCORE.SYSTEM>
0

>  <SCORE.SYSTEM.CONST>
0

>  <SCORE.SYSTEM.DIHEDRAL>
0

>  <SCORE.SYSTEM.SOLV>
0

>  <SCORE.SYSTEM.norm>
0

>  <SCORE.heavy>
46

>  <SCORE.norm>
0.0871091

>  <RMSD>
3.460

$$$$
lig.pdb
 OpenBabel03061811583D
libRbt.so/2013.1/901 2013/11/27
 46 49  0  0  0  0  0  0  0  0999 V2000
   11.8438  -12.1868    3.4928 C   0  0  1  0  0  0  0  0  0  0  0  0
   13.1782  -12.0572    5.6401 C   0  0  1  0  0  0  0  0  0  0  0  0
   13.6977  -13.5140    5.4467 C   0  0  1  0  0  0  0  0  0  0  0  0
   15.0545  -13.7005    6.2996 C   0  0  2  0  0  0  0  0  0  0  0  0
   12.0738  -14.4957    7.1311 C   0  0  2  0  0  0  0  0  0  0  0  0
   11.2188  -15.7776    7.3417 C   0  0  1  0  0  0  0  0  0  0  0  0
   11.3263  -15.8544    8.8455 C   0  0  1  0  0  0  0  0  0  0  0  0
   12.8393  -15.6127    9.1481 C   0  0  1  0  0  0  0  0  0  0  0  0
   13.7961  -16.8484    9.0091 C   0  0  0  0  0  0  0  0  0  0  0  0
    9.2093  -15.1584    9.9027 C   0  0  1  0  0  0  0  0  0  0  0  0
    9.2269  -15.9870   11.1524 C   0  0  1  0  0  0  0  0  0  0  0  0
   10.6807  -11.3917    2.8539 C   0  0  1  0  0  0  0  0  0  0  0  0
    7.7516  -16.3967   11.4991 C   0  0  0  0  0  0  0  0  0  0  0  0
    7.0904  -17.1718   10.4888 C   0  0  0  0  0  0  0  0  0  0  0  0
    7.0225  -16.3885    9.2736 C   0  0  2  0  0  0  0  0  0  0  0  0
    6.3103  -17.1958    8.1177 C   0  0  0  0  0  0  0  0  0  0  0  0
   19.2627  -12.1195    8.4556 C   0  0  2  0  0  0  0  0  0  0  0  0
   18.4391  -11.8261    6.2673 C   0  0  0  0  0  0  0  0  0  0  0  0
   18.8326  -13.3747    8.8424 C   0  0  0  0  0  0  0  0  0  0  0  0
   19.7134  -12.1863    7.1782 C   0  0  1  0  0  0  0  0  0  0  0  0
    9.2782  -11.8237    3.4818 C   0  0  0  0  0  0  0  0  0  0  0  0
    9.0885  -13.3991    3.2484 C   0  0  0  0  0  0  0  0  0  0  0  0
   10.3066  -14.1518    3.9595 C   0  0  1  0  0  0  0  0  0  0  0  0
   10.2218  -15.6725    3.7814 C   0  0  0  0  0  0  0  0  0  0  0  0
   16.1441  -12.6975    5.7186 C   0  0  1  0  0  0  0  0  0  0  0  0
   15.5616  -11.2062    5.9684 C   0  0  0  0  0  0  0  0  0  0  0  0
   14.2178  -11.0116    5.1658 C   0  0  2  0  0  0  0  0  0  0  0  0
   20.2618  -11.6435    9.3856 F   0  0  0  0  0  0  0  0  0  0  0  0
    6.3318  -16.4528    6.7511 N   0  0  0  0  0  0  0  0  0  0  0  0
   10.9595   -9.9196    3.0401 N   0  0  0  0  0  0  0  0  0  0  0  0
    9.9268  -17.1907   11.0314 N   0  0  0  0  0  0  0  0  0  0  0  0
   19.5288  -14.5968    8.9943 N   0  0  0  0  0  0  0  0  0  0  0  0
   10.3482  -16.0320    2.4228 N   0  0  0  0  0  0  0  0  0  0  0  0
   17.4069  -12.8461    6.4640 N   0  0  0  0  0  0  0  0  0  0  0  0
   13.6672   -9.6574    5.3946 N   0  0  0  0  0  0  0  0  0  0  0  0
   12.0027  -11.8425    4.8696 O   0  0  0  0  0  0  0  0  0  0  0  0
   12.6130  -14.4282    5.9370 O   0  0  0  0  0  0  0  0  0  0  0  0
   15.4926  -14.9924    6.1121 O   0  0  0  0  0  0  0  0  0  0  0  0
    9.9287  -15.5249    6.8737 O   0  0  0  0  0  0  0  0  0  0  0  0
   13.0217  -14.5002    8.2565 O   0  0  0  0  0  0  0  0  0  0  0  0
   15.0882  -16.4502    9.5090 O   0  0  0  0  0  0  0  0  0  0  0  0
   10.4571  -14.7736    9.4624 O   0  0  0  0  0  0  0  0  0  0  0  0
   20.7837  -11.2551    6.9071 O   0  0  0  0  0  0  0  0  0  0  0  0
   18.3559  -10.8283    5.5323 O   0  0  0  0  0  0  0  0  0  0  0  0
    8.4065  -15.9586    8.8477 O   0  0  0  0  0  0  0  0  0  0  0  0
   11.6229  -13.6676    3.3739 O   0  0  0  0  0  0  0  0  0  0  0  0
  1 36  1  1  0  0  0
  2 36  1  6  0  0  0
  2  3  1  0  0  0  0
  3 37  1  1  0  0  0
  3  4  1  0  0  0  0
  4 38  1  6  0  0  0
  5 37  1  6  0  0  0
  5  6  1  0  0  0  0
  6  7  1  0  0  0  0
  6 39  1  1  0  0  0
  7 42  1  1  0  0  0
  8  9  1  6  0  0  0
  8  7  1  0  0  0  0
 10 42  1  6  0  0  0
 10 11  1  0  0  0  0
 11 31  1  6  0  0  0
 11 13  1  0  0  0  0
 12 30  1  1  0  0  0
 12  1  1  0  0  0  0
 14 13  1  0  0  0  0
 15 16  1  6  0  0  0
 15 14  1  0  0  0  0
 17 19  1  1  0  0  0
 17 28  1  0  0  0  0
 18 34  1  0  0  0  0
 19 32  1  0  0  0  0
 20 18  1  6  0  0  0
 20 17  1  0  0  0  0
 20 43  1  0  0  0  0
 21 12  1  0  0  0  0
 22 21  1  0  0  0  0
 22 23  1  0  0  0  0
 23 24  1  6  0  0  0
 23 46  1  0  0  0  0
 24 33  1  0  0  0  0
 25 34  1  1  0  0  0
 25  4  1  0  0  0  0
 26 25  1  0  0  0  0
 27 35  1  1  0  0  0
 27 26  1  0  0  0  0
 27  2  1  0  0  0  0
 29 16  1  0  0  0  0
 40  8  1  0  0  0  0
 40  5  1  0  0  0  0
 41  9  1  0  0  0  0
 44 18  2  0  0  0  0
 45 15  1  0  0  0  0
 45 10  1  0  0  0  0
 46  1  1  0  0  0  0
M  END
>  <CHROM.1>
-160.02737566,-48.17657162,-59.25319121,-166.72060889,98.21717139,-172.13783676
72.44590496,-174.49000739,63.37530492,-63.23629043,92.00232075,64.39333583
-167.61280768,12.87843526,-13.94719881,6.90953211,2.88597551,0.27077834,2.11188771

>  <Name>
lig.pdb

>  <RI>
0

>  <Rbt.Current_Directory>
/home/afrankz/demos/rdock_decoys_rna/rnas/3wru

>  <Rbt.Executable>
rbdock ($Id: //depot/dev/client3/rdock/2013.1/src/exe/rbdock.cxx#4 $)

>  <Rbt.Library>
libRbt.so (2013.1, Build901 2013/11/27)

>  <Rbt.Parameter_File>
/export/apps/rDock/src/rDock_2013.1_src/data/scripts/dock_solv.prm

>  <Rbt.Receptor>
prm/pocket_docking_4.prm

>  <SCORE>
3.30727

>  <SCORE.INTER>
2.95639

>  <SCORE.INTER.CONST>
1

>  <SCORE.INTER.POLAR>
0

>  <SCORE.INTER.ROT>
13

>  <SCORE.INTER.SOLV>
19.8864

>  <SCORE.INTER.VDW>
-16.9245

>  <SCORE.INTER.norm>
0.0642694

>  <SCORE.INTRA>
0.344543

>  <SCORE.INTRA.DIHEDRAL>
-6.53429

>  <SCORE.INTRA.DIHEDRAL.0>
19.7146

>  <SCORE.INTRA.POLAR>
0

>  <SCORE.INTRA.POLAR.0>
0

>  <SCORE.INTRA.REPUL>
0

>  <SCORE.INTRA.REPUL.0>
0

>  <SCORE.INTRA.SOLV>
3.34489

>  <SCORE.INTRA.SOLV.lig_0>
-116.697

>  <SCORE.INTRA.VDW>
1.93924

>  <SCORE.INTRA.VDW.0>
-7.06424

>  <SCORE.INTRA.norm>
0.00749007

>  <SCORE.RESTR>
0.00633428

>  <SCORE.RESTR.CAVITY>
0.00633428

>  <SCORE.RESTR.norm>
0.000137702

>  <SCORE.SYSTEM>
0

>  <SCORE.SYSTEM.CONST>
0

>  <SCORE.SYSTEM.DIHEDRAL>
0

>  <SCORE.SYSTEM.SOLV>
0

>  <SCORE.SYSTEM.norm>
0

>  <SCORE.heavy>
46

>  <SCORE.norm>
0.0718972

>  <RMSD>
3.498

$$$$
lig.pdb
 OpenBabel03061811583D
libRbt.so/2013.1/901 2013/11/27
 46 49  0  0  0  0  0  0  0  0999 V2000
    9.9545  -12.6276    5.9672 C   0  0  1  0  0  0  0  0  0  0  0  0
   12.3739  -13.1439    6.5036 C   0  0  1  0  0  0  0  0  0  0  0  0
   12.3411  -13.1929    8.0612 C   0  0  1  0  0  0  0  0  0  0  0  0
   13.8139  -12.8512    8.6242 C   0  0  2  0  0  0  0  0  0  0  0  0
   10.1327  -12.3615    8.9938 C   0  0  2  0  0  0  0  0  0  0  0  0
   10.1435  -13.0748   10.3758 C   0  0  1  0  0  0  0  0  0  0  0  0
    8.8200  -12.5587   10.8865 C   0  0  1  0  0  0  0  0  0  0  0  0
    8.8371  -11.0314   10.5606 C   0  0  1  0  0  0  0  0  0  0  0  0
    9.5977  -10.1000   11.5684 C   0  0  0  0  0  0  0  0  0  0  0  0
    7.3252  -14.5054   10.6428 C   0  0  1  0  0  0  0  0  0  0  0  0
    6.2161  -15.1610    9.8755 C   0  0  1  0  0  0  0  0  0  0  0  0
    8.7415  -13.3315    5.3141 C   0  0  1  0  0  0  0  0  0  0  0  0
    5.8665  -16.5238   10.5719 C   0  0  0  0  0  0  0  0  0  0  0  0
    5.4261  -16.4074   11.9325 C   0  0  0  0  0  0  0  0  0  0  0  0
    6.4874  -15.8091   12.7140 C   0  0  2  0  0  0  0  0  0  0  0  0
    6.0564  -15.6461   14.2248 C   0  0  0  0  0  0  0  0  0  0  0  0
   18.9697  -13.5502    8.3634 C   0  0  2  0  0  0  0  0  0  0  0  0
   17.0600  -14.8527    8.8212 C   0  0  0  0  0  0  0  0  0  0  0  0
   20.1001  -12.8990    8.8197 C   0  0  0  0  0  0  0  0  0  0  0  0
   18.4781  -14.3243    9.3626 C   0  0  1  0  0  0  0  0  0  0  0  0
    8.9915  -13.5769    3.7568 C   0  0  0  0  0  0  0  0  0  0  0  0
    9.2687  -12.1574    3.0638 C   0  0  0  0  0  0  0  0  0  0  0  0
   10.5484  -11.5077    3.7683 C   0  0  1  0  0  0  0  0  0  0  0  0
   10.8892  -10.1333    3.1800 C   0  0  0  0  0  0  0  0  0  0  0  0
   14.8128  -13.9763    8.1073 C   0  0  1  0  0  0  0  0  0  0  0  0
   14.8230  -13.8610    6.4910 C   0  0  0  0  0  0  0  0  0  0  0  0
   13.3839  -14.1633    5.9206 C   0  0  2  0  0  0  0  0  0  0  0  0
   19.2930  -14.3005    7.1709 F   0  0  0  0  0  0  0  0  0  0  0  0
    7.0863  -14.8434   15.0703 N   0  0  0  0  0  0  0  0  0  0  0  0
    8.4871  -14.6189    6.0606 N   0  0  0  0  0  0  0  0  0  0  0  0
    5.0220  -14.4348    9.8623 N   0  0  0  0  0  0  0  0  0  0  0  0
   20.9679  -11.9770    8.1887 N   0  0  0  0  0  0  0  0  0  0  0  0
    9.8865   -9.1883    3.4842 N   0  0  0  0  0  0  0  0  0  0  0  0
   16.1713  -13.7077    8.6121 N   0  0  0  0  0  0  0  0  0  0  0  0
   13.3751  -14.0492    4.4453 N   0  0  0  0  0  0  0  0  0  0  0  0
   11.1001  -13.4801    5.9690 O   0  0  0  0  0  0  0  0  0  0  0  0
   11.3350  -12.1711    8.5045 O   0  0  0  0  0  0  0  0  0  0  0  0
   13.7587  -12.9013    9.9991 O   0  0  0  0  0  0  0  0  0  0  0  0
   10.1731  -14.4526   10.1568 O   0  0  0  0  0  0  0  0  0  0  0  0
    9.3382  -11.1434    9.2181 O   0  0  0  0  0  0  0  0  0  0  0  0
    9.0098  -10.3029   12.8689 O   0  0  0  0  0  0  0  0  0  0  0  0
    7.6941  -13.2695   10.1577 O   0  0  0  0  0  0  0  0  0  0  0  0
   19.3283  -15.4490    9.6765 O   0  0  0  0  0  0  0  0  0  0  0  0
   16.7860  -16.0448    8.6057 O   0  0  0  0  0  0  0  0  0  0  0  0
    6.8842  -14.4751   12.1269 O   0  0  0  0  0  0  0  0  0  0  0  0
   10.2898  -11.3472    5.2574 O   0  0  0  0  0  0  0  0  0  0  0  0
  1 36  1  6  0  0  0
  2 36  1  6  0  0  0
  2  3  1  0  0  0  0
  3 37  1  1  0  0  0
  3  4  1  0  0  0  0
  4 38  1  1  0  0  0
  5 37  1  1  0  0  0
  5  6  1  0  0  0  0
  6  7  1  0  0  0  0
  6 39  1  6  0  0  0
  7 42  1  6  0  0  0
  8  9  1  1  0  0  0
  8  7  1  0  0  0  0
 10 42  1  6  0  0  0
 10 11  1  0  0  0  0
 11 31  1  1  0  0  0
 11 13  1  0  0  0  0
 12 30  1  1  0  0  0
 12  1  1  0  0  0  0
 14 13  1  0  0  0  0
 15 16  1  1  0  0  0
 15 14  1  0  0  0  0
 17 19  1  1  0  0  0
 17 28  1  0  0  0  0
 18 34  1  0  0  0  0
 19 32  1  0  0  0  0
 20 18  1  6  0  0  0
 20 17  1  0  0  0  0
 20 43  1  0  0  0  0
 21 12  1  0  0  0  0
 22 21  1  0  0  0  0
 22 23  1  0  0  0  0
 23 24  1  6  0  0  0
 23 46  1  0  0  0  0
 24 33  1  0  0  0  0
 25 34  1  1  0  0  0
 25  4  1  0  0  0  0
 26 25  1  0  0  0  0
 27 35  1  6  0  0  0
 27 26  1  0  0  0  0
 27  2  1  0  0  0  0
 29 16  1  0  0  0  0
 40  8  1  0  0  0  0
 40  5  1  0  0  0  0
 41  9  1  0  0  0  0
 44 18  2  0  0  0  0
 45 15  1  0  0  0  0
 45 10  1  0  0  0  0
 46  1  1  0  0  0  0
M  END
>  <CHROM.1>
-179.46634400,74.91844373,106.84544436,65.33982052,83.18333119,-56.89451004
-179.56264658,-172.59065557,-179.18710108,-62.87212487,171.48245670,67.17829064
151.24024945,11.46969629,-13.37656448,8.53652816,2.86364990,-0.05601792,1.88672586

>  <Name>
lig.pdb

>  <RI>
0

>  <Rbt.Current_Directory>
/home/afrankz/demos/rdock_decoys_rna/rnas/3wru

>  <Rbt.Executable>
rbdock ($Id: //depot/dev/client3/rdock/2013.1/src/exe/rbdock.cxx#4 $)

>  <Rbt.Library>
libRbt.so (2013.1, Build901 2013/11/27)

>  <Rbt.Parameter_File>
/export/apps/rDock/src/rDock_2013.1_src/data/scripts/dock_solv.prm

>  <Rbt.Receptor>
prm/pocket_docking_7.prm

>  <SCORE>
-3.23761

>  <SCORE.INTER>
0.227393

>  <SCORE.INTER.CONST>
1

>  <SCORE.INTER.POLAR>
0

>  <SCORE.INTER.ROT>
13

>  <SCORE.INTER.SOLV>
20.7318

>  <SCORE.INTER.VDW>
-19.0257

>  <SCORE.INTER.norm>
0.00494333

>  <SCORE.INTRA>
-3.465

>  <SCORE.INTRA.DIHEDRAL>
-7.5949

>  <SCORE.INTRA.DIHEDRAL.0>
19.7146

>  <SCORE.INTRA.POLAR>
0

>  <SCORE.INTRA.POLAR.0>
0

>  <SCORE.INTRA.REPUL>
0

>  <SCORE.INTRA.REPUL.0>
0

>  <SCORE.INTRA.SOLV>
-2.21451

>  <SCORE.INTRA.SOLV.lig_0>
-116.697

>  <SCORE.INTRA.VDW>
1.4397

>  <SCORE.INTRA.VDW.0>
-7.06424

>  <SCORE.INTRA.norm>
-0.0753262

>  <SCORE.RESTR>
0

>  <SCORE.RESTR.CAVITY>
0

>  <SCORE.RESTR.norm>
0

>  <SCORE.SYSTEM>
0

>  <SCORE.SYSTEM.CONST>
0

>  <SCORE.SYSTEM.DIHEDRAL>
0

>  <SCORE.SYSTEM.SOLV>
0

>  <SCORE.SYSTEM.norm>
0

>  <SCORE.heavy>
46

>  <SCORE.norm>
-0.0703829

>  <RMSD>
3.554

$$$$
lig.pdb
 OpenBabel03061811583D
libRbt.so/2013.1/901 2013/11/27
 46 49  0  0  0  0  0  0  0  0999 V2000
   10.8998  -11.1342    4.5194 C   0  0  1  0  0  0  0  0  0  0  0  0
   13.3373  -11.7390    4.8363 C   0  0  1  0  0  0  0  0  0  0  0  0
   13.8245  -13.2135    4.7016 C   0  0  1  0  0  0  0  0  0  0  0  0
   15.1567  -13.4051    5.5912 C   0  0  2  0  0  0  0  0  0  0  0  0
   12.2553  -14.2260    6.4192 C   0  0  2  0  0  0  0  0  0  0  0  0
   13.1750  -15.1097    7.3092 C   0  0  1  0  0  0  0  0  0  0  0  0
   12.7716  -14.5451    8.6499 C   0  0  1  0  0  0  0  0  0  0  0  0
   12.7812  -12.9965    8.4476 C   0  0  1  0  0  0  0  0  0  0  0  0
   14.1712  -12.2765    8.5541 C   0  0  0  0  0  0  0  0  0  0  0  0
   10.8701  -14.6444   10.2177 C   0  0  1  0  0  0  0  0  0  0  0  0
    9.5718  -15.2992   10.5843 C   0  0  1  0  0  0  0  0  0  0  0  0
    9.8154  -11.3246    3.4326 C   0  0  1  0  0  0  0  0  0  0  0  0
    9.0809  -14.7015   11.9503 C   0  0  0  0  0  0  0  0  0  0  0  0
    8.8499  -13.2855   11.9381 C   0  0  0  0  0  0  0  0  0  0  0  0
   10.0934  -12.6155   11.6219 C   0  0  2  0  0  0  0  0  0  0  0  0
    9.8995  -11.0484   11.5846 C   0  0  0  0  0  0  0  0  0  0  0  0
   20.2018  -11.6453    6.5589 C   0  0  2  0  0  0  0  0  0  0  0  0
   18.7801  -12.7561    5.0430 C   0  0  0  0  0  0  0  0  0  0  0  0
   20.7794  -11.7298    7.8117 C   0  0  0  0  0  0  0  0  0  0  0  0
   19.9919  -12.9001    6.0890 C   0  0  1  0  0  0  0  0  0  0  0  0
   10.0408  -10.3169    2.2154 C   0  0  0  0  0  0  0  0  0  0  0  0
   10.0143   -8.8205    2.7919 C   0  0  0  0  0  0  0  0  0  0  0  0
   11.1765   -8.6930    3.8823 C   0  0  1  0  0  0  0  0  0  0  0  0
   11.2254   -7.2925    4.5050 C   0  0  0  0  0  0  0  0  0  0  0  0
   16.2838  -12.4482    5.0039 C   0  0  1  0  0  0  0  0  0  0  0  0
   15.7333  -10.9358    5.1925 C   0  0  0  0  0  0  0  0  0  0  0  0
   14.4131  -10.7349    4.3531 C   0  0  2  0  0  0  0  0  0  0  0  0
   21.0411  -10.8481    5.6931 F   0  0  0  0  0  0  0  0  0  0  0  0
    9.3952  -10.4633   12.9350 N   0  0  0  0  0  0  0  0  0  0  0  0
    9.8416  -12.7679    2.9903 N   0  0  0  0  0  0  0  0  0  0  0  0
    8.5336  -15.0579    9.6800 N   0  0  0  0  0  0  0  0  0  0  0  0
   22.0018  -12.2969    8.2424 N   0  0  0  0  0  0  0  0  0  0  0  0
   11.5456   -6.3175    3.5366 N   0  0  0  0  0  0  0  0  0  0  0  0
   17.5255  -12.6031    5.7828 N   0  0  0  0  0  0  0  0  0  0  0  0
   13.8915   -9.3610    4.5258 N   0  0  0  0  0  0  0  0  0  0  0  0
   12.1852  -11.5210    4.0323 O   0  0  0  0  0  0  0  0  0  0  0  0
   12.7066  -14.0847    5.1955 O   0  0  0  0  0  0  0  0  0  0  0  0
   15.5666  -14.7126    5.4553 O   0  0  0  0  0  0  0  0  0  0  0  0
   12.8152  -16.4447    7.1202 O   0  0  0  0  0  0  0  0  0  0  0  0
   12.0950  -12.9797    7.1848 O   0  0  0  0  0  0  0  0  0  0  0  0
   14.7492  -12.6431    9.8228 O   0  0  0  0  0  0  0  0  0  0  0  0
   11.3850  -15.0501    9.0057 O   0  0  0  0  0  0  0  0  0  0  0  0
   21.1469  -13.4542    5.4216 O   0  0  0  0  0  0  0  0  0  0  0  0
   18.9092  -12.7602    3.8078 O   0  0  0  0  0  0  0  0  0  0  0  0
   10.6395  -13.1157   10.3053 O   0  0  0  0  0  0  0  0  0  0  0  0
   10.9559   -9.7092    4.9907 O   0  0  0  0  0  0  0  0  0  0  0  0
  1 36  1  6  0  0  0
  2 36  1  6  0  0  0
  2  3  1  0  0  0  0
  3 37  1  1  0  0  0
  3  4  1  0  0  0  0
  4 38  1  6  0  0  0
  5 37  1  6  0  0  0
  5  6  1  0  0  0  0
  6  7  1  0  0  0  0
  6 39  1  1  0  0  0
  7 42  1  6  0  0  0
  8  9  1  6  0  0  0
  8  7  1  0  0  0  0
 10 42  1  6  0  0  0
 10 11  1  0  0  0  0
 11 31  1  6  0  0  0
 11 13  1  0  0  0  0
 12 30  1  6  0  0  0
 12  1  1  0  0  0  0
 14 13  1  0  0  0  0
 15 16  1  6  0  0  0
 15 14  1  0  0  0  0
 17 19  1  1  0  0  0
 17 28  1  0  0  0  0
 18 34  1  0  0  0  0
 19 32  1  0  0  0  0
 20 18  1  6  0  0  0
 20 17  1  0  0  0  0
 20 43  1  0  0  0  0
 21 12  1  0  0  0  0
 22 21  1  0  0  0  0
 22 23  1  0  0  0  0
 23 24  1  1  0  0  0
 23 46  1  0  0  0  0
 24 33  1  0  0  0  0
 25 34  1  1  0  0  0
 25  4  1  0  0  0  0
 26 25  1  0  0  0  0
 27 35  1  1  0  0  0
 27 26  1  0  0  0  0
 27  2  1  0  0  0  0
 29 16  1  0  0  0  0
 40  8  1  0  0  0  0
 40  5  1  0  0  0  0
 41  9  1  0  0  0  0
 44 18  2  0  0  0  0
 45 15  1  0  0  0  0
 45 10  1  0  0  0  0
 46  1  1  0  0  0  0
M  END
>  <CHROM.1>
-166.06849939,118.52169784,-69.11647332,-76.51937965,178.97633050,-54.17381148
-173.25906300,59.56531650,60.93747156,-75.80882028,154.74439583,-63.80886355
133.47451513,13.58386971,-12.31475516,6.72456083,2.80710920,-0.12981706,2.12214189

>  <Name>
lig.pdb

>  <RI>
0

>  <Rbt.Current_Directory>
/home/afrankz/demos/rdock_decoys_rna/rnas/3wru

>  <Rbt.Executable>
rbdock ($Id: //depot/dev/client3/rdock/2013.1/src/exe/rbdock.cxx#4 $)

>  <Rbt.Library>
libRbt.so (2013.1, Build901 2013/11/27)

>  <Rbt.Parameter_File>
/export/apps/rDock/src/rDock_2013.1_src/data/scripts/dock_solv.prm

>  <Rbt.Receptor>
prm/pocket_docking_5.prm

>  <SCORE>
-5.39845

>  <SCORE.INTER>
-3.44938

>  <SCORE.INTER.CONST>
1

>  <SCORE.INTER.POLAR>
0

>  <SCORE.INTER.ROT>
13

>  <SCORE.INTER.SOLV>
21.8633

>  <SCORE.INTER.VDW>
-21.854

>  <SCORE.INTER.norm>
-0.0749865

>  <SCORE.INTRA>
-1.94907

>  <SCORE.INTRA.DIHEDRAL>
-5.41885

>  <SCORE.INTRA.DIHEDRAL.0>
19.7146

>  <SCORE.INTRA.POLAR>
0

>  <SCORE.INTRA.POLAR.0>
0

>  <SCORE.INTRA.REPUL>
0

>  <SCORE.INTRA.REPUL.0>
0

>  <SCORE.INTRA.SOLV>
2.07971

>  <SCORE.INTRA.SOLV.lig_0>
-116.697

>  <SCORE.INTRA.VDW>
-0.279503

>  <SCORE.INTRA.VDW.0>
-7.06424

>  <SCORE.INTRA.norm>
-0.0423712

>  <SCORE.RESTR>
0

>  <SCORE.RESTR.CAVITY>
0

>  <SCORE.RESTR.norm>
0

>  <SCORE.SYSTEM>
0

>  <SCORE.SYSTEM.CONST>
0

>  <SCORE.SYSTEM.DIHEDRAL>
0

>  <SCORE.SYSTEM.SOLV>
0

>  <SCORE.SYSTEM.norm>
0

>  <SCORE.heavy>
46

>  <SCORE.norm>
-0.117358

>  <RMSD>
3.576

$$$$
lig.pdb
 OpenBabel03061811583D
libRbt.so/2013.1/901 2013/11/27
 46 49  0  0  0  0  0  0  0  0999 V2000
   14.1249  -12.3587    4.7521 C   0  0  1  0  0  0  0  0  0  0  0  0
   15.5223  -13.3457    6.6178 C   0  0  1  0  0  0  0  0  0  0  0  0
   15.3054  -14.2926    7.8369 C   0  0  1  0  0  0  0  0  0  0  0  0
   16.6828  -14.3912    8.6712 C   0  0  2  0  0  0  0  0  0  0  0  0
   12.9467  -14.0446    8.7386 C   0  0  2  0  0  0  0  0  0  0  0  0
   12.7513  -15.4754    9.3157 C   0  0  1  0  0  0  0  0  0  0  0  0
   11.3498  -15.2957    9.8470 C   0  0  1  0  0  0  0  0  0  0  0  0
   11.3806  -13.9234   10.5920 C   0  0  1  0  0  0  0  0  0  0  0  0
   11.9437  -13.9245   12.0564 C   0  0  0  0  0  0  0  0  0  0  0  0
    9.0359  -15.2006    8.9980 C   0  0  1  0  0  0  0  0  0  0  0  0
    8.5862  -16.2108   10.0109 C   0  0  1  0  0  0  0  0  0  0  0  0
   14.2674  -10.8918    5.2226 C   0  0  1  0  0  0  0  0  0  0  0  0
    7.0398  -16.0466   10.2254 C   0  0  0  0  0  0  0  0  0  0  0  0
    6.2453  -16.2481    9.0477 C   0  0  0  0  0  0  0  0  0  0  0  0
    6.6275  -15.2650    8.0565 C   0  0  2  0  0  0  0  0  0  0  0  0
    5.7902  -15.4432    6.7291 C   0  0  0  0  0  0  0  0  0  0  0  0
   22.5667  -15.5936    7.9015 C   0  0  2  0  0  0  0  0  0  0  0  0
   20.2183  -15.6829    7.7281 C   0  0  0  0  0  0  0  0  0  0  0  0
   23.6720  -15.2885    8.6730 C   0  0  0  0  0  0  0  0  0  0  0  0
   21.4875  -15.7171    8.7136 C   0  0  1  0  0  0  0  0  0  0  0  0
   13.0996  -10.4995    6.2375 C   0  0  0  0  0  0  0  0  0  0  0  0
   11.6949  -10.7276    5.4979 C   0  0  0  0  0  0  0  0  0  0  0  0
   11.6085  -12.2656    5.0701 C   0  0  1  0  0  0  0  0  0  0  0  0
   10.2982  -12.5835    4.3397 C   0  0  0  0  0  0  0  0  0  0  0  0
   17.7875  -15.0357    7.7251 C   0  0  1  0  0  0  0  0  0  0  0  0
   17.9859  -14.0001    6.4946 C   0  0  0  0  0  0  0  0  0  0  0  0
   16.6410  -13.8661    5.6815 C   0  0  2  0  0  0  0  0  0  0  0  0
   22.8327  -16.7844    7.1264 F   0  0  0  0  0  0  0  0  0  0  0  0
    5.9367  -16.8586    6.1002 N   0  0  0  0  0  0  0  0  0  0  0  0
   15.6364  -10.7261    5.8371 N   0  0  0  0  0  0  0  0  0  0  0  0
    8.7661  -17.5388    9.6138 N   0  0  0  0  0  0  0  0  0  0  0  0
   24.3766  -16.0445    9.6391 N   0  0  0  0  0  0  0  0  0  0  0  0
   10.2081  -13.9582    4.0344 N   0  0  0  0  0  0  0  0  0  0  0  0
   19.0618  -15.1561    8.4559 N   0  0  0  0  0  0  0  0  0  0  0  0
   16.8037  -12.9132    4.5613 N   0  0  0  0  0  0  0  0  0  0  0  0
   14.3387  -13.2656    5.8343 O   0  0  0  0  0  0  0  0  0  0  0  0
   14.2072  -13.6888    8.6629 O   0  0  0  0  0  0  0  0  0  0  0  0
   16.4656  -15.2317    9.7401 O   0  0  0  0  0  0  0  0  0  0  0  0
   12.8510  -16.3884    8.2651 O   0  0  0  0  0  0  0  0  0  0  0  0
   12.0956  -13.1912    9.5827 O   0  0  0  0  0  0  0  0  0  0  0  0
   11.6000  -12.6566   12.6502 O   0  0  0  0  0  0  0  0  0  0  0  0
   10.3754  -15.2740    8.6832 O   0  0  0  0  0  0  0  0  0  0  0  0
   21.4851  -16.9495    9.4668 O   0  0  0  0  0  0  0  0  0  0  0  0
   20.2389  -16.0362    6.5376 O   0  0  0  0  0  0  0  0  0  0  0  0
    8.1075  -15.3571    7.7687 O   0  0  0  0  0  0  0  0  0  0  0  0
   12.7707  -12.6108    4.1535 O   0  0  0  0  0  0  0  0  0  0  0  0
  1 36  1  1  0  0  0
  2 36  1  6  0  0  0
  2  3  1  0  0  0  0
  3 37  1  1  0  0  0
  3  4  1  0  0  0  0
  4 38  1  1  0  0  0
  5 37  1  1  0  0  0
  5  6  1  0  0  0  0
  6  7  1  0  0  0  0
  6 39  1  6  0  0  0
  7 42  1  6  0  0  0
  8  9  1  1  0  0  0
  8  7  1  0  0  0  0
 10 42  1  6  0  0  0
 10 11  1  0  0  0  0
 11 31  1  6  0  0  0
 11 13  1  0  0  0  0
 12 30  1  1  0  0  0
 12  1  1  0  0  0  0
 14 13  1  0  0  0  0
 15 16  1  6  0  0  0
 15 14  1  0  0  0  0
 17 19  1  1  0  0  0
 17 28  1  0  0  0  0
 18 34  1  0  0  0  0
 19 32  1  0  0  0  0
 20 18  1  6  0  0  0
 20 17  1  0  0  0  0
 20 43  1  0  0  0  0
 21 12  1  0  0  0  0
 22 21  1  0  0  0  0
 22 23  1  0  0  0  0
 23 24  1  6  0  0  0
 23 46  1  0  0  0  0
 24 33  1  0  0  0  0
 25 34  1  1  0  0  0
 25  4  1  0  0  0  0
 26 25  1  0  0  0  0
 27 35  1  6  0  0  0
 27 26  1  0  0  0  0
 27  2  1  0  0  0  0
 29 16  1  0  0  0  0
 40  8  1  0  0  0  0
 40  5  1  0  0  0  0
 41  9  1  0  0  0  0
 44 18  2  0  0  0  0
 45 15  1  0  0  0  0
 45 10  1  0  0  0  0
 46  1  1  0  0  0  0
M  END
>  <CHROM.1>
-58.53411587,171.23125641,102.63342375,63.61889679,176.05365006,-167.02889441
-50.40505865,-57.82209553,67.26146502,-152.33872502,165.60842310,-176.82435104
-177.65525220,14.06614614,-14.46316244,7.78220232,-0.00966917,0.03658945
-0.96228361

>  <Name>
lig.pdb

>  <RI>
0

>  <Rbt.Current_Directory>
/home/afrankz/demos/rdock_decoys_rna/rnas/3wru

>  <Rbt.Executable>
rbdock ($Id: //depot/dev/client3/rdock/2013.1/src/exe/rbdock.cxx#4 $)

>  <Rbt.Library>
libRbt.so (2013.1, Build901 2013/11/27)

>  <Rbt.Parameter_File>
/export/apps/rDock/src/rDock_2013.1_src/data/scripts/dock_solv.prm

>  <Rbt.Receptor>
prm/pocket_docking_5.prm

>  <SCORE>
7.89393

>  <SCORE.INTER>
7.41898

>  <SCORE.INTER.CONST>
1

>  <SCORE.INTER.POLAR>
0

>  <SCORE.INTER.ROT>
13

>  <SCORE.INTER.SOLV>
18.9775

>  <SCORE.INTER.VDW>
-13.6465

>  <SCORE.INTER.norm>
0.161282

>  <SCORE.INTRA>
0.474951

>  <SCORE.INTRA.DIHEDRAL>
-9.73022

>  <SCORE.INTRA.DIHEDRAL.0>
19.7146

>  <SCORE.INTRA.POLAR>
0

>  <SCORE.INTRA.POLAR.0>
0

>  <SCORE.INTRA.REPUL>
0

>  <SCORE.INTRA.REPUL.0>
0

>  <SCORE.INTRA.SOLV>
3.70479

>  <SCORE.INTRA.SOLV.lig_0>
-116.697

>  <SCORE.INTRA.VDW>
3.48766

>  <SCORE.INTRA.VDW.0>
-7.06424

>  <SCORE.INTRA.norm>
0.010325

>  <SCORE.RESTR>
0

>  <SCORE.RESTR.CAVITY>
0

>  <SCORE.RESTR.norm>
0

>  <SCORE.SYSTEM>
0

>  <SCORE.SYSTEM.CONST>
0

>  <SCORE.SYSTEM.DIHEDRAL>
0

>  <SCORE.SYSTEM.SOLV>
0

>  <SCORE.SYSTEM.norm>
0

>  <SCORE.heavy>
46

>  <SCORE.norm>
0.171607

>  <RMSD>
3.583

$$$$
lig.pdb
 OpenBabel03061811583D
libRbt.so/2013.1/901 2013/11/27
 46 49  0  0  0  0  0  0  0  0999 V2000
   10.8664  -12.7797    5.9787 C   0  0  1  0  0  0  0  0  0  0  0  0
   13.2878  -12.4997    6.6615 C   0  0  1  0  0  0  0  0  0  0  0  0
   14.2501  -13.0881    7.7374 C   0  0  1  0  0  0  0  0  0  0  0  0
   15.6645  -12.3170    7.6485 C   0  0  2  0  0  0  0  0  0  0  0  0
   12.8604  -13.7084    9.7676 C   0  0  2  0  0  0  0  0  0  0  0  0
   13.1470  -13.6395   11.2946 C   0  0  1  0  0  0  0  0  0  0  0  0
   11.8120  -14.1504   11.7800 C   0  0  1  0  0  0  0  0  0  0  0  0
   10.7567  -13.3689   10.9346 C   0  0  1  0  0  0  0  0  0  0  0  0
   10.3888  -11.9233   11.4210 C   0  0  0  0  0  0  0  0  0  0  0  0
   10.6485  -16.3060   12.0691 C   0  0  1  0  0  0  0  0  0  0  0  0
   10.7270  -17.8000   11.9665 C   0  0  1  0  0  0  0  0  0  0  0  0
   10.3435  -11.4227    6.5064 C   0  0  1  0  0  0  0  0  0  0  0  0
    9.4115  -18.4103   12.5677 C   0  0  0  0  0  0  0  0  0  0  0  0
    8.2045  -18.0053   11.9061 C   0  0  0  0  0  0  0  0  0  0  0  0
    8.0756  -16.5677   12.0154 C   0  0  2  0  0  0  0  0  0  0  0  0
    6.7650  -16.0597   11.2949 C   0  0  0  0  0  0  0  0  0  0  0  0
   20.8638  -11.8691    7.5488 C   0  0  2  0  0  0  0  0  0  0  0  0
   18.7410  -12.5265    6.7650 C   0  0  0  0  0  0  0  0  0  0  0  0
   22.1621  -11.9780    7.0877 C   0  0  0  0  0  0  0  0  0  0  0  0
   20.0449  -11.6263    6.4954 C   0  0  1  0  0  0  0  0  0  0  0  0
    9.8179  -11.5556    8.0077 C   0  0  0  0  0  0  0  0  0  0  0  0
    8.6591  -12.6639    8.0368 C   0  0  0  0  0  0  0  0  0  0  0  0
    9.2804  -14.0391    7.5087 C   0  0  1  0  0  0  0  0  0  0  0  0
    8.2404  -15.1658    7.4872 C   0  0  0  0  0  0  0  0  0  0  0  0
   16.2881  -12.5945    6.2115 C   0  0  1  0  0  0  0  0  0  0  0  0
   15.2605  -11.9425    5.1415 C   0  0  0  0  0  0  0  0  0  0  0  0
   13.8603  -12.6630    5.2317 C   0  0  2  0  0  0  0  0  0  0  0  0
   20.7973  -10.8452    8.5670 F   0  0  0  0  0  0  0  0  0  0  0  0
    6.4694  -14.5547   11.5555 N   0  0  0  0  0  0  0  0  0  0  0  0
   11.4552  -10.4091    6.3791 N   0  0  0  0  0  0  0  0  0  0  0  0
   10.7932  -18.2811   10.6559 N   0  0  0  0  0  0  0  0  0  0  0  0
   23.0189  -11.0354    6.4722 N   0  0  0  0  0  0  0  0  0  0  0  0
    8.8194  -16.3827    7.0690 N   0  0  0  0  0  0  0  0  0  0  0  0
   17.5914  -11.9164    6.0936 N   0  0  0  0  0  0  0  0  0  0  0  0
   12.9072  -12.0691    4.2682 N   0  0  0  0  0  0  0  0  0  0  0  0
   12.0414  -13.1834    6.6827 O   0  0  0  0  0  0  0  0  0  0  0  0
   13.5923  -12.8731    9.0693 O   0  0  0  0  0  0  0  0  0  0  0  0
   16.4952  -12.8541    8.6064 O   0  0  0  0  0  0  0  0  0  0  0  0
   14.2195  -14.4864   11.5772 O   0  0  0  0  0  0  0  0  0  0  0  0
   11.4050  -13.5197    9.6607 O   0  0  0  0  0  0  0  0  0  0  0  0
    9.8527  -12.0415   12.7539 O   0  0  0  0  0  0  0  0  0  0  0  0
   11.7294  -15.6449   11.5274 O   0  0  0  0  0  0  0  0  0  0  0  0
   19.6627  -10.2378    6.3850 O   0  0  0  0  0  0  0  0  0  0  0  0
   18.7329  -13.5775    7.4268 O   0  0  0  0  0  0  0  0  0  0  0  0
    9.2959  -15.8859   11.4430 O   0  0  0  0  0  0  0  0  0  0  0  0
    9.8218  -13.8520    6.1008 O   0  0  0  0  0  0  0  0  0  0  0  0
  1 36  1  1  0  0  0
  2 36  1  6  0  0  0
  2  3  1  0  0  0  0
  3 37  1  1  0  0  0
  3  4  1  0  0  0  0
  4 38  1  1  0  0  0
  5 37  1  6  0  0  0
  5  6  1  0  0  0  0
  6  7  1  0  0  0  0
  6 39  1  6  0  0  0
  7 42  1  6  0  0  0
  8  9  1  1  0  0  0
  8  7  1  0  0  0  0
 10 42  1  6  0  0  0
 10 11  1  0  0  0  0
 11 31  1  6  0  0  0
 11 13  1  0  0  0  0
 12 30  1  1  0  0  0
 12  1  1  0  0  0  0
 14 13  1  0  0  0  0
 15 16  1  6  0  0  0
 15 14  1  0  0  0  0
 17 19  1  6  0  0  0
 17 28  1  0  0  0  0
 18 34  1  0  0  0  0
 19 32  1  0  0  0  0
 20 18  1  1  0  0  0
 20 17  1  0  0  0  0
 20 43  1  0  0  0  0
 21 12  1  0  0  0  0
 22 21  1  0  0  0  0
 22 23  1  0  0  0  0
 23 24  1  6  0  0  0
 23 46  1  0  0  0  0
 24 33  1  0  0  0  0
 25 34  1  1  0  0  0
 25  4  1  0  0  0  0
 26 25  1  0  0  0  0
 27 35  1  6  0  0  0
 27 26  1  0  0  0  0
 27  2  1  0  0  0  0
 29 16  1  0  0  0  0
 40  8  1  0  0  0  0
 40  5  1  0  0  0  0
 41  9  1  0  0  0  0
 44 18  2  0  0  0  0
 45 15  1  0  0  0  0
 45 10  1  0  0  0  0
 46  1  1  0  0  0  0
M  END
>  <CHROM.1>
-64.55380819,170.00615608,96.39056218,140.24430642,171.71896414,-60.05502973
-171.19116779,171.68994565,64.58237912,153.94094332,139.03540729,-177.68077107
76.70449650,13.07480009,-13.55166724,8.70485191,2.67727056,0.12363581,2.11280363

>  <Name>
lig.pdb

>  <RI>
0

>  <Rbt.Current_Directory>
/home/afrankz/demos/rdock_decoys_rna/rnas/3wru

>  <Rbt.Executable>
rbdock ($Id: //depot/dev/client3/rdock/2013.1/src/exe/rbdock.cxx#4 $)

>  <Rbt.Library>
libRbt.so (2013.1, Build901 2013/11/27)

>  <Rbt.Parameter_File>
/export/apps/rDock/src/rDock_2013.1_src/data/scripts/dock_solv.prm

>  <Rbt.Receptor>
prm/pocket_docking_4.prm

>  <SCORE>
4.63766

>  <SCORE.INTER>
3.4236

>  <SCORE.INTER.CONST>
1

>  <SCORE.INTER.POLAR>
0

>  <SCORE.INTER.ROT>
13

>  <SCORE.INTER.SOLV>
16.7173

>  <SCORE.INTER.VDW>
-15.5567

>  <SCORE.INTER.norm>
0.0744261

>  <SCORE.INTRA>
1.21406

>  <SCORE.INTRA.DIHEDRAL>
-2.39941

>  <SCORE.INTRA.DIHEDRAL.0>
19.7146

>  <SCORE.INTRA.POLAR>
0

>  <SCORE.INTRA.POLAR.0>
0

>  <SCORE.INTRA.REPUL>
0.191309

>  <SCORE.INTRA.REPUL.0>
0

>  <SCORE.INTRA.SOLV>
2.94396

>  <SCORE.INTRA.SOLV.lig_0>
-116.697

>  <SCORE.INTRA.VDW>
-0.014757

>  <SCORE.INTRA.VDW.0>
-7.06424

>  <SCORE.INTRA.norm>
0.0263927

>  <SCORE.RESTR>
0

>  <SCORE.RESTR.CAVITY>
0

>  <SCORE.RESTR.norm>
0

>  <SCORE.SYSTEM>
0

>  <SCORE.SYSTEM.CONST>
0

>  <SCORE.SYSTEM.DIHEDRAL>
0

>  <SCORE.SYSTEM.SOLV>
0

>  <SCORE.SYSTEM.norm>
0

>  <SCORE.heavy>
46

>  <SCORE.norm>
0.100819

>  <RMSD>
3.588

$$$$
lig.pdb
 OpenBabel03061811583D
libRbt.so/2013.1/901 2013/11/27
 46 49  0  0  0  0  0  0  0  0999 V2000
   11.5855  -12.4151    3.0982 C   0  0  1  0  0  0  0  0  0  0  0  0
   13.1935  -11.8141    4.9586 C   0  0  1  0  0  0  0  0  0  0  0  0
   13.8563  -13.1989    4.6888 C   0  0  1  0  0  0  0  0  0  0  0  0
   15.2969  -13.2369    5.4141 C   0  0  2  0  0  0  0  0  0  0  0  0
   12.4985  -14.3689    6.4847 C   0  0  2  0  0  0  0  0  0  0  0  0
   13.6391  -14.3142    7.5406 C   0  0  1  0  0  0  0  0  0  0  0  0
   12.8130  -13.8483    8.7150 C   0  0  1  0  0  0  0  0  0  0  0  0
   11.9334  -12.6896    8.1468 C   0  0  1  0  0  0  0  0  0  0  0  0
   12.6035  -11.2744    8.0473 C   0  0  0  0  0  0  0  0  0  0  0  0
   10.9465  -14.6879   10.0917 C   0  0  1  0  0  0  0  0  0  0  0  0
   11.4205  -14.2829   11.4556 C   0  0  1  0  0  0  0  0  0  0  0  0
   10.4154  -11.7058    2.3764 C   0  0  1  0  0  0  0  0  0  0  0  0
   10.1654  -14.0138   12.3594 C   0  0  0  0  0  0  0  0  0  0  0  0
    9.2971  -15.1428   12.5330 C   0  0  0  0  0  0  0  0  0  0  0  0
    8.7901  -15.5415   11.2372 C   0  0  2  0  0  0  0  0  0  0  0  0
    7.8316  -16.7907   11.3633 C   0  0  0  0  0  0  0  0  0  0  0  0
   19.1208  -12.3551    8.5705 C   0  0  2  0  0  0  0  0  0  0  0  0
   17.6215  -11.8471    6.8249 C   0  0  0  0  0  0  0  0  0  0  0  0
   19.2494  -13.7311    8.5753 C   0  0  0  0  0  0  0  0  0  0  0  0
   19.1592  -11.9170    7.2876 C   0  0  1  0  0  0  0  0  0  0  0  0
    9.0719  -11.8005    3.2330 C   0  0  0  0  0  0  0  0  0  0  0  0
    8.7385  -13.3509    3.4729 C   0  0  0  0  0  0  0  0  0  0  0  0
    9.9750  -14.0058    4.2463 C   0  0  1  0  0  0  0  0  0  0  0  0
    9.7563  -15.4998    4.5134 C   0  0  0  0  0  0  0  0  0  0  0  0
   16.2080  -12.1083    4.7606 C   0  0  1  0  0  0  0  0  0  0  0  0
   15.4841  -10.6971    5.0930 C   0  0  0  0  0  0  0  0  0  0  0  0
   14.0599  -10.6501    4.4168 C   0  0  2  0  0  0  0  0  0  0  0  0
   20.1502  -11.7711    9.4005 F   0  0  0  0  0  0  0  0  0  0  0  0
    6.4561  -16.4428   12.0015 N   0  0  0  0  0  0  0  0  0  0  0  0
   10.8234  -10.2765    2.1120 N   0  0  0  0  0  0  0  0  0  0  0  0
   12.1531  -15.2685   12.1230 N   0  0  0  0  0  0  0  0  0  0  0  0
   18.3951  -14.7526    8.0978 N   0  0  0  0  0  0  0  0  0  0  0  0
    8.7807  -15.6991    5.5131 N   0  0  0  0  0  0  0  0  0  0  0  0
   17.5417  -12.1182    5.3880 N   0  0  0  0  0  0  0  0  0  0  0  0
   13.3813   -9.3713    4.7224 N   0  0  0  0  0  0  0  0  0  0  0  0
   11.9364  -11.7281    4.2999 O   0  0  0  0  0  0  0  0  0  0  0  0
   12.9316  -14.2377    5.2533 O   0  0  0  0  0  0  0  0  0  0  0  0
   15.8608  -14.4673    5.1609 O   0  0  0  0  0  0  0  0  0  0  0  0
   14.1635  -15.5992    7.6853 O   0  0  0  0  0  0  0  0  0  0  0  0
   11.5378  -13.3482    6.9321 O   0  0  0  0  0  0  0  0  0  0  0  0
   13.9045  -11.4555    7.4532 O   0  0  0  0  0  0  0  0  0  0  0  0
   11.9595  -15.0012    9.2116 O   0  0  0  0  0  0  0  0  0  0  0  0
   19.7670  -10.6137    7.1534 O   0  0  0  0  0  0  0  0  0  0  0  0
   16.6658  -11.6146    7.5833 O   0  0  0  0  0  0  0  0  0  0  0  0
    9.9326  -15.8404   10.2953 O   0  0  0  0  0  0  0  0  0  0  0  0
   11.2423  -13.8406    3.4236 O   0  0  0  0  0  0  0  0  0  0  0  0
  1 36  1  1  0  0  0
  2 36  1  6  0  0  0
  2  3  1  0  0  0  0
  3 37  1  1  0  0  0
  3  4  1  0  0  0  0
  4 38  1  6  0  0  0
  5 37  1  6  0  0  0
  5  6  1  0  0  0  0
  6  7  1  0  0  0  0
  6 39  1  1  0  0  0
  7 42  1  6  0  0  0
  8  9  1  6  0  0  0
  8  7  1  0  0  0  0
 10 42  1  6  0  0  0
 10 11  1  0  0  0  0
 11 31  1  1  0  0  0
 11 13  1  0  0  0  0
 12 30  1  1  0  0  0
 12  1  1  0  0  0  0
 14 13  1  0  0  0  0
 15 16  1  1  0  0  0
 15 14  1  0  0  0  0
 17 19  1  6  0  0  0
 17 28  1  0  0  0  0
 18 34  1  0  0  0  0
 19 32  1  0  0  0  0
 20 18  1  1  0  0  0
 20 17  1  0  0  0  0
 20 43  1  0  0  0  0
 21 12  1  0  0  0  0
 22 21  1  0  0  0  0
 22 23  1  0  0  0  0
 23 24  1  6  0  0  0
 23 46  1  0  0  0  0
 24 33  1  0  0  0  0
 25 34  1  1  0  0  0
 25  4  1  0  0  0  0
 26 25  1  0  0  0  0
 27 35  1  1  0  0  0
 27 26  1  0  0  0  0
 27  2  1  0  0  0  0
 29 16  1  0  0  0  0
 40  8  1  0  0  0  0
 40  5  1  0  0  0  0
 41  9  1  0  0  0  0
 44 18  2  0  0  0  0
 45 15  1  0  0  0  0
 45 10  1  0  0  0  0
 46  1  1  0  0  0  0
M  END
>  <CHROM.1>
-157.85268547,-28.70798776,-58.16388484,-49.54108050,-166.91617514,46.48877144
-70.67769068,72.37434330,-66.58360533,-148.96563832,93.12168087,-71.94482960
-61.43049777,13.14784110,-13.27886725,7.04787341,2.75666985,0.23436591,1.93319228

>  <Name>
lig.pdb

>  <RI>
0

>  <Rbt.Current_Directory>
/home/afrankz/demos/rdock_decoys_rna/rnas/3wru

>  <Rbt.Executable>
rbdock ($Id: //depot/dev/client3/rdock/2013.1/src/exe/rbdock.cxx#4 $)

>  <Rbt.Library>
libRbt.so (2013.1, Build901 2013/11/27)

>  <Rbt.Parameter_File>
/export/apps/rDock/src/rDock_2013.1_src/data/scripts/dock_solv.prm

>  <Rbt.Receptor>
prm/pocket_docking_3.prm

>  <SCORE>
4.89237

>  <SCORE.INTER>
-0.544341

>  <SCORE.INTER.CONST>
1

>  <SCORE.INTER.POLAR>
0

>  <SCORE.INTER.ROT>
13

>  <SCORE.INTER.SOLV>
20.5896

>  <SCORE.INTER.VDW>
-19.4928

>  <SCORE.INTER.norm>
-0.0118335

>  <SCORE.INTRA>
5.11452

>  <SCORE.INTRA.DIHEDRAL>
-5.46566

>  <SCORE.INTRA.DIHEDRAL.0>
19.7146

>  <SCORE.INTRA.POLAR>
0

>  <SCORE.INTRA.POLAR.0>
0

>  <SCORE.INTRA.REPUL>
0.618183

>  <SCORE.INTRA.REPUL.0>
0

>  <SCORE.INTRA.SOLV>
5.01837

>  <SCORE.INTRA.SOLV.lig_0>
-116.697

>  <SCORE.INTRA.VDW>
2.24725

>  <SCORE.INTRA.VDW.0>
-7.06424

>  <SCORE.INTRA.norm>
0.111185

>  <SCORE.RESTR>
0.32219

>  <SCORE.RESTR.CAVITY>
0.32219

>  <SCORE.RESTR.norm>
0.00700414

>  <SCORE.SYSTEM>
0

>  <SCORE.SYSTEM.CONST>
0

>  <SCORE.SYSTEM.DIHEDRAL>
0

>  <SCORE.SYSTEM.SOLV>
0

>  <SCORE.SYSTEM.norm>
0

>  <SCORE.heavy>
46

>  <SCORE.norm>
0.106356

>  <RMSD>
3.592

$$$$
lig.pdb
 OpenBabel03061811583D
libRbt.so/2013.1/901 2013/11/27
 46 49  0  0  0  0  0  0  0  0999 V2000
   11.6895  -11.8505    3.1410 C   0  0  1  0  0  0  0  0  0  0  0  0
   13.1155  -11.4498    5.1937 C   0  0  1  0  0  0  0  0  0  0  0  0
   13.4222  -12.9620    5.4147 C   0  0  1  0  0  0  0  0  0  0  0  0
   14.8018  -13.0984    6.2399 C   0  0  2  0  0  0  0  0  0  0  0  0
   11.9890  -13.4051    7.4610 C   0  0  2  0  0  0  0  0  0  0  0  0
   11.6058  -11.9522    7.8623 C   0  0  1  0  0  0  0  0  0  0  0  0
   10.7793  -12.2844    9.0812 C   0  0  1  0  0  0  0  0  0  0  0  0
    9.8588  -13.4617    8.6278 C   0  0  1  0  0  0  0  0  0  0  0  0
    8.5568  -13.0804    7.8396 C   0  0  0  0  0  0  0  0  0  0  0  0
   11.1420  -12.8105   11.4635 C   0  0  1  0  0  0  0  0  0  0  0  0
   12.0984  -13.2537   12.5301 C   0  0  1  0  0  0  0  0  0  0  0  0
   10.4220  -11.2417    2.4960 C   0  0  1  0  0  0  0  0  0  0  0  0
   11.3112  -13.3840   13.8820 C   0  0  0  0  0  0  0  0  0  0  0  0
   10.2344  -14.3320   13.8611 C   0  0  0  0  0  0  0  0  0  0  0  0
    9.2701  -13.9167   12.8647 C   0  0  2  0  0  0  0  0  0  0  0  0
    8.0612  -14.9305   12.7886 C   0  0  0  0  0  0  0  0  0  0  0  0
   20.7428  -12.1325    5.6113 C   0  0  2  0  0  0  0  0  0  0  0  0
   18.4745  -12.6716    5.2692 C   0  0  0  0  0  0  0  0  0  0  0  0
   21.7832  -11.9324    6.4988 C   0  0  0  0  0  0  0  0  0  0  0  0
   19.7411  -12.7847    6.2520 C   0  0  1  0  0  0  0  0  0  0  0  0
    9.1098  -11.6653    3.3000 C   0  0  0  0  0  0  0  0  0  0  0  0
    9.0280  -13.2670    3.3177 C   0  0  0  0  0  0  0  0  0  0  0  0
   10.3522  -13.8193    4.0229 C   0  0  1  0  0  0  0  0  0  0  0  0
   10.3745  -15.3516    4.0778 C   0  0  0  0  0  0  0  0  0  0  0  0
   15.9684  -12.4732    5.3572 C   0  0  1  0  0  0  0  0  0  0  0  0
   15.6082  -10.9030    5.1824 C   0  0  0  0  0  0  0  0  0  0  0  0
   14.2461  -10.7466    4.4024 C   0  0  2  0  0  0  0  0  0  0  0  0
   21.2292  -12.8413    4.4491 F   0  0  0  0  0  0  0  0  0  0  0  0
    6.9395  -14.4709   11.8136 N   0  0  0  0  0  0  0  0  0  0  0  0
   10.5970   -9.7432    2.4392 N   0  0  0  0  0  0  0  0  0  0  0  0
   12.6615  -14.5133   12.3065 N   0  0  0  0  0  0  0  0  0  0  0  0
   23.0335  -11.2886    6.3454 N   0  0  0  0  0  0  0  0  0  0  0  0
   11.5502  -15.8199    4.7018 N   0  0  0  0  0  0  0  0  0  0  0  0
   17.2522  -12.5901    6.0717 N   0  0  0  0  0  0  0  0  0  0  0  0
   13.8978   -9.3171    4.2463 N   0  0  0  0  0  0  0  0  0  0  0  0
   11.9249  -11.2903    4.4332 O   0  0  0  0  0  0  0  0  0  0  0  0
   12.2655  -13.5295    6.1846 O   0  0  0  0  0  0  0  0  0  0  0  0
   15.0503  -14.4406    6.4212 O   0  0  0  0  0  0  0  0  0  0  0  0
   12.7796  -11.2514    8.1420 O   0  0  0  0  0  0  0  0  0  0  0  0
   10.8708  -14.2262    7.9516 O   0  0  0  0  0  0  0  0  0  0  0  0
    8.9548  -12.7141    6.5034 O   0  0  0  0  0  0  0  0  0  0  0  0
   11.7035  -12.7048   10.2096 O   0  0  0  0  0  0  0  0  0  0  0  0
   20.0408  -14.1756    6.5007 O   0  0  0  0  0  0  0  0  0  0  0  0
   18.5430  -12.6432    4.0294 O   0  0  0  0  0  0  0  0  0  0  0  0
    9.9351  -13.7792   11.5154 O   0  0  0  0  0  0  0  0  0  0  0  0
   11.5779  -13.3436    3.2603 O   0  0  0  0  0  0  0  0  0  0  0  0
  1 36  1  1  0  0  0
  2 36  1  6  0  0  0
  2  3  1  0  0  0  0
  3 37  1  1  0  0  0
  3  4  1  0  0  0  0
  4 38  1  6  0  0  0
  5 37  1  6  0  0  0
  5  6  1  0  0  0  0
  6  7  1  0  0  0  0
  6 39  1  1  0  0  0
  7 42  1  1  0  0  0
  8  9  1  6  0  0  0
  8  7  1  0  0  0  0
 10 42  1  6  0  0  0
 10 11  1  0  0  0  0
 11 31  1  6  0  0  0
 11 13  1  0  0  0  0
 12 30  1  1  0  0  0
 12  1  1  0  0  0  0
 14 13  1  0  0  0  0
 15 16  1  6  0  0  0
 15 14  1  0  0  0  0
 17 19  1  1  0  0  0
 17 28  1  0  0  0  0
 18 34  1  0  0  0  0
 19 32  1  0  0  0  0
 20 18  1  6  0  0  0
 20 17  1  0  0  0  0
 20 43  1  0  0  0  0
 21 12  1  0  0  0  0
 22 21  1  0  0  0  0
 22 23  1  0  0  0  0
 23 24  1  6  0  0  0
 23 46  1  0  0  0  0
 24 33  1  0  0  0  0
 25 34  1  1  0  0  0
 25  4  1  0  0  0  0
 26 25  1  0  0  0  0
 27 35  1  1  0  0  0
 27 26  1  0  0  0  0
 27  2  1  0  0  0  0
 29 16  1  0  0  0  0
 40  8  1  0  0  0  0
 40  5  1  0  0  0  0
 41  9  1  0  0  0  0
 44 18  2  0  0  0  0
 45 15  1  0  0  0  0
 45 10  1  0  0  0  0
 46  1  1  0  0  0  0
M  END
>  <CHROM.1>
-168.40847677,-56.50243332,-76.39716530,67.39404448,168.61902933,75.03524218
178.91808520,175.38577998,-178.65910801,-146.80727050,167.37967019,179.94418767
152.19268837,13.18891527,-12.83928260,6.97249015,0.49292989,-0.03909821,-1.37746953

>  <Name>
lig.pdb

>  <RI>
0

>  <Rbt.Current_Directory>
/home/afrankz/demos/rdock_decoys_rna/rnas/3wru

>  <Rbt.Executable>
rbdock ($Id: //depot/dev/client3/rdock/2013.1/src/exe/rbdock.cxx#4 $)

>  <Rbt.Library>
libRbt.so (2013.1, Build901 2013/11/27)

>  <Rbt.Parameter_File>
/export/apps/rDock/src/rDock_2013.1_src/data/scripts/dock_solv.prm

>  <Rbt.Receptor>
prm/pocket_docking_5.prm

>  <SCORE>
-8.70384

>  <SCORE.INTER>
-3.14641

>  <SCORE.INTER.CONST>
1

>  <SCORE.INTER.POLAR>
0

>  <SCORE.INTER.ROT>
13

>  <SCORE.INTER.SOLV>
22.7109

>  <SCORE.INTER.VDW>
-21.9346

>  <SCORE.INTER.norm>
-0.0684002

>  <SCORE.INTRA>
-5.55743

>  <SCORE.INTRA.DIHEDRAL>
-13.0331

>  <SCORE.INTRA.DIHEDRAL.0>
19.7146

>  <SCORE.INTRA.POLAR>
0

>  <SCORE.INTRA.POLAR.0>
0

>  <SCORE.INTRA.REPUL>
0.0745172

>  <SCORE.INTRA.REPUL.0>
0

>  <SCORE.INTRA.SOLV>
2.27488

>  <SCORE.INTRA.SOLV.lig_0>
-116.697

>  <SCORE.INTRA.VDW>
-0.550914

>  <SCORE.INTRA.VDW.0>
-7.06424

>  <SCORE.INTRA.norm>
-0.120814

>  <SCORE.RESTR>
0

>  <SCORE.RESTR.CAVITY>
0

>  <SCORE.RESTR.norm>
0

>  <SCORE.SYSTEM>
0

>  <SCORE.SYSTEM.CONST>
0

>  <SCORE.SYSTEM.DIHEDRAL>
0

>  <SCORE.SYSTEM.SOLV>
0

>  <SCORE.SYSTEM.norm>
0

>  <SCORE.heavy>
46

>  <SCORE.norm>
-0.189214

>  <RMSD>
3.625

$$$$
lig.pdb
 OpenBabel03061811583D
libRbt.so/2013.1/901 2013/11/27
 46 49  0  0  0  0  0  0  0  0999 V2000
   11.8092  -12.1098    3.3404 C   0  0  1  0  0  0  0  0  0  0  0  0
   13.2708  -11.8906    5.3955 C   0  0  1  0  0  0  0  0  0  0  0  0
   13.6489  -13.4026    5.4191 C   0  0  1  0  0  0  0  0  0  0  0  0
   15.0532  -13.5762    6.1941 C   0  0  2  0  0  0  0  0  0  0  0  0
   12.4865  -14.5110    7.3833 C   0  0  2  0  0  0  0  0  0  0  0  0
   11.0699  -14.3703    8.0094 C   0  0  1  0  0  0  0  0  0  0  0  0
   11.2060  -15.4332    9.0727 C   0  0  1  0  0  0  0  0  0  0  0  0
   11.8460  -16.6523    8.3356 C   0  0  1  0  0  0  0  0  0  0  0  0
   10.8749  -17.5789    7.5231 C   0  0  0  0  0  0  0  0  0  0  0  0
   11.4898  -14.3001   11.2451 C   0  0  1  0  0  0  0  0  0  0  0  0
   12.3701  -14.1188   12.4455 C   0  0  1  0  0  0  0  0  0  0  0  0
   10.5777  -11.3813    2.7520 C   0  0  1  0  0  0  0  0  0  0  0  0
   11.5213  -13.4609   13.5906 C   0  0  0  0  0  0  0  0  0  0  0  0
   10.3853  -14.2288   14.0132 C   0  0  0  0  0  0  0  0  0  0  0  0
    9.4925  -14.3948   12.8861 C   0  0  2  0  0  0  0  0  0  0  0  0
    8.2226  -15.2434   13.2889 C   0  0  0  0  0  0  0  0  0  0  0  0
   19.9726  -14.3345    6.5086 C   0  0  2  0  0  0  0  0  0  0  0  0
   18.6789  -12.8478    5.2168 C   0  0  0  0  0  0  0  0  0  0  0  0
   21.2197  -14.6611    7.0068 C   0  0  0  0  0  0  0  0  0  0  0  0
   19.9731  -13.0257    6.1530 C   0  0  1  0  0  0  0  0  0  0  0  0
    9.2390  -11.8219    3.5014 C   0  0  0  0  0  0  0  0  0  0  0  0
    9.0841  -13.4117    3.3575 C   0  0  0  0  0  0  0  0  0  0  0  0
   10.3741  -14.0928    4.0116 C   0  0  1  0  0  0  0  0  0  0  0  0
   10.3259  -15.6223    3.9124 C   0  0  0  0  0  0  0  0  0  0  0  0
   16.1690  -12.7923    5.3748 C   0  0  1  0  0  0  0  0  0  0  0  0
   15.7361  -11.2310    5.4052 C   0  0  0  0  0  0  0  0  0  0  0  0
   14.3496  -11.0425    4.6772 C   0  0  2  0  0  0  0  0  0  0  0  0
   18.9613  -14.6553    7.4904 F   0  0  0  0  0  0  0  0  0  0  0  0
    7.1886  -15.3805   12.1347 N   0  0  0  0  0  0  0  0  0  0  0  0
   10.8215   -9.8944    2.8473 N   0  0  0  0  0  0  0  0  0  0  0  0
   12.8563  -15.3132   12.9844 N   0  0  0  0  0  0  0  0  0  0  0  0
   21.9073  -14.2290    8.1652 N   0  0  0  0  0  0  0  0  0  0  0  0
    9.2085  -16.1404    4.6008 N   0  0  0  0  0  0  0  0  0  0  0  0
   17.4740  -12.9372    6.0443 N   0  0  0  0  0  0  0  0  0  0  0  0
   13.9351   -9.6224    4.7082 N   0  0  0  0  0  0  0  0  0  0  0  0
   12.0559  -11.6933    4.6838 O   0  0  0  0  0  0  0  0  0  0  0  0
   12.5376  -14.1148    6.1337 O   0  0  0  0  0  0  0  0  0  0  0  0
   15.3647  -14.9175    6.2009 O   0  0  0  0  0  0  0  0  0  0  0  0
   10.9396  -13.0745    8.5106 O   0  0  0  0  0  0  0  0  0  0  0  0
   12.8518  -15.9167    7.6192 O   0  0  0  0  0  0  0  0  0  0  0  0
   11.5078  -18.8689    7.4075 O   0  0  0  0  0  0  0  0  0  0  0  0
   12.1079  -14.9173   10.1793 O   0  0  0  0  0  0  0  0  0  0  0  0
   19.8812  -12.1327    7.2845 O   0  0  0  0  0  0  0  0  0  0  0  0
   18.7157  -12.6506    3.9910 O   0  0  0  0  0  0  0  0  0  0  0  0
   10.2197  -15.0411   11.7306 O   0  0  0  0  0  0  0  0  0  0  0  0
   11.6283  -13.6005    3.3083 O   0  0  0  0  0  0  0  0  0  0  0  0
  1 36  1  1  0  0  0
  2 36  1  6  0  0  0
  2  3  1  0  0  0  0
  3 37  1  1  0  0  0
  3  4  1  0  0  0  0
  4 38  1  6  0  0  0
  5 37  1  6  0  0  0
  5  6  1  0  0  0  0
  6  7  1  0  0  0  0
  6 39  1  1  0  0  0
  7 42  1  1  0  0  0
  8  9  1  6  0  0  0
  8  7  1  0  0  0  0
 10 42  1  6  0  0  0
 10 11  1  0  0  0  0
 11 31  1  1  0  0  0
 11 13  1  0  0  0  0
 12 30  1  1  0  0  0
 12  1  1  0  0  0  0
 14 13  1  0  0  0  0
 15 16  1  1  0  0  0
 15 14  1  0  0  0  0
 17 19  1  1  0  0  0
 17 28  1  0  0  0  0
 18 34  1  0  0  0  0
 19 32  1  0  0  0  0
 20 18  1  6  0  0  0
 20 17  1  0  0  0  0
 20 43  1  0  0  0  0
 21 12  1  0  0  0  0
 22 21  1  0  0  0  0
 22 23  1  0  0  0  0
 23 24  1  6  0  0  0
 23 46  1  0  0  0  0
 24 33  1  0  0  0  0
 25 34  1  1  0  0  0
 25  4  1  0  0  0  0
 26 25  1  0  0  0  0
 27 35  1  1  0  0  0
 27 26  1  0  0  0  0
 27  2  1  0  0  0  0
 29 16  1  0  0  0  0
 40  8  1  0  0  0  0
 40  5  1  0  0  0  0
 41  9  1  0  0  0  0
 44 18  2  0  0  0  0
 45 15  1  0  0  0  0
 45 10  1  0  0  0  0
 46  1  1  0  0  0  0
M  END
>  <CHROM.1>
-163.08715133,-55.88607821,-99.07400251,143.65757797,92.82434772,-156.60967364
165.60283803,176.59548557,65.58794149,71.33823764,164.07530061,-61.19602700
152.79223600,13.30694031,-13.86943539,7.22488855,0.56254280,-0.05159270,-1.25914165

>  <Name>
lig.pdb

>  <RI>
0

>  <Rbt.Current_Directory>
/home/afrankz/demos/rdock_decoys_rna/rnas/3wru

>  <Rbt.Executable>
rbdock ($Id: //depot/dev/client3/rdock/2013.1/src/exe/rbdock.cxx#4 $)

>  <Rbt.Library>
libRbt.so (2013.1, Build901 2013/11/27)

>  <Rbt.Parameter_File>
/export/apps/rDock/src/rDock_2013.1_src/data/scripts/dock_solv.prm

>  <Rbt.Receptor>
prm/pocket_docking_4.prm

>  <SCORE>
2.06333

>  <SCORE.INTER>
0.75234

>  <SCORE.INTER.CONST>
1

>  <SCORE.INTER.POLAR>
0

>  <SCORE.INTER.ROT>
13

>  <SCORE.INTER.SOLV>
17.482

>  <SCORE.INTER.VDW>
-17.5925

>  <SCORE.INTER.norm>
0.0163552

>  <SCORE.INTRA>
1.28205

>  <SCORE.INTRA.DIHEDRAL>
1.02961

>  <SCORE.INTRA.DIHEDRAL.0>
19.7146

>  <SCORE.INTRA.POLAR>
0

>  <SCORE.INTRA.POLAR.0>
0

>  <SCORE.INTRA.REPUL>
0

>  <SCORE.INTRA.REPUL.0>
0

>  <SCORE.INTRA.SOLV>
0.147169

>  <SCORE.INTRA.SOLV.lig_0>
-116.697

>  <SCORE.INTRA.VDW>
0.693658

>  <SCORE.INTRA.VDW.0>
-7.06424

>  <SCORE.INTRA.norm>
0.0278706

>  <SCORE.RESTR>
0.0289434

>  <SCORE.RESTR.CAVITY>
0.0289434

>  <SCORE.RESTR.norm>
0.000629204

>  <SCORE.SYSTEM>
0

>  <SCORE.SYSTEM.CONST>
0

>  <SCORE.SYSTEM.DIHEDRAL>
0

>  <SCORE.SYSTEM.SOLV>
0

>  <SCORE.SYSTEM.norm>
0

>  <SCORE.heavy>
46

>  <SCORE.norm>
0.044855

>  <RMSD>
3.666

$$$$
lig.pdb
 OpenBabel03061811583D
libRbt.so/2013.1/901 2013/11/27
 46 49  0  0  0  0  0  0  0  0999 V2000
   11.0323  -11.1041    5.1814 C   0  0  1  0  0  0  0  0  0  0  0  0
   13.4506  -11.6469    5.6961 C   0  0  1  0  0  0  0  0  0  0  0  0
   13.7322  -13.0560    6.3002 C   0  0  1  0  0  0  0  0  0  0  0  0
   15.0707  -12.9799    7.1977 C   0  0  2  0  0  0  0  0  0  0  0  0
   12.0701  -12.8192    8.2026 C   0  0  2  0  0  0  0  0  0  0  0  0
   10.8399  -13.5445    8.8185 C   0  0  1  0  0  0  0  0  0  0  0  0
   10.9941  -13.0483   10.2358 C   0  0  1  0  0  0  0  0  0  0  0  0
   12.5120  -13.2280   10.5563 C   0  0  1  0  0  0  0  0  0  0  0  0
   12.9784  -14.6593   10.9987 C   0  0  0  0  0  0  0  0  0  0  0  0
    9.2385  -11.3176   10.1572 C   0  0  1  0  0  0  0  0  0  0  0  0
    8.8146   -9.9957   10.7244 C   0  0  1  0  0  0  0  0  0  0  0  0
    9.9631  -11.5036    4.1372 C   0  0  1  0  0  0  0  0  0  0  0  0
    7.2620   -9.8506   10.5426 C   0  0  0  0  0  0  0  0  0  0  0  0
    6.4834  -10.8605   11.2003 C   0  0  0  0  0  0  0  0  0  0  0  0
    6.8404  -12.1517   10.6522 C   0  0  2  0  0  0  0  0  0  0  0  0
    6.0193  -13.3089   11.3462 C   0  0  0  0  0  0  0  0  0  0  0  0
   20.1601  -11.5093    7.5244 C   0  0  2  0  0  0  0  0  0  0  0  0
   18.7549  -13.0300    6.3993 C   0  0  0  0  0  0  0  0  0  0  0  0
   20.9982  -11.2515    8.5926 C   0  0  0  0  0  0  0  0  0  0  0  0
   19.9805  -12.8497    7.4233 C   0  0  1  0  0  0  0  0  0  0  0  0
   10.2880  -10.8648    2.7110 C   0  0  0  0  0  0  0  0  0  0  0  0
   10.3542   -9.2712    2.8788 C   0  0  0  0  0  0  0  0  0  0  0  0
   11.4966   -8.9361    3.9459 C   0  0  1  0  0  0  0  0  0  0  0  0
   11.6301   -7.4276    4.1864 C   0  0  0  0  0  0  0  0  0  0  0  0
   16.2829  -12.5913    6.2435 C   0  0  1  0  0  0  0  0  0  0  0  0
   15.9463  -11.1147    5.6671 C   0  0  0  0  0  0  0  0  0  0  0  0
   14.6234  -11.1602    4.8093 C   0  0  2  0  0  0  0  0  0  0  0  0
   20.7104  -10.9185    6.3253 F   0  0  0  0  0  0  0  0  0  0  0  0
    6.4409  -14.7280   10.8682 N   0  0  0  0  0  0  0  0  0  0  0  0
    9.8971  -13.0111    4.0851 N   0  0  0  0  0  0  0  0  0  0  0  0
    9.0408   -9.8627   12.0972 N   0  0  0  0  0  0  0  0  0  0  0  0
   22.3281  -11.6550    8.8574 N   0  0  0  0  0  0  0  0  0  0  0  0
   10.5965   -6.9535    5.0220 N   0  0  0  0  0  0  0  0  0  0  0  0
   17.5311  -12.5240    7.0244 N   0  0  0  0  0  0  0  0  0  0  0  0
   14.2965   -9.8151    4.2864 N   0  0  0  0  0  0  0  0  0  0  0  0
   12.2981  -11.6842    4.8644 O   0  0  0  0  0  0  0  0  0  0  0  0
   12.5356  -13.4167    7.1315 O   0  0  0  0  0  0  0  0  0  0  0  0
   15.2976  -14.2343    7.7184 O   0  0  0  0  0  0  0  0  0  0  0  0
    9.6917  -13.0828    8.1736 O   0  0  0  0  0  0  0  0  0  0  0  0
   13.0172  -12.6930    9.3217 O   0  0  0  0  0  0  0  0  0  0  0  0
   14.4057  -14.6054   11.1932 O   0  0  0  0  0  0  0  0  0  0  0  0
   10.5820  -11.5887   10.2997 O   0  0  0  0  0  0  0  0  0  0  0  0
   21.1438  -13.5390    6.9154 O   0  0  0  0  0  0  0  0  0  0  0  0
   18.8531  -13.5096    5.2578 O   0  0  0  0  0  0  0  0  0  0  0  0
    8.3248  -12.3916   10.7971 O   0  0  0  0  0  0  0  0  0  0  0  0
   11.1783   -9.6119    5.2696 O   0  0  0  0  0  0  0  0  0  0  0  0
  1 36  1  6  0  0  0
  2 36  1  6  0  0  0
  2  3  1  0  0  0  0
  3 37  1  1  0  0  0
  3  4  1  0  0  0  0
  4 38  1  6  0  0  0
  5 37  1  6  0  0  0
  5  6  1  0  0  0  0
  6  7  1  0  0  0  0
  6 39  1  6  0  0  0
  7 42  1  6  0  0  0
  8  9  1  6  0  0  0
  8  7  1  0  0  0  0
 10 42  1  1  0  0  0
 10 11  1  0  0  0  0
 11 31  1  1  0  0  0
 11 13  1  0  0  0  0
 12 30  1  6  0  0  0
 12  1  1  0  0  0  0
 14 13  1  0  0  0  0
 15 16  1  1  0  0  0
 15 14  1  0  0  0  0
 17 19  1  1  0  0  0
 17 28  1  0  0  0  0
 18 34  1  0  0  0  0
 19 32  1  0  0  0  0
 20 18  1  6  0  0  0
 20 17  1  0  0  0  0
 20 43  1  0  0  0  0
 21 12  1  0  0  0  0
 22 21  1  0  0  0  0
 22 23  1  0  0  0  0
 23 24  1  1  0  0  0
 23 46  1  0  0  0  0
 24 33  1  0  0  0  0
 25 34  1  1  0  0  0
 25  4  1  0  0  0  0
 26 25  1  0  0  0  0
 27 35  1  1  0  0  0
 27 26  1  0  0  0  0
 27  2  1  0  0  0  0
 29 16  1  0  0  0  0
 40  8  1  0  0  0  0
 40  5  1  0  0  0  0
 41  9  1  0  0  0  0
 44 18  2  0  0  0  0
 45 15  1  0  0  0  0
 45 10  1  0  0  0  0
 46  1  1  0  0  0  0
M  END
>  <CHROM.1>
-172.25490145,108.23782171,-62.96950453,-177.22854987,70.66993921,177.96317823
158.10147094,-175.72071262,59.83650965,-67.63358435,167.40478084,77.19550911
141.39655075,13.01679817,-11.86241638,7.56840792,2.95081509,-0.14690517,2.01920591

>  <Name>
lig.pdb

>  <RI>
0

>  <Rbt.Current_Directory>
/home/afrankz/demos/rdock_decoys_rna/rnas/3wru

>  <Rbt.Executable>
rbdock ($Id: //depot/dev/client3/rdock/2013.1/src/exe/rbdock.cxx#4 $)

>  <Rbt.Library>
libRbt.so (2013.1, Build901 2013/11/27)

>  <Rbt.Parameter_File>
/export/apps/rDock/src/rDock_2013.1_src/data/scripts/dock_solv.prm

>  <Rbt.Receptor>
prm/pocket_docking_5.prm

>  <SCORE>
-6.83625

>  <SCORE.INTER>
-5.71225

>  <SCORE.INTER.CONST>
1

>  <SCORE.INTER.POLAR>
0

>  <SCORE.INTER.ROT>
13

>  <SCORE.INTER.SOLV>
24.7943

>  <SCORE.INTER.VDW>
-24.3396

>  <SCORE.INTER.norm>
-0.124179

>  <SCORE.INTRA>
-1.12401

>  <SCORE.INTRA.DIHEDRAL>
-6.60922

>  <SCORE.INTRA.DIHEDRAL.0>
19.7146

>  <SCORE.INTRA.POLAR>
0

>  <SCORE.INTRA.POLAR.0>
0

>  <SCORE.INTRA.REPUL>
0

>  <SCORE.INTRA.REPUL.0>
0

>  <SCORE.INTRA.SOLV>
1.96595

>  <SCORE.INTRA.SOLV.lig_0>
-116.697

>  <SCORE.INTRA.VDW>
1.19763

>  <SCORE.INTRA.VDW.0>
-7.06424

>  <SCORE.INTRA.norm>
-0.024435

>  <SCORE.RESTR>
0

>  <SCORE.RESTR.CAVITY>
0

>  <SCORE.RESTR.norm>
0

>  <SCORE.SYSTEM>
0

>  <SCORE.SYSTEM.CONST>
0

>  <SCORE.SYSTEM.DIHEDRAL>
0

>  <SCORE.SYSTEM.SOLV>
0

>  <SCORE.SYSTEM.norm>
0

>  <SCORE.heavy>
46

>  <SCORE.norm>
-0.148614

>  <RMSD>
3.694

$$$$
lig.pdb
 OpenBabel03061811583D
libRbt.so/2013.1/901 2013/11/27
 46 49  0  0  0  0  0  0  0  0999 V2000
   10.9040  -11.7415    5.1966 C   0  0  1  0  0  0  0  0  0  0  0  0
   13.1785  -12.8343    5.3973 C   0  0  1  0  0  0  0  0  0  0  0  0
   13.0784  -14.3663    5.6673 C   0  0  1  0  0  0  0  0  0  0  0  0
   14.3923  -14.8395    6.4753 C   0  0  2  0  0  0  0  0  0  0  0  0
   11.6251  -14.3365    7.7470 C   0  0  2  0  0  0  0  0  0  0  0  0
   12.4176  -15.2882    8.6877 C   0  0  1  0  0  0  0  0  0  0  0  0
   12.4825  -14.3821    9.8934 C   0  0  1  0  0  0  0  0  0  0  0  0
   12.8931  -12.9883    9.3208 C   0  0  1  0  0  0  0  0  0  0  0  0
   14.4213  -12.7542    9.0534 C   0  0  0  0  0  0  0  0  0  0  0  0
   11.0626  -13.8208   11.8305 C   0  0  1  0  0  0  0  0  0  0  0  0
   11.8686  -14.5907   12.8337 C   0  0  1  0  0  0  0  0  0  0  0  0
    9.6936  -11.8650    4.2410 C   0  0  1  0  0  0  0  0  0  0  0  0
   11.6677  -13.9324   14.2447 C   0  0  0  0  0  0  0  0  0  0  0  0
   10.3119  -13.9195   14.7139 C   0  0  0  0  0  0  0  0  0  0  0  0
    9.5074  -13.1527   13.7866 C   0  0  2  0  0  0  0  0  0  0  0  0
    7.9970  -13.1104   14.2470 C   0  0  0  0  0  0  0  0  0  0  0  0
   20.0161  -16.7374    5.6329 C   0  0  2  0  0  0  0  0  0  0  0  0
   17.8690  -15.7773    5.4882 C   0  0  0  0  0  0  0  0  0  0  0  0
   20.8044  -15.7698    5.0394 C   0  0  0  0  0  0  0  0  0  0  0  0
   19.1134  -16.1297    6.4423 C   0  0  1  0  0  0  0  0  0  0  0  0
    9.9415  -11.0462    2.8934 C   0  0  0  0  0  0  0  0  0  0  0  0
   10.2088   -9.5129    3.2805 C   0  0  0  0  0  0  0  0  0  0  0  0
   11.4863   -9.4636    4.2405 C   0  0  1  0  0  0  0  0  0  0  0  0
   11.8178   -8.0319    4.6785 C   0  0  0  0  0  0  0  0  0  0  0  0
   15.6609  -14.5740    5.5528 C   0  0  1  0  0  0  0  0  0  0  0  0
   15.7259  -12.9706    5.3276 C   0  0  0  0  0  0  0  0  0  0  0  0
   14.4354  -12.4814    4.5639 C   0  0  2  0  0  0  0  0  0  0  0  0
   20.8568  -17.6840    6.3305 F   0  0  0  0  0  0  0  0  0  0  0  0
    7.0731  -12.3643   13.2420 N   0  0  0  0  0  0  0  0  0  0  0  0
    9.4485  -13.3317    3.9801 N   0  0  0  0  0  0  0  0  0  0  0  0
   11.4718  -15.9221   12.9864 N   0  0  0  0  0  0  0  0  0  0  0  0
   20.4779  -14.6932    4.1815 N   0  0  0  0  0  0  0  0  0  0  0  0
   10.7589   -7.4714    5.4239 N   0  0  0  0  0  0  0  0  0  0  0  0
   16.8848  -15.0064    6.2509 N   0  0  0  0  0  0  0  0  0  0  0  0
   14.4749  -11.0161    4.3622 N   0  0  0  0  0  0  0  0  0  0  0  0
   12.0545  -12.3871    4.6502 O   0  0  0  0  0  0  0  0  0  0  0  0
   11.8318  -14.5822    6.4750 O   0  0  0  0  0  0  0  0  0  0  0  0
   14.2802  -16.1933    6.7006 O   0  0  0  0  0  0  0  0  0  0  0  0
   11.6591  -16.4433    8.8816 O   0  0  0  0  0  0  0  0  0  0  0  0
   11.9924  -12.9858    8.2007 O   0  0  0  0  0  0  0  0  0  0  0  0
   15.0953  -12.8188   10.3260 O   0  0  0  0  0  0  0  0  0  0  0  0
   11.1156  -14.3313   10.5517 O   0  0  0  0  0  0  0  0  0  0  0  0
   18.6702  -16.9730    7.5280 O   0  0  0  0  0  0  0  0  0  0  0  0
   17.7815  -16.1022    4.2927 O   0  0  0  0  0  0  0  0  0  0  0  0
    9.6232  -13.7246   12.3933 O   0  0  0  0  0  0  0  0  0  0  0  0
   11.2302  -10.3033    5.4812 O   0  0  0  0  0  0  0  0  0  0  0  0
  1 36  1  6  0  0  0
  2 36  1  6  0  0  0
  2  3  1  0  0  0  0
  3 37  1  1  0  0  0
  3  4  1  0  0  0  0
  4 38  1  6  0  0  0
  5 37  1  6  0  0  0
  5  6  1  0  0  0  0
  6  7  1  0  0  0  0
  6 39  1  1  0  0  0
  7 42  1  6  0  0  0
  8  9  1  6  0  0  0
  8  7  1  0  0  0  0
 10 42  1  6  0  0  0
 10 11  1  0  0  0  0
 11 31  1  1  0  0  0
 11 13  1  0  0  0  0
 12 30  1  6  0  0  0
 12  1  1  0  0  0  0
 14 13  1  0  0  0  0
 15 16  1  1  0  0  0
 15 14  1  0  0  0  0
 17 19  1  1  0  0  0
 17 28  1  0  0  0  0
 18 34  1  0  0  0  0
 19 32  1  0  0  0  0
 20 18  1  6  0  0  0
 20 17  1  0  0  0  0
 20 43  1  0  0  0  0
 21 12  1  0  0  0  0
 22 21  1  0  0  0  0
 22 23  1  0  0  0  0
 23 24  1  1  0  0  0
 23 46  1  0  0  0  0
 24 33  1  0  0  0  0
 25 34  1  1  0  0  0
 25  4  1  0  0  0  0
 26 25  1  0  0  0  0
 27 35  1  1  0  0  0
 27 26  1  0  0  0  0
 27  2  1  0  0  0  0
 29 16  1  0  0  0  0
 40  8  1  0  0  0  0
 40  5  1  0  0  0  0
 41  9  1  0  0  0  0
 44 18  2  0  0  0  0
 45 15  1  0  0  0  0
 45 10  1  0  0  0  0
 46  1  1  0  0  0  0
M  END
>  <CHROM.1>
-158.94090044,99.36000695,-75.57680699,-69.21503610,164.84888989,-63.84217590
-60.97302952,-176.79140131,-60.84245097,-174.98014171,86.84120488,62.16254502
135.34836733,13.33471213,-13.62450969,7.58620902,2.69507784,-0.51536854,2.00722752

>  <Name>
lig.pdb

>  <RI>
0

>  <Rbt.Current_Directory>
/home/afrankz/demos/rdock_decoys_rna/rnas/3wru

>  <Rbt.Executable>
rbdock ($Id: //depot/dev/client3/rdock/2013.1/src/exe/rbdock.cxx#4 $)

>  <Rbt.Library>
libRbt.so (2013.1, Build901 2013/11/27)

>  <Rbt.Parameter_File>
/export/apps/rDock/src/rDock_2013.1_src/data/scripts/dock_solv.prm

>  <Rbt.Receptor>
prm/pocket_docking_6.prm

>  <SCORE>
-1.19272

>  <SCORE.INTER>
-0.474578

>  <SCORE.INTER.CONST>
1

>  <SCORE.INTER.POLAR>
0

>  <SCORE.INTER.ROT>
13

>  <SCORE.INTER.SOLV>
22.0307

>  <SCORE.INTER.VDW>
-19.9266

>  <SCORE.INTER.norm>
-0.0103169

>  <SCORE.INTRA>
-0.71814

>  <SCORE.INTRA.DIHEDRAL>
-5.75761

>  <SCORE.INTRA.DIHEDRAL.0>
19.7146

>  <SCORE.INTRA.POLAR>
0

>  <SCORE.INTRA.POLAR.0>
0

>  <SCORE.INTRA.REPUL>
0

>  <SCORE.INTRA.REPUL.0>
0

>  <SCORE.INTRA.SOLV>
2.5233

>  <SCORE.INTRA.SOLV.lig_0>
-116.697

>  <SCORE.INTRA.VDW>
0.899015

>  <SCORE.INTRA.VDW.0>
-7.06424

>  <SCORE.INTRA.norm>
-0.0156117

>  <SCORE.RESTR>
0

>  <SCORE.RESTR.CAVITY>
0

>  <SCORE.RESTR.norm>
0

>  <SCORE.SYSTEM>
0

>  <SCORE.SYSTEM.CONST>
0

>  <SCORE.SYSTEM.DIHEDRAL>
0

>  <SCORE.SYSTEM.SOLV>
0

>  <SCORE.SYSTEM.norm>
0

>  <SCORE.heavy>
46

>  <SCORE.norm>
-0.0259287

>  <RMSD>
3.706

$$$$
lig.pdb
 OpenBabel03061811583D
libRbt.so/2013.1/901 2013/11/27
 46 49  0  0  0  0  0  0  0  0999 V2000
   11.9087  -11.3779    3.7235 C   0  0  1  0  0  0  0  0  0  0  0  0
   13.1725  -11.8702    5.8609 C   0  0  1  0  0  0  0  0  0  0  0  0
   13.7754  -13.2038    5.3245 C   0  0  1  0  0  0  0  0  0  0  0  0
   15.1323  -13.5253    6.1358 C   0  0  2  0  0  0  0  0  0  0  0  0
   12.0695  -14.5435    6.6409 C   0  0  2  0  0  0  0  0  0  0  0  0
   11.0387  -15.6923    6.4493 C   0  0  1  0  0  0  0  0  0  0  0  0
   10.9714  -16.1528    7.8854 C   0  0  1  0  0  0  0  0  0  0  0  0
   12.4610  -16.2263    8.3489 C   0  0  1  0  0  0  0  0  0  0  0  0
   13.2600  -17.5205    7.9636 C   0  0  0  0  0  0  0  0  0  0  0  0
    8.8154  -15.1654    8.5642 C   0  0  1  0  0  0  0  0  0  0  0  0
    8.1077  -14.0414    9.2603 C   0  0  1  0  0  0  0  0  0  0  0  0
   10.6296  -10.6033    3.3271 C   0  0  1  0  0  0  0  0  0  0  0  0
    6.5612  -14.2343    9.0721 C   0  0  0  0  0  0  0  0  0  0  0  0
    6.0388  -15.4579    9.6092 C   0  0  0  0  0  0  0  0  0  0  0  0
    6.6746  -16.5694    8.9343 C   0  0  2  0  0  0  0  0  0  0  0  0
    6.1447  -17.9491    9.4915 C   0  0  0  0  0  0  0  0  0  0  0  0
   19.2620  -12.3333    8.5993 C   0  0  2  0  0  0  0  0  0  0  0  0
   18.4724  -11.5884    6.5077 C   0  0  0  0  0  0  0  0  0  0  0  0
   19.0430  -13.6918    8.7282 C   0  0  0  0  0  0  0  0  0  0  0  0
   19.7441  -12.0844    7.3563 C   0  0  1  0  0  0  0  0  0  0  0  0
    9.3193  -11.4512    3.6615 C   0  0  0  0  0  0  0  0  0  0  0  0
    9.4095  -12.8451    2.8733 C   0  0  0  0  0  0  0  0  0  0  0  0
   10.7347  -13.5980    3.3559 C   0  0  1  0  0  0  0  0  0  0  0  0
   10.9182  -14.9448    2.6459 C   0  0  0  0  0  0  0  0  0  0  0  0
   16.1690  -12.3537    5.8471 C   0  0  1  0  0  0  0  0  0  0  0  0
   15.5007  -11.0040    6.4454 C   0  0  0  0  0  0  0  0  0  0  0  0
   14.1558  -10.6865    5.6850 C   0  0  2  0  0  0  0  0  0  0  0  0
   20.1463  -11.8848    9.6511 F   0  0  0  0  0  0  0  0  0  0  0  0
    6.7249  -19.1772    8.7329 N   0  0  0  0  0  0  0  0  0  0  0  0
   10.6455   -9.2731    4.0409 N   0  0  0  0  0  0  0  0  0  0  0  0
    8.3111  -14.0057   10.6426 N   0  0  0  0  0  0  0  0  0  0  0  0
   18.3782  -14.4420    9.7265 N   0  0  0  0  0  0  0  0  0  0  0  0
    9.8212  -15.7990    2.8868 N   0  0  0  0  0  0  0  0  0  0  0  0
   17.4310  -12.6166    6.5616 N   0  0  0  0  0  0  0  0  0  0  0  0
   13.5273   -9.4626    6.2295 N   0  0  0  0  0  0  0  0  0  0  0  0
   11.9941  -11.5324    5.1405 O   0  0  0  0  0  0  0  0  0  0  0  0
   12.7394  -14.2668    5.5474 O   0  0  0  0  0  0  0  0  0  0  0  0
   15.6446  -14.7051    5.6441 O   0  0  0  0  0  0  0  0  0  0  0  0
    9.8505  -15.1387    5.9709 O   0  0  0  0  0  0  0  0  0  0  0  0
   12.8809  -14.9696    7.7921 O   0  0  0  0  0  0  0  0  0  0  0  0
   14.5352  -17.4536    8.6325 O   0  0  0  0  0  0  0  0  0  0  0  0
   10.1867  -15.1380    8.6971 O   0  0  0  0  0  0  0  0  0  0  0  0
   20.7668  -11.0645    7.3406 O   0  0  0  0  0  0  0  0  0  0  0  0
   18.3977  -10.4968    5.9201 O   0  0  0  0  0  0  0  0  0  0  0  0
    8.1759  -16.4800    9.0749 O   0  0  0  0  0  0  0  0  0  0  0  0
   11.9508  -12.7312    3.0733 O   0  0  0  0  0  0  0  0  0  0  0  0
  1 36  1  1  0  0  0
  2 36  1  6  0  0  0
  2  3  1  0  0  0  0
  3 37  1  1  0  0  0
  3  4  1  0  0  0  0
  4 38  1  6  0  0  0
  5 37  1  6  0  0  0
  5  6  1  0  0  0  0
  6  7  1  0  0  0  0
  6 39  1  1  0  0  0
  7 42  1  1  0  0  0
  8  9  1  6  0  0  0
  8  7  1  0  0  0  0
 10 42  1  1  0  0  0
 10 11  1  0  0  0  0
 11 31  1  1  0  0  0
 11 13  1  0  0  0  0
 12 30  1  1  0  0  0
 12  1  1  0  0  0  0
 14 13  1  0  0  0  0
 15 16  1  1  0  0  0
 15 14  1  0  0  0  0
 17 19  1  6  0  0  0
 17 28  1  0  0  0  0
 18 34  1  0  0  0  0
 19 32  1  0  0  0  0
 20 18  1  6  0  0  0
 20 17  1  0  0  0  0
 20 43  1  0  0  0  0
 21 12  1  0  0  0  0
 22 21  1  0  0  0  0
 22 23  1  0  0  0  0
 23 24  1  6  0  0  0
 23 46  1  0  0  0  0
 24 33  1  0  0  0  0
 25 34  1  1  0  0  0
 25  4  1  0  0  0  0
 26 25  1  0  0  0  0
 27 35  1  1  0  0  0
 27 26  1  0  0  0  0
 27  2  1  0  0  0  0
 29 16  1  0  0  0  0
 40  8  1  0  0  0  0
 40  5  1  0  0  0  0
 41  9  1  0  0  0  0
 44 18  2  0  0  0  0
 45 15  1  0  0  0  0
 45 10  1  0  0  0  0
 46  1  1  0  0  0  0
M  END
>  <CHROM.1>
-162.60966855,-55.97893085,-49.62510527,177.74876911,77.08640202,-172.62743585
-173.14396224,176.08305457,-169.46445683,-56.78382499,99.03684421,-59.30389688
-175.00429952,12.70719254,-13.73183807,6.75455491,0.25359950,-0.23799380
-0.88139335

>  <Name>
lig.pdb

>  <RI>
0

>  <Rbt.Current_Directory>
/home/afrankz/demos/rdock_decoys_rna/rnas/3wru

>  <Rbt.Executable>
rbdock ($Id: //depot/dev/client3/rdock/2013.1/src/exe/rbdock.cxx#4 $)

>  <Rbt.Library>
libRbt.so (2013.1, Build901 2013/11/27)

>  <Rbt.Parameter_File>
/export/apps/rDock/src/rDock_2013.1_src/data/scripts/dock_solv.prm

>  <Rbt.Receptor>
prm/pocket_docking_4.prm

>  <SCORE>
-1.06376

>  <SCORE.INTER>
2.87487

>  <SCORE.INTER.CONST>
1

>  <SCORE.INTER.POLAR>
0

>  <SCORE.INTER.ROT>
13

>  <SCORE.INTER.SOLV>
23.9211

>  <SCORE.INTER.VDW>
-18.3238

>  <SCORE.INTER.norm>
0.0624972

>  <SCORE.INTRA>
-3.93863

>  <SCORE.INTRA.DIHEDRAL>
-11.0751

>  <SCORE.INTRA.DIHEDRAL.0>
19.7146

>  <SCORE.INTRA.POLAR>
0

>  <SCORE.INTRA.POLAR.0>
0

>  <SCORE.INTRA.REPUL>
0

>  <SCORE.INTRA.REPUL.0>
0

>  <SCORE.INTRA.SOLV>
0.153011

>  <SCORE.INTRA.SOLV.lig_0>
-116.697

>  <SCORE.INTRA.VDW>
1.52244

>  <SCORE.INTRA.VDW.0>
-7.06424

>  <SCORE.INTRA.norm>
-0.0856224

>  <SCORE.RESTR>
0

>  <SCORE.RESTR.CAVITY>
0

>  <SCORE.RESTR.norm>
0

>  <SCORE.SYSTEM>
0

>  <SCORE.SYSTEM.CONST>
0

>  <SCORE.SYSTEM.DIHEDRAL>
0

>  <SCORE.SYSTEM.SOLV>
0

>  <SCORE.SYSTEM.norm>
0

>  <SCORE.heavy>
46

>  <SCORE.norm>
-0.0231251

>  <RMSD>
3.724

$$$$
lig.pdb
 OpenBabel03061811583D
libRbt.so/2013.1/901 2013/11/27
 46 49  0  0  0  0  0  0  0  0999 V2000
   11.6226  -14.1777    4.9469 C   0  0  1  0  0  0  0  0  0  0  0  0
   13.8630  -13.4244    5.8529 C   0  0  1  0  0  0  0  0  0  0  0  0
   14.6989  -14.7398    5.8828 C   0  0  1  0  0  0  0  0  0  0  0  0
   15.8413  -14.6052    7.0140 C   0  0  2  0  0  0  0  0  0  0  0  0
   13.0834  -16.0757    7.3123 C   0  0  2  0  0  0  0  0  0  0  0  0
   12.2082  -17.3600    7.2540 C   0  0  1  0  0  0  0  0  0  0  0  0
   12.1605  -17.6464    8.7354 C   0  0  1  0  0  0  0  0  0  0  0  0
   13.6349  -17.4743    9.2207 C   0  0  1  0  0  0  0  0  0  0  0  0
   14.5980  -18.6946    9.0082 C   0  0  0  0  0  0  0  0  0  0  0  0
   10.9009  -16.8968   10.7192 C   0  0  1  0  0  0  0  0  0  0  0  0
   10.1689  -18.1881   10.9327 C   0  0  1  0  0  0  0  0  0  0  0  0
   10.7759  -13.9953    3.6650 C   0  0  1  0  0  0  0  0  0  0  0  0
    9.8059  -18.3090   12.4552 C   0  0  0  0  0  0  0  0  0  0  0  0
    8.9655  -17.2602   12.9574 C   0  0  0  0  0  0  0  0  0  0  0  0
    9.6556  -15.9975   12.8005 C   0  0  2  0  0  0  0  0  0  0  0  0
    8.7727  -14.7993   13.3294 C   0  0  0  0  0  0  0  0  0  0  0  0
   20.3315  -14.0514    8.8494 C   0  0  2  0  0  0  0  0  0  0  0  0
   19.2093  -12.8936    7.1310 C   0  0  0  0  0  0  0  0  0  0  0  0
   21.4588  -14.1241    9.6456 C   0  0  0  0  0  0  0  0  0  0  0  0
   20.2019  -12.7820    8.3901 C   0  0  1  0  0  0  0  0  0  0  0  0
   10.3182  -12.4760    3.4918 C   0  0  0  0  0  0  0  0  0  0  0  0
    9.4817  -12.0530    4.7932 C   0  0  0  0  0  0  0  0  0  0  0  0
   10.4281  -12.2391    6.0681 C   0  0  1  0  0  0  0  0  0  0  0  0
    9.7107  -11.8695    7.3720 C   0  0  0  0  0  0  0  0  0  0  0  0
   16.8042  -13.4076    6.6024 C   0  0  1  0  0  0  0  0  0  0  0  0
   15.8888  -12.0706    6.6118 C   0  0  0  0  0  0  0  0  0  0  0  0
   14.7458  -12.1930    5.5317 C   0  0  2  0  0  0  0  0  0  0  0  0
   19.1811  -14.5038    9.5989 F   0  0  0  0  0  0  0  0  0  0  0  0
    9.3736  -13.4040   12.9943 N   0  0  0  0  0  0  0  0  0  0  0  0
   11.5899  -14.4829    2.4907 N   0  0  0  0  0  0  0  0  0  0  0  0
    8.9504  -18.2744   10.2534 N   0  0  0  0  0  0  0  0  0  0  0  0
   22.8341  -14.0140    9.3329 N   0  0  0  0  0  0  0  0  0  0  0  0
    8.5644  -12.6695    7.5648 N   0  0  0  0  0  0  0  0  0  0  0  0
   17.8732  -13.2593    7.6063 N   0  0  0  0  0  0  0  0  0  0  0  0
   13.8935  -10.9836    5.5375 N   0  0  0  0  0  0  0  0  0  0  0  0
   12.8694  -13.4901    4.8381 O   0  0  0  0  0  0  0  0  0  0  0  0
   13.7426  -15.8523    6.2003 O   0  0  0  0  0  0  0  0  0  0  0  0
   16.5645  -15.7770    7.0201 O   0  0  0  0  0  0  0  0  0  0  0  0
   10.9737  -17.0233    6.6975 O   0  0  0  0  0  0  0  0  0  0  0  0
   13.9106  -16.2522    8.5164 O   0  0  0  0  0  0  0  0  0  0  0  0
   14.0786  -19.7926    9.7846 O   0  0  0  0  0  0  0  0  0  0  0  0
   11.2350  -16.6473    9.4059 O   0  0  0  0  0  0  0  0  0  0  0  0
   19.6438  -11.8803    9.3708 O   0  0  0  0  0  0  0  0  0  0  0  0
   19.5380  -12.6838    5.9518 O   0  0  0  0  0  0  0  0  0  0  0  0
   10.0339  -15.7819   11.3541 O   0  0  0  0  0  0  0  0  0  0  0  0
   10.8882  -13.6847    6.1608 O   0  0  0  0  0  0  0  0  0  0  0  0
  1 36  1  6  0  0  0
  2 36  1  6  0  0  0
  2  3  1  0  0  0  0
  3 37  1  1  0  0  0
  3  4  1  0  0  0  0
  4 38  1  6  0  0  0
  5 37  1  6  0  0  0
  5  6  1  0  0  0  0
  6  7  1  0  0  0  0
  6 39  1  1  0  0  0
  7 42  1  1  0  0  0
  8  9  1  6  0  0  0
  8  7  1  0  0  0  0
 10 42  1  6  0  0  0
 10 11  1  0  0  0  0
 11 31  1  6  0  0  0
 11 13  1  0  0  0  0
 12 30  1  6  0  0  0
 12  1  1  0  0  0  0
 14 13  1  0  0  0  0
 15 16  1  6  0  0  0
 15 14  1  0  0  0  0
 17 19  1  1  0  0  0
 17 28  1  0  0  0  0
 18 34  1  0  0  0  0
 19 32  1  0  0  0  0
 20 18  1  6  0  0  0
 20 17  1  0  0  0  0
 20 43  1  0  0  0  0
 21 12  1  0  0  0  0
 22 21  1  0  0  0  0
 22 23  1  0  0  0  0
 23 24  1  1  0  0  0
 23 46  1  0  0  0  0
 24 33  1  0  0  0  0
 25 34  1  1  0  0  0
 25  4  1  0  0  0  0
 26 25  1  0  0  0  0
 27 35  1  1  0  0  0
 27 26  1  0  0  0  0
 27  2  1  0  0  0  0
 29 16  1  0  0  0  0
 40  8  1  0  0  0  0
 40  5  1  0  0  0  0
 41  9  1  0  0  0  0
 44 18  2  0  0  0  0
 45 15  1  0  0  0  0
 45 10  1  0  0  0  0
 46  1  1  0  0  0  0
M  END
>  <CHROM.1>
178.16705346,79.32755819,-67.19436453,-178.79907664,169.58068000,-62.63152485
-61.35360515,-171.48177127,-67.81617259,68.05244143,161.66865175,59.44410414
143.16830250,13.62578070,-14.80494872,8.00025108,2.84025650,0.11019400,2.14208156

>  <Name>
lig.pdb

>  <RI>
0

>  <Rbt.Current_Directory>
/home/afrankz/demos/rdock_decoys_rna/rnas/3wru

>  <Rbt.Executable>
rbdock ($Id: //depot/dev/client3/rdock/2013.1/src/exe/rbdock.cxx#4 $)

>  <Rbt.Library>
libRbt.so (2013.1, Build901 2013/11/27)

>  <Rbt.Parameter_File>
/export/apps/rDock/src/rDock_2013.1_src/data/scripts/dock_solv.prm

>  <Rbt.Receptor>
prm/pocket_docking_4.prm

>  <SCORE>
-2.61098

>  <SCORE.INTER>
4.20371

>  <SCORE.INTER.CONST>
1

>  <SCORE.INTER.POLAR>
0

>  <SCORE.INTER.ROT>
13

>  <SCORE.INTER.SOLV>
13.3181

>  <SCORE.INTER.VDW>
-13.9036

>  <SCORE.INTER.norm>
0.0913849

>  <SCORE.INTRA>
-6.81711

>  <SCORE.INTRA.DIHEDRAL>
-13.8186

>  <SCORE.INTRA.DIHEDRAL.0>
19.7146

>  <SCORE.INTRA.POLAR>
0

>  <SCORE.INTRA.POLAR.0>
0

>  <SCORE.INTRA.REPUL>
0

>  <SCORE.INTRA.REPUL.0>
0

>  <SCORE.INTRA.SOLV>
-1.21346

>  <SCORE.INTRA.SOLV.lig_0>
-116.697

>  <SCORE.INTRA.VDW>
0.698918

>  <SCORE.INTRA.VDW.0>
-7.06424

>  <SCORE.INTRA.norm>
-0.148198

>  <SCORE.RESTR>
0.00243266

>  <SCORE.RESTR.CAVITY>
0.00243266

>  <SCORE.RESTR.norm>
5.2884e-05

>  <SCORE.SYSTEM>
0

>  <SCORE.SYSTEM.CONST>
0

>  <SCORE.SYSTEM.DIHEDRAL>
0

>  <SCORE.SYSTEM.SOLV>
0

>  <SCORE.SYSTEM.norm>
0

>  <SCORE.heavy>
46

>  <SCORE.norm>
-0.0567603

>  <RMSD>
3.731

$$$$
lig.pdb
 OpenBabel03061811583D
libRbt.so/2013.1/901 2013/11/27
 46 49  0  0  0  0  0  0  0  0999 V2000
   12.8773  -11.8542    4.8848 C   0  0  1  0  0  0  0  0  0  0  0  0
   14.6120  -12.5675    6.5848 C   0  0  1  0  0  0  0  0  0  0  0  0
   14.6607  -13.4074    7.8971 C   0  0  1  0  0  0  0  0  0  0  0  0
   16.1614  -13.3640    8.4877 C   0  0  2  0  0  0  0  0  0  0  0  0
   12.3701  -12.8442    8.8320 C   0  0  2  0  0  0  0  0  0  0  0  0
   11.8297  -14.3008    8.7622 C   0  0  1  0  0  0  0  0  0  0  0  0
   10.4809  -14.0526    9.3931 C   0  0  1  0  0  0  0  0  0  0  0  0
   10.7845  -13.1682   10.6440 C   0  0  1  0  0  0  0  0  0  0  0  0
   11.2619  -13.9131   11.9397 C   0  0  0  0  0  0  0  0  0  0  0  0
    8.7569  -14.1024    7.6299 C   0  0  1  0  0  0  0  0  0  0  0  0
    7.7093  -13.3288    6.8863 C   0  0  1  0  0  0  0  0  0  0  0  0
   12.3745  -10.4574    5.3202 C   0  0  1  0  0  0  0  0  0  0  0  0
    6.8018  -14.3436    6.1046 C   0  0  0  0  0  0  0  0  0  0  0  0
    6.1159  -15.2955    6.9305 C   0  0  0  0  0  0  0  0  0  0  0  0
    7.0983  -16.0874    7.6395 C   0  0  2  0  0  0  0  0  0  0  0  0
    6.4005  -17.1511    8.5759 C   0  0  0  0  0  0  0  0  0  0  0  0
   21.0447  -11.7517    9.1610 C   0  0  2  0  0  0  0  0  0  0  0  0
   19.1462  -12.7335    8.1687 C   0  0  0  0  0  0  0  0  0  0  0  0
   22.2583  -11.8948    9.8066 C   0  0  0  0  0  0  0  0  0  0  0  0
   20.6362  -12.9687    8.7235 C   0  0  1  0  0  0  0  0  0  0  0  0
   11.0424  -10.5739    6.1918 C   0  0  0  0  0  0  0  0  0  0  0  0
    9.9339  -11.3314    5.3144 C   0  0  0  0  0  0  0  0  0  0  0  0
   10.5112  -12.7717    4.9297 C   0  0  1  0  0  0  0  0  0  0  0  0
    9.5233  -13.5742    4.0744 C   0  0  0  0  0  0  0  0  0  0  0  0
   17.1304  -14.0402    7.4225 C   0  0  1  0  0  0  0  0  0  0  0  0
   17.0562  -13.1139    6.0949 C   0  0  0  0  0  0  0  0  0  0  0  0
   15.5887  -13.1186    5.5166 C   0  0  2  0  0  0  0  0  0  0  0  0
   21.1748  -10.7808    8.0980 F   0  0  0  0  0  0  0  0  0  0  0  0
    7.4113  -17.9686    9.4304 N   0  0  0  0  0  0  0  0  0  0  0  0
   13.4891   -9.7698    6.0715 N   0  0  0  0  0  0  0  0  0  0  0  0
    6.8374  -12.6095    7.7085 N   0  0  0  0  0  0  0  0  0  0  0  0
   23.0962  -10.9502   10.4445 N   0  0  0  0  0  0  0  0  0  0  0  0
    9.9986  -14.8825    3.8433 N   0  0  0  0  0  0  0  0  0  0  0  0
   18.5138  -14.0328    7.9310 N   0  0  0  0  0  0  0  0  0  0  0  0
   15.5028  -12.2661    4.3102 N   0  0  0  0  0  0  0  0  0  0  0  0
   13.3115  -12.6155    6.0123 O   0  0  0  0  0  0  0  0  0  0  0  0
   13.6805  -12.7825    8.8466 O   0  0  0  0  0  0  0  0  0  0  0  0
   16.1782  -14.1120    9.6437 O   0  0  0  0  0  0  0  0  0  0  0  0
   11.7713  -14.6822    7.4212 O   0  0  0  0  0  0  0  0  0  0  0  0
   11.6937  -12.2596   10.0007 O   0  0  0  0  0  0  0  0  0  0  0  0
   11.4038  -12.9227   12.9775 O   0  0  0  0  0  0  0  0  0  0  0  0
    9.5935  -13.3241    8.4000 O   0  0  0  0  0  0  0  0  0  0  0  0
   21.4694  -13.4992    7.6696 O   0  0  0  0  0  0  0  0  0  0  0  0
   18.6262  -11.6196    7.9915 O   0  0  0  0  0  0  0  0  0  0  0  0
    8.0149  -15.1931    8.4408 O   0  0  0  0  0  0  0  0  0  0  0  0
   11.8088  -12.6155    4.1537 O   0  0  0  0  0  0  0  0  0  0  0  0
  1 36  1  1  0  0  0
  2 36  1  6  0  0  0
  2  3  1  0  0  0  0
  3 37  1  1  0  0  0
  3  4  1  0  0  0  0
  4 38  1  1  0  0  0
  5 37  1  1  0  0  0
  5  6  1  0  0  0  0
  6  7  1  0  0  0  0
  6 39  1  6  0  0  0
  7 42  1  6  0  0  0
  8  9  1  1  0  0  0
  8  7  1  0  0  0  0
 10 42  1  1  0  0  0
 10 11  1  0  0  0  0
 11 31  1  1  0  0  0
 11 13  1  0  0  0  0
 12 30  1  1  0  0  0
 12  1  1  0  0  0  0
 14 13  1  0  0  0  0
 15 16  1  1  0  0  0
 15 14  1  0  0  0  0
 17 19  1  6  0  0  0
 17 28  1  0  0  0  0
 18 34  1  0  0  0  0
 19 32  1  0  0  0  0
 20 18  1  6  0  0  0
 20 17  1  0  0  0  0
 20 43  1  0  0  0  0
 21 12  1  0  0  0  0
 22 21  1  0  0  0  0
 22 23  1  0  0  0  0
 23 24  1  6  0  0  0
 23 46  1  0  0  0  0
 24 33  1  0  0  0  0
 25 34  1  1  0  0  0
 25  4  1  0  0  0  0
 26 25  1  0  0  0  0
 27 35  1  6  0  0  0
 27 26  1  0  0  0  0
 27  2  1  0  0  0  0
 29 16  1  0  0  0  0
 40  8  1  0  0  0  0
 40  5  1  0  0  0  0
 41  9  1  0  0  0  0
 44 18  2  0  0  0  0
 45 15  1  0  0  0  0
 45 10  1  0  0  0  0
 46  1  1  0  0  0  0
M  END
>  <CHROM.1>
-85.97711083,173.35320551,74.83880442,52.55929124,94.67010752,-176.64118072
167.69424556,-176.32092064,-179.50704303,-168.30113431,172.71753939,-174.85169973
-62.81171018,13.26072916,-13.18027328,7.66373350,-3.12277401,0.19951558,1.88831875

>  <Name>
lig.pdb

>  <RI>
0

>  <Rbt.Current_Directory>
/home/afrankz/demos/rdock_decoys_rna/rnas/3wru

>  <Rbt.Executable>
rbdock ($Id: //depot/dev/client3/rdock/2013.1/src/exe/rbdock.cxx#4 $)

>  <Rbt.Library>
libRbt.so (2013.1, Build901 2013/11/27)

>  <Rbt.Parameter_File>
/export/apps/rDock/src/rDock_2013.1_src/data/scripts/dock_solv.prm

>  <Rbt.Receptor>
prm/pocket_docking_5.prm

>  <SCORE>
-1.05182

>  <SCORE.INTER>
1.03988

>  <SCORE.INTER.CONST>
1

>  <SCORE.INTER.POLAR>
0

>  <SCORE.INTER.ROT>
13

>  <SCORE.INTER.SOLV>
24.7067

>  <SCORE.INTER.VDW>
-19.809

>  <SCORE.INTER.norm>
0.0226061

>  <SCORE.INTRA>
-2.0917

>  <SCORE.INTRA.DIHEDRAL>
-8.71858

>  <SCORE.INTRA.DIHEDRAL.0>
19.7146

>  <SCORE.INTRA.POLAR>
0

>  <SCORE.INTRA.POLAR.0>
0

>  <SCORE.INTRA.REPUL>
0

>  <SCORE.INTRA.REPUL.0>
0

>  <SCORE.INTRA.SOLV>
2.9385

>  <SCORE.INTRA.SOLV.lig_0>
-116.697

>  <SCORE.INTRA.VDW>
0.798343

>  <SCORE.INTRA.VDW.0>
-7.06424

>  <SCORE.INTRA.norm>
-0.0454716

>  <SCORE.RESTR>
0

>  <SCORE.RESTR.CAVITY>
0

>  <SCORE.RESTR.norm>
0

>  <SCORE.SYSTEM>
0

>  <SCORE.SYSTEM.CONST>
0

>  <SCORE.SYSTEM.DIHEDRAL>
0

>  <SCORE.SYSTEM.SOLV>
0

>  <SCORE.SYSTEM.norm>
0

>  <SCORE.heavy>
46

>  <SCORE.norm>
-0.0228656

>  <RMSD>
3.741

$$$$
lig.pdb
 OpenBabel03061811583D
libRbt.so/2013.1/901 2013/11/27
 46 49  0  0  0  0  0  0  0  0999 V2000
   10.7098  -14.8544    5.8844 C   0  0  1  0  0  0  0  0  0  0  0  0
   13.1490  -14.2976    5.4991 C   0  0  1  0  0  0  0  0  0  0  0  0
   13.9564  -14.8657    6.7053 C   0  0  1  0  0  0  0  0  0  0  0  0
   15.2935  -13.9839    6.8986 C   0  0  2  0  0  0  0  0  0  0  0  0
   12.3862  -15.7268    8.5028 C   0  0  2  0  0  0  0  0  0  0  0  0
   13.2899  -16.8851    9.0129 C   0  0  1  0  0  0  0  0  0  0  0  0
   12.3862  -17.3843   10.1143 C   0  0  1  0  0  0  0  0  0  0  0  0
   11.9167  -16.0938   10.8580 C   0  0  1  0  0  0  0  0  0  0  0  0
   12.8983  -15.4940   11.9251 C   0  0  0  0  0  0  0  0  0  0  0  0
   10.4664  -18.9156   10.3454 C   0  0  1  0  0  0  0  0  0  0  0  0
    9.3962  -19.7114    9.6597 C   0  0  1  0  0  0  0  0  0  0  0  0
    9.6246  -15.7548    5.2482 C   0  0  1  0  0  0  0  0  0  0  0  0
    8.5947  -20.5097   10.7482 C   0  0  0  0  0  0  0  0  0  0  0  0
    7.9467  -19.6945   11.7352 C   0  0  0  0  0  0  0  0  0  0  0  0
    8.9546  -18.9354   12.4443 C   0  0  2  0  0  0  0  0  0  0  0  0
    8.2984  -18.0085   13.5420 C   0  0  0  0  0  0  0  0  0  0  0  0
   19.4300  -12.0668    7.1489 C   0  0  2  0  0  0  0  0  0  0  0  0
   17.3009  -11.9553    6.1451 C   0  0  0  0  0  0  0  0  0  0  0  0
   20.7601  -11.6917    7.1595 C   0  0  0  0  0  0  0  0  0  0  0  0
   18.7694  -11.3088    6.2387 C   0  0  1  0  0  0  0  0  0  0  0  0
    9.3538  -15.3408    3.7306 C   0  0  0  0  0  0  0  0  0  0  0  0
    8.9057  -13.8010    3.7034 C   0  0  0  0  0  0  0  0  0  0  0  0
   10.0850  -12.9342    4.3467 C   0  0  1  0  0  0  0  0  0  0  0  0
    9.7448  -11.4393    4.3777 C   0  0  0  0  0  0  0  0  0  0  0  0
   16.1787  -14.1360    5.5855 C   0  0  1  0  0  0  0  0  0  0  0  0
   15.3008  -13.5098    4.3759 C   0  0  0  0  0  0  0  0  0  0  0  0
   13.9730  -14.3403    4.1884 C   0  0  2  0  0  0  0  0  0  0  0  0
   18.8858  -11.9538    8.4834 F   0  0  0  0  0  0  0  0  0  0  0  0
    7.5029  -18.8039   14.6166 N   0  0  0  0  0  0  0  0  0  0  0  0
   10.0713  -17.1913    5.3762 N   0  0  0  0  0  0  0  0  0  0  0  0
    8.4438  -18.9352    8.9935 N   0  0  0  0  0  0  0  0  0  0  0  0
   21.7511  -11.7290    6.1505 N   0  0  0  0  0  0  0  0  0  0  0  0
    9.7014  -10.9017    3.0738 N   0  0  0  0  0  0  0  0  0  0  0  0
   17.4199  -13.3538    5.7269 N   0  0  0  0  0  0  0  0  0  0  0  0
   13.1546  -13.7719    3.0945 N   0  0  0  0  0  0  0  0  0  0  0  0
   11.9809  -15.0758    5.2724 O   0  0  0  0  0  0  0  0  0  0  0  0
   13.0612  -14.7729    7.9066 O   0  0  0  0  0  0  0  0  0  0  0  0
   15.9880  -14.5050    7.9673 O   0  0  0  0  0  0  0  0  0  0  0  0
   13.4709  -17.7919    7.9678 O   0  0  0  0  0  0  0  0  0  0  0  0
   11.6169  -15.3152    9.6876 O   0  0  0  0  0  0  0  0  0  0  0  0
   13.0914  -16.4963   12.9430 O   0  0  0  0  0  0  0  0  0  0  0  0
   11.2147  -18.1275    9.4982 O   0  0  0  0  0  0  0  0  0  0  0  0
   18.6659   -9.9214    6.6271 O   0  0  0  0  0  0  0  0  0  0  0  0
   16.2463  -11.3532    6.4053 O   0  0  0  0  0  0  0  0  0  0  0  0
    9.7730  -18.1152   11.4751 O   0  0  0  0  0  0  0  0  0  0  0  0
   10.3498  -13.4009    5.7687 O   0  0  0  0  0  0  0  0  0  0  0  0
  1 36  1  6  0  0  0
  2 36  1  6  0  0  0
  2  3  1  0  0  0  0
  3 37  1  1  0  0  0
  3  4  1  0  0  0  0
  4 38  1  1  0  0  0
  5 37  1  1  0  0  0
  5  6  1  0  0  0  0
  6  7  1  0  0  0  0
  6 39  1  6  0  0  0
  7 42  1  6  0  0  0
  8  9  1  6  0  0  0
  8  7  1  0  0  0  0
 10 42  1  6  0  0  0
 10 11  1  0  0  0  0
 11 31  1  1  0  0  0
 11 13  1  0  0  0  0
 12 30  1  6  0  0  0
 12  1  1  0  0  0  0
 14 13  1  0  0  0  0
 15 16  1  1  0  0  0
 15 14  1  0  0  0  0
 17 19  1  1  0  0  0
 17 28  1  0  0  0  0
 18 34  1  0  0  0  0
 19 32  1  0  0  0  0
 20 18  1  1  0  0  0
 20 17  1  0  0  0  0
 20 43  1  0  0  0  0
 21 12  1  0  0  0  0
 22 21  1  0  0  0  0
 22 23  1  0  0  0  0
 23 24  1  1  0  0  0
 23 46  1  0  0  0  0
 24 33  1  0  0  0  0
 25 34  1  1  0  0  0
 25  4  1  0  0  0  0
 26 25  1  0  0  0  0
 27 35  1  6  0  0  0
 27 26  1  0  0  0  0
 27  2  1  0  0  0  0
 29 16  1  0  0  0  0
 40  8  1  0  0  0  0
 40  5  1  0  0  0  0
 41  9  1  0  0  0  0
 44 18  2  0  0  0  0
 45 15  1  0  0  0  0
 45 10  1  0  0  0  0
 46  1  1  0  0  0  0
M  END
>  <CHROM.1>
171.51222604,88.79478621,103.15791629,58.49734861,165.06704296,-60.96699349
-175.17118159,60.19813610,-61.76037269,-59.27867363,172.01039665,-68.15660254
-50.47521759,12.90009558,-15.08552695,7.71263473,2.45082969,0.35825946,2.08603489

>  <Name>
lig.pdb

>  <RI>
0

>  <Rbt.Current_Directory>
/home/afrankz/demos/rdock_decoys_rna/rnas/3wru

>  <Rbt.Executable>
rbdock ($Id: //depot/dev/client3/rdock/2013.1/src/exe/rbdock.cxx#4 $)

>  <Rbt.Library>
libRbt.so (2013.1, Build901 2013/11/27)

>  <Rbt.Parameter_File>
/export/apps/rDock/src/rDock_2013.1_src/data/scripts/dock_solv.prm

>  <Rbt.Receptor>
prm/pocket_docking_5.prm

>  <SCORE>
0.103932

>  <SCORE.INTER>
2.8302

>  <SCORE.INTER.CONST>
1

>  <SCORE.INTER.POLAR>
0

>  <SCORE.INTER.ROT>
13

>  <SCORE.INTER.SOLV>
19.2434

>  <SCORE.INTER.VDW>
-16.7943

>  <SCORE.INTER.norm>
0.0615261

>  <SCORE.INTRA>
-2.72627

>  <SCORE.INTRA.DIHEDRAL>
-7.38209

>  <SCORE.INTRA.DIHEDRAL.0>
19.7146

>  <SCORE.INTRA.POLAR>
0

>  <SCORE.INTRA.POLAR.0>
0

>  <SCORE.INTRA.REPUL>
0

>  <SCORE.INTRA.REPUL.0>
0

>  <SCORE.INTRA.SOLV>
-0.845663

>  <SCORE.INTRA.SOLV.lig_0>
-116.697

>  <SCORE.INTRA.VDW>
1.3876

>  <SCORE.INTRA.VDW.0>
-7.06424

>  <SCORE.INTRA.norm>
-0.0592668

>  <SCORE.RESTR>
0

>  <SCORE.RESTR.CAVITY>
0

>  <SCORE.RESTR.norm>
0

>  <SCORE.SYSTEM>
0

>  <SCORE.SYSTEM.CONST>
0

>  <SCORE.SYSTEM.DIHEDRAL>
0

>  <SCORE.SYSTEM.SOLV>
0

>  <SCORE.SYSTEM.norm>
0

>  <SCORE.heavy>
46

>  <SCORE.norm>
0.00225939

>  <RMSD>
3.909

$$$$
lig.pdb
 OpenBabel03061811583D
libRbt.so/2013.1/901 2013/11/27
 46 49  0  0  0  0  0  0  0  0999 V2000
   11.2345  -12.1445    5.6426 C   0  0  1  0  0  0  0  0  0  0  0  0
   13.7007  -12.6783    5.4405 C   0  0  1  0  0  0  0  0  0  0  0  0
   14.3417  -14.0849    5.2398 C   0  0  1  0  0  0  0  0  0  0  0  0
   15.8648  -14.0435    5.7702 C   0  0  2  0  0  0  0  0  0  0  0  0
   13.2613  -15.0593    7.3185 C   0  0  2  0  0  0  0  0  0  0  0  0
   12.8566  -16.4620    7.8546 C   0  0  1  0  0  0  0  0  0  0  0  0
   13.2768  -16.2647    9.2911 C   0  0  1  0  0  0  0  0  0  0  0  0
   14.6912  -15.6082    9.2043 C   0  0  1  0  0  0  0  0  0  0  0  0
   15.9072  -16.5725    8.9733 C   0  0  0  0  0  0  0  0  0  0  0  0
   12.5506  -15.0127   11.2884 C   0  0  1  0  0  0  0  0  0  0  0  0
   12.6734  -16.1876   12.2122 C   0  0  1  0  0  0  0  0  0  0  0  0
    9.9161  -12.6529    5.0128 C   0  0  1  0  0  0  0  0  0  0  0  0
   12.9215  -15.6531   13.6673 C   0  0  0  0  0  0  0  0  0  0  0  0
   11.8776  -14.8165   14.1859 C   0  0  0  0  0  0  0  0  0  0  0  0
   11.7532  -13.6504   13.3376 C   0  0  2  0  0  0  0  0  0  0  0  0
   10.6088  -12.6924   13.8549 C   0  0  0  0  0  0  0  0  0  0  0  0
   20.1288  -11.5993    7.9018 C   0  0  2  0  0  0  0  0  0  0  0  0
   18.3311  -12.5604    6.7196 C   0  0  0  0  0  0  0  0  0  0  0  0
   21.3852  -11.7727    8.4507 C   0  0  0  0  0  0  0  0  0  0  0  0
   19.9173  -12.5701    6.9787 C   0  0  1  0  0  0  0  0  0  0  0  0
    9.7186  -12.0633    3.5427 C   0  0  0  0  0  0  0  0  0  0  0  0
    9.7245  -10.4624    3.6397 C   0  0  0  0  0  0  0  0  0  0  0  0
   11.1237  -10.0130    4.2691 C   0  0  1  0  0  0  0  0  0  0  0  0
   11.2224   -8.4897    4.4150 C   0  0  0  0  0  0  0  0  0  0  0  0
   16.6675  -12.9947    4.8834 C   0  0  1  0  0  0  0  0  0  0  0  0
   15.9737  -11.5549    5.1509 C   0  0  0  0  0  0  0  0  0  0  0  0
   14.4731  -11.5820    4.6657 C   0  0  2  0  0  0  0  0  0  0  0  0
   20.0200  -10.2648    7.3568 F   0  0  0  0  0  0  0  0  0  0  0  0
   10.1574  -11.6507   12.7912 N   0  0  0  0  0  0  0  0  0  0  0  0
    9.9418  -14.1624    5.0229 N   0  0  0  0  0  0  0  0  0  0  0  0
   11.5196  -16.9718   12.2974 N   0  0  0  0  0  0  0  0  0  0  0  0
   22.1263  -10.9825    9.3604 N   0  0  0  0  0  0  0  0  0  0  0  0
   11.2637   -7.8607    3.1526 N   0  0  0  0  0  0  0  0  0  0  0  0
   18.0715  -12.9361    5.3282 N   0  0  0  0  0  0  0  0  0  0  0  0
   13.8225  -10.2767    4.9154 N   0  0  0  0  0  0  0  0  0  0  0  0
   12.3675  -12.6648    4.9465 O   0  0  0  0  0  0  0  0  0  0  0  0
   13.5128  -15.0543    6.0310 O   0  0  0  0  0  0  0  0  0  0  0  0
   16.4079  -15.2947    5.5819 O   0  0  0  0  0  0  0  0  0  0  0  0
   11.4812  -16.6178    7.6783 O   0  0  0  0  0  0  0  0  0  0  0  0
   14.3762  -14.6452    8.1850 O   0  0  0  0  0  0  0  0  0  0  0  0
   17.0990  -15.7622    8.9438 O   0  0  0  0  0  0  0  0  0  0  0  0
   12.2809  -15.3490    9.9796 O   0  0  0  0  0  0  0  0  0  0  0  0
   20.6143  -12.3304    5.7366 O   0  0  0  0  0  0  0  0  0  0  0  0
   17.4767  -12.2902    7.5796 O   0  0  0  0  0  0  0  0  0  0  0  0
   11.4941  -14.0656   11.9085 O   0  0  0  0  0  0  0  0  0  0  0  0
   11.2971  -10.6439    5.6410 O   0  0  0  0  0  0  0  0  0  0  0  0
  1 36  1  6  0  0  0
  2 36  1  6  0  0  0
  2  3  1  0  0  0  0
  3 37  1  1  0  0  0
  3  4  1  0  0  0  0
  4 38  1  6  0  0  0
  5 37  1  6  0  0  0
  5  6  1  0  0  0  0
  6  7  1  0  0  0  0
  6 39  1  1  0  0  0
  7 42  1  6  0  0  0
  8  9  1  6  0  0  0
  8  7  1  0  0  0  0
 10 42  1  6  0  0  0
 10 11  1  0  0  0  0
 11 31  1  1  0  0  0
 11 13  1  0  0  0  0
 12 30  1  6  0  0  0
 12  1  1  0  0  0  0
 14 13  1  0  0  0  0
 15 16  1  1  0  0  0
 15 14  1  0  0  0  0
 17 19  1  6  0  0  0
 17 28  1  0  0  0  0
 18 34  1  0  0  0  0
 19 32  1  0  0  0  0
 20 18  1  6  0  0  0
 20 17  1  0  0  0  0
 20 43  1  0  0  0  0
 21 12  1  0  0  0  0
 22 21  1  0  0  0  0
 22 23  1  0  0  0  0
 23 24  1  1  0  0  0
 23 46  1  0  0  0  0
 24 33  1  0  0  0  0
 25 34  1  1  0  0  0
 25  4  1  0  0  0  0
 26 25  1  0  0  0  0
 27 35  1  1  0  0  0
 27 26  1  0  0  0  0
 27  2  1  0  0  0  0
 29 16  1  0  0  0  0
 40  8  1  0  0  0  0
 40  5  1  0  0  0  0
 41  9  1  0  0  0  0
 44 18  2  0  0  0  0
 45 15  1  0  0  0  0
 45 10  1  0  0  0  0
 46  1  1  0  0  0  0
M  END
>  <CHROM.1>
-163.48166272,132.43231482,-59.25740978,-157.45105791,-177.07797412,-179.28558410
-58.04635844,-163.76662779,174.04872311,147.89789032,163.90548546,-67.20138379
-59.00303319,14.20492074,-13.23613855,7.63870608,2.48213297,0.03229113,2.07145521

>  <Name>
lig.pdb

>  <RI>
0

>  <Rbt.Current_Directory>
/home/afrankz/demos/rdock_decoys_rna/rnas/3wru

>  <Rbt.Executable>
rbdock ($Id: //depot/dev/client3/rdock/2013.1/src/exe/rbdock.cxx#4 $)

>  <Rbt.Library>
libRbt.so (2013.1, Build901 2013/11/27)

>  <Rbt.Parameter_File>
/export/apps/rDock/src/rDock_2013.1_src/data/scripts/dock_solv.prm

>  <Rbt.Receptor>
prm/pocket_docking_8.prm

>  <SCORE>
-6.16517

>  <SCORE.INTER>
-6.75908

>  <SCORE.INTER.CONST>
1

>  <SCORE.INTER.POLAR>
0

>  <SCORE.INTER.ROT>
13

>  <SCORE.INTER.SOLV>
18.8398

>  <SCORE.INTER.VDW>
-23.0526

>  <SCORE.INTER.norm>
-0.146937

>  <SCORE.INTRA>
0.593912

>  <SCORE.INTRA.DIHEDRAL>
-5.74697

>  <SCORE.INTRA.DIHEDRAL.0>
19.7146

>  <SCORE.INTRA.POLAR>
0

>  <SCORE.INTRA.POLAR.0>
0

>  <SCORE.INTRA.REPUL>
0.0211804

>  <SCORE.INTRA.REPUL.0>
0

>  <SCORE.INTRA.SOLV>
2.49082

>  <SCORE.INTRA.SOLV.lig_0>
-116.697

>  <SCORE.INTRA.VDW>
2.11609

>  <SCORE.INTRA.VDW.0>
-7.06424

>  <SCORE.INTRA.norm>
0.0129111

>  <SCORE.RESTR>
0

>  <SCORE.RESTR.CAVITY>
0

>  <SCORE.RESTR.norm>
0

>  <SCORE.SYSTEM>
0

>  <SCORE.SYSTEM.CONST>
0

>  <SCORE.SYSTEM.DIHEDRAL>
0

>  <SCORE.SYSTEM.SOLV>
0

>  <SCORE.SYSTEM.norm>
0

>  <SCORE.heavy>
46

>  <SCORE.norm>
-0.134025

>  <RMSD>
3.916

$$$$
lig.pdb
 OpenBabel03061811583D
libRbt.so/2013.1/901 2013/11/27
 46 49  0  0  0  0  0  0  0  0999 V2000
    9.9048  -11.6458    7.5167 C   0  0  1  0  0  0  0  0  0  0  0  0
   12.4223  -11.7532    7.7582 C   0  0  1  0  0  0  0  0  0  0  0  0
   13.5041  -12.8141    8.1244 C   0  0  1  0  0  0  0  0  0  0  0  0
   14.9607  -12.1271    8.0282 C   0  0  2  0  0  0  0  0  0  0  0  0
   12.3198  -14.1495    9.9277 C   0  0  2  0  0  0  0  0  0  0  0  0
   12.7651  -15.6196    9.6843 C   0  0  1  0  0  0  0  0  0  0  0  0
   11.9371  -16.2695   10.7664 C   0  0  1  0  0  0  0  0  0  0  0  0
   12.1473  -15.3667   12.0232 C   0  0  1  0  0  0  0  0  0  0  0  0
   13.4502  -15.6121   12.8623 C   0  0  0  0  0  0  0  0  0  0  0  0
   10.1380  -17.2019    9.3602 C   0  0  1  0  0  0  0  0  0  0  0  0
    8.6820  -17.1978    9.0010 C   0  0  1  0  0  0  0  0  0  0  0  0
    8.7490  -12.1976    8.3844 C   0  0  1  0  0  0  0  0  0  0  0  0
    8.4302  -18.3173    7.9297 C   0  0  0  0  0  0  0  0  0  0  0  0
    8.7537  -19.6465    8.3625 C   0  0  0  0  0  0  0  0  0  0  0  0
   10.1638  -19.6989    8.6851 C   0  0  2  0  0  0  0  0  0  0  0  0
   10.5793  -21.1407    9.1786 C   0  0  0  0  0  0  0  0  0  0  0  0
   19.9741  -11.7984    6.5499 C   0  0  2  0  0  0  0  0  0  0  0  0
   17.6621  -11.9277    6.1132 C   0  0  0  0  0  0  0  0  0  0  0  0
   21.1996  -11.3269    6.1190 C   0  0  0  0  0  0  0  0  0  0  0  0
   18.9953  -11.0371    6.0008 C   0  0  1  0  0  0  0  0  0  0  0  0
    8.3964  -13.7011    7.9804 C   0  0  0  0  0  0  0  0  0  0  0  0
    8.0036  -13.7234    6.4256 C   0  0  0  0  0  0  0  0  0  0  0  0
    9.2523  -13.1700    5.5948 C   0  0  1  0  0  0  0  0  0  0  0  0
    8.9692  -13.1404    4.0881 C   0  0  0  0  0  0  0  0  0  0  0  0
   15.1931  -11.6725    6.5215 C   0  0  1  0  0  0  0  0  0  0  0  0
   14.0594  -10.5579    6.2078 C   0  0  0  0  0  0  0  0  0  0  0  0
   12.6243  -11.2018    6.3250 C   0  0  2  0  0  0  0  0  0  0  0  0
   19.9416  -11.8086    7.9951 F   0  0  0  0  0  0  0  0  0  0  0  0
    9.7123  -21.6536   10.3641 N   0  0  0  0  0  0  0  0  0  0  0  0
    9.1508  -12.0762    9.8346 N   0  0  0  0  0  0  0  0  0  0  0  0
    7.8291  -17.5047   10.0650 N   0  0  0  0  0  0  0  0  0  0  0  0
   22.5132  -11.8109    6.3234 N   0  0  0  0  0  0  0  0  0  0  0  0
   10.1340  -12.8197    3.3591 N   0  0  0  0  0  0  0  0  0  0  0  0
   16.5223  -11.0500    6.3873 N   0  0  0  0  0  0  0  0  0  0  0  0
   11.5777  -10.1917    6.0533 N   0  0  0  0  0  0  0  0  0  0  0  0
   11.1251  -12.3341    7.7930 O   0  0  0  0  0  0  0  0  0  0  0  0
   13.2056  -13.2706    9.5228 O   0  0  0  0  0  0  0  0  0  0  0  0
   15.8967  -13.0827    8.3550 O   0  0  0  0  0  0  0  0  0  0  0  0
   12.3950  -15.9800    8.3880 O   0  0  0  0  0  0  0  0  0  0  0  0
   11.9866  -14.1016   11.3602 O   0  0  0  0  0  0  0  0  0  0  0  0
   14.5690  -15.2115   12.0463 O   0  0  0  0  0  0  0  0  0  0  0  0
   10.4820  -16.2904   10.3346 O   0  0  0  0  0  0  0  0  0  0  0  0
   18.8014   -9.7826    6.6900 O   0  0  0  0  0  0  0  0  0  0  0  0
   17.6226  -13.1609    5.9712 O   0  0  0  0  0  0  0  0  0  0  0  0
   10.5027  -18.6609    9.7289 O   0  0  0  0  0  0  0  0  0  0  0  0
    9.5909  -11.7606    6.0524 O   0  0  0  0  0  0  0  0  0  0  0  0
  1 36  1  6  0  0  0
  2 36  1  6  0  0  0
  2  3  1  0  0  0  0
  3 37  1  1  0  0  0
  3  4  1  0  0  0  0
  4 38  1  6  0  0  0
  5 37  1  1  0  0  0
  5  6  1  0  0  0  0
  6  7  1  0  0  0  0
  6 39  1  6  0  0  0
  7 42  1  6  0  0  0
  8  9  1  6  0  0  0
  8  7  1  0  0  0  0
 10 42  1  1  0  0  0
 10 11  1  0  0  0  0
 11 31  1  1  0  0  0
 11 13  1  0  0  0  0
 12 30  1  1  0  0  0
 12  1  1  0  0  0  0
 14 13  1  0  0  0  0
 15 16  1  1  0  0  0
 15 14  1  0  0  0  0
 17 19  1  1  0  0  0
 17 28  1  0  0  0  0
 18 34  1  0  0  0  0
 19 32  1  0  0  0  0
 20 18  1  1  0  0  0
 20 17  1  0  0  0  0
 20 43  1  0  0  0  0
 21 12  1  0  0  0  0
 22 21  1  0  0  0  0
 22 23  1  0  0  0  0
 23 24  1  6  0  0  0
 23 46  1  0  0  0  0
 24 33  1  0  0  0  0
 25 34  1  1  0  0  0
 25  4  1  0  0  0  0
 26 25  1  0  0  0  0
 27 35  1  1  0  0  0
 27 26  1  0  0  0  0
 27  2  1  0  0  0  0
 29 16  1  0  0  0  0
 40  8  1  0  0  0  0
 40  5  1  0  0  0  0
 41  9  1  0  0  0  0
 44 18  2  0  0  0  0
 45 15  1  0  0  0  0
 45 10  1  0  0  0  0
 46  1  1  0  0  0  0
M  END
>  <CHROM.1>
-146.34105454,179.67970894,80.74070221,77.09733973,74.00905036,67.54930225
178.55518666,-54.22017644,-175.30984441,143.91525387,160.69475557,-172.22786243
87.38432013,12.81858933,-14.04855816,8.11330411,2.54523677,0.13820781,2.55027635

>  <Name>
lig.pdb

>  <RI>
0

>  <Rbt.Current_Directory>
/home/afrankz/demos/rdock_decoys_rna/rnas/3wru

>  <Rbt.Executable>
rbdock ($Id: //depot/dev/client3/rdock/2013.1/src/exe/rbdock.cxx#4 $)

>  <Rbt.Library>
libRbt.so (2013.1, Build901 2013/11/27)

>  <Rbt.Parameter_File>
/export/apps/rDock/src/rDock_2013.1_src/data/scripts/dock_solv.prm

>  <Rbt.Receptor>
prm/pocket_docking_5.prm

>  <SCORE>
-2.26096

>  <SCORE.INTER>
-2.17925

>  <SCORE.INTER.CONST>
1

>  <SCORE.INTER.POLAR>
0

>  <SCORE.INTER.ROT>
13

>  <SCORE.INTER.SOLV>
20.2172

>  <SCORE.INTER.VDW>
-20.4586

>  <SCORE.INTER.norm>
-0.047375

>  <SCORE.INTRA>
-0.0817151

>  <SCORE.INTRA.DIHEDRAL>
-6.89485

>  <SCORE.INTRA.DIHEDRAL.0>
19.7146

>  <SCORE.INTRA.POLAR>
0

>  <SCORE.INTRA.POLAR.0>
0

>  <SCORE.INTRA.REPUL>
0

>  <SCORE.INTRA.REPUL.0>
0

>  <SCORE.INTRA.SOLV>
2.21429

>  <SCORE.INTRA.SOLV.lig_0>
-116.697

>  <SCORE.INTRA.VDW>
2.25856

>  <SCORE.INTRA.VDW.0>
-7.06424

>  <SCORE.INTRA.norm>
-0.00177642

>  <SCORE.RESTR>
0

>  <SCORE.RESTR.CAVITY>
0

>  <SCORE.RESTR.norm>
0

>  <SCORE.SYSTEM>
0

>  <SCORE.SYSTEM.CONST>
0

>  <SCORE.SYSTEM.DIHEDRAL>
0

>  <SCORE.SYSTEM.SOLV>
0

>  <SCORE.SYSTEM.norm>
0

>  <SCORE.heavy>
46

>  <SCORE.norm>
-0.0491514

>  <RMSD>
3.965

$$$$
lig.pdb
 OpenBabel03061811583D
libRbt.so/2013.1/901 2013/11/27
 46 49  0  0  0  0  0  0  0  0999 V2000
   11.8337  -12.5201    3.4504 C   0  0  1  0  0  0  0  0  0  0  0  0
   13.2066  -11.7893    5.4477 C   0  0  1  0  0  0  0  0  0  0  0  0
   13.8093  -13.1985    5.7315 C   0  0  1  0  0  0  0  0  0  0  0  0
   15.2146  -13.0180    6.5033 C   0  0  2  0  0  0  0  0  0  0  0  0
   12.3736  -13.6338    7.7777 C   0  0  2  0  0  0  0  0  0  0  0  0
   11.6494  -14.8201    8.4756 C   0  0  1  0  0  0  0  0  0  0  0  0
   11.8796  -14.3923    9.9049 C   0  0  1  0  0  0  0  0  0  0  0  0
   13.3855  -13.9821    9.9588 C   0  0  1  0  0  0  0  0  0  0  0  0
   14.4300  -15.1404   10.1294 C   0  0  0  0  0  0  0  0  0  0  0  0
   10.3758  -13.2171   11.4673 C   0  0  1  0  0  0  0  0  0  0  0  0
   11.3297  -13.0181   12.6072 C   0  0  1  0  0  0  0  0  0  0  0  0
   10.5092  -12.0846    2.7801 C   0  0  1  0  0  0  0  0  0  0  0  0
   10.5227  -13.0972   13.9514 C   0  0  0  0  0  0  0  0  0  0  0  0
    9.8515  -14.3452   14.1765 C   0  0  0  0  0  0  0  0  0  0  0  0
    8.8939  -14.5555   13.1117 C   0  0  2  0  0  0  0  0  0  0  0  0
    8.1273  -15.9235   13.3007 C   0  0  0  0  0  0  0  0  0  0  0  0
   20.1053  -13.0881    7.0865 C   0  0  2  0  0  0  0  0  0  0  0  0
   18.7191  -12.2163    5.3920 C   0  0  0  0  0  0  0  0  0  0  0  0
   21.3466  -13.1058    7.6940 C   0  0  0  0  0  0  0  0  0  0  0  0
   20.0113  -11.9754    6.3168 C   0  0  1  0  0  0  0  0  0  0  0  0
    9.2490  -12.6470    3.5822 C   0  0  0  0  0  0  0  0  0  0  0  0
    9.3623  -14.2459    3.6366 C   0  0  0  0  0  0  0  0  0  0  0  0
   10.7355  -14.6171    4.3661 C   0  0  1  0  0  0  0  0  0  0  0  0
   10.9433  -16.1337    4.4570 C   0  0  0  0  0  0  0  0  0  0  0  0
   16.2080  -12.2314    5.5415 C   0  0  1  0  0  0  0  0  0  0  0  0
   15.5430  -10.7730    5.3030 C   0  0  0  0  0  0  0  0  0  0  0  0
   14.1526  -10.9280    4.5746 C   0  0  2  0  0  0  0  0  0  0  0  0
   19.0729  -13.1691    8.0951 F   0  0  0  0  0  0  0  0  0  0  0  0
    7.1346  -15.9067   14.4983 N   0  0  0  0  0  0  0  0  0  0  0  0
   10.5014  -10.5775    2.6900 N   0  0  0  0  0  0  0  0  0  0  0  0
   12.3148  -14.0045   12.7081 N   0  0  0  0  0  0  0  0  0  0  0  0
   21.9351  -12.2407    8.6461 N   0  0  0  0  0  0  0  0  0  0  0  0
    9.8968  -16.7468    5.1782 N   0  0  0  0  0  0  0  0  0  0  0  0
   17.5121  -12.0567    6.2059 N   0  0  0  0  0  0  0  0  0  0  0  0
   13.5272   -9.6040    4.3614 N   0  0  0  0  0  0  0  0  0  0  0  0
   11.9842  -11.9069    4.7313 O   0  0  0  0  0  0  0  0  0  0  0  0
   12.8106  -13.9332    6.5776 O   0  0  0  0  0  0  0  0  0  0  0  0
   15.7258  -14.2742    6.7415 O   0  0  0  0  0  0  0  0  0  0  0  0
   10.3100  -14.8065    8.0841 O   0  0  0  0  0  0  0  0  0  0  0  0
   13.4030  -13.2163    8.7426 O   0  0  0  0  0  0  0  0  0  0  0  0
   14.1233  -15.8174   11.3646 O   0  0  0  0  0  0  0  0  0  0  0  0
   10.9723  -13.2182   10.2252 O   0  0  0  0  0  0  0  0  0  0  0  0
   19.8382  -10.7671    7.0890 O   0  0  0  0  0  0  0  0  0  0  0  0
   18.7580  -12.4792    4.1788 O   0  0  0  0  0  0  0  0  0  0  0  0
    9.5841  -14.5133   11.7687 O   0  0  0  0  0  0  0  0  0  0  0  0
   11.9031  -14.0126    3.6035 O   0  0  0  0  0  0  0  0  0  0  0  0
  1 36  1  1  0  0  0
  2 36  1  6  0  0  0
  2  3  1  0  0  0  0
  3 37  1  1  0  0  0
  3  4  1  0  0  0  0
  4 38  1  6  0  0  0
  5 37  1  6  0  0  0
  5  6  1  0  0  0  0
  6  7  1  0  0  0  0
  6 39  1  6  0  0  0
  7 42  1  6  0  0  0
  8  9  1  6  0  0  0
  8  7  1  0  0  0  0
 10 42  1  6  0  0  0
 10 11  1  0  0  0  0
 11 31  1  1  0  0  0
 11 13  1  0  0  0  0
 12 30  1  1  0  0  0
 12  1  1  0  0  0  0
 14 13  1  0  0  0  0
 15 16  1  1  0  0  0
 15 14  1  0  0  0  0
 17 19  1  1  0  0  0
 17 28  1  0  0  0  0
 18 34  1  0  0  0  0
 19 32  1  0  0  0  0
 20 18  1  6  0  0  0
 20 17  1  0  0  0  0
 20 43  1  0  0  0  0
 21 12  1  0  0  0  0
 22 21  1  0  0  0  0
 22 23  1  0  0  0  0
 23 24  1  6  0  0  0
 23 46  1  0  0  0  0
 24 33  1  0  0  0  0
 25 34  1  1  0  0  0
 25  4  1  0  0  0  0
 26 25  1  0  0  0  0
 27 35  1  1  0  0  0
 27 26  1  0  0  0  0
 27  2  1  0  0  0  0
 29 16  1  0  0  0  0
 40  8  1  0  0  0  0
 40  5  1  0  0  0  0
 41  9  1  0  0  0  0
 44 18  2  0  0  0  0
 45 15  1  0  0  0  0
 45 10  1  0  0  0  0
 46  1  1  0  0  0  0
M  END
>  <CHROM.1>
-161.90902918,-59.66379353,-62.18254701,-164.32288399,139.35876925,-59.38621692
68.28406875,70.49566084,64.63400915,73.87189987,166.64144384,-59.68195001
140.13545796,13.40771864,-13.36126290,7.67160392,0.62371847,-0.15968546,-1.37931462

>  <Name>
lig.pdb

>  <RI>
0

>  <Rbt.Current_Directory>
/home/afrankz/demos/rdock_decoys_rna/rnas/3wru

>  <Rbt.Executable>
rbdock ($Id: //depot/dev/client3/rdock/2013.1/src/exe/rbdock.cxx#4 $)

>  <Rbt.Library>
libRbt.so (2013.1, Build901 2013/11/27)

>  <Rbt.Parameter_File>
/export/apps/rDock/src/rDock_2013.1_src/data/scripts/dock_solv.prm

>  <Rbt.Receptor>
prm/pocket_docking_5.prm

>  <SCORE>
-2.55476

>  <SCORE.INTER>
-0.9642

>  <SCORE.INTER.CONST>
1

>  <SCORE.INTER.POLAR>
0

>  <SCORE.INTER.ROT>
13

>  <SCORE.INTER.SOLV>
19.4319

>  <SCORE.INTER.VDW>
-19.3868

>  <SCORE.INTER.norm>
-0.0209609

>  <SCORE.INTRA>
-1.59056

>  <SCORE.INTRA.DIHEDRAL>
-8.18364

>  <SCORE.INTRA.DIHEDRAL.0>
19.7146

>  <SCORE.INTRA.POLAR>
0

>  <SCORE.INTRA.POLAR.0>
0

>  <SCORE.INTRA.REPUL>
0

>  <SCORE.INTRA.REPUL.0>
0

>  <SCORE.INTRA.SOLV>
4.08003

>  <SCORE.INTRA.SOLV.lig_0>
-116.697

>  <SCORE.INTRA.VDW>
0.461237

>  <SCORE.INTRA.VDW.0>
-7.06424

>  <SCORE.INTRA.norm>
-0.0345775

>  <SCORE.RESTR>
0

>  <SCORE.RESTR.CAVITY>
0

>  <SCORE.RESTR.norm>
0

>  <SCORE.SYSTEM>
0

>  <SCORE.SYSTEM.CONST>
0

>  <SCORE.SYSTEM.DIHEDRAL>
0

>  <SCORE.SYSTEM.SOLV>
0

>  <SCORE.SYSTEM.norm>
0

>  <SCORE.heavy>
46

>  <SCORE.norm>
-0.0555384

>  <RMSD>
3.986

$$$$
lig.pdb
 OpenBabel03061811583D
libRbt.so/2013.1/901 2013/11/27
 46 49  0  0  0  0  0  0  0  0999 V2000
   11.2261  -14.3686    7.0428 C   0  0  1  0  0  0  0  0  0  0  0  0
   13.5770  -13.4839    7.3569 C   0  0  1  0  0  0  0  0  0  0  0  0
   14.3635  -14.8259    7.4576 C   0  0  1  0  0  0  0  0  0  0  0  0
   15.7271  -14.5699    8.2810 C   0  0  2  0  0  0  0  0  0  0  0  0
   13.1280  -15.8252    9.4357 C   0  0  2  0  0  0  0  0  0  0  0  0
   12.0258  -16.8770    9.7478 C   0  0  1  0  0  0  0  0  0  0  0  0
   12.3497  -17.0911   11.2066 C   0  0  1  0  0  0  0  0  0  0  0  0
   13.9035  -17.2427   11.2500 C   0  0  1  0  0  0  0  0  0  0  0  0
   14.4875  -18.6575   10.9050 C   0  0  0  0  0  0  0  0  0  0  0  0
   10.5293  -15.7531   12.1964 C   0  0  1  0  0  0  0  0  0  0  0  0
   10.1349  -14.5391   12.9834 C   0  0  1  0  0  0  0  0  0  0  0  0
   10.1428  -14.3993    5.9389 C   0  0  1  0  0  0  0  0  0  0  0  0
    8.5767  -14.5539   13.1741 C   0  0  0  0  0  0  0  0  0  0  0  0
    8.0685  -15.6960   13.8782 C   0  0  0  0  0  0  0  0  0  0  0  0
    8.4000  -16.8887   13.1280 C   0  0  2  0  0  0  0  0  0  0  0  0
    7.8725  -18.1845   13.8611 C   0  0  0  0  0  0  0  0  0  0  0  0
   20.6256  -13.9375    8.8230 C   0  0  2  0  0  0  0  0  0  0  0  0
   19.0545  -12.9428    7.3755 C   0  0  0  0  0  0  0  0  0  0  0  0
   21.8286  -13.8588    9.4988 C   0  0  0  0  0  0  0  0  0  0  0  0
   20.3044  -12.7048    8.3575 C   0  0  1  0  0  0  0  0  0  0  0  0
    9.5691  -12.9364    5.6581 C   0  0  0  0  0  0  0  0  0  0  0  0
    8.9698  -12.3611    7.0300 C   0  0  0  0  0  0  0  0  0  0  0  0
   10.1499  -12.3317    8.1081 C   0  0  1  0  0  0  0  0  0  0  0  0
    9.6710  -11.8048    9.4662 C   0  0  0  0  0  0  0  0  0  0  0  0
   16.6101  -13.5305    7.4619 C   0  0  1  0  0  0  0  0  0  0  0  0
   15.7550  -12.1550    7.4114 C   0  0  0  0  0  0  0  0  0  0  0  0
   14.4023  -12.3901    6.6349 C   0  0  2  0  0  0  0  0  0  0  0  0
   19.6171  -14.4950    9.6957 F   0  0  0  0  0  0  0  0  0  0  0  0
    8.1491  -19.4919   13.0646 N   0  0  0  0  0  0  0  0  0  0  0  0
   10.7480  -15.0212    4.7035 N   0  0  0  0  0  0  0  0  0  0  0  0
   10.6658  -14.4974   14.2757 N   0  0  0  0  0  0  0  0  0  0  0  0
   22.6679  -14.8631   10.0357 N   0  0  0  0  0  0  0  0  0  0  0  0
    8.6260  -12.6019    9.9798 N   0  0  0  0  0  0  0  0  0  0  0  0
   17.8748  -13.2785    8.1757 N   0  0  0  0  0  0  0  0  0  0  0  0
   13.6046  -11.1447    6.5917 N   0  0  0  0  0  0  0  0  0  0  0  0
   12.3857  -13.6617    6.6015 O   0  0  0  0  0  0  0  0  0  0  0  0
   13.4690  -15.7987    8.1691 O   0  0  0  0  0  0  0  0  0  0  0  0
   16.4025  -15.7675    8.3554 O   0  0  0  0  0  0  0  0  0  0  0  0
   10.7815  -16.2878    9.5197 O   0  0  0  0  0  0  0  0  0  0  0  0
   14.2123  -16.1421   10.3786 O   0  0  0  0  0  0  0  0  0  0  0  0
   14.1410  -18.9433    9.5352 O   0  0  0  0  0  0  0  0  0  0  0  0
   11.8872  -15.8834   12.0014 O   0  0  0  0  0  0  0  0  0  0  0  0
   19.9305  -11.7846    9.4061 O   0  0  0  0  0  0  0  0  0  0  0  0
   19.0982  -12.8383    6.1387 O   0  0  0  0  0  0  0  0  0  0  0  0
    9.8920  -16.9724   12.9070 O   0  0  0  0  0  0  0  0  0  0  0  0
   10.7062  -13.7330    8.3004 O   0  0  0  0  0  0  0  0  0  0  0  0
  1 36  1  6  0  0  0
  2 36  1  6  0  0  0
  2  3  1  0  0  0  0
  3 37  1  1  0  0  0
  3  4  1  0  0  0  0
  4 38  1  6  0  0  0
  5 37  1  6  0  0  0
  5  6  1  0  0  0  0
  6  7  1  0  0  0  0
  6 39  1  1  0  0  0
  7 42  1  1  0  0  0
  8  9  1  6  0  0  0
  8  7  1  0  0  0  0
 10 42  1  1  0  0  0
 10 11  1  0  0  0  0
 11 31  1  1  0  0  0
 11 13  1  0  0  0  0
 12 30  1  6  0  0  0
 12  1  1  0  0  0  0
 14 13  1  0  0  0  0
 15 16  1  1  0  0  0
 15 14  1  0  0  0  0
 17 19  1  1  0  0  0
 17 28  1  0  0  0  0
 18 34  1  0  0  0  0
 19 32  1  0  0  0  0
 20 18  1  6  0  0  0
 20 17  1  0  0  0  0
 20 43  1  0  0  0  0
 21 12  1  0  0  0  0
 22 21  1  0  0  0  0
 22 23  1  0  0  0  0
 23 24  1  1  0  0  0
 23 46  1  0  0  0  0
 24 33  1  0  0  0  0
 25 34  1  1  0  0  0
 25  4  1  0  0  0  0
 26 25  1  0  0  0  0
 27 35  1  1  0  0  0
 27 26  1  0  0  0  0
 27  2  1  0  0  0  0
 29 16  1  0  0  0  0
 40  8  1  0  0  0  0
 40  5  1  0  0  0  0
 41  9  1  0  0  0  0
 44 18  2  0  0  0  0
 45 15  1  0  0  0  0
 45 10  1  0  0  0  0
 46  1  1  0  0  0  0
M  END
>  <CHROM.1>
-178.04787724,71.82978278,-71.94853121,172.03391091,73.79370015,63.42225813
-179.78635929,177.50837653,-171.92246951,71.49214555,170.05658154,59.01451475
149.92037156,13.44501186,-14.74078386,9.38969375,2.76596152,-0.00617694,2.19678086

>  <Name>
lig.pdb

>  <RI>
0

>  <Rbt.Current_Directory>
/home/afrankz/demos/rdock_decoys_rna/rnas/3wru

>  <Rbt.Executable>
rbdock ($Id: //depot/dev/client3/rdock/2013.1/src/exe/rbdock.cxx#4 $)

>  <Rbt.Library>
libRbt.so (2013.1, Build901 2013/11/27)

>  <Rbt.Parameter_File>
/export/apps/rDock/src/rDock_2013.1_src/data/scripts/dock_solv.prm

>  <Rbt.Receptor>
prm/pocket_docking_6.prm

>  <SCORE>
-3.13447

>  <SCORE.INTER>
3.74165

>  <SCORE.INTER.CONST>
1

>  <SCORE.INTER.POLAR>
0

>  <SCORE.INTER.ROT>
13

>  <SCORE.INTER.SOLV>
15.1757

>  <SCORE.INTER.VDW>
-14.8308

>  <SCORE.INTER.norm>
0.0813402

>  <SCORE.INTRA>
-6.87612

>  <SCORE.INTRA.DIHEDRAL>
-14.7472

>  <SCORE.INTRA.DIHEDRAL.0>
19.7146

>  <SCORE.INTRA.POLAR>
0

>  <SCORE.INTRA.POLAR.0>
0

>  <SCORE.INTRA.REPUL>
0

>  <SCORE.INTRA.REPUL.0>
0

>  <SCORE.INTRA.SOLV>
-0.101124

>  <SCORE.INTRA.SOLV.lig_0>
-116.697

>  <SCORE.INTRA.VDW>
0.548039

>  <SCORE.INTRA.VDW.0>
-7.06424

>  <SCORE.INTRA.norm>
-0.149481

>  <SCORE.RESTR>
0

>  <SCORE.RESTR.CAVITY>
0

>  <SCORE.RESTR.norm>
0

>  <SCORE.SYSTEM>
0

>  <SCORE.SYSTEM.CONST>
0

>  <SCORE.SYSTEM.DIHEDRAL>
0

>  <SCORE.SYSTEM.SOLV>
0

>  <SCORE.SYSTEM.norm>
0

>  <SCORE.heavy>
46

>  <SCORE.norm>
-0.0681407

>  <RMSD>
4.001

$$$$
lig.pdb
 OpenBabel03061811583D
libRbt.so/2013.1/901 2013/11/27
 46 49  0  0  0  0  0  0  0  0999 V2000
   11.1883  -12.6512    3.2353 C   0  0  1  0  0  0  0  0  0  0  0  0
   12.7911  -12.2237    5.1474 C   0  0  1  0  0  0  0  0  0  0  0  0
   13.6517  -13.4899    4.8544 C   0  0  1  0  0  0  0  0  0  0  0  0
   15.1349  -13.2598    5.4460 C   0  0  2  0  0  0  0  0  0  0  0  0
   12.8325  -14.8828    6.8105 C   0  0  2  0  0  0  0  0  0  0  0  0
   12.0797  -16.2111    7.1066 C   0  0  1  0  0  0  0  0  0  0  0  0
   12.6569  -16.4765    8.4760 C   0  0  1  0  0  0  0  0  0  0  0  0
   14.1895  -16.2214    8.3170 C   0  0  1  0  0  0  0  0  0  0  0  0
   15.0450  -17.3938    7.7209 C   0  0  0  0  0  0  0  0  0  0  0  0
   11.2222  -16.0669   10.4400 C   0  0  1  0  0  0  0  0  0  0  0  0
   11.9511  -16.8923   11.4580 C   0  0  1  0  0  0  0  0  0  0  0  0
    9.6857  -12.4317    2.9397 C   0  0  1  0  0  0  0  0  0  0  0  0
   10.8993  -17.4981   12.4536 C   0  0  0  0  0  0  0  0  0  0  0  0
    9.9176  -18.3495   11.8454 C   0  0  0  0  0  0  0  0  0  0  0  0
    9.1676  -17.5759   10.8789 C   0  0  2  0  0  0  0  0  0  0  0  0
    8.0735  -18.4653   10.1669 C   0  0  0  0  0  0  0  0  0  0  0  0
   20.5858  -12.7378    4.5442 C   0  0  2  0  0  0  0  0  0  0  0  0
   18.2354  -12.5834    4.6107 C   0  0  0  0  0  0  0  0  0  0  0  0
   21.8027  -12.1567    4.8471 C   0  0  0  0  0  0  0  0  0  0  0  0
   19.6226  -12.1538    5.2994 C   0  0  1  0  0  0  0  0  0  0  0  0
    8.7874  -13.5015    3.7120 C   0  0  0  0  0  0  0  0  0  0  0  0
    9.2505  -14.9677    3.2558 C   0  0  0  0  0  0  0  0  0  0  0  0
   10.7989  -15.1297    3.6195 C   0  0  1  0  0  0  0  0  0  0  0  0
   11.3423  -16.5035    3.2085 C   0  0  0  0  0  0  0  0  0  0  0  0
   15.7840  -12.0239    4.6831 C   0  0  1  0  0  0  0  0  0  0  0  0
   14.8643  -10.7392    5.0434 C   0  0  0  0  0  0  0  0  0  0  0  0
   13.3998  -10.9558    4.4988 C   0  0  2  0  0  0  0  0  0  0  0  0
   20.6714  -14.1675    4.7400 F   0  0  0  0  0  0  0  0  0  0  0  0
    7.3021  -17.7062    9.0494 N   0  0  0  0  0  0  0  0  0  0  0  0
    9.3346  -11.0130    3.3181 N   0  0  0  0  0  0  0  0  0  0  0  0
   12.6309  -17.9905   10.9239 N   0  0  0  0  0  0  0  0  0  0  0  0
   22.5586  -12.1371    6.0427 N   0  0  0  0  0  0  0  0  0  0  0  0
   11.3002  -16.6675    1.8077 N   0  0  0  0  0  0  0  0  0  0  0  0
   17.1491  -11.7878    5.1864 N   0  0  0  0  0  0  0  0  0  0  0  0
   12.5446   -9.7952    4.8318 N   0  0  0  0  0  0  0  0  0  0  0  0
   11.4858  -12.3735    4.6041 O   0  0  0  0  0  0  0  0  0  0  0  0
   12.9667  -14.6433    5.5277 O   0  0  0  0  0  0  0  0  0  0  0  0
   15.8739  -14.3895    5.1745 O   0  0  0  0  0  0  0  0  0  0  0  0
   10.7094  -15.9470    7.1059 O   0  0  0  0  0  0  0  0  0  0  0  0
   14.0877  -14.9978    7.5697 O   0  0  0  0  0  0  0  0  0  0  0  0
   14.6107  -17.5948    6.3611 O   0  0  0  0  0  0  0  0  0  0  0  0
   12.0345  -15.5158    9.4730 O   0  0  0  0  0  0  0  0  0  0  0  0
   19.6390  -12.5934    6.6752 O   0  0  0  0  0  0  0  0  0  0  0  0
   18.1249  -13.4441    3.7221 O   0  0  0  0  0  0  0  0  0  0  0  0
   10.0993  -16.9619    9.8606 O   0  0  0  0  0  0  0  0  0  0  0  0
   11.6088  -14.0562    2.9112 O   0  0  0  0  0  0  0  0  0  0  0  0
  1 36  1  1  0  0  0
  2 36  1  6  0  0  0
  2  3  1  0  0  0  0
  3 37  1  1  0  0  0
  3  4  1  0  0  0  0
  4 38  1  6  0  0  0
  5 37  1  6  0  0  0
  5  6  1  0  0  0  0
  6  7  1  0  0  0  0
  6 39  1  1  0  0  0
  7 42  1  1  0  0  0
  8  9  1  6  0  0  0
  8  7  1  0  0  0  0
 10 42  1  6  0  0  0
 10 11  1  0  0  0  0
 11 31  1  6  0  0  0
 11 13  1  0  0  0  0
 12 30  1  1  0  0  0
 12  1  1  0  0  0  0
 14 13  1  0  0  0  0
 15 16  1  6  0  0  0
 15 14  1  0  0  0  0
 17 19  1  1  0  0  0
 17 28  1  0  0  0  0
 18 34  1  0  0  0  0
 19 32  1  0  0  0  0
 20 18  1  6  0  0  0
 20 17  1  0  0  0  0
 20 43  1  0  0  0  0
 21 12  1  0  0  0  0
 22 21  1  0  0  0  0
 22 23  1  0  0  0  0
 23 24  1  6  0  0  0
 23 46  1  0  0  0  0
 24 33  1  0  0  0  0
 25 34  1  1  0  0  0
 25  4  1  0  0  0  0
 26 25  1  0  0  0  0
 27 35  1  1  0  0  0
 27 26  1  0  0  0  0
 27  2  1  0  0  0  0
 29 16  1  0  0  0  0
 40  8  1  0  0  0  0
 40  5  1  0  0  0  0
 41  9  1  0  0  0  0
 44 18  2  0  0  0  0
 45 15  1  0  0  0  0
 45 10  1  0  0  0  0
 46  1  1  0  0  0  0
M  END
>  <CHROM.1>
-167.15470627,-56.21521351,-68.64142724,-178.64430422,113.32529297,65.21158704
69.44538246,-176.13092609,64.08616325,-168.67241174,164.88733625,64.17824406
83.88783123,13.52448623,-14.52752878,6.28510293,2.56855887,0.14908790,2.16001690

>  <Name>
lig.pdb

>  <RI>
0

>  <Rbt.Current_Directory>
/home/afrankz/demos/rdock_decoys_rna/rnas/3wru

>  <Rbt.Executable>
rbdock ($Id: //depot/dev/client3/rdock/2013.1/src/exe/rbdock.cxx#4 $)

>  <Rbt.Library>
libRbt.so (2013.1, Build901 2013/11/27)

>  <Rbt.Parameter_File>
/export/apps/rDock/src/rDock_2013.1_src/data/scripts/dock_solv.prm

>  <Rbt.Receptor>
prm/pocket_docking_6.prm

>  <SCORE>
1.10638

>  <SCORE.INTER>
3.31592

>  <SCORE.INTER.CONST>
1

>  <SCORE.INTER.POLAR>
0

>  <SCORE.INTER.ROT>
13

>  <SCORE.INTER.SOLV>
21.4734

>  <SCORE.INTER.VDW>
-17.2139

>  <SCORE.INTER.norm>
0.0720852

>  <SCORE.INTRA>
-2.20954

>  <SCORE.INTRA.DIHEDRAL>
-8.66374

>  <SCORE.INTRA.DIHEDRAL.0>
19.7146

>  <SCORE.INTRA.POLAR>
0

>  <SCORE.INTRA.POLAR.0>
0

>  <SCORE.INTRA.REPUL>
0

>  <SCORE.INTRA.REPUL.0>
0

>  <SCORE.INTRA.SOLV>
3.4586

>  <SCORE.INTRA.SOLV.lig_0>
-116.697

>  <SCORE.INTRA.VDW>
0.393035

>  <SCORE.INTRA.VDW.0>
-7.06424

>  <SCORE.INTRA.norm>
-0.0480334

>  <SCORE.RESTR>
0

>  <SCORE.RESTR.CAVITY>
0

>  <SCORE.RESTR.norm>
0

>  <SCORE.SYSTEM>
0

>  <SCORE.SYSTEM.CONST>
0

>  <SCORE.SYSTEM.DIHEDRAL>
0

>  <SCORE.SYSTEM.SOLV>
0

>  <SCORE.SYSTEM.norm>
0

>  <SCORE.heavy>
46

>  <SCORE.norm>
0.0240518

>  <RMSD>
4.067

$$$$
lig.pdb
 OpenBabel03061811583D
libRbt.so/2013.1/901 2013/11/27
 46 49  0  0  0  0  0  0  0  0999 V2000
   11.7847  -12.0684    3.2762 C   0  0  1  0  0  0  0  0  0  0  0  0
   13.2579  -11.8721    5.3254 C   0  0  1  0  0  0  0  0  0  0  0  0
   13.5779  -13.3964    5.3874 C   0  0  1  0  0  0  0  0  0  0  0  0
   14.9794  -13.6034    6.1593 C   0  0  2  0  0  0  0  0  0  0  0  0
   12.1688  -14.0025    7.4085 C   0  0  2  0  0  0  0  0  0  0  0  0
   12.9487  -15.0638    8.2357 C   0  0  1  0  0  0  0  0  0  0  0  0
   12.9237  -14.3501    9.5657 C   0  0  1  0  0  0  0  0  0  0  0  0
   13.3115  -12.8746    9.2318 C   0  0  1  0  0  0  0  0  0  0  0  0
   14.8415  -12.5601    9.0834 C   0  0  0  0  0  0  0  0  0  0  0  0
   11.3593  -13.9559   11.4314 C   0  0  1  0  0  0  0  0  0  0  0  0
   12.0930  -14.7346   12.4822 C   0  0  1  0  0  0  0  0  0  0  0  0
   10.5265  -11.3675    2.7116 C   0  0  1  0  0  0  0  0  0  0  0  0
   11.7655  -14.1098   13.8846 C   0  0  0  0  0  0  0  0  0  0  0  0
   10.3757  -14.1276   14.2404 C   0  0  0  0  0  0  0  0  0  0  0  0
    9.6373  -13.3536   13.2653 C   0  0  2  0  0  0  0  0  0  0  0  0
    8.0937  -13.3441   13.6001 C   0  0  0  0  0  0  0  0  0  0  0  0
   20.0083  -11.9723    6.8875 C   0  0  2  0  0  0  0  0  0  0  0  0
   18.6309  -12.8400    5.1836 C   0  0  0  0  0  0  0  0  0  0  0  0
   20.9887  -12.1721    7.8408 C   0  0  0  0  0  0  0  0  0  0  0  0
   19.9214  -13.0808    6.1109 C   0  0  1  0  0  0  0  0  0  0  0  0
    9.2122  -11.8386    3.4853 C   0  0  0  0  0  0  0  0  0  0  0  0
    9.0905  -13.4315    3.3428 C   0  0  0  0  0  0  0  0  0  0  0  0
   10.4075  -14.0836    3.9723 C   0  0  1  0  0  0  0  0  0  0  0  0
   10.3920  -15.6137    3.8726 C   0  0  0  0  0  0  0  0  0  0  0  0
   16.1192  -12.8850    5.3134 C   0  0  1  0  0  0  0  0  0  0  0  0
   15.7467  -11.3079    5.3044 C   0  0  0  0  0  0  0  0  0  0  0  0
   14.3638  -11.0855    4.5790 C   0  0  2  0  0  0  0  0  0  0  0  0
   20.3036  -10.7740    6.1349 F   0  0  0  0  0  0  0  0  0  0  0  0
    7.4484  -14.7586   13.5451 N   0  0  0  0  0  0  0  0  0  0  0  0
   10.7383   -9.8756    2.8036 N   0  0  0  0  0  0  0  0  0  0  0  0
   11.7076  -16.0750   12.5748 N   0  0  0  0  0  0  0  0  0  0  0  0
   21.1221  -13.1485    8.8558 N   0  0  0  0  0  0  0  0  0  0  0  0
    9.3133  -16.1587    4.6010 N   0  0  0  0  0  0  0  0  0  0  0  0
   17.4219  -13.0623    5.9796 N   0  0  0  0  0  0  0  0  0  0  0  0
   14.0044   -9.6502    4.5743 N   0  0  0  0  0  0  0  0  0  0  0  0
   12.0469  -11.6471    4.6152 O   0  0  0  0  0  0  0  0  0  0  0  0
   12.4446  -14.0461    6.1267 O   0  0  0  0  0  0  0  0  0  0  0  0
   15.2392  -14.9550    6.2002 O   0  0  0  0  0  0  0  0  0  0  0  0
   12.2233  -16.2556    8.2134 O   0  0  0  0  0  0  0  0  0  0  0  0
   12.4659  -12.7268    8.0790 O   0  0  0  0  0  0  0  0  0  0  0  0
   15.4923  -13.0128   10.2874 O   0  0  0  0  0  0  0  0  0  0  0  0
   11.5260  -14.4381   10.1514 O   0  0  0  0  0  0  0  0  0  0  0  0
   21.0861  -13.2818    5.2806 O   0  0  0  0  0  0  0  0  0  0  0  0
   18.6727  -12.5037    3.9888 O   0  0  0  0  0  0  0  0  0  0  0  0
    9.8770  -13.8938   11.8752 O   0  0  0  0  0  0  0  0  0  0  0  0
   11.6370  -13.5628    3.2462 O   0  0  0  0  0  0  0  0  0  0  0  0
  1 36  1  1  0  0  0
  2 36  1  6  0  0  0
  2  3  1  0  0  0  0
  3 37  1  1  0  0  0
  3  4  1  0  0  0  0
  4 38  1  6  0  0  0
  5 37  1  6  0  0  0
  5  6  1  0  0  0  0
  6  7  1  0  0  0  0
  6 39  1  1  0  0  0
  7 42  1  6  0  0  0
  8  9  1  6  0  0  0
  8  7  1  0  0  0  0
 10 42  1  6  0  0  0
 10 11  1  0  0  0  0
 11 31  1  1  0  0  0
 11 13  1  0  0  0  0
 12 30  1  1  0  0  0
 12  1  1  0  0  0  0
 14 13  1  0  0  0  0
 15 16  1  1  0  0  0
 15 14  1  0  0  0  0
 17 19  1  1  0  0  0
 17 28  1  0  0  0  0
 18 34  1  0  0  0  0
 19 32  1  0  0  0  0
 20 18  1  6  0  0  0
 20 17  1  0  0  0  0
 20 43  1  0  0  0  0
 21 12  1  0  0  0  0
 22 21  1  0  0  0  0
 22 23  1  0  0  0  0
 23 24  1  6  0  0  0
 23 46  1  0  0  0  0
 24 33  1  0  0  0  0
 25 34  1  1  0  0  0
 25  4  1  0  0  0  0
 26 25  1  0  0  0  0
 27 35  1  1  0  0  0
 27 26  1  0  0  0  0
 27  2  1  0  0  0  0
 29 16  1  0  0  0  0
 40  8  1  0  0  0  0
 40  5  1  0  0  0  0
 41  9  1  0  0  0  0
 44 18  2  0  0  0  0
 45 15  1  0  0  0  0
 45 10  1  0  0  0  0
 46  1  1  0  0  0  0
M  END
>  <CHROM.1>
-166.17751426,-57.07307543,-73.12478094,-84.69962345,173.51468211,-54.21692883
-65.77239557,-62.85624665,-59.48716611,-76.12475510,172.14055577,-62.25210692
161.88279847,13.59832437,-13.23612626,7.34914636,0.63590980,-0.10640999,-1.38118208

>  <Name>
lig.pdb

>  <RI>
0

>  <Rbt.Current_Directory>
/home/afrankz/demos/rdock_decoys_rna/rnas/3wru

>  <Rbt.Executable>
rbdock ($Id: //depot/dev/client3/rdock/2013.1/src/exe/rbdock.cxx#4 $)

>  <Rbt.Library>
libRbt.so (2013.1, Build901 2013/11/27)

>  <Rbt.Parameter_File>
/export/apps/rDock/src/rDock_2013.1_src/data/scripts/dock_solv.prm

>  <Rbt.Receptor>
prm/pocket_docking_7.prm

>  <SCORE>
-8.20051

>  <SCORE.INTER>
-2.62713

>  <SCORE.INTER.CONST>
1

>  <SCORE.INTER.POLAR>
0

>  <SCORE.INTER.ROT>
13

>  <SCORE.INTER.SOLV>
20.5025

>  <SCORE.INTER.VDW>
-20.8523

>  <SCORE.INTER.norm>
-0.0571115

>  <SCORE.INTRA>
-5.57338

>  <SCORE.INTRA.DIHEDRAL>
-13.0169

>  <SCORE.INTRA.DIHEDRAL.0>
19.7146

>  <SCORE.INTRA.POLAR>
0

>  <SCORE.INTRA.POLAR.0>
0

>  <SCORE.INTRA.REPUL>
0

>  <SCORE.INTRA.REPUL.0>
0

>  <SCORE.INTRA.SOLV>
0.188105

>  <SCORE.INTRA.SOLV.lig_0>
-116.697

>  <SCORE.INTRA.VDW>
0.841029

>  <SCORE.INTRA.VDW.0>
-7.06424

>  <SCORE.INTRA.norm>
-0.12116

>  <SCORE.RESTR>
0

>  <SCORE.RESTR.CAVITY>
0

>  <SCORE.RESTR.norm>
0

>  <SCORE.SYSTEM>
0

>  <SCORE.SYSTEM.CONST>
0

>  <SCORE.SYSTEM.DIHEDRAL>
0

>  <SCORE.SYSTEM.SOLV>
0

>  <SCORE.SYSTEM.norm>
0

>  <SCORE.heavy>
46

>  <SCORE.norm>
-0.178272

>  <RMSD>
4.070

$$$$
lig.pdb
 OpenBabel03061811583D
libRbt.so/2013.1/901 2013/11/27
 46 49  0  0  0  0  0  0  0  0999 V2000
   11.6135  -11.3441    3.3733 C   0  0  1  0  0  0  0  0  0  0  0  0
   13.0314  -11.0573    5.4507 C   0  0  1  0  0  0  0  0  0  0  0  0
   13.2093  -12.4955    6.0250 C   0  0  1  0  0  0  0  0  0  0  0  0
   14.6277  -12.5792    6.7892 C   0  0  2  0  0  0  0  0  0  0  0  0
   11.7985  -13.7926    7.6878 C   0  0  2  0  0  0  0  0  0  0  0  0
   10.6102  -13.5821    8.6687 C   0  0  1  0  0  0  0  0  0  0  0  0
   10.1910  -15.0264    8.8004 C   0  0  1  0  0  0  0  0  0  0  0  0
   10.1822  -15.5721    7.3371 C   0  0  1  0  0  0  0  0  0  0  0  0
    8.9050  -15.2721    6.4765 C   0  0  0  0  0  0  0  0  0  0  0  0
   12.3527  -16.1905    9.0355 C   0  0  1  0  0  0  0  0  0  0  0  0
   12.3523  -17.6473    8.6797 C   0  0  1  0  0  0  0  0  0  0  0  0
   10.1230  -11.2350    2.9738 C   0  0  1  0  0  0  0  0  0  0  0  0
   13.7374  -18.0020    8.0316 C   0  0  0  0  0  0  0  0  0  0  0  0
   14.8728  -17.7756    8.8792 C   0  0  0  0  0  0  0  0  0  0  0  0
   14.9270  -16.3689    9.2158 C   0  0  2  0  0  0  0  0  0  0  0  0
   16.1557  -16.0586   10.1586 C   0  0  0  0  0  0  0  0  0  0  0  0
   19.6050  -11.3216    7.1615 C   0  0  2  0  0  0  0  0  0  0  0  0
   18.2857  -12.3882    5.5261 C   0  0  0  0  0  0  0  0  0  0  0  0
   20.6767  -11.3426    8.0339 C   0  0  0  0  0  0  0  0  0  0  0  0
   19.5965  -12.4773    6.4519 C   0  0  1  0  0  0  0  0  0  0  0  0
    9.2378  -12.3011    3.7661 C   0  0  0  0  0  0  0  0  0  0  0  0
    9.8091  -13.7648    3.4448 C   0  0  0  0  0  0  0  0  0  0  0  0
   11.3378  -13.8093    3.9106 C   0  0  1  0  0  0  0  0  0  0  0  0
   11.9812  -15.1732    3.6325 C   0  0  0  0  0  0  0  0  0  0  0  0
   15.7788  -12.3185    5.7226 C   0  0  1  0  0  0  0  0  0  0  0  0
   15.5568  -10.8074    5.1811 C   0  0  0  0  0  0  0  0  0  0  0  0
   14.1611  -10.6954    4.4548 C   0  0  2  0  0  0  0  0  0  0  0  0
   19.6848  -10.1439    6.3270 F   0  0  0  0  0  0  0  0  0  0  0  0
   17.5245  -16.1368    9.4234 N   0  0  0  0  0  0  0  0  0  0  0  0
    9.6708   -9.8171    3.2277 N   0  0  0  0  0  0  0  0  0  0  0  0
   12.2263  -18.5044    9.7765 N   0  0  0  0  0  0  0  0  0  0  0  0
   21.0082  -12.2258    9.0881 N   0  0  0  0  0  0  0  0  0  0  0  0
   11.3074  -16.2024    4.3237 N   0  0  0  0  0  0  0  0  0  0  0  0
   17.0957  -12.3998    6.3796 N   0  0  0  0  0  0  0  0  0  0  0  0
   13.9389   -9.3167    3.9657 N   0  0  0  0  0  0  0  0  0  0  0  0
   11.8077  -10.9564    4.7339 O   0  0  0  0  0  0  0  0  0  0  0  0
   12.0650  -12.7288    6.9678 O   0  0  0  0  0  0  0  0  0  0  0  0
   14.7609  -13.8566    7.2858 O   0  0  0  0  0  0  0  0  0  0  0  0
   11.1083  -13.0225    9.8460 O   0  0  0  0  0  0  0  0  0  0  0  0
   11.4352  -14.9991    6.9279 O   0  0  0  0  0  0  0  0  0  0  0  0
    7.8013  -15.9701    7.0872 O   0  0  0  0  0  0  0  0  0  0  0  0
   11.2024  -15.7615    9.6612 O   0  0  0  0  0  0  0  0  0  0  0  0
   20.7676  -12.6397    5.6222 O   0  0  0  0  0  0  0  0  0  0  0  0
   18.3006  -12.3070    4.2868 O   0  0  0  0  0  0  0  0  0  0  0  0
   13.6345  -15.9341    9.8656 O   0  0  0  0  0  0  0  0  0  0  0  0
   12.1307  -12.7404    3.1766 O   0  0  0  0  0  0  0  0  0  0  0  0
  1 36  1  1  0  0  0
  2 36  1  6  0  0  0
  2  3  1  0  0  0  0
  3 37  1  1  0  0  0
  3  4  1  0  0  0  0
  4 38  1  6  0  0  0
  5 37  1  6  0  0  0
  5  6  1  0  0  0  0
  6  7  1  0  0  0  0
  6 39  1  1  0  0  0
  7 42  1  1  0  0  0
  8  9  1  6  0  0  0
  8  7  1  0  0  0  0
 10 42  1  1  0  0  0
 10 11  1  0  0  0  0
 11 31  1  1  0  0  0
 11 13  1  0  0  0  0
 12 30  1  1  0  0  0
 12  1  1  0  0  0  0
 14 13  1  0  0  0  0
 15 16  1  1  0  0  0
 15 14  1  0  0  0  0
 17 19  1  1  0  0  0
 17 28  1  0  0  0  0
 18 34  1  0  0  0  0
 19 32  1  0  0  0  0
 20 18  1  6  0  0  0
 20 17  1  0  0  0  0
 20 43  1  0  0  0  0
 21 12  1  0  0  0  0
 22 21  1  0  0  0  0
 22 23  1  0  0  0  0
 23 24  1  6  0  0  0
 23 46  1  0  0  0  0
 24 33  1  0  0  0  0
 25 34  1  1  0  0  0
 25  4  1  0  0  0  0
 26 25  1  0  0  0  0
 27 35  1  1  0  0  0
 27 26  1  0  0  0  0
 27  2  1  0  0  0  0
 29 16  1  0  0  0  0
 40  8  1  0  0  0  0
 40  5  1  0  0  0  0
 41  9  1  0  0  0  0
 44 18  2  0  0  0  0
 45 15  1  0  0  0  0
 45 10  1  0  0  0  0
 46  1  1  0  0  0  0
M  END
>  <CHROM.1>
173.88122360,-83.54596986,-179.70355313,173.16822010,-81.76340797,-65.13223937
-100.71057622,71.90237239,-60.10423645,-65.55484824,177.35191333,-60.39546471
170.97446297,13.76816372,-13.59704168,6.59429460,2.97104554,0.22498097,2.38285719

>  <Name>
lig.pdb

>  <RI>
0

>  <Rbt.Current_Directory>
/home/afrankz/demos/rdock_decoys_rna/rnas/3wru

>  <Rbt.Executable>
rbdock ($Id: //depot/dev/client3/rdock/2013.1/src/exe/rbdock.cxx#4 $)

>  <Rbt.Library>
libRbt.so (2013.1, Build901 2013/11/27)

>  <Rbt.Parameter_File>
/export/apps/rDock/src/rDock_2013.1_src/data/scripts/dock_solv.prm

>  <Rbt.Receptor>
prm/pocket_docking_5.prm

>  <SCORE>
2.69286

>  <SCORE.INTER>
2.49361

>  <SCORE.INTER.CONST>
1

>  <SCORE.INTER.POLAR>
0

>  <SCORE.INTER.ROT>
13

>  <SCORE.INTER.SOLV>
26.3205

>  <SCORE.INTER.VDW>
-19.3778

>  <SCORE.INTER.norm>
0.054209

>  <SCORE.INTRA>
0.199242

>  <SCORE.INTRA.DIHEDRAL>
-7.59024

>  <SCORE.INTRA.DIHEDRAL.0>
19.7146

>  <SCORE.INTRA.POLAR>
0

>  <SCORE.INTRA.POLAR.0>
0

>  <SCORE.INTRA.REPUL>
0

>  <SCORE.INTRA.REPUL.0>
0

>  <SCORE.INTRA.SOLV>
1.93409

>  <SCORE.INTRA.SOLV.lig_0>
-116.697

>  <SCORE.INTRA.VDW>
3.02732

>  <SCORE.INTRA.VDW.0>
-7.06424

>  <SCORE.INTRA.norm>
0.00433136

>  <SCORE.RESTR>
0

>  <SCORE.RESTR.CAVITY>
0

>  <SCORE.RESTR.norm>
0

>  <SCORE.SYSTEM>
0

>  <SCORE.SYSTEM.CONST>
0

>  <SCORE.SYSTEM.DIHEDRAL>
0

>  <SCORE.SYSTEM.SOLV>
0

>  <SCORE.SYSTEM.norm>
0

>  <SCORE.heavy>
46

>  <SCORE.norm>
0.0585404

>  <RMSD>
4.103

$$$$
lig.pdb
 OpenBabel03061811583D
libRbt.so/2013.1/901 2013/11/27
 46 49  0  0  0  0  0  0  0  0999 V2000
   11.9930  -11.0925    4.5020 C   0  0  1  0  0  0  0  0  0  0  0  0
   12.1991  -12.9576    6.2011 C   0  0  1  0  0  0  0  0  0  0  0  0
   12.2721  -14.1785    5.2348 C   0  0  1  0  0  0  0  0  0  0  0  0
   13.1071  -15.3593    5.9498 C   0  0  2  0  0  0  0  0  0  0  0  0
    9.8738  -14.7741    5.8105 C   0  0  2  0  0  0  0  0  0  0  0  0
    8.5113  -15.0565    5.1157 C   0  0  1  0  0  0  0  0  0  0  0  0
    7.8525  -15.8073    6.2476 C   0  0  1  0  0  0  0  0  0  0  0  0
    8.9393  -16.8142    6.7417 C   0  0  1  0  0  0  0  0  0  0  0  0
    9.0882  -18.1500    5.9322 C   0  0  0  0  0  0  0  0  0  0  0  0
    6.5498  -15.2607    8.2694 C   0  0  1  0  0  0  0  0  0  0  0  0
    6.1930  -14.2383    9.3068 C   0  0  1  0  0  0  0  0  0  0  0  0
   10.9554  -10.0257    4.0794 C   0  0  1  0  0  0  0  0  0  0  0  0
    5.1899  -14.8896   10.3237 C   0  0  0  0  0  0  0  0  0  0  0  0
    5.6999  -16.0359   11.0197 C   0  0  0  0  0  0  0  0  0  0  0  0
    6.0231  -17.0612   10.0505 C   0  0  2  0  0  0  0  0  0  0  0  0
    6.6001  -18.3496   10.7591 C   0  0  0  0  0  0  0  0  0  0  0  0
   18.6554  -17.2185    6.9586 C   0  0  2  0  0  0  0  0  0  0  0  0
   16.8420  -15.7155    6.8832 C   0  0  0  0  0  0  0  0  0  0  0  0
   19.4951  -17.9603    7.7677 C   0  0  0  0  0  0  0  0  0  0  0  0
   17.5030  -16.9752    7.6311 C   0  0  1  0  0  0  0  0  0  0  0  0
    9.6552  -10.7075    3.4529 C   0  0  0  0  0  0  0  0  0  0  0  0
   10.1098  -11.5914    2.1942 C   0  0  0  0  0  0  0  0  0  0  0  0
   11.1538  -12.6854    2.7130 C   0  0  1  0  0  0  0  0  0  0  0  0
   11.6602  -13.5783    1.5738 C   0  0  0  0  0  0  0  0  0  0  0  0
   14.5861  -14.8324    6.2058 C   0  0  1  0  0  0  0  0  0  0  0  0
   14.4483  -13.5848    7.2307 C   0  0  0  0  0  0  0  0  0  0  0  0
   13.6094  -12.4286    6.5618 C   0  0  2  0  0  0  0  0  0  0  0  0
   18.4471  -17.9165    5.7100 F   0  0  0  0  0  0  0  0  0  0  0  0
    6.7950  -19.5466    9.7848 N   0  0  0  0  0  0  0  0  0  0  0  0
   10.6303   -9.1815    5.2881 N   0  0  0  0  0  0  0  0  0  0  0  0
    7.2744  -13.8051   10.0792 N   0  0  0  0  0  0  0  0  0  0  0  0
   20.8390  -18.3680    7.5978 N   0  0  0  0  0  0  0  0  0  0  0  0
   12.5887  -14.5289    2.0486 N   0  0  0  0  0  0  0  0  0  0  0  0
   15.3883  -15.8891    6.8478 N   0  0  0  0  0  0  0  0  0  0  0  0
   13.4645  -11.2868    7.4916 N   0  0  0  0  0  0  0  0  0  0  0  0
   11.5034  -11.8797    5.5881 O   0  0  0  0  0  0  0  0  0  0  0  0
   10.8571  -14.5974    4.9602 O   0  0  0  0  0  0  0  0  0  0  0  0
   13.1576  -16.4238    5.0778 O   0  0  0  0  0  0  0  0  0  0  0  0
    7.9109  -13.8330    4.8163 O   0  0  0  0  0  0  0  0  0  0  0  0
   10.0418  -15.8921    6.7523 O   0  0  0  0  0  0  0  0  0  0  0  0
    7.8359  -18.8567    6.0348 O   0  0  0  0  0  0  0  0  0  0  0  0
    7.4683  -14.8250    7.3392 O   0  0  0  0  0  0  0  0  0  0  0  0
   16.5870  -18.0917    7.6049 O   0  0  0  0  0  0  0  0  0  0  0  0
   17.4782  -14.7505    6.4286 O   0  0  0  0  0  0  0  0  0  0  0  0
    7.0034  -16.5302    9.0313 O   0  0  0  0  0  0  0  0  0  0  0  0
   12.3462  -11.9950    3.3546 O   0  0  0  0  0  0  0  0  0  0  0  0
  1 36  1  1  0  0  0
  2 36  1  6  0  0  0
  2  3  1  0  0  0  0
  3 37  1  1  0  0  0
  3  4  1  0  0  0  0
  4 38  1  6  0  0  0
  5 37  1  6  0  0  0
  5  6  1  0  0  0  0
  6  7  1  0  0  0  0
  6 39  1  1  0  0  0
  7 42  1  1  0  0  0
  8  9  1  6  0  0  0
  8  7  1  0  0  0  0
 10 42  1  6  0  0  0
 10 11  1  0  0  0  0
 11 31  1  1  0  0  0
 11 13  1  0  0  0  0
 12 30  1  1  0  0  0
 12  1  1  0  0  0  0
 14 13  1  0  0  0  0
 15 16  1  1  0  0  0
 15 14  1  0  0  0  0
 17 19  1  1  0  0  0
 17 28  1  0  0  0  0
 18 34  1  0  0  0  0
 19 32  1  0  0  0  0
 20 18  1  6  0  0  0
 20 17  1  0  0  0  0
 20 43  1  0  0  0  0
 21 12  1  0  0  0  0
 22 21  1  0  0  0  0
 22 23  1  0  0  0  0
 23 24  1  6  0  0  0
 23 46  1  0  0  0  0
 24 33  1  0  0  0  0
 25 34  1  1  0  0  0
 25  4  1  0  0  0  0
 26 25  1  0  0  0  0
 27 35  1  1  0  0  0
 27 26  1  0  0  0  0
 27  2  1  0  0  0  0
 29 16  1  0  0  0  0
 40  8  1  0  0  0  0
 40  5  1  0  0  0  0
 41  9  1  0  0  0  0
 44 18  2  0  0  0  0
 45 15  1  0  0  0  0
 45 10  1  0  0  0  0
 46  1  1  0  0  0  0
M  END
>  <CHROM.1>
178.98820380,-70.29745441,-46.79486097,173.52366677,162.98451734,-61.93014707
-178.97340949,172.69904394,-173.46868774,142.63461542,160.05679464,179.47809752
166.12878735,11.47546633,-14.94473696,6.43095824,0.06753139,0.17269040,-0.67298523

>  <Name>
lig.pdb

>  <RI>
0

>  <Rbt.Current_Directory>
/home/afrankz/demos/rdock_decoys_rna/rnas/3wru

>  <Rbt.Executable>
rbdock ($Id: //depot/dev/client3/rdock/2013.1/src/exe/rbdock.cxx#4 $)

>  <Rbt.Library>
libRbt.so (2013.1, Build901 2013/11/27)

>  <Rbt.Parameter_File>
/export/apps/rDock/src/rDock_2013.1_src/data/scripts/dock_solv.prm

>  <Rbt.Receptor>
prm/pocket_docking_5.prm

>  <SCORE>
-4.20702

>  <SCORE.INTER>
1.93356

>  <SCORE.INTER.CONST>
1

>  <SCORE.INTER.POLAR>
0

>  <SCORE.INTER.ROT>
13

>  <SCORE.INTER.SOLV>
24.6817

>  <SCORE.INTER.VDW>
-19.2049

>  <SCORE.INTER.norm>
0.0420339

>  <SCORE.INTRA>
-6.14058

>  <SCORE.INTRA.DIHEDRAL>
-12.9448

>  <SCORE.INTRA.DIHEDRAL.0>
19.7146

>  <SCORE.INTRA.POLAR>
0

>  <SCORE.INTRA.POLAR.0>
0

>  <SCORE.INTRA.REPUL>
0

>  <SCORE.INTRA.REPUL.0>
0

>  <SCORE.INTRA.SOLV>
-0.366517

>  <SCORE.INTRA.SOLV.lig_0>
-116.697

>  <SCORE.INTRA.VDW>
0.515092

>  <SCORE.INTRA.VDW.0>
-7.06424

>  <SCORE.INTRA.norm>
-0.133491

>  <SCORE.RESTR>
0

>  <SCORE.RESTR.CAVITY>
0

>  <SCORE.RESTR.norm>
0

>  <SCORE.SYSTEM>
0

>  <SCORE.SYSTEM.CONST>
0

>  <SCORE.SYSTEM.DIHEDRAL>
0

>  <SCORE.SYSTEM.SOLV>
0

>  <SCORE.SYSTEM.norm>
0

>  <SCORE.heavy>
46

>  <SCORE.norm>
-0.091457

>  <RMSD>
4.254

$$$$
lig.pdb
 OpenBabel03061811583D
libRbt.so/2013.1/901 2013/11/27
 46 49  0  0  0  0  0  0  0  0999 V2000
   11.8971  -12.0422    3.4435 C   0  0  1  0  0  0  0  0  0  0  0  0
   13.1961  -11.3537    5.5042 C   0  0  1  0  0  0  0  0  0  0  0  0
   13.4861  -12.7908    6.0339 C   0  0  1  0  0  0  0  0  0  0  0  0
   14.8354  -12.7576    6.9177 C   0  0  2  0  0  0  0  0  0  0  0  0
   11.8750  -12.6815    7.9910 C   0  0  2  0  0  0  0  0  0  0  0  0
   10.6662  -13.4529    8.5930 C   0  0  1  0  0  0  0  0  0  0  0  0
   10.8728  -13.0680   10.0380 C   0  0  1  0  0  0  0  0  0  0  0  0
   12.4009  -13.2713   10.2884 C   0  0  1  0  0  0  0  0  0  0  0  0
   12.8796  -14.7324   10.6013 C   0  0  0  0  0  0  0  0  0  0  0  0
    9.1237  -11.3307   10.1174 C   0  0  1  0  0  0  0  0  0  0  0  0
    8.7333   -9.9917   10.6684 C   0  0  1  0  0  0  0  0  0  0  0  0
   10.5764  -11.6552    2.7368 C   0  0  1  0  0  0  0  0  0  0  0  0
    7.1786   -9.8284   10.5250 C   0  0  0  0  0  0  0  0  0  0  0  0
    6.4041  -10.8136   11.2236 C   0  0  0  0  0  0  0  0  0  0  0  0
    6.7287  -12.1205   10.6929 C   0  0  2  0  0  0  0  0  0  0  0  0
    5.9108  -13.2518   11.4320 C   0  0  0  0  0  0  0  0  0  0  0  0
   19.9294  -14.4956    7.9108 C   0  0  2  0  0  0  0  0  0  0  0  0
   17.9816  -13.5619    6.9690 C   0  0  0  0  0  0  0  0  0  0  0  0
   20.6791  -14.7097    6.7696 C   0  0  0  0  0  0  0  0  0  0  0  0
   19.3211  -13.2874    7.8138 C   0  0  1  0  0  0  0  0  0  0  0  0
    9.3119  -12.1740    3.5612 C   0  0  0  0  0  0  0  0  0  0  0  0
    9.4321  -13.7660    3.7142 C   0  0  0  0  0  0  0  0  0  0  0  0
   10.8007  -14.0849    4.4765 C   0  0  1  0  0  0  0  0  0  0  0  0
   11.0146  -15.5920    4.6617 C   0  0  0  0  0  0  0  0  0  0  0  0
   16.0355  -12.3203    5.9695 C   0  0  1  0  0  0  0  0  0  0  0  0
   15.6909  -10.8173    5.4714 C   0  0  0  0  0  0  0  0  0  0  0  0
   14.3577  -10.8218    4.6285 C   0  0  2  0  0  0  0  0  0  0  0  0
   20.7785  -14.6115    9.0750 F   0  0  0  0  0  0  0  0  0  0  0  0
    6.2220  -14.6790   10.8967 N   0  0  0  0  0  0  0  0  0  0  0  0
   10.5624  -10.1566    2.5546 N   0  0  0  0  0  0  0  0  0  0  0  0
    8.9981   -9.8344   12.0317 N   0  0  0  0  0  0  0  0  0  0  0  0
   21.8156  -14.0409    6.2573 N   0  0  0  0  0  0  0  0  0  0  0  0
   10.0360  -16.1422    5.5165 N   0  0  0  0  0  0  0  0  0  0  0  0
   17.2931  -12.2903    6.7376 N   0  0  0  0  0  0  0  0  0  0  0  0
   14.0234   -9.4529    4.1772 N   0  0  0  0  0  0  0  0  0  0  0  0
   12.0336  -11.3511    4.6856 O   0  0  0  0  0  0  0  0  0  0  0  0
   12.3000  -13.1940    6.8606 O   0  0  0  0  0  0  0  0  0  0  0  0
   15.0695  -14.0360    7.3726 O   0  0  0  0  0  0  0  0  0  0  0  0
    9.4965  -12.9431    8.0280 O   0  0  0  0  0  0  0  0  0  0  0  0
   12.8623  -12.6420    9.0813 O   0  0  0  0  0  0  0  0  0  0  0  0
   14.3039  -14.6812   10.8172 O   0  0  0  0  0  0  0  0  0  0  0  0
   10.4667  -11.6179   10.2297 O   0  0  0  0  0  0  0  0  0  0  0  0
   18.9786  -12.7223    9.0982 O   0  0  0  0  0  0  0  0  0  0  0  0
   17.6142  -14.6796    6.5712 O   0  0  0  0  0  0  0  0  0  0  0  0
    8.2130  -12.3785   10.8032 O   0  0  0  0  0  0  0  0  0  0  0  0
   11.9720  -13.5222    3.6881 O   0  0  0  0  0  0  0  0  0  0  0  0
  1 36  1  1  0  0  0
  2 36  1  6  0  0  0
  2  3  1  0  0  0  0
  3 37  1  1  0  0  0
  3  4  1  0  0  0  0
  4 38  1  6  0  0  0
  5 37  1  6  0  0  0
  5  6  1  0  0  0  0
  6  7  1  0  0  0  0
  6 39  1  6  0  0  0
  7 42  1  6  0  0  0
  8  9  1  6  0  0  0
  8  7  1  0  0  0  0
 10 42  1  1  0  0  0
 10 11  1  0  0  0  0
 11 31  1  1  0  0  0
 11 13  1  0  0  0  0
 12 30  1  1  0  0  0
 12  1  1  0  0  0  0
 14 13  1  0  0  0  0
 15 16  1  1  0  0  0
 15 14  1  0  0  0  0
 17 19  1  6  0  0  0
 17 28  1  0  0  0  0
 18 34  1  0  0  0  0
 19 32  1  0  0  0  0
 20 18  1  6  0  0  0
 20 17  1  0  0  0  0
 20 43  1  0  0  0  0
 21 12  1  0  0  0  0
 22 21  1  0  0  0  0
 22 23  1  0  0  0  0
 23 24  1  6  0  0  0
 23 46  1  0  0  0  0
 24 33  1  0  0  0  0
 25 34  1  1  0  0  0
 25  4  1  0  0  0  0
 26 25  1  0  0  0  0
 27 35  1  1  0  0  0
 27 26  1  0  0  0  0
 27  2  1  0  0  0  0
 29 16  1  0  0  0  0
 40  8  1  0  0  0  0
 40  5  1  0  0  0  0
 41  9  1  0  0  0  0
 44 18  2  0  0  0  0
 45 15  1  0  0  0  0
 45 10  1  0  0  0  0
 46  1  1  0  0  0  0
M  END
>  <CHROM.1>
-172.02240614,-64.03248482,-65.67712813,-175.58750895,68.76946500,-179.06327343
164.38155664,179.92183740,65.01687138,-176.45271072,84.22648180,-65.33606444
80.60696865,12.76118508,-12.76431397,7.49584450,2.92898835,-0.15726117,1.65461282

>  <Name>
lig.pdb

>  <RI>
0

>  <Rbt.Current_Directory>
/home/afrankz/demos/rdock_decoys_rna/rnas/3wru

>  <Rbt.Executable>
rbdock ($Id: //depot/dev/client3/rdock/2013.1/src/exe/rbdock.cxx#4 $)

>  <Rbt.Library>
libRbt.so (2013.1, Build901 2013/11/27)

>  <Rbt.Parameter_File>
/export/apps/rDock/src/rDock_2013.1_src/data/scripts/dock_solv.prm

>  <Rbt.Receptor>
prm/pocket_docking_6.prm

>  <SCORE>
-4.73283

>  <SCORE.INTER>
0.0633295

>  <SCORE.INTER.CONST>
1

>  <SCORE.INTER.POLAR>
0

>  <SCORE.INTER.ROT>
13

>  <SCORE.INTER.SOLV>
19.3405

>  <SCORE.INTER.VDW>
-18.6713

>  <SCORE.INTER.norm>
0.00137673

>  <SCORE.INTRA>
-4.79616

>  <SCORE.INTRA.DIHEDRAL>
-14.3824

>  <SCORE.INTRA.DIHEDRAL.0>
19.7146

>  <SCORE.INTRA.POLAR>
0

>  <SCORE.INTRA.POLAR.0>
0

>  <SCORE.INTRA.REPUL>
0

>  <SCORE.INTRA.REPUL.0>
0

>  <SCORE.INTRA.SOLV>
0.133516

>  <SCORE.INTRA.SOLV.lig_0>
-116.697

>  <SCORE.INTRA.VDW>
2.32828

>  <SCORE.INTRA.VDW.0>
-7.06424

>  <SCORE.INTRA.norm>
-0.104264

>  <SCORE.RESTR>
0

>  <SCORE.RESTR.CAVITY>
0

>  <SCORE.RESTR.norm>
0

>  <SCORE.SYSTEM>
0

>  <SCORE.SYSTEM.CONST>
0

>  <SCORE.SYSTEM.DIHEDRAL>
0

>  <SCORE.SYSTEM.SOLV>
0

>  <SCORE.SYSTEM.norm>
0

>  <SCORE.heavy>
46

>  <SCORE.norm>
-0.102888

>  <RMSD>
4.273

$$$$
lig.pdb
 OpenBabel03061811583D
libRbt.so/2013.1/901 2013/11/27
 46 49  0  0  0  0  0  0  0  0999 V2000
   11.6982  -12.0975    3.1199 C   0  0  1  0  0  0  0  0  0  0  0  0
   13.3043  -11.9219    5.0687 C   0  0  1  0  0  0  0  0  0  0  0  0
   13.8193  -13.3702    4.8097 C   0  0  1  0  0  0  0  0  0  0  0  0
   15.2787  -13.5312    5.4784 C   0  0  2  0  0  0  0  0  0  0  0  0
   12.5261  -14.4506    6.7066 C   0  0  2  0  0  0  0  0  0  0  0  0
   11.3760  -15.4695    6.9467 C   0  0  1  0  0  0  0  0  0  0  0  0
   11.7375  -15.8621    8.3589 C   0  0  1  0  0  0  0  0  0  0  0  0
   13.2804  -16.1013    8.3217 C   0  0  1  0  0  0  0  0  0  0  0  0
   13.7686  -17.4983    7.8004 C   0  0  0  0  0  0  0  0  0  0  0  0
   11.4372  -14.9971   10.6491 C   0  0  1  0  0  0  0  0  0  0  0  0
   10.5135  -16.0882   11.1019 C   0  0  1  0  0  0  0  0  0  0  0  0
   10.4254  -11.3571    2.6455 C   0  0  1  0  0  0  0  0  0  0  0  0
   10.6516  -16.2438   12.6579 C   0  0  0  0  0  0  0  0  0  0  0  0
   10.3174  -15.0692   13.4110 C   0  0  0  0  0  0  0  0  0  0  0  0
   11.2142  -14.0004   13.0257 C   0  0  2  0  0  0  0  0  0  0  0  0
   10.8880  -12.6733   13.8178 C   0  0  0  0  0  0  0  0  0  0  0  0
   20.3421  -11.6105    5.7174 C   0  0  2  0  0  0  0  0  0  0  0  0
   18.7454  -12.7444    4.4067 C   0  0  0  0  0  0  0  0  0  0  0  0
   19.8273  -11.5097    6.9960 C   0  0  0  0  0  0  0  0  0  0  0  0
   20.1088  -12.8620    5.2498 C   0  0  1  0  0  0  0  0  0  0  0  0
    9.1439  -11.8357    3.4680 C   0  0  0  0  0  0  0  0  0  0  0  0
    8.9875  -13.4202    3.2753 C   0  0  0  0  0  0  0  0  0  0  0  0
   10.3231  -14.1151    3.8130 C   0  0  1  0  0  0  0  0  0  0  0  0
   10.2760  -15.6402    3.6598 C   0  0  0  0  0  0  0  0  0  0  0  0
   16.2658  -12.5113    4.7599 C   0  0  1  0  0  0  0  0  0  0  0  0
   15.6951  -11.0294    5.0831 C   0  0  0  0  0  0  0  0  0  0  0  0
   14.2549  -10.8600    4.4625 C   0  0  2  0  0  0  0  0  0  0  0  0
   21.7452  -11.2631    5.7330 F   0  0  0  0  0  0  0  0  0  0  0  0
    9.4384  -12.1610   13.5798 N   0  0  0  0  0  0  0  0  0  0  0  0
   10.6675   -9.8729    2.7797 N   0  0  0  0  0  0  0  0  0  0  0  0
    9.1600  -15.8233   10.8749 N   0  0  0  0  0  0  0  0  0  0  0  0
   20.1501  -12.1937    8.1916 N   0  0  0  0  0  0  0  0  0  0  0  0
   10.3337  -16.0156    2.3008 N   0  0  0  0  0  0  0  0  0  0  0  0
   17.6174  -12.6363    5.3343 N   0  0  0  0  0  0  0  0  0  0  0  0
   13.7155   -9.5148    4.7607 N   0  0  0  0  0  0  0  0  0  0  0  0
   12.0349  -11.7294    4.4580 O   0  0  0  0  0  0  0  0  0  0  0  0
   12.8237  -14.3015    5.4376 O   0  0  0  0  0  0  0  0  0  0  0  0
   15.7109  -14.8159    5.2359 O   0  0  0  0  0  0  0  0  0  0  0  0
   10.1610  -14.7922    6.8356 O   0  0  0  0  0  0  0  0  0  0  0  0
   13.6222  -14.9288    7.5640 O   0  0  0  0  0  0  0  0  0  0  0  0
   13.3636  -17.6082    6.4213 O   0  0  0  0  0  0  0  0  0  0  0  0
   11.3739  -14.7273    9.2993 O   0  0  0  0  0  0  0  0  0  0  0  0
   21.1665  -13.3532    4.3976 O   0  0  0  0  0  0  0  0  0  0  0  0
   18.6808  -12.7328    3.1665 O   0  0  0  0  0  0  0  0  0  0  0  0
   11.1390  -13.7631   11.5358 O   0  0  0  0  0  0  0  0  0  0  0  0
   11.5232  -13.5873    3.0442 O   0  0  0  0  0  0  0  0  0  0  0  0
  1 36  1  1  0  0  0
  2 36  1  6  0  0  0
  2  3  1  0  0  0  0
  3 37  1  1  0  0  0
  3  4  1  0  0  0  0
  4 38  1  6  0  0  0
  5 37  1  6  0  0  0
  5  6  1  0  0  0  0
  6  7  1  0  0  0  0
  6 39  1  1  0  0  0
  7 42  1  1  0  0  0
  8  9  1  6  0  0  0
  8  7  1  0  0  0  0
 10 42  1  6  0  0  0
 10 11  1  0  0  0  0
 11 31  1  1  0  0  0
 11 13  1  0  0  0  0
 12 30  1  1  0  0  0
 12  1  1  0  0  0  0
 14 13  1  0  0  0  0
 15 16  1  1  0  0  0
 15 14  1  0  0  0  0
 17 19  1  1  0  0  0
 17 28  1  0  0  0  0
 18 34  1  0  0  0  0
 19 32  1  0  0  0  0
 20 18  1  6  0  0  0
 20 17  1  0  0  0  0
 20 43  1  0  0  0  0
 21 12  1  0  0  0  0
 22 21  1  0  0  0  0
 22 23  1  0  0  0  0
 23 24  1  6  0  0  0
 23 46  1  0  0  0  0
 24 33  1  0  0  0  0
 25 34  1  1  0  0  0
 25  4  1  0  0  0  0
 26 25  1  0  0  0  0
 27 35  1  1  0  0  0
 27 26  1  0  0  0  0
 27  2  1  0  0  0  0
 29 16  1  0  0  0  0
 40  8  1  0  0  0  0
 40  5  1  0  0  0  0
 41  9  1  0  0  0  0
 44 18  2  0  0  0  0
 45 15  1  0  0  0  0
 45 10  1  0  0  0  0
 46  1  1  0  0  0  0
M  END
>  <CHROM.1>
-161.89009326,-47.22136236,-65.47132262,176.77100906,169.91424288,63.65941284
-61.10789584,-59.61222448,62.42089412,-74.84369608,95.04479308,69.13628983
132.16979060,13.55066211,-13.58587743,6.63389355,0.61040021,-0.16021012,-1.35128402

>  <Name>
lig.pdb

>  <RI>
0

>  <Rbt.Current_Directory>
/home/afrankz/demos/rdock_decoys_rna/rnas/3wru

>  <Rbt.Executable>
rbdock ($Id: //depot/dev/client3/rdock/2013.1/src/exe/rbdock.cxx#4 $)

>  <Rbt.Library>
libRbt.so (2013.1, Build901 2013/11/27)

>  <Rbt.Parameter_File>
/export/apps/rDock/src/rDock_2013.1_src/data/scripts/dock_solv.prm

>  <Rbt.Receptor>
prm/pocket_docking_6.prm

>  <SCORE>
-4.73681

>  <SCORE.INTER>
-0.779118

>  <SCORE.INTER.CONST>
1

>  <SCORE.INTER.POLAR>
0

>  <SCORE.INTER.ROT>
13

>  <SCORE.INTER.SOLV>
22.4038

>  <SCORE.INTER.VDW>
-20.254

>  <SCORE.INTER.norm>
-0.0169374

>  <SCORE.INTRA>
-3.95769

>  <SCORE.INTRA.DIHEDRAL>
-11.1145

>  <SCORE.INTRA.DIHEDRAL.0>
19.7146

>  <SCORE.INTRA.POLAR>
0

>  <SCORE.INTRA.POLAR.0>
0

>  <SCORE.INTRA.REPUL>
0

>  <SCORE.INTRA.REPUL.0>
0

>  <SCORE.INTRA.SOLV>
2.11397

>  <SCORE.INTRA.SOLV.lig_0>
-116.697

>  <SCORE.INTRA.VDW>
0.542584

>  <SCORE.INTRA.VDW.0>
-7.06424

>  <SCORE.INTRA.norm>
-0.0860367

>  <SCORE.RESTR>
0

>  <SCORE.RESTR.CAVITY>
0

>  <SCORE.RESTR.norm>
0

>  <SCORE.SYSTEM>
0

>  <SCORE.SYSTEM.CONST>
0

>  <SCORE.SYSTEM.DIHEDRAL>
0

>  <SCORE.SYSTEM.SOLV>
0

>  <SCORE.SYSTEM.norm>
0

>  <SCORE.heavy>
46

>  <SCORE.norm>
-0.102974

>  <RMSD>
4.313

$$$$
lig.pdb
 OpenBabel03061811583D
libRbt.so/2013.1/901 2013/11/27
 46 49  0  0  0  0  0  0  0  0999 V2000
   10.5356  -15.4001    5.4568 C   0  0  1  0  0  0  0  0  0  0  0  0
   12.5673  -14.2527    6.4385 C   0  0  1  0  0  0  0  0  0  0  0  0
   13.5111  -15.4887    6.5453 C   0  0  1  0  0  0  0  0  0  0  0  0
   14.6163  -15.2029    7.6854 C   0  0  2  0  0  0  0  0  0  0  0  0
   11.9835  -16.8858    8.0123 C   0  0  2  0  0  0  0  0  0  0  0  0
   11.3272  -18.2951    8.0566 C   0  0  1  0  0  0  0  0  0  0  0  0
   11.2607  -18.4464    9.5571 C   0  0  1  0  0  0  0  0  0  0  0  0
   12.6663  -17.9925   10.0645 C   0  0  1  0  0  0  0  0  0  0  0  0
   13.8196  -19.0543   10.0011 C   0  0  0  0  0  0  0  0  0  0  0  0
    9.8756  -17.6655   11.4427 C   0  0  1  0  0  0  0  0  0  0  0  0
    9.3816  -19.0199   11.8555 C   0  0  1  0  0  0  0  0  0  0  0  0
    9.8198  -15.4913    4.0883 C   0  0  1  0  0  0  0  0  0  0  0  0
    9.0469  -18.9819   13.3887 C   0  0  0  0  0  0  0  0  0  0  0  0
    8.0360  -18.0336   13.7595 C   0  0  0  0  0  0  0  0  0  0  0  0
    8.4937  -16.7063   13.4078 C   0  0  2  0  0  0  0  0  0  0  0  0
    7.4148  -15.6160   13.7849 C   0  0  0  0  0  0  0  0  0  0  0  0
   19.9609  -13.4135    8.6626 C   0  0  2  0  0  0  0  0  0  0  0  0
   17.8442  -14.2427    8.0421 C   0  0  0  0  0  0  0  0  0  0  0  0
   19.8190  -12.1224    8.1904 C   0  0  0  0  0  0  0  0  0  0  0  0
   18.8004  -13.7929    9.2531 C   0  0  1  0  0  0  0  0  0  0  0  0
    9.0581  -14.1305    3.7482 C   0  0  0  0  0  0  0  0  0  0  0  0
    8.0070  -13.8370    4.9235 C   0  0  0  0  0  0  0  0  0  0  0  0
    8.8210  -13.7269    6.2950 C   0  0  1  0  0  0  0  0  0  0  0  0
    7.8968  -13.4578    7.4887 C   0  0  0  0  0  0  0  0  0  0  0  0
   15.4817  -13.9481    7.2299 C   0  0  1  0  0  0  0  0  0  0  0  0
   14.4560  -12.6955    7.1601 C   0  0  0  0  0  0  0  0  0  0  0  0
   13.3483  -12.9669    6.0704 C   0  0  2  0  0  0  0  0  0  0  0  0
   21.0984  -13.4801    9.5521 F   0  0  0  0  0  0  0  0  0  0  0  0
    7.8814  -14.1639   13.4784 N   0  0  0  0  0  0  0  0  0  0  0  0
   10.8492  -15.8454    3.0422 N   0  0  0  0  0  0  0  0  0  0  0  0
    8.1966  -19.4129   11.2273 N   0  0  0  0  0  0  0  0  0  0  0  0
   20.6362  -11.3421    7.3392 N   0  0  0  0  0  0  0  0  0  0  0  0
    8.6085  -13.5197    8.7055 N   0  0  0  0  0  0  0  0  0  0  0  0
   16.5150  -13.6610    8.2410 N   0  0  0  0  0  0  0  0  0  0  0  0
   12.3963  -11.8360    6.0042 N   0  0  0  0  0  0  0  0  0  0  0  0
   11.6023  -14.4516    5.4135 O   0  0  0  0  0  0  0  0  0  0  0  0
   12.6469  -16.6627    6.9028 O   0  0  0  0  0  0  0  0  0  0  0  0
   15.4362  -16.3067    7.7597 O   0  0  0  0  0  0  0  0  0  0  0  0
   10.0805  -18.2170    7.4347 O   0  0  0  0  0  0  0  0  0  0  0  0
   12.7746  -16.8126    9.2509 O   0  0  0  0  0  0  0  0  0  0  0  0
   14.1018  -19.3000    8.6089 O   0  0  0  0  0  0  0  0  0  0  0  0
   10.1595  -17.5531   10.0990 O   0  0  0  0  0  0  0  0  0  0  0  0
   18.9683  -14.8927   10.1743 O   0  0  0  0  0  0  0  0  0  0  0  0
   18.1989  -14.9571    7.0901 O   0  0  0  0  0  0  0  0  0  0  0  0
    8.8270  -16.6384   11.9360 O   0  0  0  0  0  0  0  0  0  0  0  0
    9.5778  -15.0202    6.5495 O   0  0  0  0  0  0  0  0  0  0  0  0
  1 36  1  6  0  0  0
  2 36  1  6  0  0  0
  2  3  1  0  0  0  0
  3 37  1  1  0  0  0
  3  4  1  0  0  0  0
  4 38  1  6  0  0  0
  5 37  1  6  0  0  0
  5  6  1  0  0  0  0
  6  7  1  0  0  0  0
  6 39  1  1  0  0  0
  7 42  1  1  0  0  0
  8  9  1  6  0  0  0
  8  7  1  0  0  0  0
 10 42  1  6  0  0  0
 10 11  1  0  0  0  0
 11 31  1  6  0  0  0
 11 13  1  0  0  0  0
 12 30  1  6  0  0  0
 12  1  1  0  0  0  0
 14 13  1  0  0  0  0
 15 16  1  6  0  0  0
 15 14  1  0  0  0  0
 17 19  1  1  0  0  0
 17 28  1  0  0  0  0
 18 34  1  0  0  0  0
 19 32  1  0  0  0  0
 20 18  1  6  0  0  0
 20 17  1  0  0  0  0
 20 43  1  0  0  0  0
 21 12  1  0  0  0  0
 22 21  1  0  0  0  0
 22 23  1  0  0  0  0
 23 24  1  1  0  0  0
 23 46  1  0  0  0  0
 24 33  1  0  0  0  0
 25 34  1  1  0  0  0
 25  4  1  0  0  0  0
 26 25  1  0  0  0  0
 27 35  1  1  0  0  0
 27 26  1  0  0  0  0
 27  2  1  0  0  0  0
 29 16  1  0  0  0  0
 40  8  1  0  0  0  0
 40  5  1  0  0  0  0
 41  9  1  0  0  0  0
 44 18  2  0  0  0  0
 45 15  1  0  0  0  0
 45 10  1  0  0  0  0
 46  1  1  0  0  0  0
M  END
>  <CHROM.1>
-171.25813052,68.64478628,-66.87100467,-173.71676915,173.93073999,67.79046430
-62.30962870,177.73287029,-169.23930198,-134.51323724,81.15270229,173.09284789
94.24246361,12.59406367,-15.55361970,8.47534336,2.79216582,0.18462722,2.03626716

>  <Name>
lig.pdb

>  <RI>
0

>  <Rbt.Current_Directory>
/home/afrankz/demos/rdock_decoys_rna/rnas/3wru

>  <Rbt.Executable>
rbdock ($Id: //depot/dev/client3/rdock/2013.1/src/exe/rbdock.cxx#4 $)

>  <Rbt.Library>
libRbt.so (2013.1, Build901 2013/11/27)

>  <Rbt.Parameter_File>
/export/apps/rDock/src/rDock_2013.1_src/data/scripts/dock_solv.prm

>  <Rbt.Receptor>
prm/pocket_docking_5.prm

>  <SCORE>
-2.12791

>  <SCORE.INTER>
4.38943

>  <SCORE.INTER.CONST>
1

>  <SCORE.INTER.POLAR>
0

>  <SCORE.INTER.ROT>
13

>  <SCORE.INTER.SOLV>
12.6591

>  <SCORE.INTER.VDW>
-13.5601

>  <SCORE.INTER.norm>
0.0954225

>  <SCORE.INTRA>
-6.5191

>  <SCORE.INTRA.DIHEDRAL>
-13.096

>  <SCORE.INTRA.DIHEDRAL.0>
19.7146

>  <SCORE.INTRA.POLAR>
0

>  <SCORE.INTRA.POLAR.0>
0

>  <SCORE.INTRA.REPUL>
0.00098308

>  <SCORE.INTRA.REPUL.0>
0

>  <SCORE.INTRA.SOLV>
-1.76611

>  <SCORE.INTRA.SOLV.lig_0>
-116.697

>  <SCORE.INTRA.VDW>
0.907046

>  <SCORE.INTRA.VDW.0>
-7.06424

>  <SCORE.INTRA.norm>
-0.141719

>  <SCORE.RESTR>
0.00175675

>  <SCORE.RESTR.CAVITY>
0.00175675

>  <SCORE.RESTR.norm>
3.81903e-05

>  <SCORE.SYSTEM>
0

>  <SCORE.SYSTEM.CONST>
0

>  <SCORE.SYSTEM.DIHEDRAL>
0

>  <SCORE.SYSTEM.SOLV>
0

>  <SCORE.SYSTEM.norm>
0

>  <SCORE.heavy>
46

>  <SCORE.norm>
-0.0462588

>  <RMSD>
4.363

$$$$
lig.pdb
 OpenBabel03061811583D
libRbt.so/2013.1/901 2013/11/27
 46 49  0  0  0  0  0  0  0  0999 V2000
   12.3569  -13.9502    5.0445 C   0  0  1  0  0  0  0  0  0  0  0  0
   14.4135  -12.5788    5.5899 C   0  0  1  0  0  0  0  0  0  0  0  0
   15.4080  -13.7426    5.8833 C   0  0  1  0  0  0  0  0  0  0  0  0
   16.5830  -13.1941    6.8431 C   0  0  2  0  0  0  0  0  0  0  0  0
   14.1497  -14.8677    7.7777 C   0  0  2  0  0  0  0  0  0  0  0  0
   13.6159  -16.2716    8.1814 C   0  0  1  0  0  0  0  0  0  0  0  0
   13.7912  -16.1391    9.6750 C   0  0  1  0  0  0  0  0  0  0  0  0
   15.2196  -15.5338    9.8547 C   0  0  1  0  0  0  0  0  0  0  0  0
   16.4263  -16.5348    9.7943 C   0  0  0  0  0  0  0  0  0  0  0  0
   12.8023  -14.8922   11.5594 C   0  0  1  0  0  0  0  0  0  0  0  0
   12.7391  -16.0761   12.4777 C   0  0  1  0  0  0  0  0  0  0  0  0
   11.3862  -14.1521    3.8570 C   0  0  1  0  0  0  0  0  0  0  0  0
   12.7834  -15.5598   13.9595 C   0  0  0  0  0  0  0  0  0  0  0  0
   11.7052  -14.6860   14.3236 C   0  0  0  0  0  0  0  0  0  0  0  0
   11.7550  -13.5112   13.4796 C   0  0  2  0  0  0  0  0  0  0  0  0
   10.5823  -12.5122   13.8285 C   0  0  0  0  0  0  0  0  0  0  0  0
   21.9296  -12.1871    7.7258 C   0  0  2  0  0  0  0  0  0  0  0  0
   19.7121  -12.2868    6.9348 C   0  0  0  0  0  0  0  0  0  0  0  0
   22.5497  -11.6922    6.5942 C   0  0  0  0  0  0  0  0  0  0  0  0
   20.7536  -11.5345    7.9005 C   0  0  1  0  0  0  0  0  0  0  0  0
   10.5572  -12.8205    3.5616 C   0  0  0  0  0  0  0  0  0  0  0  0
    9.7555  -12.4234    4.8928 C   0  0  0  0  0  0  0  0  0  0  0  0
   10.8229  -12.2029    6.0624 C   0  0  1  0  0  0  0  0  0  0  0  0
   10.1496  -11.8293    7.3884 C   0  0  0  0  0  0  0  0  0  0  0  0
   17.3650  -12.0505    6.0612 C   0  0  1  0  0  0  0  0  0  0  0  0
   16.2910  -10.8640    5.8068 C   0  0  0  0  0  0  0  0  0  0  0  0
   15.1167  -11.3876    4.8931 C   0  0  2  0  0  0  0  0  0  0  0  0
   22.8204  -12.0639    8.8576 F   0  0  0  0  0  0  0  0  0  0  0  0
    9.1727  -13.1595   13.7078 N   0  0  0  0  0  0  0  0  0  0  0  0
   12.1927  -14.5986    2.6613 N   0  0  0  0  0  0  0  0  0  0  0  0
   11.5570  -16.8152   12.3782 N   0  0  0  0  0  0  0  0  0  0  0  0
   22.1436  -11.6679    5.2393 N   0  0  0  0  0  0  0  0  0  0  0  0
    9.4197  -12.9179    7.9112 N   0  0  0  0  0  0  0  0  0  0  0  0
   18.4588  -11.5300    6.9009 N   0  0  0  0  0  0  0  0  0  0  0  0
   14.1210  -10.3177    4.6625 N   0  0  0  0  0  0  0  0  0  0  0  0
   13.3834  -13.0148    4.7123 O   0  0  0  0  0  0  0  0  0  0  0  0
   14.6169  -14.8286    6.5525 O   0  0  0  0  0  0  0  0  0  0  0  0
   17.4467  -14.2385    7.0865 O   0  0  0  0  0  0  0  0  0  0  0  0
   12.2863  -16.3694    7.7691 O   0  0  0  0  0  0  0  0  0  0  0  0
   15.1132  -14.5255    8.8359 O   0  0  0  0  0  0  0  0  0  0  0  0
   17.6349  -15.7597    9.9230 O   0  0  0  0  0  0  0  0  0  0  0  0
   12.7218  -15.2104   10.2211 O   0  0  0  0  0  0  0  0  0  0  0  0
   20.2765  -11.5844    9.2629 O   0  0  0  0  0  0  0  0  0  0  0  0
   19.9555  -13.3338    6.3125 O   0  0  0  0  0  0  0  0  0  0  0  0
   11.7003  -13.9081   12.0231 O   0  0  0  0  0  0  0  0  0  0  0  0
   11.6294  -13.4745    6.2694 O   0  0  0  0  0  0  0  0  0  0  0  0
  1 36  1  6  0  0  0
  2 36  1  6  0  0  0
  2  3  1  0  0  0  0
  3 37  1  1  0  0  0
  3  4  1  0  0  0  0
  4 38  1  6  0  0  0
  5 37  1  6  0  0  0
  5  6  1  0  0  0  0
  6  7  1  0  0  0  0
  6 39  1  1  0  0  0
  7 42  1  6  0  0  0
  8  9  1  6  0  0  0
  8  7  1  0  0  0  0
 10 42  1  6  0  0  0
 10 11  1  0  0  0  0
 11 31  1  1  0  0  0
 11 13  1  0  0  0  0
 12 30  1  6  0  0  0
 12  1  1  0  0  0  0
 14 13  1  0  0  0  0
 15 16  1  1  0  0  0
 15 14  1  0  0  0  0
 17 19  1  6  0  0  0
 17 28  1  0  0  0  0
 18 34  1  0  0  0  0
 19 32  1  0  0  0  0
 20 18  1  6  0  0  0
 20 17  1  0  0  0  0
 20 43  1  0  0  0  0
 21 12  1  0  0  0  0
 22 21  1  0  0  0  0
 22 23  1  0  0  0  0
 23 24  1  1  0  0  0
 23 46  1  0  0  0  0
 24 33  1  0  0  0  0
 25 34  1  1  0  0  0
 25  4  1  0  0  0  0
 26 25  1  0  0  0  0
 27 35  1  1  0  0  0
 27 26  1  0  0  0  0
 27  2  1  0  0  0  0
 29 16  1  0  0  0  0
 40  8  1  0  0  0  0
 40  5  1  0  0  0  0
 41  9  1  0  0  0  0
 44 18  2  0  0  0  0
 45 15  1  0  0  0  0
 45 10  1  0  0  0  0
 46  1  1  0  0  0  0
M  END
>  <CHROM.1>
178.23312669,68.81385593,-73.73526448,-169.04161225,-174.89770697,177.51425459
-59.19314038,-57.24783433,-60.73824776,-171.61295920,82.63853533,68.67231615
81.71991818,14.78655771,-13.59062616,8.08726291,2.73588558,0.12107667,1.83201581

>  <Name>
lig.pdb

>  <RI>
0

>  <Rbt.Current_Directory>
/home/afrankz/demos/rdock_decoys_rna/rnas/3wru

>  <Rbt.Executable>
rbdock ($Id: //depot/dev/client3/rdock/2013.1/src/exe/rbdock.cxx#4 $)

>  <Rbt.Library>
libRbt.so (2013.1, Build901 2013/11/27)

>  <Rbt.Parameter_File>
/export/apps/rDock/src/rDock_2013.1_src/data/scripts/dock_solv.prm

>  <Rbt.Receptor>
prm/pocket_docking_5.prm

>  <SCORE>
-8.64249

>  <SCORE.INTER>
-4.22479

>  <SCORE.INTER.CONST>
1

>  <SCORE.INTER.POLAR>
0

>  <SCORE.INTER.ROT>
13

>  <SCORE.INTER.SOLV>
17.6463

>  <SCORE.INTER.VDW>
-20.9653

>  <SCORE.INTER.norm>
-0.0918434

>  <SCORE.INTRA>
-4.4177

>  <SCORE.INTRA.DIHEDRAL>
-14.4997

>  <SCORE.INTRA.DIHEDRAL.0>
19.7146

>  <SCORE.INTRA.POLAR>
0

>  <SCORE.INTRA.POLAR.0>
0

>  <SCORE.INTRA.REPUL>
0

>  <SCORE.INTRA.REPUL.0>
0

>  <SCORE.INTRA.SOLV>
1.59497

>  <SCORE.INTRA.SOLV.lig_0>
-116.697

>  <SCORE.INTRA.VDW>
2.03468

>  <SCORE.INTRA.VDW.0>
-7.06424

>  <SCORE.INTRA.norm>
-0.0960369

>  <SCORE.RESTR>
0

>  <SCORE.RESTR.CAVITY>
0

>  <SCORE.RESTR.norm>
0

>  <SCORE.SYSTEM>
0

>  <SCORE.SYSTEM.CONST>
0

>  <SCORE.SYSTEM.DIHEDRAL>
0

>  <SCORE.SYSTEM.SOLV>
0

>  <SCORE.SYSTEM.norm>
0

>  <SCORE.heavy>
46

>  <SCORE.norm>
-0.18788

>  <RMSD>
4.367

$$$$
lig.pdb
 OpenBabel03061811583D
libRbt.so/2013.1/901 2013/11/27
 46 49  0  0  0  0  0  0  0  0999 V2000
   12.9484  -11.1199    5.4260 C   0  0  1  0  0  0  0  0  0  0  0  0
   14.8003  -12.8385    5.5830 C   0  0  1  0  0  0  0  0  0  0  0  0
   14.9480  -14.3799    5.4035 C   0  0  1  0  0  0  0  0  0  0  0  0
   16.4460  -14.8114    5.8188 C   0  0  2  0  0  0  0  0  0  0  0  0
   12.6206  -15.0356    6.1726 C   0  0  2  0  0  0  0  0  0  0  0  0
   12.1500  -15.5191    4.7713 C   0  0  1  0  0  0  0  0  0  0  0  0
   10.7830  -16.0187    5.1721 C   0  0  1  0  0  0  0  0  0  0  0  0
   11.0286  -16.8459    6.4739 C   0  0  1  0  0  0  0  0  0  0  0  0
   11.5235  -18.3236    6.2918 C   0  0  0  0  0  0  0  0  0  0  0  0
    8.5232  -15.0862    5.4997 C   0  0  1  0  0  0  0  0  0  0  0  0
    7.6932  -13.9051    5.9058 C   0  0  1  0  0  0  0  0  0  0  0  0
   12.2679  -11.0559    6.8138 C   0  0  1  0  0  0  0  0  0  0  0  0
    6.1928  -14.3579    5.9954 C   0  0  0  0  0  0  0  0  0  0  0  0
    5.9359  -15.4007    6.9469 C   0  0  0  0  0  0  0  0  0  0  0  0
    6.6949  -16.5730    6.5666 C   0  0  2  0  0  0  0  0  0  0  0  0
    6.4592  -17.7563    7.5860 C   0  0  0  0  0  0  0  0  0  0  0  0
   21.3375  -15.8277    4.5925 C   0  0  2  0  0  0  0  0  0  0  0  0
   19.9174  -13.9693    4.3046 C   0  0  0  0  0  0  0  0  0  0  0  0
   21.7639  -16.0133    3.2910 C   0  0  0  0  0  0  0  0  0  0  0  0
   21.3280  -14.4990    4.8639 C   0  0  1  0  0  0  0  0  0  0  0  0
   10.9797  -11.9972    6.8644 C   0  0  0  0  0  0  0  0  0  0  0  0
    9.9694  -11.5265    5.7111 C   0  0  0  0  0  0  0  0  0  0  0  0
   10.7306  -11.6484    4.3106 C   0  0  1  0  0  0  0  0  0  0  0  0
    9.8462  -11.2065    3.1384 C   0  0  0  0  0  0  0  0  0  0  0  0
   17.4597  -14.0910    4.8267 C   0  0  1  0  0  0  0  0  0  0  0  0
   17.2782  -12.4999    5.0750 C   0  0  0  0  0  0  0  0  0  0  0  0
   15.8097  -12.0610    4.7024 C   0  0  2  0  0  0  0  0  0  0  0  0
   22.1816  -16.5842    5.4896 F   0  0  0  0  0  0  0  0  0  0  0  0
    7.1700  -19.0748    7.1657 N   0  0  0  0  0  0  0  0  0  0  0  0
   13.2915  -11.4340    7.8572 N   0  0  0  0  0  0  0  0  0  0  0  0
    8.0024  -13.3957    7.1701 N   0  0  0  0  0  0  0  0  0  0  0  0
   22.9974  -15.7267    2.6604 N   0  0  0  0  0  0  0  0  0  0  0  0
    8.7720  -12.1014    2.9478 N   0  0  0  0  0  0  0  0  0  0  0  0
   18.8433  -14.4704    5.1647 N   0  0  0  0  0  0  0  0  0  0  0  0
   15.6254  -10.6116    4.9363 N   0  0  0  0  0  0  0  0  0  0  0  0
   13.5023  -12.4144    5.1875 O   0  0  0  0  0  0  0  0  0  0  0  0
   13.9264  -15.0189    6.2985 O   0  0  0  0  0  0  0  0  0  0  0  0
   16.5509  -16.1741    5.6514 O   0  0  0  0  0  0  0  0  0  0  0  0
   12.1270  -14.4186    3.9137 O   0  0  0  0  0  0  0  0  0  0  0  0
   11.9025  -15.9043    7.1185 O   0  0  0  0  0  0  0  0  0  0  0  0
   11.6310  -18.9061    7.6060 O   0  0  0  0  0  0  0  0  0  0  0  0
    9.8754  -14.8301    5.4324 O   0  0  0  0  0  0  0  0  0  0  0  0
   21.4309  -14.2098    6.2753 O   0  0  0  0  0  0  0  0  0  0  0  0
   19.7817  -13.2391    3.3091 O   0  0  0  0  0  0  0  0  0  0  0  0
    8.1648  -16.2385    6.4701 O   0  0  0  0  0  0  0  0  0  0  0  0
   11.9807  -10.7841    4.3275 O   0  0  0  0  0  0  0  0  0  0  0  0
  1 36  1  6  0  0  0
  2 36  1  6  0  0  0
  2  3  1  0  0  0  0
  3 37  1  1  0  0  0
  3  4  1  0  0  0  0
  4 38  1  6  0  0  0
  5 37  1  6  0  0  0
  5  6  1  0  0  0  0
  6  7  1  0  0  0  0
  6 39  1  6  0  0  0
  7 42  1  1  0  0  0
  8  9  1  6  0  0  0
  8  7  1  0  0  0  0
 10 42  1  1  0  0  0
 10 11  1  0  0  0  0
 11 31  1  1  0  0  0
 11 13  1  0  0  0  0
 12 30  1  1  0  0  0
 12  1  1  0  0  0  0
 14 13  1  0  0  0  0
 15 16  1  1  0  0  0
 15 14  1  0  0  0  0
 17 19  1  6  0  0  0
 17 28  1  0  0  0  0
 18 34  1  0  0  0  0
 19 32  1  0  0  0  0
 20 18  1  1  0  0  0
 20 17  1  0  0  0  0
 20 43  1  0  0  0  0
 21 12  1  0  0  0  0
 22 21  1  0  0  0  0
 22 23  1  0  0  0  0
 23 24  1  6  0  0  0
 23 46  1  0  0  0  0
 24 33  1  0  0  0  0
 25 34  1  1  0  0  0
 25  4  1  0  0  0  0
 26 25  1  0  0  0  0
 27 35  1  1  0  0  0
 27 26  1  0  0  0  0
 27  2  1  0  0  0  0
 29 16  1  0  0  0  0
 40  8  1  0  0  0  0
 40  5  1  0  0  0  0
 41  9  1  0  0  0  0
 44 18  2  0  0  0  0
 45 15  1  0  0  0  0
 45 10  1  0  0  0  0
 46  1  1  0  0  0  0
M  END
>  <CHROM.1>
-86.80120760,168.92071292,70.39312321,51.80075629,165.17041796,-177.76365230
173.66853901,175.75126045,63.53515175,70.99882325,83.95595341,-67.59600890
176.27075819,13.43164182,-14.38112710,5.50977475,3.08303235,-0.11722589,2.90742247

>  <Name>
lig.pdb

>  <RI>
0

>  <Rbt.Current_Directory>
/home/afrankz/demos/rdock_decoys_rna/rnas/3wru

>  <Rbt.Executable>
rbdock ($Id: //depot/dev/client3/rdock/2013.1/src/exe/rbdock.cxx#4 $)

>  <Rbt.Library>
libRbt.so (2013.1, Build901 2013/11/27)

>  <Rbt.Parameter_File>
/export/apps/rDock/src/rDock_2013.1_src/data/scripts/dock_solv.prm

>  <Rbt.Receptor>
prm/pocket_docking_6.prm

>  <SCORE>
-1.06911

>  <SCORE.INTER>
2.36616

>  <SCORE.INTER.CONST>
1

>  <SCORE.INTER.POLAR>
0

>  <SCORE.INTER.ROT>
13

>  <SCORE.INTER.SOLV>
23.102

>  <SCORE.INTER.VDW>
-18.3899

>  <SCORE.INTER.norm>
0.0514382

>  <SCORE.INTRA>
-3.43527

>  <SCORE.INTRA.DIHEDRAL>
-10.9909

>  <SCORE.INTRA.DIHEDRAL.0>
19.7146

>  <SCORE.INTRA.POLAR>
0

>  <SCORE.INTRA.POLAR.0>
0

>  <SCORE.INTRA.REPUL>
0.0220245

>  <SCORE.INTRA.REPUL.0>
0

>  <SCORE.INTRA.SOLV>
5.24875

>  <SCORE.INTRA.SOLV.lig_0>
-116.697

>  <SCORE.INTRA.VDW>
-0.674334

>  <SCORE.INTRA.VDW.0>
-7.06424

>  <SCORE.INTRA.norm>
-0.0746797

>  <SCORE.RESTR>
0

>  <SCORE.RESTR.CAVITY>
0

>  <SCORE.RESTR.norm>
0

>  <SCORE.SYSTEM>
0

>  <SCORE.SYSTEM.CONST>
0

>  <SCORE.SYSTEM.DIHEDRAL>
0

>  <SCORE.SYSTEM.SOLV>
0

>  <SCORE.SYSTEM.norm>
0

>  <SCORE.heavy>
46

>  <SCORE.norm>
-0.0232415

>  <RMSD>
4.421

$$$$
lig.pdb
 OpenBabel03061811583D
libRbt.so/2013.1/901 2013/11/27
 46 49  0  0  0  0  0  0  0  0999 V2000
   10.9501  -13.2446    4.3676 C   0  0  1  0  0  0  0  0  0  0  0  0
   12.6823  -11.9681    5.7010 C   0  0  1  0  0  0  0  0  0  0  0  0
   13.5647  -13.2329    5.9275 C   0  0  1  0  0  0  0  0  0  0  0  0
   15.0813  -12.7648    6.2167 C   0  0  2  0  0  0  0  0  0  0  0  0
   12.8089  -13.5308    8.3312 C   0  0  2  0  0  0  0  0  0  0  0  0
   12.2063  -14.6099    9.2751 C   0  0  1  0  0  0  0  0  0  0  0  0
   12.7361  -14.0646   10.5793 C   0  0  1  0  0  0  0  0  0  0  0  0
   14.2332  -13.7273   10.2895 C   0  0  1  0  0  0  0  0  0  0  0  0
   15.2546  -14.9161   10.3630 C   0  0  0  0  0  0  0  0  0  0  0  0
   11.0389  -12.9519   11.9812 C   0  0  1  0  0  0  0  0  0  0  0  0
   11.6500  -13.3046   13.3045 C   0  0  1  0  0  0  0  0  0  0  0  0
    9.4289  -13.1524    4.1018 C   0  0  1  0  0  0  0  0  0  0  0  0
   10.4968  -13.4751   14.3559 C   0  0  0  0  0  0  0  0  0  0  0  0
    9.5461  -14.5033   14.0433 C   0  0  0  0  0  0  0  0  0  0  0  0
    8.9080  -14.1781   12.7855 C   0  0  2  0  0  0  0  0  0  0  0  0
    7.8534  -15.2828   12.3825 C   0  0  0  0  0  0  0  0  0  0  0  0
   19.3751  -11.2359    7.2595 C   0  0  2  0  0  0  0  0  0  0  0  0
   17.2834  -10.7187    6.3055 C   0  0  0  0  0  0  0  0  0  0  0  0
   19.5719  -12.4636    6.6560 C   0  0  0  0  0  0  0  0  0  0  0  0
   18.8538  -10.3789    6.3467 C   0  0  1  0  0  0  0  0  0  0  0  0
    8.5949  -13.6815    5.3557 C   0  0  0  0  0  0  0  0  0  0  0  0
    9.0327  -15.1969    5.6456 C   0  0  0  0  0  0  0  0  0  0  0  0
   10.6042  -15.2072    5.9395 C   0  0  1  0  0  0  0  0  0  0  0  0
   11.1248  -16.6223    6.2183 C   0  0  0  0  0  0  0  0  0  0  0  0
   15.6169  -12.0032    4.9268 C   0  0  1  0  0  0  0  0  0  0  0  0
   14.6804  -10.6916    4.7574 C   0  0  0  0  0  0  0  0  0  0  0  0
   13.1859  -11.1266    4.5022 C   0  0  2  0  0  0  0  0  0  0  0  0
   20.6209  -10.7716    7.8269 F   0  0  0  0  0  0  0  0  0  0  0  0
    6.5883  -15.2782   13.2878 N   0  0  0  0  0  0  0  0  0  0  0  0
    9.0974  -11.7197    3.7600 N   0  0  0  0  0  0  0  0  0  0  0  0
   12.3396  -14.5203   13.3107 N   0  0  0  0  0  0  0  0  0  0  0  0
   20.1391  -13.6651    7.1418 N   0  0  0  0  0  0  0  0  0  0  0  0
   11.0043  -17.4415    5.0757 N   0  0  0  0  0  0  0  0  0  0  0  0
   17.0084  -11.5691    5.1454 N   0  0  0  0  0  0  0  0  0  0  0  0
   12.3162   -9.9382    4.3580 N   0  0  0  0  0  0  0  0  0  0  0  0
   11.3437  -12.3431    5.4028 O   0  0  0  0  0  0  0  0  0  0  0  0
   12.9827  -13.9608    7.1040 O   0  0  0  0  0  0  0  0  0  0  0  0
   15.8391  -13.8977    6.4124 O   0  0  0  0  0  0  0  0  0  0  0  0
   10.8163  -14.5651    9.1601 O   0  0  0  0  0  0  0  0  0  0  0  0
   14.0258  -13.0785    9.0239 O   0  0  0  0  0  0  0  0  0  0  0  0
   15.0094  -15.6179   11.5981 O   0  0  0  0  0  0  0  0  0  0  0  0
   11.9495  -12.8219   10.9552 O   0  0  0  0  0  0  0  0  0  0  0  0
   19.0419   -8.9916    6.7022 O   0  0  0  0  0  0  0  0  0  0  0  0
   16.4537  -10.3262    7.1423 O   0  0  0  0  0  0  0  0  0  0  0  0
    9.9439  -14.0097   11.6990 O   0  0  0  0  0  0  0  0  0  0  0  0
   11.3546  -14.6409    4.7452 O   0  0  0  0  0  0  0  0  0  0  0  0
  1 36  1  1  0  0  0
  2 36  1  6  0  0  0
  2  3  1  0  0  0  0
  3 37  1  1  0  0  0
  3  4  1  0  0  0  0
  4 38  1  6  0  0  0
  5 37  1  6  0  0  0
  5  6  1  0  0  0  0
  6  7  1  0  0  0  0
  6 39  1  1  0  0  0
  7 42  1  6  0  0  0
  8  9  1  6  0  0  0
  8  7  1  0  0  0  0
 10 42  1  6  0  0  0
 10 11  1  0  0  0  0
 11 31  1  6  0  0  0
 11 13  1  0  0  0  0
 12 30  1  1  0  0  0
 12  1  1  0  0  0  0
 14 13  1  0  0  0  0
 15 16  1  6  0  0  0
 15 14  1  0  0  0  0
 17 19  1  6  0  0  0
 17 28  1  0  0  0  0
 18 34  1  0  0  0  0
 19 32  1  0  0  0  0
 20 18  1  1  0  0  0
 20 17  1  0  0  0  0
 20 43  1  0  0  0  0
 21 12  1  0  0  0  0
 22 21  1  0  0  0  0
 22 23  1  0  0  0  0
 23 24  1  6  0  0  0
 23 46  1  0  0  0  0
 24 33  1  0  0  0  0
 25 34  1  1  0  0  0
 25  4  1  0  0  0  0
 26 25  1  0  0  0  0
 27 35  1  1  0  0  0
 27 26  1  0  0  0  0
 27  2  1  0  0  0  0
 29 16  1  0  0  0  0
 40  8  1  0  0  0  0
 40  5  1  0  0  0  0
 41  9  1  0  0  0  0
 44 18  2  0  0  0  0
 45 15  1  0  0  0  0
 45 10  1  0  0  0  0
 46  1  1  0  0  0  0
M  END
>  <CHROM.1>
-165.97549089,-53.67041010,-58.96173050,-178.36827573,105.80878381,-48.71444411
63.03532538,70.44224812,176.76412727,-99.68777703,80.97350398,65.19534753
-56.56694802,13.19342610,-13.19609638,8.01141527,2.57422197,0.29397284,1.72098900

>  <Name>
lig.pdb

>  <RI>
0

>  <Rbt.Current_Directory>
/home/afrankz/demos/rdock_decoys_rna/rnas/3wru

>  <Rbt.Executable>
rbdock ($Id: //depot/dev/client3/rdock/2013.1/src/exe/rbdock.cxx#4 $)

>  <Rbt.Library>
libRbt.so (2013.1, Build901 2013/11/27)

>  <Rbt.Parameter_File>
/export/apps/rDock/src/rDock_2013.1_src/data/scripts/dock_solv.prm

>  <Rbt.Receptor>
prm/pocket_docking_6.prm

>  <SCORE>
-5.11283

>  <SCORE.INTER>
-3.47586

>  <SCORE.INTER.CONST>
1

>  <SCORE.INTER.POLAR>
0

>  <SCORE.INTER.ROT>
13

>  <SCORE.INTER.SOLV>
24.1051

>  <SCORE.INTER.VDW>
-22.6189

>  <SCORE.INTER.norm>
-0.0755621

>  <SCORE.INTRA>
-1.63697

>  <SCORE.INTRA.DIHEDRAL>
-7.92183

>  <SCORE.INTRA.DIHEDRAL.0>
19.7146

>  <SCORE.INTRA.POLAR>
0

>  <SCORE.INTRA.POLAR.0>
0

>  <SCORE.INTRA.REPUL>
0

>  <SCORE.INTRA.REPUL.0>
0

>  <SCORE.INTRA.SOLV>
2.72782

>  <SCORE.INTRA.SOLV.lig_0>
-116.697

>  <SCORE.INTRA.VDW>
0.96003

>  <SCORE.INTRA.VDW.0>
-7.06424

>  <SCORE.INTRA.norm>
-0.0355864

>  <SCORE.RESTR>
0

>  <SCORE.RESTR.CAVITY>
0

>  <SCORE.RESTR.norm>
0

>  <SCORE.SYSTEM>
0

>  <SCORE.SYSTEM.CONST>
0

>  <SCORE.SYSTEM.DIHEDRAL>
0

>  <SCORE.SYSTEM.SOLV>
0

>  <SCORE.SYSTEM.norm>
0

>  <SCORE.heavy>
46

>  <SCORE.norm>
-0.111148

>  <RMSD>
4.442

$$$$
lig.pdb
 OpenBabel03061811583D
libRbt.so/2013.1/901 2013/11/27
 46 49  0  0  0  0  0  0  0  0999 V2000
   11.9120  -12.8619    4.0028 C   0  0  1  0  0  0  0  0  0  0  0  0
   12.9653  -13.7712    6.1174 C   0  0  1  0  0  0  0  0  0  0  0  0
   12.7191  -15.2739    5.7841 C   0  0  1  0  0  0  0  0  0  0  0  0
   13.8211  -16.1655    6.5546 C   0  0  2  0  0  0  0  0  0  0  0  0
   10.8977  -15.7856    7.4748 C   0  0  2  0  0  0  0  0  0  0  0  0
   11.0151  -14.5149    8.3637 C   0  0  1  0  0  0  0  0  0  0  0  0
    9.9227  -14.8496    9.3503 C   0  0  1  0  0  0  0  0  0  0  0  0
    8.7276  -15.3349    8.4698 C   0  0  1  0  0  0  0  0  0  0  0  0
    7.8211  -14.2247    7.8313 C   0  0  0  0  0  0  0  0  0  0  0  0
   11.3636  -15.5940   11.2087 C   0  0  1  0  0  0  0  0  0  0  0  0
   12.0213  -16.7583   11.8875 C   0  0  1  0  0  0  0  0  0  0  0  0
   10.8565  -11.8038    3.6033 C   0  0  1  0  0  0  0  0  0  0  0  0
   13.0342  -16.2066   12.9524 C   0  0  0  0  0  0  0  0  0  0  0  0
   12.4440  -15.3980   13.9802 C   0  0  0  0  0  0  0  0  0  0  0  0
   11.8279  -14.2419   13.3645 C   0  0  2  0  0  0  0  0  0  0  0  0
   11.1507  -13.3151   14.4494 C   0  0  0  0  0  0  0  0  0  0  0  0
   18.7936  -17.9073    6.7590 C   0  0  2  0  0  0  0  0  0  0  0  0
   16.5021  -17.9342    6.2098 C   0  0  0  0  0  0  0  0  0  0  0  0
   19.7542  -18.1420    7.7245 C   0  0  0  0  0  0  0  0  0  0  0  0
   17.6770  -18.6100    7.0736 C   0  0  1  0  0  0  0  0  0  0  0  0
    9.3928  -12.2571    4.0502 C   0  0  0  0  0  0  0  0  0  0  0  0
    9.0735  -13.6699    3.3615 C   0  0  0  0  0  0  0  0  0  0  0  0
   10.1841  -14.7142    3.8434 C   0  0  1  0  0  0  0  0  0  0  0  0
    9.9714  -16.1014    3.2255 C   0  0  0  0  0  0  0  0  0  0  0  0
   15.2573  -15.7579    6.0049 C   0  0  1  0  0  0  0  0  0  0  0  0
   15.4650  -14.2002    6.4002 C   0  0  0  0  0  0  0  0  0  0  0  0
   14.3784  -13.3124    5.6797 C   0  0  2  0  0  0  0  0  0  0  0  0
   19.3259  -18.2410    5.4571 F   0  0  0  0  0  0  0  0  0  0  0  0
   10.4761  -12.0531   13.8390 N   0  0  0  0  0  0  0  0  0  0  0  0
   11.2574  -10.4845    4.2183 N   0  0  0  0  0  0  0  0  0  0  0  0
   11.1414  -17.5760   12.6020 N   0  0  0  0  0  0  0  0  0  0  0  0
   21.0500  -17.6039    7.9057 N   0  0  0  0  0  0  0  0  0  0  0  0
    8.7950  -16.7027    3.7212 N   0  0  0  0  0  0  0  0  0  0  0  0
   16.2949  -16.5614    6.6758 N   0  0  0  0  0  0  0  0  0  0  0  0
   14.5481  -11.8877    6.0416 N   0  0  0  0  0  0  0  0  0  0  0  0
   12.0360  -12.9495    5.4227 O   0  0  0  0  0  0  0  0  0  0  0  0
   11.3297  -15.5978    6.2504 O   0  0  0  0  0  0  0  0  0  0  0  0
   13.5830  -17.4857    6.2442 O   0  0  0  0  0  0  0  0  0  0  0  0
   12.2955  -14.4852    8.9177 O   0  0  0  0  0  0  0  0  0  0  0  0
    9.4871  -16.1866    7.5960 O   0  0  0  0  0  0  0  0  0  0  0  0
    6.6870  -14.8857    7.2355 O   0  0  0  0  0  0  0  0  0  0  0  0
   10.4100  -15.9473   10.2788 O   0  0  0  0  0  0  0  0  0  0  0  0
   17.7795  -20.0120    6.7419 O   0  0  0  0  0  0  0  0  0  0  0  0
   15.8903  -18.4975    5.2873 O   0  0  0  0  0  0  0  0  0  0  0  0
   10.8173  -14.6746   12.3285 O   0  0  0  0  0  0  0  0  0  0  0  0
   11.5648  -14.2148    3.4505 O   0  0  0  0  0  0  0  0  0  0  0  0
  1 36  1  1  0  0  0
  2 36  1  6  0  0  0
  2  3  1  0  0  0  0
  3 37  1  1  0  0  0
  3  4  1  0  0  0  0
  4 38  1  6  0  0  0
  5 37  1  6  0  0  0
  5  6  1  0  0  0  0
  6  7  1  0  0  0  0
  6 39  1  1  0  0  0
  7 42  1  1  0  0  0
  8  9  1  6  0  0  0
  8  7  1  0  0  0  0
 10 42  1  6  0  0  0
 10 11  1  0  0  0  0
 11 31  1  1  0  0  0
 11 13  1  0  0  0  0
 12 30  1  1  0  0  0
 12  1  1  0  0  0  0
 14 13  1  0  0  0  0
 15 16  1  1  0  0  0
 15 14  1  0  0  0  0
 17 19  1  1  0  0  0
 17 28  1  0  0  0  0
 18 34  1  0  0  0  0
 19 32  1  0  0  0  0
 20 18  1  6  0  0  0
 20 17  1  0  0  0  0
 20 43  1  0  0  0  0
 21 12  1  0  0  0  0
 22 21  1  0  0  0  0
 22 23  1  0  0  0  0
 23 24  1  6  0  0  0
 23 46  1  0  0  0  0
 24 33  1  0  0  0  0
 25 34  1  1  0  0  0
 25  4  1  0  0  0  0
 26 25  1  0  0  0  0
 27 35  1  1  0  0  0
 27 26  1  0  0  0  0
 27  2  1  0  0  0  0
 29 16  1  0  0  0  0
 40  8  1  0  0  0  0
 40  5  1  0  0  0  0
 41  9  1  0  0  0  0
 44 18  2  0  0  0  0
 45 15  1  0  0  0  0
 45 10  1  0  0  0  0
 46  1  1  0  0  0  0
M  END
>  <CHROM.1>
-176.50052973,-61.12745783,-75.29447722,64.08236100,71.77604385,-171.77055310
-167.27646830,179.82436399,-176.06704622,-65.39945924,162.38076572,-67.66470554
78.91269425,12.70699507,-15.35934179,7.50330129,2.97095465,-0.43118556,1.68133202

>  <Name>
lig.pdb

>  <RI>
0

>  <Rbt.Current_Directory>
/home/afrankz/demos/rdock_decoys_rna/rnas/3wru

>  <Rbt.Executable>
rbdock ($Id: //depot/dev/client3/rdock/2013.1/src/exe/rbdock.cxx#4 $)

>  <Rbt.Library>
libRbt.so (2013.1, Build901 2013/11/27)

>  <Rbt.Parameter_File>
/export/apps/rDock/src/rDock_2013.1_src/data/scripts/dock_solv.prm

>  <Rbt.Receptor>
prm/pocket_docking_7.prm

>  <SCORE>
-7.04208

>  <SCORE.INTER>
-0.518226

>  <SCORE.INTER.CONST>
1

>  <SCORE.INTER.POLAR>
0

>  <SCORE.INTER.ROT>
13

>  <SCORE.INTER.SOLV>
20.5569

>  <SCORE.INTER.VDW>
-19.4644

>  <SCORE.INTER.norm>
-0.0112658

>  <SCORE.INTRA>
-6.52386

>  <SCORE.INTRA.DIHEDRAL>
-14.2632

>  <SCORE.INTRA.DIHEDRAL.0>
19.7146

>  <SCORE.INTRA.POLAR>
0

>  <SCORE.INTRA.POLAR.0>
0

>  <SCORE.INTRA.REPUL>
0

>  <SCORE.INTRA.REPUL.0>
0

>  <SCORE.INTRA.SOLV>
-1.32474

>  <SCORE.INTRA.SOLV.lig_0>
-116.697

>  <SCORE.INTRA.VDW>
1.27011

>  <SCORE.INTRA.VDW.0>
-7.06424

>  <SCORE.INTRA.norm>
-0.141823

>  <SCORE.RESTR>
0

>  <SCORE.RESTR.CAVITY>
0

>  <SCORE.RESTR.norm>
0

>  <SCORE.SYSTEM>
0

>  <SCORE.SYSTEM.CONST>
0

>  <SCORE.SYSTEM.DIHEDRAL>
0

>  <SCORE.SYSTEM.SOLV>
0

>  <SCORE.SYSTEM.norm>
0

>  <SCORE.heavy>
46

>  <SCORE.norm>
-0.153089

>  <RMSD>
4.607

$$$$
lig.pdb
 OpenBabel03061811583D
libRbt.so/2013.1/901 2013/11/27
 46 49  0  0  0  0  0  0  0  0999 V2000
   11.1220  -12.7180    3.4521 C   0  0  1  0  0  0  0  0  0  0  0  0
   12.5199  -11.6553    5.2754 C   0  0  1  0  0  0  0  0  0  0  0  0
   13.3991  -12.9083    5.5694 C   0  0  1  0  0  0  0  0  0  0  0  0
   14.8127  -12.4219    6.1761 C   0  0  2  0  0  0  0  0  0  0  0  0
   12.1571  -13.4030    7.7259 C   0  0  2  0  0  0  0  0  0  0  0  0
   11.5358  -14.5978    8.5038 C   0  0  1  0  0  0  0  0  0  0  0  0
   11.7016  -14.0461    9.8992 C   0  0  1  0  0  0  0  0  0  0  0  0
   13.1614  -13.4925    9.9363 C   0  0  1  0  0  0  0  0  0  0  0  0
   14.3068  -14.5312   10.2028 C   0  0  0  0  0  0  0  0  0  0  0  0
   10.6721  -12.3526   11.3674 C   0  0  1  0  0  0  0  0  0  0  0  0
   10.2985  -13.2809   12.4843 C   0  0  1  0  0  0  0  0  0  0  0  0
    9.6456  -12.6932    2.9905 C   0  0  1  0  0  0  0  0  0  0  0  0
   10.2715  -12.4627   13.8238 C   0  0  0  0  0  0  0  0  0  0  0  0
    9.3331  -11.3776   13.8461 C   0  0  0  0  0  0  0  0  0  0  0  0
    9.6839  -10.4396   12.8010 C   0  0  2  0  0  0  0  0  0  0  0  0
    8.6770   -9.2229   12.7698 C   0  0  0  0  0  0  0  0  0  0  0  0
   19.6140  -11.9524    6.9891 C   0  0  2  0  0  0  0  0  0  0  0  0
   18.0325  -11.8833    5.2436 C   0  0  0  0  0  0  0  0  0  0  0  0
   20.8641  -11.6006    7.4620 C   0  0  0  0  0  0  0  0  0  0  0  0
   19.3326  -11.2000    5.8964 C   0  0  1  0  0  0  0  0  0  0  0  0
    8.7251  -13.5568    3.9676 C   0  0  0  0  0  0  0  0  0  0  0  0
    9.2901  -15.0577    3.9922 C   0  0  0  0  0  0  0  0  0  0  0  0
   10.8032  -15.0051    4.5056 C   0  0  1  0  0  0  0  0  0  0  0  0
   11.4400  -16.3993    4.5529 C   0  0  0  0  0  0  0  0  0  0  0  0
   15.5462  -11.5415    5.0726 C   0  0  1  0  0  0  0  0  0  0  0  0
   14.6012  -10.2481    4.8276 C   0  0  0  0  0  0  0  0  0  0  0  0
   13.2014  -10.7037    4.2611 C   0  0  2  0  0  0  0  0  0  0  0  0
   18.6389  -11.8049    8.0460 F   0  0  0  0  0  0  0  0  0  0  0  0
    8.5948   -8.4636   14.1252 N   0  0  0  0  0  0  0  0  0  0  0  0
    9.2012  -11.2524    2.9140 N   0  0  0  0  0  0  0  0  0  0  0  0
    9.0217  -13.8366   12.3639 N   0  0  0  0  0  0  0  0  0  0  0  0
   21.6667  -12.1540    8.4872 N   0  0  0  0  0  0  0  0  0  0  0  0
   11.5662  -16.9437    3.2572 N   0  0  0  0  0  0  0  0  0  0  0  0
   16.8517  -11.0867    5.5838 N   0  0  0  0  0  0  0  0  0  0  0  0
   12.3226   -9.5332    4.0441 N   0  0  0  0  0  0  0  0  0  0  0  0
   11.2786  -12.0431    4.7007 O   0  0  0  0  0  0  0  0  0  0  0  0
   12.6398  -13.7472    6.5556 O   0  0  0  0  0  0  0  0  0  0  0  0
   15.5696  -13.5447    6.4263 O   0  0  0  0  0  0  0  0  0  0  0  0
   10.2076  -14.7397    8.0999 O   0  0  0  0  0  0  0  0  0  0  0  0
   13.1271  -12.8201    8.6664 O   0  0  0  0  0  0  0  0  0  0  0  0
   14.3164  -15.4542    9.0955 O   0  0  0  0  0  0  0  0  0  0  0  0
   10.6833  -12.9427   10.1222 O   0  0  0  0  0  0  0  0  0  0  0  0
   19.0474   -9.8211    6.2179 O   0  0  0  0  0  0  0  0  0  0  0  0
   18.0491  -12.9140    4.5507 O   0  0  0  0  0  0  0  0  0  0  0  0
    9.7192  -11.1355   11.4607 O   0  0  0  0  0  0  0  0  0  0  0  0
   11.6298  -14.1256    3.5818 O   0  0  0  0  0  0  0  0  0  0  0  0
  1 36  1  1  0  0  0
  2 36  1  6  0  0  0
  2  3  1  0  0  0  0
  3 37  1  1  0  0  0
  3  4  1  0  0  0  0
  4 38  1  6  0  0  0
  5 37  1  6  0  0  0
  5  6  1  0  0  0  0
  6  7  1  0  0  0  0
  6 39  1  6  0  0  0
  7 42  1  6  0  0  0
  8  9  1  6  0  0  0
  8  7  1  0  0  0  0
 10 42  1  6  0  0  0
 10 11  1  0  0  0  0
 11 31  1  6  0  0  0
 11 13  1  0  0  0  0
 12 30  1  1  0  0  0
 12  1  1  0  0  0  0
 14 13  1  0  0  0  0
 15 16  1  6  0  0  0
 15 14  1  0  0  0  0
 17 19  1  1  0  0  0
 17 28  1  0  0  0  0
 18 34  1  0  0  0  0
 19 32  1  0  0  0  0
 20 18  1  1  0  0  0
 20 17  1  0  0  0  0
 20 43  1  0  0  0  0
 21 12  1  0  0  0  0
 22 21  1  0  0  0  0
 22 23  1  0  0  0  0
 23 24  1  6  0  0  0
 23 46  1  0  0  0  0
 24 33  1  0  0  0  0
 25 34  1  1  0  0  0
 25  4  1  0  0  0  0
 26 25  1  0  0  0  0
 27 35  1  1  0  0  0
 27 26  1  0  0  0  0
 27  2  1  0  0  0  0
 29 16  1  0  0  0  0
 40  8  1  0  0  0  0
 40  5  1  0  0  0  0
 41  9  1  0  0  0  0
 44 18  2  0  0  0  0
 45 15  1  0  0  0  0
 45 10  1  0  0  0  0
 46  1  1  0  0  0  0
M  END
>  <CHROM.1>
-167.02840666,-62.31621774,-54.83002275,-175.03282006,178.21919447,63.96850550
-63.95408004,57.09176081,-173.57666664,102.47682600,168.29422403,65.64441624
95.10966297,13.05903171,-12.59972951,7.44238401,0.59545729,-0.16006210,-1.78351303

>  <Name>
lig.pdb

>  <RI>
0

>  <Rbt.Current_Directory>
/home/afrankz/demos/rdock_decoys_rna/rnas/3wru

>  <Rbt.Executable>
rbdock ($Id: //depot/dev/client3/rdock/2013.1/src/exe/rbdock.cxx#4 $)

>  <Rbt.Library>
libRbt.so (2013.1, Build901 2013/11/27)

>  <Rbt.Parameter_File>
/export/apps/rDock/src/rDock_2013.1_src/data/scripts/dock_solv.prm

>  <Rbt.Receptor>
prm/pocket_docking_8.prm

>  <SCORE>
-9.51996

>  <SCORE.INTER>
-3.02088

>  <SCORE.INTER.CONST>
1

>  <SCORE.INTER.POLAR>
0

>  <SCORE.INTER.ROT>
13

>  <SCORE.INTER.SOLV>
25.5722

>  <SCORE.INTER.VDW>
-22.8047

>  <SCORE.INTER.norm>
-0.0656713

>  <SCORE.INTRA>
-6.49908

>  <SCORE.INTRA.DIHEDRAL>
-14.6458

>  <SCORE.INTRA.DIHEDRAL.0>
19.7146

>  <SCORE.INTRA.POLAR>
0

>  <SCORE.INTRA.POLAR.0>
0

>  <SCORE.INTRA.REPUL>
0

>  <SCORE.INTRA.REPUL.0>
0

>  <SCORE.INTRA.SOLV>
0.346277

>  <SCORE.INTRA.SOLV.lig_0>
-116.697

>  <SCORE.INTRA.VDW>
0.650675

>  <SCORE.INTRA.VDW.0>
-7.06424

>  <SCORE.INTRA.norm>
-0.141284

>  <SCORE.RESTR>
0

>  <SCORE.RESTR.CAVITY>
0

>  <SCORE.RESTR.norm>
0

>  <SCORE.SYSTEM>
0

>  <SCORE.SYSTEM.CONST>
0

>  <SCORE.SYSTEM.DIHEDRAL>
0

>  <SCORE.SYSTEM.SOLV>
0

>  <SCORE.SYSTEM.norm>
0

>  <SCORE.heavy>
46

>  <SCORE.norm>
-0.206956

>  <RMSD>
4.799

$$$$
lig.pdb
 OpenBabel03061811583D
libRbt.so/2013.1/901 2013/11/27
 46 49  0  0  0  0  0  0  0  0999 V2000
    8.7919  -12.1880    8.2401 C   0  0  1  0  0  0  0  0  0  0  0  0
   11.3212  -12.1262    8.1579 C   0  0  1  0  0  0  0  0  0  0  0  0
   12.4936  -13.0573    8.5916 C   0  0  1  0  0  0  0  0  0  0  0  0
   13.8855  -12.2629    8.4062 C   0  0  2  0  0  0  0  0  0  0  0  0
   11.5140  -14.3767   10.5249 C   0  0  2  0  0  0  0  0  0  0  0  0
   12.0342  -15.7948   10.1548 C   0  0  1  0  0  0  0  0  0  0  0  0
   11.4364  -16.5461   11.3197 C   0  0  1  0  0  0  0  0  0  0  0  0
   11.7624  -15.6667   12.5685 C   0  0  1  0  0  0  0  0  0  0  0  0
   13.1936  -15.8239   13.1919 C   0  0  0  0  0  0  0  0  0  0  0  0
    9.2435  -17.4046   12.0532 C   0  0  1  0  0  0  0  0  0  0  0  0
    9.7433  -18.8057   12.2427 C   0  0  1  0  0  0  0  0  0  0  0  0
    8.3779  -11.7040    9.6499 C   0  0  1  0  0  0  0  0  0  0  0  0
    8.8267  -19.5231   13.2960 C   0  0  0  0  0  0  0  0  0  0  0  0
    7.4438  -19.6156   12.9248 C   0  0  0  0  0  0  0  0  0  0  0  0
    6.9155  -18.2773   12.7671 C   0  0  2  0  0  0  0  0  0  0  0  0
    5.3930  -18.3147   12.3480 C   0  0  0  0  0  0  0  0  0  0  0  0
   18.8638  -11.7453    6.5616 C   0  0  2  0  0  0  0  0  0  0  0  0
   16.5281  -12.0077    6.3921 C   0  0  0  0  0  0  0  0  0  0  0  0
   20.0056  -11.0940    6.1346 C   0  0  0  0  0  0  0  0  0  0  0  0
   17.7807  -11.0227    6.1820 C   0  0  1  0  0  0  0  0  0  0  0  0
    8.1440  -12.9387   10.6341 C   0  0  0  0  0  0  0  0  0  0  0  0
    7.0111  -13.8791    9.9981 C   0  0  0  0  0  0  0  0  0  0  0  0
    7.5216  -14.3617    8.5620 C   0  0  1  0  0  0  0  0  0  0  0  0
    6.4960  -15.2623    7.8632 C   0  0  0  0  0  0  0  0  0  0  0  0
   14.0582  -11.9244    6.8614 C   0  0  1  0  0  0  0  0  0  0  0  0
   12.8303  -10.9395    6.4765 C   0  0  0  0  0  0  0  0  0  0  0  0
   11.4564  -11.6876    6.6786 C   0  0  2  0  0  0  0  0  0  0  0  0
   18.9334  -11.9553    7.9902 F   0  0  0  0  0  0  0  0  0  0  0  0
    4.4799  -18.9721   13.4223 N   0  0  0  0  0  0  0  0  0  0  0  0
    9.4460  -10.7651   10.1570 N   0  0  0  0  0  0  0  0  0  0  0  0
    9.6765  -19.5977   11.0931 N   0  0  0  0  0  0  0  0  0  0  0  0
   21.3627  -11.4932    6.1255 N   0  0  0  0  0  0  0  0  0  0  0  0
    7.0182  -15.7899    6.6632 N   0  0  0  0  0  0  0  0  0  0  0  0
   15.3281  -11.2078    6.6465 N   0  0  0  0  0  0  0  0  0  0  0  0
   10.3247  -10.7956    6.3427 N   0  0  0  0  0  0  0  0  0  0  0  0
   10.0782  -12.8074    8.2696 O   0  0  0  0  0  0  0  0  0  0  0  0
   12.2536  -13.4128   10.0300 O   0  0  0  0  0  0  0  0  0  0  0  0
   14.9032  -13.1051    8.7947 O   0  0  0  0  0  0  0  0  0  0  0  0
   11.5009  -16.1466    8.9142 O   0  0  0  0  0  0  0  0  0  0  0  0
   11.4006  -14.4009   11.9918 O   0  0  0  0  0  0  0  0  0  0  0  0
   14.1421  -15.3465   12.2169 O   0  0  0  0  0  0  0  0  0  0  0  0
    9.9389  -16.6795   11.1100 O   0  0  0  0  0  0  0  0  0  0  0  0
   17.5955   -9.8259    6.9691 O   0  0  0  0  0  0  0  0  0  0  0  0
   16.5858  -13.2468    6.3291 O   0  0  0  0  0  0  0  0  0  0  0  0
    7.7281  -17.5080   11.7524 O   0  0  0  0  0  0  0  0  0  0  0  0
    7.7886  -13.1543    7.6783 O   0  0  0  0  0  0  0  0  0  0  0  0
  1 36  1  1  0  0  0
  2 36  1  6  0  0  0
  2  3  1  0  0  0  0
  3 37  1  1  0  0  0
  3  4  1  0  0  0  0
  4 38  1  6  0  0  0
  5 37  1  1  0  0  0
  5  6  1  0  0  0  0
  6  7  1  0  0  0  0
  6 39  1  6  0  0  0
  7 42  1  6  0  0  0
  8  9  1  6  0  0  0
  8  7  1  0  0  0  0
 10 42  1  6  0  0  0
 10 11  1  0  0  0  0
 11 31  1  6  0  0  0
 11 13  1  0  0  0  0
 12 30  1  1  0  0  0
 12  1  1  0  0  0  0
 14 13  1  0  0  0  0
 15 16  1  6  0  0  0
 15 14  1  0  0  0  0
 17 19  1  1  0  0  0
 17 28  1  0  0  0  0
 18 34  1  0  0  0  0
 19 32  1  0  0  0  0
 20 18  1  1  0  0  0
 20 17  1  0  0  0  0
 20 43  1  0  0  0  0
 21 12  1  0  0  0  0
 22 21  1  0  0  0  0
 22 23  1  0  0  0  0
 23 24  1  6  0  0  0
 23 46  1  0  0  0  0
 24 33  1  0  0  0  0
 25 34  1  1  0  0  0
 25  4  1  0  0  0  0
 26 25  1  0  0  0  0
 27 35  1  1  0  0  0
 27 26  1  0  0  0  0
 27  2  1  0  0  0  0
 29 16  1  0  0  0  0
 40  8  1  0  0  0  0
 40  5  1  0  0  0  0
 41  9  1  0  0  0  0
 44 18  2  0  0  0  0
 45 15  1  0  0  0  0
 45 10  1  0  0  0  0
 46  1  1  0  0  0  0
M  END
>  <CHROM.1>
-86.13895922,165.55310382,85.37447091,64.36026595,176.72446881,65.60099153
-56.60574623,62.78308710,-171.18698963,152.82757590,166.61346022,-173.88952501
88.87996929,11.65891474,-14.22103095,9.37701451,2.48254169,0.01437692,2.43905065

>  <Name>
lig.pdb

>  <RI>
0

>  <Rbt.Current_Directory>
/home/afrankz/demos/rdock_decoys_rna/rnas/3wru

>  <Rbt.Executable>
rbdock ($Id: //depot/dev/client3/rdock/2013.1/src/exe/rbdock.cxx#4 $)

>  <Rbt.Library>
libRbt.so (2013.1, Build901 2013/11/27)

>  <Rbt.Parameter_File>
/export/apps/rDock/src/rDock_2013.1_src/data/scripts/dock_solv.prm

>  <Rbt.Receptor>
prm/pocket_docking_5.prm

>  <SCORE>
-3.4912

>  <SCORE.INTER>
-0.275977

>  <SCORE.INTER.CONST>
1

>  <SCORE.INTER.POLAR>
0

>  <SCORE.INTER.ROT>
13

>  <SCORE.INTER.SOLV>
24.9833

>  <SCORE.INTER.VDW>
-20.7784

>  <SCORE.INTER.norm>
-0.0059995

>  <SCORE.INTRA>
-3.21523

>  <SCORE.INTRA.DIHEDRAL>
-9.49682

>  <SCORE.INTRA.DIHEDRAL.0>
19.7146

>  <SCORE.INTRA.POLAR>
0

>  <SCORE.INTRA.POLAR.0>
0

>  <SCORE.INTRA.REPUL>
0

>  <SCORE.INTRA.REPUL.0>
0

>  <SCORE.INTRA.SOLV>
0.896562

>  <SCORE.INTRA.SOLV.lig_0>
-116.697

>  <SCORE.INTRA.VDW>
1.0849

>  <SCORE.INTRA.VDW.0>
-7.06424

>  <SCORE.INTRA.norm>
-0.0698962

>  <SCORE.RESTR>
0

>  <SCORE.RESTR.CAVITY>
0

>  <SCORE.RESTR.norm>
0

>  <SCORE.SYSTEM>
0

>  <SCORE.SYSTEM.CONST>
0

>  <SCORE.SYSTEM.DIHEDRAL>
0

>  <SCORE.SYSTEM.SOLV>
0

>  <SCORE.SYSTEM.norm>
0

>  <SCORE.heavy>
46

>  <SCORE.norm>
-0.0758957

>  <RMSD>
4.811

$$$$
lig.pdb
 OpenBabel03061811583D
libRbt.so/2013.1/901 2013/11/27
 46 49  0  0  0  0  0  0  0  0999 V2000
   13.3434  -14.5479    5.6149 C   0  0  1  0  0  0  0  0  0  0  0  0
   15.7880  -15.1342    5.9122 C   0  0  1  0  0  0  0  0  0  0  0  0
   15.6299  -16.5060    6.6354 C   0  0  1  0  0  0  0  0  0  0  0  0
   16.9654  -16.8004    7.4913 C   0  0  2  0  0  0  0  0  0  0  0  0
   14.3373  -15.8667    8.7232 C   0  0  2  0  0  0  0  0  0  0  0  0
   12.8782  -15.8129    9.2587 C   0  0  1  0  0  0  0  0  0  0  0  0
   13.1982  -15.8112   10.7340 C   0  0  1  0  0  0  0  0  0  0  0  0
   14.2760  -16.9280   10.9077 C   0  0  1  0  0  0  0  0  0  0  0  0
   13.7559  -18.4045   11.0146 C   0  0  0  0  0  0  0  0  0  0  0  0
   12.8753  -13.5982   11.7741 C   0  0  1  0  0  0  0  0  0  0  0  0
   12.2743  -14.1703   13.0233 C   0  0  1  0  0  0  0  0  0  0  0  0
   12.3026  -14.5156    4.4707 C   0  0  1  0  0  0  0  0  0  0  0  0
   11.2719  -13.1198   13.6199 C   0  0  0  0  0  0  0  0  0  0  0  0
   10.1847  -12.7671   12.7526 C   0  0  0  0  0  0  0  0  0  0  0  0
   10.7260  -12.1768   11.5469 C   0  0  2  0  0  0  0  0  0  0  0  0
    9.5727  -11.7749   10.5453 C   0  0  0  0  0  0  0  0  0  0  0  0
   22.2014  -16.6838    7.8266 C   0  0  2  0  0  0  0  0  0  0  0  0
   20.5715  -17.7073    6.4668 C   0  0  0  0  0  0  0  0  0  0  0  0
   23.1224  -16.7835    8.8522 C   0  0  0  0  0  0  0  0  0  0  0  0
   21.8054  -17.9316    7.4721 C   0  0  1  0  0  0  0  0  0  0  0  0
   12.5865  -13.3035    3.4718 C   0  0  0  0  0  0  0  0  0  0  0  0
   12.5499  -11.9398    4.3152 C   0  0  0  0  0  0  0  0  0  0  0  0
   13.6677  -12.0358    5.4541 C   0  0  1  0  0  0  0  0  0  0  0  0
   13.7037  -10.7762    6.3280 C   0  0  0  0  0  0  0  0  0  0  0  0
   18.1875  -16.9049    6.4781 C   0  0  1  0  0  0  0  0  0  0  0  0
   18.3168  -15.4494    5.7775 C   0  0  0  0  0  0  0  0  0  0  0  0
   17.0080  -15.1281    4.9580 C   0  0  2  0  0  0  0  0  0  0  0  0
   22.7783  -15.9387    6.7304 F   0  0  0  0  0  0  0  0  0  0  0  0
    8.7384  -12.9928   10.0543 N   0  0  0  0  0  0  0  0  0  0  0  0
   12.3340  -15.8520    3.7690 N   0  0  0  0  0  0  0  0  0  0  0  0
   11.5186  -15.3277   12.8168 N   0  0  0  0  0  0  0  0  0  0  0  0
   24.4304  -17.3213    8.8866 N   0  0  0  0  0  0  0  0  0  0  0  0
   12.5344  -10.6679    7.1103 N   0  0  0  0  0  0  0  0  0  0  0  0
   19.4288  -17.1873    7.2208 N   0  0  0  0  0  0  0  0  0  0  0  0
   17.1067  -13.7955    4.3225 N   0  0  0  0  0  0  0  0  0  0  0  0
   14.6441  -14.8586    5.1140 O   0  0  0  0  0  0  0  0  0  0  0  0
   14.4253  -16.3900    7.5234 O   0  0  0  0  0  0  0  0  0  0  0  0
   16.8014  -18.0151    8.1187 O   0  0  0  0  0  0  0  0  0  0  0  0
   12.2873  -14.6345    8.8012 O   0  0  0  0  0  0  0  0  0  0  0  0
   15.0876  -16.5668    9.7778 O   0  0  0  0  0  0  0  0  0  0  0  0
   14.9019  -19.2486   11.2432 O   0  0  0  0  0  0  0  0  0  0  0  0
   13.7425  -14.4488   11.1235 O   0  0  0  0  0  0  0  0  0  0  0  0
   22.8425  -18.6863    6.8080 O   0  0  0  0  0  0  0  0  0  0  0  0
   20.6061  -17.9302    5.2455 O   0  0  0  0  0  0  0  0  0  0  0  0
   11.6968  -13.1274   10.8868 O   0  0  0  0  0  0  0  0  0  0  0  0
   13.3930  -13.2363    6.3449 O   0  0  0  0  0  0  0  0  0  0  0  0
  1 36  1  6  0  0  0
  2 36  1  6  0  0  0
  2  3  1  0  0  0  0
  3 37  1  1  0  0  0
  3  4  1  0  0  0  0
  4 38  1  6  0  0  0
  5 37  1  6  0  0  0
  5  6  1  0  0  0  0
  6  7  1  0  0  0  0
  6 39  1  6  0  0  0
  7 42  1  6  0  0  0
  8  9  1  6  0  0  0
  8  7  1  0  0  0  0
 10 42  1  6  0  0  0
 10 11  1  0  0  0  0
 11 31  1  6  0  0  0
 11 13  1  0  0  0  0
 12 30  1  6  0  0  0
 12  1  1  0  0  0  0
 14 13  1  0  0  0  0
 15 16  1  6  0  0  0
 15 14  1  0  0  0  0
 17 19  1  1  0  0  0
 17 28  1  0  0  0  0
 18 34  1  0  0  0  0
 19 32  1  0  0  0  0
 20 18  1  6  0  0  0
 20 17  1  0  0  0  0
 20 43  1  0  0  0  0
 21 12  1  0  0  0  0
 22 21  1  0  0  0  0
 22 23  1  0  0  0  0
 23 24  1  1  0  0  0
 23 46  1  0  0  0  0
 24 33  1  0  0  0  0
 25 34  1  1  0  0  0
 25  4  1  0  0  0  0
 26 25  1  0  0  0  0
 27 35  1  1  0  0  0
 27 26  1  0  0  0  0
 27  2  1  0  0  0  0
 29 16  1  0  0  0  0
 40  8  1  0  0  0  0
 40  5  1  0  0  0  0
 41  9  1  0  0  0  0
 44 18  2  0  0  0  0
 45 15  1  0  0  0  0
 45 10  1  0  0  0  0
 46  1  1  0  0  0  0
M  END
>  <CHROM.1>
-171.51307653,69.66862121,-82.31103433,174.35464679,102.40877989,-176.83890355
55.91223236,-62.39930375,66.19128266,-69.60874677,170.68675396,68.07946425
162.22645973,15.32109222,-15.21620392,8.11503540,2.97636959,-0.43473237,1.87301864

>  <Name>
lig.pdb

>  <RI>
0

>  <Rbt.Current_Directory>
/home/afrankz/demos/rdock_decoys_rna/rnas/3wru

>  <Rbt.Executable>
rbdock ($Id: //depot/dev/client3/rdock/2013.1/src/exe/rbdock.cxx#4 $)

>  <Rbt.Library>
libRbt.so (2013.1, Build901 2013/11/27)

>  <Rbt.Parameter_File>
/export/apps/rDock/src/rDock_2013.1_src/data/scripts/dock_solv.prm

>  <Rbt.Receptor>
prm/pocket_docking_6.prm

>  <SCORE>
0.550377

>  <SCORE.INTER>
2.26523

>  <SCORE.INTER.CONST>
1

>  <SCORE.INTER.POLAR>
0

>  <SCORE.INTER.ROT>
13

>  <SCORE.INTER.SOLV>
16.1795

>  <SCORE.INTER.VDW>
-16.1497

>  <SCORE.INTER.norm>
0.0492441

>  <SCORE.INTRA>
-1.71485

>  <SCORE.INTRA.DIHEDRAL>
-8.70829

>  <SCORE.INTRA.DIHEDRAL.0>
19.7146

>  <SCORE.INTRA.POLAR>
0

>  <SCORE.INTRA.POLAR.0>
0

>  <SCORE.INTRA.REPUL>
0.000246206

>  <SCORE.INTRA.REPUL.0>
0

>  <SCORE.INTRA.SOLV>
2.52527

>  <SCORE.INTRA.SOLV.lig_0>
-116.697

>  <SCORE.INTRA.VDW>
1.37542

>  <SCORE.INTRA.VDW.0>
-7.06424

>  <SCORE.INTRA.norm>
-0.0372794

>  <SCORE.RESTR>
0

>  <SCORE.RESTR.CAVITY>
0

>  <SCORE.RESTR.norm>
0

>  <SCORE.SYSTEM>
0

>  <SCORE.SYSTEM.CONST>
0

>  <SCORE.SYSTEM.DIHEDRAL>
0

>  <SCORE.SYSTEM.SOLV>
0

>  <SCORE.SYSTEM.norm>
0

>  <SCORE.heavy>
46

>  <SCORE.norm>
0.0119647

>  <RMSD>
4.888

$$$$
lig.pdb
 OpenBabel03061811583D
libRbt.so/2013.1/901 2013/11/27
 46 49  0  0  0  0  0  0  0  0999 V2000
   10.6133  -12.5328    9.5807 C   0  0  1  0  0  0  0  0  0  0  0  0
   12.2649  -14.3747   10.1171 C   0  0  1  0  0  0  0  0  0  0  0  0
   12.8504  -14.5669    8.6853 C   0  0  1  0  0  0  0  0  0  0  0  0
   14.3568  -15.1309    8.8100 C   0  0  2  0  0  0  0  0  0  0  0  0
   11.5936  -16.7472    8.3613 C   0  0  2  0  0  0  0  0  0  0  0  0
   11.7695  -17.8178    7.2471 C   0  0  1  0  0  0  0  0  0  0  0  0
   11.9081  -19.0268    8.1404 C   0  0  1  0  0  0  0  0  0  0  0  0
   12.9086  -18.5841    9.2550 C   0  0  1  0  0  0  0  0  0  0  0  0
   14.4364  -18.6578    8.9058 C   0  0  0  0  0  0  0  0  0  0  0  0
   10.5159  -20.3858    9.6566 C   0  0  1  0  0  0  0  0  0  0  0  0
   10.9300  -21.7269    9.1285 C   0  0  1  0  0  0  0  0  0  0  0  0
    9.1114  -12.2351    9.8013 C   0  0  1  0  0  0  0  0  0  0  0  0
   10.7881  -22.7819   10.2822 C   0  0  0  0  0  0  0  0  0  0  0  0
    9.4593  -22.9264   10.8039 C   0  0  0  0  0  0  0  0  0  0  0  0
    9.0374  -21.6569   11.3564 C   0  0  2  0  0  0  0  0  0  0  0  0
    7.5726  -21.7513   11.9400 C   0  0  0  0  0  0  0  0  0  0  0  0
   19.1770  -15.6068    8.2320 C   0  0  2  0  0  0  0  0  0  0  0  0
   17.6223  -13.9278    8.7944 C   0  0  0  0  0  0  0  0  0  0  0  0
   20.4461  -16.1425    8.3445 C   0  0  0  0  0  0  0  0  0  0  0  0
   19.0559  -14.5815    9.1114 C   0  0  1  0  0  0  0  0  0  0  0  0
    8.2006  -13.1740    8.8865 C   0  0  0  0  0  0  0  0  0  0  0  0
    8.6113  -12.9324    7.3551 C   0  0  0  0  0  0  0  0  0  0  0  0
   10.1622  -13.2879    7.1999 C   0  0  1  0  0  0  0  0  0  0  0  0
   10.6568  -13.0759    5.7640 C   0  0  0  0  0  0  0  0  0  0  0  0
   15.2311  -14.0389    9.5675 C   0  0  1  0  0  0  0  0  0  0  0  0
   14.5923  -13.9005   11.0504 C   0  0  0  0  0  0  0  0  0  0  0  0
   13.1076  -13.3774   10.9503 C   0  0  2  0  0  0  0  0  0  0  0  0
   18.1941  -16.6472    8.4346 F   0  0  0  0  0  0  0  0  0  0  0  0
    6.5180  -22.1735   10.8771 N   0  0  0  0  0  0  0  0  0  0  0  0
    8.8095  -12.4049   11.2708 N   0  0  0  0  0  0  0  0  0  0  0  0
   10.1279  -22.2051    8.0885 N   0  0  0  0  0  0  0  0  0  0  0  0
   21.7183  -15.6090    8.0311 N   0  0  0  0  0  0  0  0  0  0  0  0
    9.9528  -13.8975    4.8583 N   0  0  0  0  0  0  0  0  0  0  0  0
   16.6219  -14.5110    9.6909 N   0  0  0  0  0  0  0  0  0  0  0  0
   12.5068  -13.2581   12.2972 N   0  0  0  0  0  0  0  0  0  0  0  0
   10.9495  -13.8396   10.0483 O   0  0  0  0  0  0  0  0  0  0  0  0
   11.9562  -15.5452    7.9807 O   0  0  0  0  0  0  0  0  0  0  0  0
   14.8507  -15.2914    7.5347 O   0  0  0  0  0  0  0  0  0  0  0  0
   10.6192  -17.8204    6.4571 O   0  0  0  0  0  0  0  0  0  0  0  0
   12.3254  -17.2962    9.5138 O   0  0  0  0  0  0  0  0  0  0  0  0
   15.1676  -18.3292   10.1039 O   0  0  0  0  0  0  0  0  0  0  0  0
   10.5492  -19.3752    8.7204 O   0  0  0  0  0  0  0  0  0  0  0  0
   19.1004  -15.0109   10.4897 O   0  0  0  0  0  0  0  0  0  0  0  0
   17.4183  -13.0564    7.9331 O   0  0  0  0  0  0  0  0  0  0  0  0
    9.1236  -20.5729   10.3079 O   0  0  0  0  0  0  0  0  0  0  0  0
   10.9862  -12.4135    8.1307 O   0  0  0  0  0  0  0  0  0  0  0  0
  1 36  1  6  0  0  0
  2 36  1  6  0  0  0
  2  3  1  0  0  0  0
  3 37  1  6  0  0  0
  3  4  1  0  0  0  0
  4 38  1  6  0  0  0
  5 37  1  6  0  0  0
  5  6  1  0  0  0  0
  6  7  1  0  0  0  0
  6 39  1  6  0  0  0
  7 42  1  1  0  0  0
  8  9  1  6  0  0  0
  8  7  1  0  0  0  0
 10 42  1  6  0  0  0
 10 11  1  0  0  0  0
 11 31  1  6  0  0  0
 11 13  1  0  0  0  0
 12 30  1  1  0  0  0
 12  1  1  0  0  0  0
 14 13  1  0  0  0  0
 15 16  1  6  0  0  0
 15 14  1  0  0  0  0
 17 19  1  1  0  0  0
 17 28  1  0  0  0  0
 18 34  1  0  0  0  0
 19 32  1  0  0  0  0
 20 18  1  6  0  0  0
 20 17  1  0  0  0  0
 20 43  1  0  0  0  0
 21 12  1  0  0  0  0
 22 21  1  0  0  0  0
 22 23  1  0  0  0  0
 23 24  1  6  0  0  0
 23 46  1  0  0  0  0
 24 33  1  0  0  0  0
 25 34  1  1  0  0  0
 25  4  1  0  0  0  0
 26 25  1  0  0  0  0
 27 35  1  1  0  0  0
 27 26  1  0  0  0  0
 27  2  1  0  0  0  0
 29 16  1  0  0  0  0
 40  8  1  0  0  0  0
 40  5  1  0  0  0  0
 41  9  1  0  0  0  0
 44 18  2  0  0  0  0
 45 15  1  0  0  0  0
 45 10  1  0  0  0  0
 46  1  1  0  0  0  0
M  END
>  <CHROM.1>
-173.40319723,-66.77298965,-54.16363162,-131.17640937,-174.35689156,-174.70884786
-63.71841455,-59.00407342,-67.26616799,94.53542747,173.96270437,-60.49498814
103.86929902,12.74477958,-16.40460328,9.07552729,0.59637757,0.02226519,-0.13454047

>  <Name>
lig.pdb

>  <RI>
0

>  <Rbt.Current_Directory>
/home/afrankz/demos/rdock_decoys_rna/rnas/3wru

>  <Rbt.Executable>
rbdock ($Id: //depot/dev/client3/rdock/2013.1/src/exe/rbdock.cxx#4 $)

>  <Rbt.Library>
libRbt.so (2013.1, Build901 2013/11/27)

>  <Rbt.Parameter_File>
/export/apps/rDock/src/rDock_2013.1_src/data/scripts/dock_solv.prm

>  <Rbt.Receptor>
prm/pocket_docking_6.prm

>  <SCORE>
-1.12857

>  <SCORE.INTER>
2.49082

>  <SCORE.INTER.CONST>
1

>  <SCORE.INTER.POLAR>
0

>  <SCORE.INTER.ROT>
13

>  <SCORE.INTER.SOLV>
17.1729

>  <SCORE.INTER.VDW>
-16.3304

>  <SCORE.INTER.norm>
0.0541483

>  <SCORE.INTRA>
-3.61939

>  <SCORE.INTRA.DIHEDRAL>
-8.85551

>  <SCORE.INTRA.DIHEDRAL.0>
19.7146

>  <SCORE.INTRA.POLAR>
0

>  <SCORE.INTRA.POLAR.0>
0

>  <SCORE.INTRA.REPUL>
0

>  <SCORE.INTRA.REPUL.0>
0

>  <SCORE.INTRA.SOLV>
-0.0608274

>  <SCORE.INTRA.SOLV.lig_0>
-116.697

>  <SCORE.INTRA.VDW>
0.838776

>  <SCORE.INTRA.VDW.0>
-7.06424

>  <SCORE.INTRA.norm>
-0.0786824

>  <SCORE.RESTR>
0

>  <SCORE.RESTR.CAVITY>
0

>  <SCORE.RESTR.norm>
0

>  <SCORE.SYSTEM>
0

>  <SCORE.SYSTEM.CONST>
0

>  <SCORE.SYSTEM.DIHEDRAL>
0

>  <SCORE.SYSTEM.SOLV>
0

>  <SCORE.SYSTEM.norm>
0

>  <SCORE.heavy>
46

>  <SCORE.norm>
-0.0245342

>  <RMSD>
5.055

$$$$
lig.pdb
 OpenBabel03061811583D
libRbt.so/2013.1/901 2013/11/27
 46 49  0  0  0  0  0  0  0  0999 V2000
   10.1449  -15.5418    5.8457 C   0  0  1  0  0  0  0  0  0  0  0  0
   12.5849  -16.2095    5.7540 C   0  0  1  0  0  0  0  0  0  0  0  0
   12.5519  -17.5524    6.5449 C   0  0  1  0  0  0  0  0  0  0  0  0
   14.0135  -17.8234    7.1720 C   0  0  2  0  0  0  0  0  0  0  0  0
   11.4996  -16.5566    8.6279 C   0  0  2  0  0  0  0  0  0  0  0  0
   10.5475  -17.0010    9.7745 C   0  0  1  0  0  0  0  0  0  0  0  0
   11.2294  -16.2703   10.9059 C   0  0  1  0  0  0  0  0  0  0  0  0
   12.7502  -16.5675   10.7107 C   0  0  1  0  0  0  0  0  0  0  0  0
   13.2816  -17.9360   11.2643 C   0  0  0  0  0  0  0  0  0  0  0  0
   10.7275  -14.1009   11.9668 C   0  0  1  0  0  0  0  0  0  0  0  0
   11.9617  -13.9246   12.8002 C   0  0  1  0  0  0  0  0  0  0  0  0
    8.9235  -15.5142    4.8967 C   0  0  1  0  0  0  0  0  0  0  0  0
   11.5654  -13.1843   14.1266 C   0  0  0  0  0  0  0  0  0  0  0  0
   10.6050  -13.8768   14.9370 C   0  0  0  0  0  0  0  0  0  0  0  0
    9.3838  -14.0346   14.1762 C   0  0  2  0  0  0  0  0  0  0  0  0
    8.2877  -14.8013   15.0161 C   0  0  0  0  0  0  0  0  0  0  0  0
   19.1835  -17.6943    6.7155 C   0  0  2  0  0  0  0  0  0  0  0  0
   17.4080  -18.7400    5.5722 C   0  0  0  0  0  0  0  0  0  0  0  0
   20.2521  -17.7911    7.5866 C   0  0  0  0  0  0  0  0  0  0  0  0
   18.7918  -18.9442    6.3637 C   0  0  1  0  0  0  0  0  0  0  0  0
    9.0866  -14.3801    3.7855 C   0  0  0  0  0  0  0  0  0  0  0  0
    9.2627  -12.9705    4.5299 C   0  0  0  0  0  0  0  0  0  0  0  0
   10.5560  -13.0663    5.4649 C   0  0  1  0  0  0  0  0  0  0  0  0
   10.8039  -11.7630    6.2338 C   0  0  0  0  0  0  0  0  0  0  0  0
   15.0456  -17.9734    5.9707 C   0  0  1  0  0  0  0  0  0  0  0  0
   15.0541  -16.5459    5.2038 C   0  0  0  0  0  0  0  0  0  0  0  0
   13.6250  -16.2468    4.6070 C   0  0  2  0  0  0  0  0  0  0  0  0
   19.5561  -16.8767    5.5832 F   0  0  0  0  0  0  0  0  0  0  0  0
    6.9400  -14.9648   14.2563 N   0  0  0  0  0  0  0  0  0  0  0  0
    8.7681  -16.8882    4.2906 N   0  0  0  0  0  0  0  0  0  0  0  0
   12.5532  -15.1236   13.2078 N   0  0  0  0  0  0  0  0  0  0  0  0
   21.0261  -16.7985    8.2323 N   0  0  0  0  0  0  0  0  0  0  0  0
    9.7533  -11.4999    7.1383 N   0  0  0  0  0  0  0  0  0  0  0  0
   16.3951  -18.2361    6.5020 N   0  0  0  0  0  0  0  0  0  0  0  0
   13.6144  -14.9395    3.9140 N   0  0  0  0  0  0  0  0  0  0  0  0
   11.3221  -15.9565    5.1518 O   0  0  0  0  0  0  0  0  0  0  0  0
   11.5158  -17.3956    7.6194 O   0  0  0  0  0  0  0  0  0  0  0  0
   13.9583  -19.0128    7.8636 O   0  0  0  0  0  0  0  0  0  0  0  0
    9.2650  -16.5340    9.4841 O   0  0  0  0  0  0  0  0  0  0  0  0
   12.7939  -16.3376    9.2926 O   0  0  0  0  0  0  0  0  0  0  0  0
   14.6760  -18.0305   10.9107 O   0  0  0  0  0  0  0  0  0  0  0  0
   10.9342  -14.7859   10.7892 O   0  0  0  0  0  0  0  0  0  0  0  0
   19.7449  -19.6162    5.5114 O   0  0  0  0  0  0  0  0  0  0  0  0
   17.2474  -18.9643    4.3612 O   0  0  0  0  0  0  0  0  0  0  0  0
    9.6626  -14.7574   12.8794 O   0  0  0  0  0  0  0  0  0  0  0  0
   10.3836  -14.1956    6.4675 O   0  0  0  0  0  0  0  0  0  0  0  0
  1 36  1  6  0  0  0
  2 36  1  6  0  0  0
  2  3  1  0  0  0  0
  3 37  1  1  0  0  0
  3  4  1  0  0  0  0
  4 38  1  6  0  0  0
  5 37  1  6  0  0  0
  5  6  1  0  0  0  0
  6  7  1  0  0  0  0
  6 39  1  6  0  0  0
  7 42  1  6  0  0  0
  8  9  1  6  0  0  0
  8  7  1  0  0  0  0
 10 42  1  6  0  0  0
 10 11  1  0  0  0  0
 11 31  1  1  0  0  0
 11 13  1  0  0  0  0
 12 30  1  6  0  0  0
 12  1  1  0  0  0  0
 14 13  1  0  0  0  0
 15 16  1  1  0  0  0
 15 14  1  0  0  0  0
 17 19  1  1  0  0  0
 17 28  1  0  0  0  0
 18 34  1  0  0  0  0
 19 32  1  0  0  0  0
 20 18  1  6  0  0  0
 20 17  1  0  0  0  0
 20 43  1  0  0  0  0
 21 12  1  0  0  0  0
 22 21  1  0  0  0  0
 22 23  1  0  0  0  0
 23 24  1  1  0  0  0
 23 46  1  0  0  0  0
 24 33  1  0  0  0  0
 25 34  1  1  0  0  0
 25  4  1  0  0  0  0
 26 25  1  0  0  0  0
 27 35  1  1  0  0  0
 27 26  1  0  0  0  0
 27  2  1  0  0  0  0
 29 16  1  0  0  0  0
 40  8  1  0  0  0  0
 40  5  1  0  0  0  0
 41  9  1  0  0  0  0
 44 18  2  0  0  0  0
 45 15  1  0  0  0  0
 45 10  1  0  0  0  0
 46  1  1  0  0  0  0
M  END
>  <CHROM.1>
-173.72399043,73.60019579,-62.86714315,-160.25482365,142.10856122,176.80722703
70.48758164,178.48315486,179.49177176,-66.31061765,170.40092673,64.49771322
164.65246114,12.85507798,-16.06400264,8.25064477,2.54572214,-0.39739372,1.55917453

>  <Name>
lig.pdb

>  <RI>
0

>  <Rbt.Current_Directory>
/home/afrankz/demos/rdock_decoys_rna/rnas/3wru

>  <Rbt.Executable>
rbdock ($Id: //depot/dev/client3/rdock/2013.1/src/exe/rbdock.cxx#4 $)

>  <Rbt.Library>
libRbt.so (2013.1, Build901 2013/11/27)

>  <Rbt.Parameter_File>
/export/apps/rDock/src/rDock_2013.1_src/data/scripts/dock_solv.prm

>  <Rbt.Receptor>
prm/pocket_docking_7.prm

>  <SCORE>
-2.00546

>  <SCORE.INTER>
1.68213

>  <SCORE.INTER.CONST>
1

>  <SCORE.INTER.POLAR>
0

>  <SCORE.INTER.ROT>
13

>  <SCORE.INTER.SOLV>
19.3019

>  <SCORE.INTER.VDW>
-17.5792

>  <SCORE.INTER.norm>
0.0365681

>  <SCORE.INTRA>
-3.68759

>  <SCORE.INTRA.DIHEDRAL>
-9.66615

>  <SCORE.INTRA.DIHEDRAL.0>
19.7146

>  <SCORE.INTRA.POLAR>
0

>  <SCORE.INTRA.POLAR.0>
0

>  <SCORE.INTRA.REPUL>
0.00417164

>  <SCORE.INTRA.REPUL.0>
0

>  <SCORE.INTRA.SOLV>
0.467586

>  <SCORE.INTRA.SOLV.lig_0>
-116.697

>  <SCORE.INTRA.VDW>
0.890836

>  <SCORE.INTRA.VDW.0>
-7.06424

>  <SCORE.INTRA.norm>
-0.080165

>  <SCORE.RESTR>
0

>  <SCORE.RESTR.CAVITY>
0

>  <SCORE.RESTR.norm>
0

>  <SCORE.SYSTEM>
0

>  <SCORE.SYSTEM.CONST>
0

>  <SCORE.SYSTEM.DIHEDRAL>
0

>  <SCORE.SYSTEM.SOLV>
0

>  <SCORE.SYSTEM.norm>
0

>  <SCORE.heavy>
46

>  <SCORE.norm>
-0.0435969

>  <RMSD>
5.187

$$$$
lig.pdb
 OpenBabel03061811583D
libRbt.so/2013.1/901 2013/11/27
 46 49  0  0  0  0  0  0  0  0999 V2000
   12.5233  -15.4168    9.4610 C   0  0  1  0  0  0  0  0  0  0  0  0
   13.8155  -13.7805    8.0255 C   0  0  1  0  0  0  0  0  0  0  0  0
   13.5233  -12.5021    7.1829 C   0  0  1  0  0  0  0  0  0  0  0  0
   14.9016  -11.9897    6.5190 C   0  0  2  0  0  0  0  0  0  0  0  0
   11.2501  -13.1748    6.2785 C   0  0  2  0  0  0  0  0  0  0  0  0
   10.3533  -11.9068    6.3601 C   0  0  1  0  0  0  0  0  0  0  0  0
    9.0669  -12.5304    5.8750 C   0  0  1  0  0  0  0  0  0  0  0  0
    9.4801  -13.3721    4.6260 C   0  0  1  0  0  0  0  0  0  0  0  0
    9.6268  -12.6000    3.2680 C   0  0  0  0  0  0  0  0  0  0  0  0
    7.5538  -14.3412    6.5927 C   0  0  1  0  0  0  0  0  0  0  0  0
    6.4580  -14.5518    7.5946 C   0  0  1  0  0  0  0  0  0  0  0  0
   11.1755  -16.1351    9.2148 C   0  0  1  0  0  0  0  0  0  0  0  0
    5.4999  -15.6729    7.0564 C   0  0  0  0  0  0  0  0  0  0  0  0
    6.1257  -16.9461    6.8425 C   0  0  0  0  0  0  0  0  0  0  0  0
    7.1691  -16.7895    5.8515 C   0  0  2  0  0  0  0  0  0  0  0  0
    7.9033  -18.1613    5.5795 C   0  0  0  0  0  0  0  0  0  0  0  0
   20.2242  -11.8888    6.3430 C   0  0  2  0  0  0  0  0  0  0  0  0
   17.8749  -11.9816    6.1843 C   0  0  0  0  0  0  0  0  0  0  0  0
   21.4181  -11.5958    5.7115 C   0  0  0  0  0  0  0  0  0  0  0  0
   19.2190  -11.2476    5.6967 C   0  0  1  0  0  0  0  0  0  0  0  0
    9.9520  -15.2523    9.7361 C   0  0  0  0  0  0  0  0  0  0  0  0
   10.1696  -14.9676   11.2994 C   0  0  0  0  0  0  0  0  0  0  0  0
   11.5617  -14.2003   11.4704 C   0  0  1  0  0  0  0  0  0  0  0  0
   11.8681  -13.8919   12.9409 C   0  0  0  0  0  0  0  0  0  0  0  0
   15.8998  -11.5990    7.6944 C   0  0  1  0  0  0  0  0  0  0  0  0
   16.1836  -12.9661    8.5169 C   0  0  0  0  0  0  0  0  0  0  0  0
   14.8422  -13.5012    9.1511 C   0  0  2  0  0  0  0  0  0  0  0  0
   20.3176  -11.5334    7.7411 F   0  0  0  0  0  0  0  0  0  0  0  0
    8.9428  -18.0790    4.4250 N   0  0  0  0  0  0  0  0  0  0  0  0
   11.0692  -16.4426    7.7405 N   0  0  0  0  0  0  0  0  0  0  0  0
    6.9005  -15.0088    8.8392 N   0  0  0  0  0  0  0  0  0  0  0  0
   22.7422  -12.0227    5.9684 N   0  0  0  0  0  0  0  0  0  0  0  0
   10.8631  -13.0807   13.5092 N   0  0  0  0  0  0  0  0  0  0  0  0
   17.1706  -11.1117    7.1287 N   0  0  0  0  0  0  0  0  0  0  0  0
   15.0839  -14.7571    9.8952 N   0  0  0  0  0  0  0  0  0  0  0  0
   12.6288  -14.2393    8.6601 O   0  0  0  0  0  0  0  0  0  0  0  0
   12.5236  -12.8949    6.1344 O   0  0  0  0  0  0  0  0  0  0  0  0
   14.6174  -10.8618    5.7820 O   0  0  0  0  0  0  0  0  0  0  0  0
   10.3162  -11.4817    7.6887 O   0  0  0  0  0  0  0  0  0  0  0  0
   10.6503  -13.9772    5.2008 O   0  0  0  0  0  0  0  0  0  0  0  0
   10.6381  -11.5899    3.4547 O   0  0  0  0  0  0  0  0  0  0  0  0
    8.4952  -13.4094    6.9726 O   0  0  0  0  0  0  0  0  0  0  0  0
   19.1483   -9.8408    6.0167 O   0  0  0  0  0  0  0  0  0  0  0  0
   17.5020  -13.1016    5.7981 O   0  0  0  0  0  0  0  0  0  0  0  0
    8.1573  -15.7351    6.2914 O   0  0  0  0  0  0  0  0  0  0  0  0
   12.6898  -15.0495   10.9078 O   0  0  0  0  0  0  0  0  0  0  0  0
  1 36  1  6  0  0  0
  2 36  1  1  0  0  0
  2  3  1  0  0  0  0
  3 37  1  6  0  0  0
  3  4  1  0  0  0  0
  4 38  1  6  0  0  0
  5 37  1  6  0  0  0
  5  6  1  0  0  0  0
  6  7  1  0  0  0  0
  6 39  1  1  0  0  0
  7 42  1  1  0  0  0
  8  9  1  6  0  0  0
  8  7  1  0  0  0  0
 10 42  1  1  0  0  0
 10 11  1  0  0  0  0
 11 31  1  1  0  0  0
 11 13  1  0  0  0  0
 12 30  1  6  0  0  0
 12  1  1  0  0  0  0
 14 13  1  0  0  0  0
 15 16  1  1  0  0  0
 15 14  1  0  0  0  0
 17 19  1  6  0  0  0
 17 28  1  0  0  0  0
 18 34  1  0  0  0  0
 19 32  1  0  0  0  0
 20 18  1  1  0  0  0
 20 17  1  0  0  0  0
 20 43  1  0  0  0  0
 21 12  1  0  0  0  0
 22 21  1  0  0  0  0
 22 23  1  0  0  0  0
 23 24  1  1  0  0  0
 23 46  1  0  0  0  0
 24 33  1  0  0  0  0
 25 34  1  6  0  0  0
 25  4  1  0  0  0  0
 26 25  1  0  0  0  0
 27 35  1  6  0  0  0
 27 26  1  0  0  0  0
 27  2  1  0  0  0  0
 29 16  1  0  0  0  0
 40  8  1  0  0  0  0
 40  5  1  0  0  0  0
 41  9  1  0  0  0  0
 44 18  2  0  0  0  0
 45 15  1  0  0  0  0
 45 10  1  0  0  0  0
 46  1  1  0  0  0  0
M  END
>  <CHROM.1>
-141.83228781,177.19540633,71.87014577,81.11022365,-162.02304066,59.64858756
-143.54692392,174.52577847,-178.70192281,105.59181969,163.00292949,-59.81137787
-54.94222438,12.57131408,-13.60415005,7.35817678,-3.02942373,-0.30193156
-1.34263826

>  <Name>
lig.pdb

>  <RI>
0

>  <Rbt.Current_Directory>
/home/afrankz/demos/rdock_decoys_rna/rnas/3wru

>  <Rbt.Executable>
rbdock ($Id: //depot/dev/client3/rdock/2013.1/src/exe/rbdock.cxx#4 $)

>  <Rbt.Library>
libRbt.so (2013.1, Build901 2013/11/27)

>  <Rbt.Parameter_File>
/export/apps/rDock/src/rDock_2013.1_src/data/scripts/dock_solv.prm

>  <Rbt.Receptor>
prm/pocket_docking_5.prm

>  <SCORE>
-0.984287

>  <SCORE.INTER>
-2.87412

>  <SCORE.INTER.CONST>
1

>  <SCORE.INTER.POLAR>
0

>  <SCORE.INTER.ROT>
13

>  <SCORE.INTER.SOLV>
17.5903

>  <SCORE.INTER.VDW>
-20.0462

>  <SCORE.INTER.norm>
-0.0624808

>  <SCORE.INTRA>
1.88983

>  <SCORE.INTRA.DIHEDRAL>
-2.26736

>  <SCORE.INTRA.DIHEDRAL.0>
19.7146

>  <SCORE.INTRA.POLAR>
0

>  <SCORE.INTRA.POLAR.0>
0

>  <SCORE.INTRA.REPUL>
0

>  <SCORE.INTRA.REPUL.0>
0

>  <SCORE.INTRA.SOLV>
3.71918

>  <SCORE.INTRA.SOLV.lig_0>
-116.697

>  <SCORE.INTRA.VDW>
1.16392

>  <SCORE.INTRA.VDW.0>
-7.06424

>  <SCORE.INTRA.norm>
0.0410833

>  <SCORE.RESTR>
0

>  <SCORE.RESTR.CAVITY>
0

>  <SCORE.RESTR.norm>
0

>  <SCORE.SYSTEM>
0

>  <SCORE.SYSTEM.CONST>
0

>  <SCORE.SYSTEM.DIHEDRAL>
0

>  <SCORE.SYSTEM.SOLV>
0

>  <SCORE.SYSTEM.norm>
0

>  <SCORE.heavy>
46

>  <SCORE.norm>
-0.0213975

>  <RMSD>
5.219

$$$$
lig.pdb
 OpenBabel03061811583D
libRbt.so/2013.1/901 2013/11/27
 46 49  0  0  0  0  0  0  0  0999 V2000
    8.2357  -13.1684    8.1361 C   0  0  1  0  0  0  0  0  0  0  0  0
   10.5442  -14.0973    8.6006 C   0  0  1  0  0  0  0  0  0  0  0  0
   11.1021  -14.1323    7.1455 C   0  0  1  0  0  0  0  0  0  0  0  0
   12.7074  -13.9802    7.1995 C   0  0  2  0  0  0  0  0  0  0  0  0
   11.0310  -16.6608    6.9472 C   0  0  2  0  0  0  0  0  0  0  0  0
   12.4931  -17.0376    6.5745 C   0  0  1  0  0  0  0  0  0  0  0  0
   12.7222  -18.0714    7.6505 C   0  0  1  0  0  0  0  0  0  0  0  0
   12.1713  -17.4144    8.9558 C   0  0  1  0  0  0  0  0  0  0  0  0
   13.1230  -16.4153    9.7026 C   0  0  0  0  0  0  0  0  0  0  0  0
   10.6688  -19.4319    7.7788 C   0  0  1  0  0  0  0  0  0  0  0  0
   10.5778  -19.8809    9.2068 C   0  0  1  0  0  0  0  0  0  0  0  0
    6.7608  -13.5999    8.3146 C   0  0  1  0  0  0  0  0  0  0  0  0
    9.0615  -20.0012    9.5952 C   0  0  0  0  0  0  0  0  0  0  0  0
    8.3129  -20.9399    8.8097 C   0  0  0  0  0  0  0  0  0  0  0  0
    8.3482  -20.5186    7.4254 C   0  0  2  0  0  0  0  0  0  0  0  0
    7.5456  -21.5221    6.5068 C   0  0  0  0  0  0  0  0  0  0  0  0
   17.2024  -10.7898    6.1188 C   0  0  2  0  0  0  0  0  0  0  0  0
   15.1005  -11.3566    7.0210 C   0  0  0  0  0  0  0  0  0  0  0  0
   18.5085  -10.4062    6.3575 C   0  0  0  0  0  0  0  0  0  0  0  0
   16.6906  -11.3276    7.2538 C   0  0  1  0  0  0  0  0  0  0  0  0
    6.4017  -14.8240    7.3553 C   0  0  0  0  0  0  0  0  0  0  0  0
    6.6856  -14.3750    5.8420 C   0  0  0  0  0  0  0  0  0  0  0  0
    8.2292  -13.9744    5.7293 C   0  0  1  0  0  0  0  0  0  0  0  0
    8.5994  -13.5160    4.3136 C   0  0  0  0  0  0  0  0  0  0  0  0
   13.0474  -12.5615    7.8337 C   0  0  1  0  0  0  0  0  0  0  0  0
   12.4667  -12.5939    9.3462 C   0  0  0  0  0  0  0  0  0  0  0  0
   10.8996  -12.7713    9.3177 C   0  0  2  0  0  0  0  0  0  0  0  0
   17.1633  -11.6963    4.9936 F   0  0  0  0  0  0  0  0  0  0  0  0
    7.4822  -21.0706    5.0193 N   0  0  0  0  0  0  0  0  0  0  0  0
    6.5416  -13.9332    9.7707 N   0  0  0  0  0  0  0  0  0  0  0  0
   11.1226  -21.1458    9.4449 N   0  0  0  0  0  0  0  0  0  0  0  0
   19.6584  -11.1587    6.6935 N   0  0  0  0  0  0  0  0  0  0  0  0
    8.6743  -14.6125    3.4286 N   0  0  0  0  0  0  0  0  0  0  0  0
   14.5086  -12.3768    7.8890 N   0  0  0  0  0  0  0  0  0  0  0  0
   10.3564  -12.8153   10.6933 N   0  0  0  0  0  0  0  0  0  0  0  0
    9.1254  -14.1885    8.5910 O   0  0  0  0  0  0  0  0  0  0  0  0
   10.6968  -15.4531    6.5589 O   0  0  0  0  0  0  0  0  0  0  0  0
   13.1749  -14.0135    5.9047 O   0  0  0  0  0  0  0  0  0  0  0  0
   12.4951  -17.5531    5.2777 O   0  0  0  0  0  0  0  0  0  0  0  0
   10.9484  -16.9078    8.3955 O   0  0  0  0  0  0  0  0  0  0  0  0
   14.3141  -17.1434   10.0621 O   0  0  0  0  0  0  0  0  0  0  0  0
   11.9566  -19.3340    7.2984 O   0  0  0  0  0  0  0  0  0  0  0  0
   17.1688  -12.6661    7.5105 O   0  0  0  0  0  0  0  0  0  0  0  0
   14.4879  -10.6131    6.2370 O   0  0  0  0  0  0  0  0  0  0  0  0
    9.7768  -20.3900    6.9518 O   0  0  0  0  0  0  0  0  0  0  0  0
    8.5407  -12.8477    6.7008 O   0  0  0  0  0  0  0  0  0  0  0  0
  1 36  1  6  0  0  0
  2 36  1  6  0  0  0
  2  3  1  0  0  0  0
  3 37  1  1  0  0  0
  3  4  1  0  0  0  0
  4 38  1  6  0  0  0
  5 37  1  1  0  0  0
  5  6  1  0  0  0  0
  6  7  1  0  0  0  0
  6 39  1  6  0  0  0
  7 42  1  6  0  0  0
  8  9  1  6  0  0  0
  8  7  1  0  0  0  0
 10 42  1  6  0  0  0
 10 11  1  0  0  0  0
 11 31  1  6  0  0  0
 11 13  1  0  0  0  0
 12 30  1  1  0  0  0
 12  1  1  0  0  0  0
 14 13  1  0  0  0  0
 15 16  1  6  0  0  0
 15 14  1  0  0  0  0
 17 19  1  1  0  0  0
 17 28  1  0  0  0  0
 18 34  1  0  0  0  0
 19 32  1  0  0  0  0
 20 18  1  6  0  0  0
 20 17  1  0  0  0  0
 20 43  1  0  0  0  0
 21 12  1  0  0  0  0
 22 21  1  0  0  0  0
 22 23  1  0  0  0  0
 23 24  1  6  0  0  0
 23 46  1  0  0  0  0
 24 33  1  0  0  0  0
 25 34  1  1  0  0  0
 25  4  1  0  0  0  0
 26 25  1  0  0  0  0
 27 35  1  1  0  0  0
 27 26  1  0  0  0  0
 27  2  1  0  0  0  0
 29 16  1  0  0  0  0
 40  8  1  0  0  0  0
 40  5  1  0  0  0  0
 41  9  1  0  0  0  0
 44 18  2  0  0  0  0
 45 15  1  0  0  0  0
 45 10  1  0  0  0  0
 46  1  1  0  0  0  0
M  END
>  <CHROM.1>
-178.23471882,-70.08964813,-62.53260117,-74.48646215,-90.53980283,-59.65451209
-81.14527468,176.64757621,63.55567536,156.97639540,164.58971823,-74.35870197
112.13133958,11.52023854,-15.32626669,7.41452279,2.36843657,0.01898678,3.01897393

>  <Name>
lig.pdb

>  <RI>
0

>  <Rbt.Current_Directory>
/home/afrankz/demos/rdock_decoys_rna/rnas/3wru

>  <Rbt.Executable>
rbdock ($Id: //depot/dev/client3/rdock/2013.1/src/exe/rbdock.cxx#4 $)

>  <Rbt.Library>
libRbt.so (2013.1, Build901 2013/11/27)

>  <Rbt.Parameter_File>
/export/apps/rDock/src/rDock_2013.1_src/data/scripts/dock_solv.prm

>  <Rbt.Receptor>
prm/pocket_docking_5.prm

>  <SCORE>
1.15295

>  <SCORE.INTER>
1.74645

>  <SCORE.INTER.CONST>
1

>  <SCORE.INTER.POLAR>
0

>  <SCORE.INTER.ROT>
13

>  <SCORE.INTER.SOLV>
20.5403

>  <SCORE.INTER.VDW>
-17.9491

>  <SCORE.INTER.norm>
0.0379663

>  <SCORE.INTRA>
-0.593501

>  <SCORE.INTRA.DIHEDRAL>
-8.31556

>  <SCORE.INTRA.DIHEDRAL.0>
19.7146

>  <SCORE.INTRA.POLAR>
0

>  <SCORE.INTRA.POLAR.0>
0

>  <SCORE.INTRA.REPUL>
0

>  <SCORE.INTRA.REPUL.0>
0

>  <SCORE.INTRA.SOLV>
0.24677

>  <SCORE.INTRA.SOLV.lig_0>
-116.697

>  <SCORE.INTRA.VDW>
3.4409

>  <SCORE.INTRA.VDW.0>
-7.06424

>  <SCORE.INTRA.norm>
-0.0129022

>  <SCORE.RESTR>
0

>  <SCORE.RESTR.CAVITY>
0

>  <SCORE.RESTR.norm>
0

>  <SCORE.SYSTEM>
0

>  <SCORE.SYSTEM.CONST>
0

>  <SCORE.SYSTEM.DIHEDRAL>
0

>  <SCORE.SYSTEM.SOLV>
0

>  <SCORE.SYSTEM.norm>
0

>  <SCORE.heavy>
46

>  <SCORE.norm>
0.0250641

>  <RMSD>
5.236

$$$$
lig.pdb
 OpenBabel03061811583D
libRbt.so/2013.1/901 2013/11/27
 46 49  0  0  0  0  0  0  0  0999 V2000
    9.8833  -13.7586    8.5474 C   0  0  1  0  0  0  0  0  0  0  0  0
   11.7702  -13.0372    7.0220 C   0  0  1  0  0  0  0  0  0  0  0  0
   12.4436  -14.4415    6.9556 C   0  0  1  0  0  0  0  0  0  0  0  0
   13.9893  -14.2582    6.5311 C   0  0  2  0  0  0  0  0  0  0  0  0
   11.9291  -16.2526    8.6564 C   0  0  2  0  0  0  0  0  0  0  0  0
   12.6483  -17.3695    7.8477 C   0  0  1  0  0  0  0  0  0  0  0  0
   12.4923  -18.4863    8.8514 C   0  0  1  0  0  0  0  0  0  0  0  0
   12.8849  -17.8466   10.2210 C   0  0  1  0  0  0  0  0  0  0  0  0
   14.4168  -17.7567   10.5480 C   0  0  0  0  0  0  0  0  0  0  0  0
   10.7535  -20.0477    9.6403 C   0  0  1  0  0  0  0  0  0  0  0  0
   11.2997  -21.3455    9.1244 C   0  0  1  0  0  0  0  0  0  0  0  0
    8.3604  -14.0066    8.4348 C   0  0  1  0  0  0  0  0  0  0  0  0
   10.8386  -22.4973   10.0862 C   0  0  0  0  0  0  0  0  0  0  0  0
    9.4167  -22.6533   10.1979 C   0  0  0  0  0  0  0  0  0  0  0  0
    8.8560  -21.4287   10.7281 C   0  0  2  0  0  0  0  0  0  0  0  0
    7.2862  -21.5368   10.8657 C   0  0  0  0  0  0  0  0  0  0  0  0
   17.4658  -13.4252    2.4471 C   0  0  2  0  0  0  0  0  0  0  0  0
   16.0759  -14.5666    3.9696 C   0  0  0  0  0  0  0  0  0  0  0  0
   18.7048  -12.9053    2.1237 C   0  0  0  0  0  0  0  0  0  0  0  0
   17.5807  -14.1519    3.5864 C   0  0  1  0  0  0  0  0  0  0  0  0
    7.5586  -12.6280    8.3686 C   0  0  0  0  0  0  0  0  0  0  0  0
    7.9033  -11.7838    9.6880 C   0  0  0  0  0  0  0  0  0  0  0  0
    9.4834  -11.5427    9.7188 C   0  0  1  0  0  0  0  0  0  0  0  0
    9.9170  -10.7493   10.9573 C   0  0  0  0  0  0  0  0  0  0  0  0
   14.0284  -13.6134    5.0773 C   0  0  1  0  0  0  0  0  0  0  0  0
   13.3394  -12.1530    5.2141 C   0  0  0  0  0  0  0  0  0  0  0  0
   11.8335  -12.3076    5.6572 C   0  0  2  0  0  0  0  0  0  0  0  0
   16.9588  -14.1936    1.3326 F   0  0  0  0  0  0  0  0  0  0  0  0
    6.6327  -20.2446   11.4342 N   0  0  0  0  0  0  0  0  0  0  0  0
    8.1131  -14.8689    7.2204 N   0  0  0  0  0  0  0  0  0  0  0  0
   10.8232  -21.7051    7.8606 N   0  0  0  0  0  0  0  0  0  0  0  0
   19.9138  -13.5345    1.7445 N   0  0  0  0  0  0  0  0  0  0  0  0
    9.1571   -9.5685   11.0951 N   0  0  0  0  0  0  0  0  0  0  0  0
   15.4270  -13.4409    4.6453 N   0  0  0  0  0  0  0  0  0  0  0  0
   11.1945  -10.9805    5.7985 N   0  0  0  0  0  0  0  0  0  0  0  0
   10.3935  -13.1617    7.3548 O   0  0  0  0  0  0  0  0  0  0  0  0
   12.3198  -15.0451    8.3243 O   0  0  0  0  0  0  0  0  0  0  0  0
   14.5605  -15.5100    6.4792 O   0  0  0  0  0  0  0  0  0  0  0  0
   11.9469  -17.5690    6.6580 O   0  0  0  0  0  0  0  0  0  0  0  0
   12.1442  -16.6250   10.0637 O   0  0  0  0  0  0  0  0  0  0  0  0
   15.0165  -16.8909    9.5636 O   0  0  0  0  0  0  0  0  0  0  0  0
   11.0491  -18.9570    8.8517 O   0  0  0  0  0  0  0  0  0  0  0  0
   18.3850  -15.3400    3.4202 O   0  0  0  0  0  0  0  0  0  0  0  0
   15.5587  -15.6658    3.7112 O   0  0  0  0  0  0  0  0  0  0  0  0
    9.2341  -20.2562    9.8540 O   0  0  0  0  0  0  0  0  0  0  0  0
   10.2078  -12.8789    9.7208 O   0  0  0  0  0  0  0  0  0  0  0  0
  1 36  1  6  0  0  0
  2 36  1  6  0  0  0
  2  3  1  0  0  0  0
  3 37  1  1  0  0  0
  3  4  1  0  0  0  0
  4 38  1  6  0  0  0
  5 37  1  1  0  0  0
  5  6  1  0  0  0  0
  6  7  1  0  0  0  0
  6 39  1  6  0  0  0
  7 42  1  1  0  0  0
  8  9  1  6  0  0  0
  8  7  1  0  0  0  0
 10 42  1  6  0  0  0
 10 11  1  0  0  0  0
 11 31  1  6  0  0  0
 11 13  1  0  0  0  0
 12 30  1  6  0  0  0
 12  1  1  0  0  0  0
 14 13  1  0  0  0  0
 15 16  1  6  0  0  0
 15 14  1  0  0  0  0
 17 19  1  6  0  0  0
 17 28  1  0  0  0  0
 18 34  1  0  0  0  0
 19 32  1  0  0  0  0
 20 18  1  6  0  0  0
 20 17  1  0  0  0  0
 20 43  1  0  0  0  0
 21 12  1  0  0  0  0
 22 21  1  0  0  0  0
 22 23  1  0  0  0  0
 23 24  1  1  0  0  0
 23 46  1  0  0  0  0
 24 33  1  0  0  0  0
 25 34  1  1  0  0  0
 25  4  1  0  0  0  0
 26 25  1  0  0  0  0
 27 35  1  1  0  0  0
 27 26  1  0  0  0  0
 27  2  1  0  0  0  0
 29 16  1  0  0  0  0
 40  8  1  0  0  0  0
 40  5  1  0  0  0  0
 41  9  1  0  0  0  0
 44 18  2  0  0  0  0
 45 15  1  0  0  0  0
 45 10  1  0  0  0  0
 46  1  1  0  0  0  0
M  END
>  <CHROM.1>
-167.27851529,59.44355106,133.01349574,49.25394999,175.11055644,63.26638386
-71.22363461,179.92588397,65.12011754,-80.76634225,173.64409844,-51.54313139
87.46892617,12.26533970,-15.72416322,7.49192592,2.49791060,-0.64307396,2.95101359

>  <Name>
lig.pdb

>  <RI>
0

>  <Rbt.Current_Directory>
/home/afrankz/demos/rdock_decoys_rna/rnas/3wru

>  <Rbt.Executable>
rbdock ($Id: //depot/dev/client3/rdock/2013.1/src/exe/rbdock.cxx#4 $)

>  <Rbt.Library>
libRbt.so (2013.1, Build901 2013/11/27)

>  <Rbt.Parameter_File>
/export/apps/rDock/src/rDock_2013.1_src/data/scripts/dock_solv.prm

>  <Rbt.Receptor>
prm/pocket_docking_6.prm

>  <SCORE>
0.421663

>  <SCORE.INTER>
3.46341

>  <SCORE.INTER.CONST>
1

>  <SCORE.INTER.POLAR>
0

>  <SCORE.INTER.ROT>
13

>  <SCORE.INTER.SOLV>
17.8822

>  <SCORE.INTER.VDW>
-15.9185

>  <SCORE.INTER.norm>
0.0752915

>  <SCORE.INTRA>
-3.04174

>  <SCORE.INTRA.DIHEDRAL>
-8.73031

>  <SCORE.INTRA.DIHEDRAL.0>
19.7146

>  <SCORE.INTRA.POLAR>
0

>  <SCORE.INTRA.POLAR.0>
0

>  <SCORE.INTRA.REPUL>
0.00568084

>  <SCORE.INTRA.REPUL.0>
0

>  <SCORE.INTRA.SOLV>
-0.711925

>  <SCORE.INTRA.SOLV.lig_0>
-116.697

>  <SCORE.INTRA.VDW>
1.65097

>  <SCORE.INTRA.VDW.0>
-7.06424

>  <SCORE.INTRA.norm>
-0.0661249

>  <SCORE.RESTR>
0

>  <SCORE.RESTR.CAVITY>
0

>  <SCORE.RESTR.norm>
0

>  <SCORE.SYSTEM>
0

>  <SCORE.SYSTEM.CONST>
0

>  <SCORE.SYSTEM.DIHEDRAL>
0

>  <SCORE.SYSTEM.SOLV>
0

>  <SCORE.SYSTEM.norm>
0

>  <SCORE.heavy>
46

>  <SCORE.norm>
0.00916658

>  <RMSD>
5.297

$$$$
lig.pdb
 OpenBabel03061811583D
libRbt.so/2013.1/901 2013/11/27
 46 49  0  0  0  0  0  0  0  0999 V2000
    9.9526  -15.8982    6.9986 C   0  0  1  0  0  0  0  0  0  0  0  0
   11.8751  -14.9542    5.6492 C   0  0  1  0  0  0  0  0  0  0  0  0
   13.0045  -15.9652    6.0124 C   0  0  1  0  0  0  0  0  0  0  0  0
   14.4333  -15.2410    5.8200 C   0  0  2  0  0  0  0  0  0  0  0  0
   12.3471  -17.5097    7.9151 C   0  0  2  0  0  0  0  0  0  0  0  0
   13.3549  -18.6765    7.7110 C   0  0  1  0  0  0  0  0  0  0  0  0
   12.8915  -19.5530    8.8494 C   0  0  1  0  0  0  0  0  0  0  0  0
   12.7354  -18.5802   10.0612 C   0  0  1  0  0  0  0  0  0  0  0  0
   14.0400  -18.2239   10.8566 C   0  0  0  0  0  0  0  0  0  0  0  0
   10.8710  -20.8132    9.4922 C   0  0  1  0  0  0  0  0  0  0  0  0
    9.9866  -21.9350    9.0358 C   0  0  1  0  0  0  0  0  0  0  0  0
    8.6424  -16.6806    6.7443 C   0  0  1  0  0  0  0  0  0  0  0  0
    9.2200  -22.5034   10.2822 C   0  0  0  0  0  0  0  0  0  0  0  0
    8.3821  -21.5538   10.9564 C   0  0  0  0  0  0  0  0  0  0  0  0
    9.2083  -20.4700   11.4439 C   0  0  2  0  0  0  0  0  0  0  0  0
    8.3371  -19.3842   12.1901 C   0  0  0  0  0  0  0  0  0  0  0  0
   18.2799  -13.5080    1.4189 C   0  0  2  0  0  0  0  0  0  0  0  0
   16.4476  -14.2317    2.7119 C   0  0  0  0  0  0  0  0  0  0  0  0
   19.3835  -12.6877    1.2805 C   0  0  0  0  0  0  0  0  0  0  0  0
   17.8552  -13.4559    2.7058 C   0  0  1  0  0  0  0  0  0  0  0  0
    7.5579  -15.7616    6.0181 C   0  0  0  0  0  0  0  0  0  0  0  0
    7.2867  -14.4800    6.9433 C   0  0  0  0  0  0  0  0  0  0  0  0
    8.6744  -13.7097    7.1356 C   0  0  1  0  0  0  0  0  0  0  0  0
    8.5212  -12.4676    8.0217 C   0  0  0  0  0  0  0  0  0  0  0  0
   14.5848  -14.8488    4.2858 C   0  0  1  0  0  0  0  0  0  0  0  0
   13.4042  -13.7832    3.9750 C   0  0  0  0  0  0  0  0  0  0  0  0
   11.9964  -14.4628    4.1854 C   0  0  2  0  0  0  0  0  0  0  0  0
   18.6153  -14.8458    0.9859 F   0  0  0  0  0  0  0  0  0  0  0  0
    9.1722  -18.1721   12.6939 N   0  0  0  0  0  0  0  0  0  0  0  0
    8.9791  -17.9113    5.9372 N   0  0  0  0  0  0  0  0  0  0  0  0
    8.9915  -21.5486    8.1335 N   0  0  0  0  0  0  0  0  0  0  0  0
   20.6900  -12.7785    1.8155 N   0  0  0  0  0  0  0  0  0  0  0  0
    9.7505  -11.7889    8.1608 N   0  0  0  0  0  0  0  0  0  0  0  0
   15.8867  -14.1943    4.0642 N   0  0  0  0  0  0  0  0  0  0  0  0
   10.9078  -13.4972    3.9172 N   0  0  0  0  0  0  0  0  0  0  0  0
   10.5994  -15.5706    5.7684 O   0  0  0  0  0  0  0  0  0  0  0  0
   12.7822  -16.3662    7.4417 O   0  0  0  0  0  0  0  0  0  0  0  0
   15.4122  -16.1529    6.1459 O   0  0  0  0  0  0  0  0  0  0  0  0
   13.1404  -19.2236    6.4453 O   0  0  0  0  0  0  0  0  0  0  0  0
   12.0530  -17.5295    9.3568 O   0  0  0  0  0  0  0  0  0  0  0  0
   14.9015  -17.4904    9.9634 O   0  0  0  0  0  0  0  0  0  0  0  0
   11.5665  -20.1932    8.4770 O   0  0  0  0  0  0  0  0  0  0  0  0
   18.7659  -14.0937    3.6278 O   0  0  0  0  0  0  0  0  0  0  0  0
   15.9274  -14.7587    1.7148 O   0  0  0  0  0  0  0  0  0  0  0  0
    9.9785  -19.8436   10.3054 O   0  0  0  0  0  0  0  0  0  0  0  0
    9.6941  -14.6383    7.7743 O   0  0  0  0  0  0  0  0  0  0  0  0
  1 36  1  6  0  0  0
  2 36  1  6  0  0  0
  2  3  1  0  0  0  0
  3 37  1  1  0  0  0
  3  4  1  0  0  0  0
  4 38  1  6  0  0  0
  5 37  1  1  0  0  0
  5  6  1  0  0  0  0
  6  7  1  0  0  0  0
  6 39  1  6  0  0  0
  7 42  1  6  0  0  0
  8  9  1  6  0  0  0
  8  7  1  0  0  0  0
 10 42  1  6  0  0  0
 10 11  1  0  0  0  0
 11 31  1  6  0  0  0
 11 13  1  0  0  0  0
 12 30  1  6  0  0  0
 12  1  1  0  0  0  0
 14 13  1  0  0  0  0
 15 16  1  6  0  0  0
 15 14  1  0  0  0  0
 17 19  1  1  0  0  0
 17 28  1  0  0  0  0
 18 34  1  0  0  0  0
 19 32  1  0  0  0  0
 20 18  1  6  0  0  0
 20 17  1  0  0  0  0
 20 43  1  0  0  0  0
 21 12  1  0  0  0  0
 22 21  1  0  0  0  0
 22 23  1  0  0  0  0
 23 24  1  1  0  0  0
 23 46  1  0  0  0  0
 24 33  1  0  0  0  0
 25 34  1  1  0  0  0
 25  4  1  0  0  0  0
 26 25  1  0  0  0  0
 27 35  1  1  0  0  0
 27 26  1  0  0  0  0
 27  2  1  0  0  0  0
 29 16  1  0  0  0  0
 40  8  1  0  0  0  0
 40  5  1  0  0  0  0
 41  9  1  0  0  0  0
 44 18  2  0  0  0  0
 45 15  1  0  0  0  0
 45 10  1  0  0  0  0
 46  1  1  0  0  0  0
M  END
>  <CHROM.1>
-174.48141740,73.01454265,107.84564246,68.29228343,-167.65483446,65.11614472
-152.19087884,-178.10378013,66.74606208,-178.36901086,170.86536429,-178.98805515
156.40555905,12.47532630,-16.56197977,6.74589351,2.32946773,-0.33574326,2.52177771

>  <Name>
lig.pdb

>  <RI>
0

>  <Rbt.Current_Directory>
/home/afrankz/demos/rdock_decoys_rna/rnas/3wru

>  <Rbt.Executable>
rbdock ($Id: //depot/dev/client3/rdock/2013.1/src/exe/rbdock.cxx#4 $)

>  <Rbt.Library>
libRbt.so (2013.1, Build901 2013/11/27)

>  <Rbt.Parameter_File>
/export/apps/rDock/src/rDock_2013.1_src/data/scripts/dock_solv.prm

>  <Rbt.Receptor>
prm/pocket_docking_6.prm

>  <SCORE>
0.830755

>  <SCORE.INTER>
2.88816

>  <SCORE.INTER.CONST>
1

>  <SCORE.INTER.POLAR>
0

>  <SCORE.INTER.ROT>
13

>  <SCORE.INTER.SOLV>
17.3046

>  <SCORE.INTER.VDW>
-16.1094

>  <SCORE.INTER.norm>
0.062786

>  <SCORE.INTRA>
-2.0574

>  <SCORE.INTRA.DIHEDRAL>
-6.06333

>  <SCORE.INTRA.DIHEDRAL.0>
19.7146

>  <SCORE.INTRA.POLAR>
0

>  <SCORE.INTRA.POLAR.0>
0

>  <SCORE.INTRA.REPUL>
0

>  <SCORE.INTRA.REPUL.0>
0

>  <SCORE.INTRA.SOLV>
-0.845516

>  <SCORE.INTRA.SOLV.lig_0>
-116.697

>  <SCORE.INTRA.VDW>
1.39702

>  <SCORE.INTRA.VDW.0>
-7.06424

>  <SCORE.INTRA.norm>
-0.0447261

>  <SCORE.RESTR>
0

>  <SCORE.RESTR.CAVITY>
0

>  <SCORE.RESTR.norm>
0

>  <SCORE.SYSTEM>
0

>  <SCORE.SYSTEM.CONST>
0

>  <SCORE.SYSTEM.DIHEDRAL>
0

>  <SCORE.SYSTEM.SOLV>
0

>  <SCORE.SYSTEM.norm>
0

>  <SCORE.heavy>
46

>  <SCORE.norm>
0.0180599

>  <RMSD>
5.707

$$$$
lig.pdb
 OpenBabel03061811583D
libRbt.so/2013.1/901 2013/11/27
 46 49  0  0  0  0  0  0  0  0999 V2000
   10.7107  -14.3624   10.2201 C   0  0  1  0  0  0  0  0  0  0  0  0
   12.7350  -13.3534    9.0834 C   0  0  1  0  0  0  0  0  0  0  0  0
   12.5331  -11.9416    8.4543 C   0  0  1  0  0  0  0  0  0  0  0  0
   13.5632  -11.7671    7.2249 C   0  0  2  0  0  0  0  0  0  0  0  0
   10.2693  -12.8614    7.7711 C   0  0  2  0  0  0  0  0  0  0  0  0
    8.8815  -12.3788    7.2611 C   0  0  1  0  0  0  0  0  0  0  0  0
    8.4732  -13.6421    6.5428 C   0  0  1  0  0  0  0  0  0  0  0  0
    9.7371  -14.0608    5.7264 C   0  0  1  0  0  0  0  0  0  0  0  0
    9.9619  -13.3419    4.3500 C   0  0  0  0  0  0  0  0  0  0  0  0
    7.6770  -15.9148    7.0766 C   0  0  1  0  0  0  0  0  0  0  0  0
    6.3385  -15.8749    6.4015 C   0  0  1  0  0  0  0  0  0  0  0  0
   10.1098  -14.4375   11.6437 C   0  0  1  0  0  0  0  0  0  0  0  0
    5.9656  -17.3311    5.9488 C   0  0  0  0  0  0  0  0  0  0  0  0
    5.8714  -18.2861    7.0154 C   0  0  0  0  0  0  0  0  0  0  0  0
    7.1588  -18.3786    7.6703 C   0  0  2  0  0  0  0  0  0  0  0  0
    7.1148  -19.4120    8.8640 C   0  0  0  0  0  0  0  0  0  0  0  0
   18.4817  -12.8351    5.2009 C   0  0  2  0  0  0  0  0  0  0  0  0
   17.4390  -11.7995    7.0430 C   0  0  0  0  0  0  0  0  0  0  0  0
   19.0089  -12.7289    3.9278 C   0  0  0  0  0  0  0  0  0  0  0  0
   18.3074  -11.5890    5.7070 C   0  0  1  0  0  0  0  0  0  0  0  0
   11.0977  -15.1939   12.6436 C   0  0  0  0  0  0  0  0  0  0  0  0
   11.3718  -16.6630   12.0616 C   0  0  0  0  0  0  0  0  0  0  0  0
   12.0173  -16.5035   10.6077 C   0  0  1  0  0  0  0  0  0  0  0  0
   12.3068  -17.8621    9.9582 C   0  0  0  0  0  0  0  0  0  0  0  0
   15.0422  -11.8517    7.8049 C   0  0  1  0  0  0  0  0  0  0  0  0
   15.1995  -13.3422    8.4210 C   0  0  0  0  0  0  0  0  0  0  0  0
   14.1799  -13.5448    9.6073 C   0  0  2  0  0  0  0  0  0  0  0  0
   19.3450  -13.6620    6.0137 F   0  0  0  0  0  0  0  0  0  0  0  0
    6.0565  -19.0507    9.9456 N   0  0  0  0  0  0  0  0  0  0  0  0
    9.8039  -13.0311   12.0996 N   0  0  0  0  0  0  0  0  0  0  0  0
    5.2910  -15.4653    7.2312 N   0  0  0  0  0  0  0  0  0  0  0  0
   19.4635  -13.7123    3.0180 N   0  0  0  0  0  0  0  0  0  0  0  0
   11.1153  -18.5878    9.7470 N   0  0  0  0  0  0  0  0  0  0  0  0
   16.0171  -11.6832    6.7124 N   0  0  0  0  0  0  0  0  0  0  0  0
   14.3035  -14.9069   10.1719 N   0  0  0  0  0  0  0  0  0  0  0  0
   11.8701  -13.5289   10.1981 O   0  0  0  0  0  0  0  0  0  0  0  0
   11.1080  -11.8762    7.9878 O   0  0  0  0  0  0  0  0  0  0  0  0
   13.3658  -10.5147    6.6878 O   0  0  0  0  0  0  0  0  0  0  0  0
    8.0910  -12.0710    8.3691 O   0  0  0  0  0  0  0  0  0  0  0  0
   10.6996  -13.8539    6.7736 O   0  0  0  0  0  0  0  0  0  0  0  0
   11.1474  -13.9089    3.7574 O   0  0  0  0  0  0  0  0  0  0  0  0
    8.0988  -14.6981    7.5670 O   0  0  0  0  0  0  0  0  0  0  0  0
   19.5518  -10.9328    6.0344 O   0  0  0  0  0  0  0  0  0  0  0  0
   17.9156  -12.0379    8.1649 O   0  0  0  0  0  0  0  0  0  0  0  0
    7.5981  -17.0186    8.1596 O   0  0  0  0  0  0  0  0  0  0  0  0
   11.0708  -15.7272    9.7069 O   0  0  0  0  0  0  0  0  0  0  0  0
  1 36  1  1  0  0  0
  2 36  1  1  0  0  0
  2  3  1  0  0  0  0
  3 37  1  6  0  0  0
  3  4  1  0  0  0  0
  4 38  1  1  0  0  0
  5 37  1  6  0  0  0
  5  6  1  0  0  0  0
  6  7  1  0  0  0  0
  6 39  1  1  0  0  0
  7 42  1  1  0  0  0
  8  9  1  6  0  0  0
  8  7  1  0  0  0  0
 10 42  1  1  0  0  0
 10 11  1  0  0  0  0
 11 31  1  1  0  0  0
 11 13  1  0  0  0  0
 12 30  1  1  0  0  0
 12  1  1  0  0  0  0
 14 13  1  0  0  0  0
 15 16  1  1  0  0  0
 15 14  1  0  0  0  0
 17 19  1  6  0  0  0
 17 28  1  0  0  0  0
 18 34  1  0  0  0  0
 19 32  1  0  0  0  0
 20 18  1  1  0  0  0
 20 17  1  0  0  0  0
 20 43  1  0  0  0  0
 21 12  1  0  0  0  0
 22 21  1  0  0  0  0
 22 23  1  0  0  0  0
 23 24  1  6  0  0  0
 23 46  1  0  0  0  0
 24 33  1  0  0  0  0
 25 34  1  6  0  0  0
 25  4  1  0  0  0  0
 26 25  1  0  0  0  0
 27 35  1  6  0  0  0
 27 26  1  0  0  0  0
 27  2  1  0  0  0  0
 29 16  1  0  0  0  0
 40  8  1  0  0  0  0
 40  5  1  0  0  0  0
 41  9  1  0  0  0  0
 44 18  2  0  0  0  0
 45 15  1  0  0  0  0
 45 10  1  0  0  0  0
 46  1  1  0  0  0  0
M  END
>  <CHROM.1>
173.37142586,107.32850881,-17.92253184,-178.78424253,178.92453859,-178.13753593
-69.42215517,-58.68162098,174.66054712,-91.81341262,169.27673563,63.20261668
-176.95591537,11.86331578,-14.27516943,7.86050973,-2.82457659,-0.30780763
-1.21738577

>  <Name>
lig.pdb

>  <RI>
0

>  <Rbt.Current_Directory>
/home/afrankz/demos/rdock_decoys_rna/rnas/3wru

>  <Rbt.Executable>
rbdock ($Id: //depot/dev/client3/rdock/2013.1/src/exe/rbdock.cxx#4 $)

>  <Rbt.Library>
libRbt.so (2013.1, Build901 2013/11/27)

>  <Rbt.Parameter_File>
/export/apps/rDock/src/rDock_2013.1_src/data/scripts/dock_solv.prm

>  <Rbt.Receptor>
prm/pocket_docking_3.prm

>  <SCORE>
3.09979

>  <SCORE.INTER>
1.42856

>  <SCORE.INTER.CONST>
1

>  <SCORE.INTER.POLAR>
0

>  <SCORE.INTER.ROT>
13

>  <SCORE.INTER.SOLV>
20.9843

>  <SCORE.INTER.VDW>
-18.3091

>  <SCORE.INTER.norm>
0.0310556

>  <SCORE.INTRA>
1.18295

>  <SCORE.INTRA.DIHEDRAL>
-4.40969

>  <SCORE.INTRA.DIHEDRAL.0>
19.7146

>  <SCORE.INTRA.POLAR>
0

>  <SCORE.INTRA.POLAR.0>
0

>  <SCORE.INTRA.REPUL>
0.109006

>  <SCORE.INTRA.REPUL.0>
0

>  <SCORE.INTRA.SOLV>
1.83481

>  <SCORE.INTRA.SOLV.lig_0>
-116.697

>  <SCORE.INTRA.VDW>
1.92536

>  <SCORE.INTRA.VDW.0>
-7.06424

>  <SCORE.INTRA.norm>
0.0257163

>  <SCORE.RESTR>
0.488283

>  <SCORE.RESTR.CAVITY>
0.488283

>  <SCORE.RESTR.norm>
0.0106149

>  <SCORE.SYSTEM>
0

>  <SCORE.SYSTEM.CONST>
0

>  <SCORE.SYSTEM.DIHEDRAL>
0

>  <SCORE.SYSTEM.SOLV>
0

>  <SCORE.SYSTEM.norm>
0

>  <SCORE.heavy>
46

>  <SCORE.norm>
0.0673867

>  <RMSD>
5.720

$$$$
lig.pdb
 OpenBabel03061811583D
libRbt.so/2013.1/901 2013/11/27
 46 49  0  0  0  0  0  0  0  0999 V2000
   10.2973  -14.1143   12.8380 C   0  0  1  0  0  0  0  0  0  0  0  0
   11.9576  -14.9103   11.1009 C   0  0  1  0  0  0  0  0  0  0  0  0
   12.1534  -13.5435   10.3776 C   0  0  1  0  0  0  0  0  0  0  0  0
   13.6142  -13.5210    9.6932 C   0  0  2  0  0  0  0  0  0  0  0  0
   10.3313  -14.3953    8.8308 C   0  0  2  0  0  0  0  0  0  0  0  0
    9.2736  -13.8704    7.8187 C   0  0  1  0  0  0  0  0  0  0  0  0
    9.1172  -15.1339    7.0074 C   0  0  1  0  0  0  0  0  0  0  0  0
   10.5778  -15.6227    6.7487 C   0  0  1  0  0  0  0  0  0  0  0  0
   11.3514  -14.9477    5.5623 C   0  0  0  0  0  0  0  0  0  0  0  0
    7.9057  -17.2779    7.1461 C   0  0  1  0  0  0  0  0  0  0  0  0
    6.9352  -17.0094    6.0349 C   0  0  1  0  0  0  0  0  0  0  0  0
    8.8797  -14.4853   13.3341 C   0  0  1  0  0  0  0  0  0  0  0  0
    6.5030  -18.3824    5.4086 C   0  0  0  0  0  0  0  0  0  0  0  0
    5.8596  -19.2830    6.3215 C   0  0  0  0  0  0  0  0  0  0  0  0
    6.7815  -19.5944    7.3930 C   0  0  2  0  0  0  0  0  0  0  0  0
    6.1238  -20.5787    8.4388 C   0  0  0  0  0  0  0  0  0  0  0  0
   18.0762  -15.2797    7.7513 C   0  0  2  0  0  0  0  0  0  0  0  0
   16.3662  -14.5787    9.2133 C   0  0  0  0  0  0  0  0  0  0  0  0
   19.2664  -15.0019    7.1061 C   0  0  0  0  0  0  0  0  0  0  0  0
   17.8813  -14.3564    8.7254 C   0  0  1  0  0  0  0  0  0  0  0  0
    7.7800  -14.1560   12.2250 C   0  0  0  0  0  0  0  0  0  0  0  0
    7.8718  -12.5931   11.8767 C   0  0  0  0  0  0  0  0  0  0  0  0
    9.3495  -12.2937   11.3450 C   0  0  1  0  0  0  0  0  0  0  0  0
    9.5424  -10.8134   10.9946 C   0  0  0  0  0  0  0  0  0  0  0  0
   14.7018  -13.6381   10.8483 C   0  0  1  0  0  0  0  0  0  0  0  0
   14.4648  -15.0820   11.5448 C   0  0  0  0  0  0  0  0  0  0  0  0
   13.0292  -15.1364   12.1960 C   0  0  2  0  0  0  0  0  0  0  0  0
   18.1032  -16.6355    8.2519 F   0  0  0  0  0  0  0  0  0  0  0  0
    7.0906  -20.9826    9.5888 N   0  0  0  0  0  0  0  0  0  0  0  0
    8.8832  -15.9456   13.7175 N   0  0  0  0  0  0  0  0  0  0  0  0
    5.7470  -16.4000    6.4474 N   0  0  0  0  0  0  0  0  0  0  0  0
   20.6085  -15.0679    7.5487 N   0  0  0  0  0  0  0  0  0  0  0  0
    8.6311  -10.4050    9.9976 N   0  0  0  0  0  0  0  0  0  0  0  0
   16.0549  -13.6079   10.2646 N   0  0  0  0  0  0  0  0  0  0  0  0
   12.7937  -16.4546   12.8255 N   0  0  0  0  0  0  0  0  0  0  0  0
   10.6941  -14.9516   11.7515 O   0  0  0  0  0  0  0  0  0  0  0  0
   11.0654  -13.4393    9.3488 O   0  0  0  0  0  0  0  0  0  0  0  0
   13.7625  -12.3059    9.0626 O   0  0  0  0  0  0  0  0  0  0  0  0
    8.1308  -13.5040    8.5307 O   0  0  0  0  0  0  0  0  0  0  0  0
   11.0679  -15.4286    8.0859 O   0  0  0  0  0  0  0  0  0  0  0  0
   12.6340  -15.5977    5.4602 O   0  0  0  0  0  0  0  0  0  0  0  0
    8.3267  -16.1484    7.8138 O   0  0  0  0  0  0  0  0  0  0  0  0
   18.7808  -14.5167    9.8441 O   0  0  0  0  0  0  0  0  0  0  0  0
   15.5929  -15.4327    8.7492 O   0  0  0  0  0  0  0  0  0  0  0  0
    7.2441  -18.3273    8.0728 O   0  0  0  0  0  0  0  0  0  0  0  0
   10.3662  -12.6769   12.4078 O   0  0  0  0  0  0  0  0  0  0  0  0
  1 36  1  6  0  0  0
  2 36  1  1  0  0  0
  2  3  1  0  0  0  0
  3 37  1  6  0  0  0
  3  4  1  0  0  0  0
  4 38  1  1  0  0  0
  5 37  1  6  0  0  0
  5  6  1  0  0  0  0
  6  7  1  0  0  0  0
  6 39  1  1  0  0  0
  7 42  1  1  0  0  0
  8  9  1  6  0  0  0
  8  7  1  0  0  0  0
 10 42  1  1  0  0  0
 10 11  1  0  0  0  0
 11 31  1  1  0  0  0
 11 13  1  0  0  0  0
 12 30  1  6  0  0  0
 12  1  1  0  0  0  0
 14 13  1  0  0  0  0
 15 16  1  1  0  0  0
 15 14  1  0  0  0  0
 17 19  1  1  0  0  0
 17 28  1  0  0  0  0
 18 34  1  0  0  0  0
 19 32  1  0  0  0  0
 20 18  1  1  0  0  0
 20 17  1  0  0  0  0
 20 43  1  0  0  0  0
 21 12  1  0  0  0  0
 22 21  1  0  0  0  0
 22 23  1  0  0  0  0
 23 24  1  1  0  0  0
 23 46  1  0  0  0  0
 24 33  1  0  0  0  0
 25 34  1  6  0  0  0
 25  4  1  0  0  0  0
 26 25  1  0  0  0  0
 27 35  1  6  0  0  0
 27 26  1  0  0  0  0
 27  2  1  0  0  0  0
 29 16  1  0  0  0  0
 40  8  1  0  0  0  0
 40  5  1  0  0  0  0
 41  9  1  0  0  0  0
 44 18  2  0  0  0  0
 45 15  1  0  0  0  0
 45 10  1  0  0  0  0
 46  1  1  0  0  0  0
M  END
>  <CHROM.1>
-177.35144250,-64.57883710,-19.06468630,178.23323343,169.85339754,-176.80319256
-63.73377920,178.13037424,67.65684958,-179.37327112,169.11506697,-59.30863691
-54.38773563,11.38627155,-15.16647655,9.23464996,2.93692146,-0.12771550,-2.28732943

>  <Name>
lig.pdb

>  <RI>
0

>  <Rbt.Current_Directory>
/home/afrankz/demos/rdock_decoys_rna/rnas/3wru

>  <Rbt.Executable>
rbdock ($Id: //depot/dev/client3/rdock/2013.1/src/exe/rbdock.cxx#4 $)

>  <Rbt.Library>
libRbt.so (2013.1, Build901 2013/11/27)

>  <Rbt.Parameter_File>
/export/apps/rDock/src/rDock_2013.1_src/data/scripts/dock_solv.prm

>  <Rbt.Receptor>
prm/pocket_docking_4.prm

>  <SCORE>
3.12407

>  <SCORE.INTER>
6.24168

>  <SCORE.INTER.CONST>
1

>  <SCORE.INTER.POLAR>
0

>  <SCORE.INTER.ROT>
13

>  <SCORE.INTER.SOLV>
19.9471

>  <SCORE.INTER.VDW>
-14.7546

>  <SCORE.INTER.norm>
0.135689

>  <SCORE.INTRA>
-3.11761

>  <SCORE.INTRA.DIHEDRAL>
-11.7343

>  <SCORE.INTRA.DIHEDRAL.0>
19.7146

>  <SCORE.INTRA.POLAR>
0

>  <SCORE.INTRA.POLAR.0>
0

>  <SCORE.INTRA.REPUL>
0

>  <SCORE.INTRA.REPUL.0>
0

>  <SCORE.INTRA.SOLV>
0.786708

>  <SCORE.INTRA.SOLV.lig_0>
-116.697

>  <SCORE.INTRA.VDW>
2.35618

>  <SCORE.INTRA.VDW.0>
-7.06424

>  <SCORE.INTRA.norm>
-0.0677741

>  <SCORE.RESTR>
0

>  <SCORE.RESTR.CAVITY>
0

>  <SCORE.RESTR.norm>
0

>  <SCORE.SYSTEM>
0

>  <SCORE.SYSTEM.CONST>
0

>  <SCORE.SYSTEM.DIHEDRAL>
0

>  <SCORE.SYSTEM.SOLV>
0

>  <SCORE.SYSTEM.norm>
0

>  <SCORE.heavy>
46

>  <SCORE.norm>
0.0679146

>  <RMSD>
5.726

$$$$
lig.pdb
 OpenBabel03061811583D
libRbt.so/2013.1/901 2013/11/27
 46 49  0  0  0  0  0  0  0  0999 V2000
   13.6321  -16.7372    6.3317 C   0  0  1  0  0  0  0  0  0  0  0  0
   16.0489  -16.1183    6.7605 C   0  0  1  0  0  0  0  0  0  0  0  0
   16.0192  -14.5816    7.0202 C   0  0  1  0  0  0  0  0  0  0  0  0
   17.4540  -13.9588    6.6250 C   0  0  2  0  0  0  0  0  0  0  0  0
   13.6482  -13.8882    6.4409 C   0  0  2  0  0  0  0  0  0  0  0  0
   13.3829  -12.9464    7.6498 C   0  0  1  0  0  0  0  0  0  0  0  0
   11.9792  -12.5286    7.2838 C   0  0  1  0  0  0  0  0  0  0  0  0
   12.0505  -12.1889    5.7611 C   0  0  1  0  0  0  0  0  0  0  0  0
   12.5828  -10.7637    5.3771 C   0  0  0  0  0  0  0  0  0  0  0  0
    9.6899  -13.4449    7.3409 C   0  0  1  0  0  0  0  0  0  0  0  0
    9.0764  -12.4829    8.3140 C   0  0  1  0  0  0  0  0  0  0  0  0
   12.5026  -17.5289    7.0321 C   0  0  1  0  0  0  0  0  0  0  0  0
    7.5458  -12.3548    7.9897 C   0  0  0  0  0  0  0  0  0  0  0  0
    6.8067  -13.5807    8.0862 C   0  0  0  0  0  0  0  0  0  0  0  0
    7.3489  -14.5256    7.1332 C   0  0  2  0  0  0  0  0  0  0  0  0
    6.5788  -15.9030    7.1995 C   0  0  0  0  0  0  0  0  0  0  0  0
   21.8638  -12.0089    7.3065 C   0  0  2  0  0  0  0  0  0  0  0  0
   20.8129  -13.8346    8.3626 C   0  0  0  0  0  0  0  0  0  0  0  0
   21.8733  -11.1098    8.3560 C   0  0  0  0  0  0  0  0  0  0  0  0
   22.1871  -13.2377    7.7807 C   0  0  1  0  0  0  0  0  0  0  0  0
   12.8758  -19.0763    7.1506 C   0  0  0  0  0  0  0  0  0  0  0  0
   13.1386  -19.6431    5.6734 C   0  0  0  0  0  0  0  0  0  0  0  0
   14.3332  -18.7991    5.0281 C   0  0  1  0  0  0  0  0  0  0  0  0
   14.6538  -19.2602    3.6012 C   0  0  0  0  0  0  0  0  0  0  0  0
   18.5521  -14.6076    7.5758 C   0  0  1  0  0  0  0  0  0  0  0  0
   18.5534  -16.1939    7.2449 C   0  0  0  0  0  0  0  0  0  0  0  0
   17.1485  -16.8184    7.5971 C   0  0  2  0  0  0  0  0  0  0  0  0
   22.7578  -11.5483    6.2680 F   0  0  0  0  0  0  0  0  0  0  0  0
    7.1432  -16.9661    6.2138 N   0  0  0  0  0  0  0  0  0  0  0  0
   12.2528  -16.8978    8.3807 N   0  0  0  0  0  0  0  0  0  0  0  0
    9.1390  -12.8989    9.6469 N   0  0  0  0  0  0  0  0  0  0  0  0
   21.1186  -11.0588    9.5515 N   0  0  0  0  0  0  0  0  0  0  0  0
   15.6804  -18.4762    3.0333 N   0  0  0  0  0  0  0  0  0  0  0  0
   19.8799  -14.0537    7.2554 N   0  0  0  0  0  0  0  0  0  0  0  0
   17.1307  -18.2653    7.2879 N   0  0  0  0  0  0  0  0  0  0  0  0
   14.8117  -16.7097    7.1360 O   0  0  0  0  0  0  0  0  0  0  0  0
   14.9234  -14.0195    6.1622 O   0  0  0  0  0  0  0  0  0  0  0  0
   17.4022  -12.6036    6.8634 O   0  0  0  0  0  0  0  0  0  0  0  0
   13.4670  -13.7020    8.8199 O   0  0  0  0  0  0  0  0  0  0  0  0
   12.8153  -13.3378    5.3599 O   0  0  0  0  0  0  0  0  0  0  0  0
   11.6991   -9.7977    5.9803 O   0  0  0  0  0  0  0  0  0  0  0  0
   11.0307  -13.6832    7.5513 O   0  0  0  0  0  0  0  0  0  0  0  0
   22.7064  -14.1186    6.7606 O   0  0  0  0  0  0  0  0  0  0  0  0
   20.6010  -14.0792    9.5617 O   0  0  0  0  0  0  0  0  0  0  0  0
    8.8256  -14.7292    7.3776 O   0  0  0  0  0  0  0  0  0  0  0  0
   13.9603  -17.3262    4.9895 O   0  0  0  0  0  0  0  0  0  0  0  0
  1 36  1  1  0  0  0
  2 36  1  1  0  0  0
  2  3  1  0  0  0  0
  3 37  1  6  0  0  0
  3  4  1  0  0  0  0
  4 38  1  1  0  0  0
  5 37  1  6  0  0  0
  5  6  1  0  0  0  0
  6  7  1  0  0  0  0
  6 39  1  1  0  0  0
  7 42  1  6  0  0  0
  8  9  1  1  0  0  0
  8  7  1  0  0  0  0
 10 42  1  1  0  0  0
 10 11  1  0  0  0  0
 11 31  1  1  0  0  0
 11 13  1  0  0  0  0
 12 30  1  1  0  0  0
 12  1  1  0  0  0  0
 14 13  1  0  0  0  0
 15 16  1  1  0  0  0
 15 14  1  0  0  0  0
 17 19  1  1  0  0  0
 17 28  1  0  0  0  0
 18 34  1  0  0  0  0
 19 32  1  0  0  0  0
 20 18  1  6  0  0  0
 20 17  1  0  0  0  0
 20 43  1  0  0  0  0
 21 12  1  0  0  0  0
 22 21  1  0  0  0  0
 22 23  1  0  0  0  0
 23 24  1  6  0  0  0
 23 46  1  0  0  0  0
 24 33  1  0  0  0  0
 25 34  1  6  0  0  0
 25  4  1  0  0  0  0
 26 25  1  0  0  0  0
 27 35  1  6  0  0  0
 27 26  1  0  0  0  0
 27  2  1  0  0  0  0
 29 16  1  0  0  0  0
 40  8  1  0  0  0  0
 40  5  1  0  0  0  0
 41  9  1  0  0  0  0
 44 18  2  0  0  0  0
 45 15  1  0  0  0  0
 45 10  1  0  0  0  0
 46  1  1  0  0  0  0
M  END
>  <CHROM.1>
177.01058010,82.11111745,87.89776875,61.90118472,176.45778229,-60.06271816
-68.22701712,-178.78024537,-60.56497833,66.40342469,83.02374619,178.10713961
143.92564065,14.60872493,-14.57913777,6.99363226,-3.03698589,-0.00006824
0.27021939

>  <Name>
lig.pdb

>  <RI>
0

>  <Rbt.Current_Directory>
/home/afrankz/demos/rdock_decoys_rna/rnas/3wru

>  <Rbt.Executable>
rbdock ($Id: //depot/dev/client3/rdock/2013.1/src/exe/rbdock.cxx#4 $)

>  <Rbt.Library>
libRbt.so (2013.1, Build901 2013/11/27)

>  <Rbt.Parameter_File>
/export/apps/rDock/src/rDock_2013.1_src/data/scripts/dock_solv.prm

>  <Rbt.Receptor>
prm/pocket_docking_8.prm

>  <SCORE>
4.4933

>  <SCORE.INTER>
7.66304

>  <SCORE.INTER.CONST>
1

>  <SCORE.INTER.POLAR>
0

>  <SCORE.INTER.ROT>
13

>  <SCORE.INTER.SOLV>
12.4294

>  <SCORE.INTER.VDW>
-11.3011

>  <SCORE.INTER.norm>
0.166588

>  <SCORE.INTRA>
-3.16974

>  <SCORE.INTRA.DIHEDRAL>
-10.5467

>  <SCORE.INTRA.DIHEDRAL.0>
19.7146

>  <SCORE.INTRA.POLAR>
0

>  <SCORE.INTRA.POLAR.0>
0

>  <SCORE.INTRA.REPUL>
0

>  <SCORE.INTRA.REPUL.0>
0

>  <SCORE.INTRA.SOLV>
1.78799

>  <SCORE.INTRA.SOLV.lig_0>
-116.697

>  <SCORE.INTRA.VDW>
1.20959

>  <SCORE.INTRA.VDW.0>
-7.06424

>  <SCORE.INTRA.norm>
-0.0689074

>  <SCORE.RESTR>
0

>  <SCORE.RESTR.CAVITY>
0

>  <SCORE.RESTR.norm>
0

>  <SCORE.SYSTEM>
0

>  <SCORE.SYSTEM.CONST>
0

>  <SCORE.SYSTEM.DIHEDRAL>
0

>  <SCORE.SYSTEM.SOLV>
0

>  <SCORE.SYSTEM.norm>
0

>  <SCORE.heavy>
46

>  <SCORE.norm>
0.0976805

>  <RMSD>
5.762

$$$$
lig.pdb
 OpenBabel03061811583D
libRbt.so/2013.1/901 2013/11/27
 46 49  0  0  0  0  0  0  0  0999 V2000
   13.7563  -17.5734   10.0993 C   0  0  1  0  0  0  0  0  0  0  0  0
   14.9590  -15.7635    8.8011 C   0  0  1  0  0  0  0  0  0  0  0  0
   14.6109  -14.3550    8.2312 C   0  0  1  0  0  0  0  0  0  0  0  0
   15.9747  -13.6303    7.7646 C   0  0  2  0  0  0  0  0  0  0  0  0
   12.4468  -15.0125    7.0813 C   0  0  2  0  0  0  0  0  0  0  0  0
   11.4990  -14.1397    7.9523 C   0  0  1  0  0  0  0  0  0  0  0  0
   10.2042  -14.4784    7.2539 C   0  0  1  0  0  0  0  0  0  0  0  0
   10.5332  -14.3658    5.7313 C   0  0  1  0  0  0  0  0  0  0  0  0
   10.5038  -12.9279    5.1044 C   0  0  0  0  0  0  0  0  0  0  0  0
    8.4383  -16.1536    7.6526 C   0  0  1  0  0  0  0  0  0  0  0  0
    7.7441  -15.9198    6.3441 C   0  0  1  0  0  0  0  0  0  0  0  0
   12.4470  -18.3727    9.8985 C   0  0  1  0  0  0  0  0  0  0  0  0
    6.2120  -16.2035    6.5355 C   0  0  0  0  0  0  0  0  0  0  0  0
    5.5647  -15.3731    7.5102 C   0  0  0  0  0  0  0  0  0  0  0  0
    6.1862  -15.5985    8.7978 C   0  0  2  0  0  0  0  0  0  0  0  0
    5.5195  -14.7016    9.9140 C   0  0  0  0  0  0  0  0  0  0  0  0
   20.9819  -12.5647    8.5113 C   0  0  2  0  0  0  0  0  0  0  0  0
   18.9623  -13.3832    7.6146 C   0  0  0  0  0  0  0  0  0  0  0  0
   22.2887  -12.1972    8.2516 C   0  0  0  0  0  0  0  0  0  0  0  0
   20.2674  -12.4799    7.3618 C   0  0  1  0  0  0  0  0  0  0  0  0
   11.1844  -17.5429   10.4132 C   0  0  0  0  0  0  0  0  0  0  0  0
   11.4098  -17.1969   11.9630 C   0  0  0  0  0  0  0  0  0  0  0  0
   12.7593  -16.3487   12.0863 C   0  0  1  0  0  0  0  0  0  0  0  0
   13.0706  -15.9772   13.5411 C   0  0  0  0  0  0  0  0  0  0  0  0
   16.8956  -13.4393    9.0477 C   0  0  1  0  0  0  0  0  0  0  0  0
   17.2425  -14.9305    9.5787 C   0  0  0  0  0  0  0  0  0  0  0  0
   15.9181  -15.6687   10.0135 C   0  0  2  0  0  0  0  0  0  0  0  0
   20.4501  -11.7394    9.5723 F   0  0  0  0  0  0  0  0  0  0  0  0
    6.1686  -14.8881   11.3155 N   0  0  0  0  0  0  0  0  0  0  0  0
   12.3354  -18.7323    8.4365 N   0  0  0  0  0  0  0  0  0  0  0  0
    7.8221  -14.6030    5.8820 N   0  0  0  0  0  0  0  0  0  0  0  0
   22.8525  -10.9612    7.8570 N   0  0  0  0  0  0  0  0  0  0  0  0
   12.1167  -15.0694   14.0482 N   0  0  0  0  0  0  0  0  0  0  0  0
   18.1502  -12.7666    8.6658 N   0  0  0  0  0  0  0  0  0  0  0  0
   16.2182  -17.0373   10.4893 N   0  0  0  0  0  0  0  0  0  0  0  0
   13.7835  -16.4179    9.2607 O   0  0  0  0  0  0  0  0  0  0  0  0
   13.6836  -14.5752    7.0716 O   0  0  0  0  0  0  0  0  0  0  0  0
   15.6410  -12.3907    7.2667 O   0  0  0  0  0  0  0  0  0  0  0  0
   11.5731  -14.5941    9.2696 O   0  0  0  0  0  0  0  0  0  0  0  0
   11.7842  -15.0724    5.7688 O   0  0  0  0  0  0  0  0  0  0  0  0
   11.5529  -12.1637    5.7318 O   0  0  0  0  0  0  0  0  0  0  0  0
    9.7906  -15.8898    7.6298 O   0  0  0  0  0  0  0  0  0  0  0  0
   19.8691  -11.1287    7.0424 O   0  0  0  0  0  0  0  0  0  0  0  0
   18.6947  -14.4263    6.9958 O   0  0  0  0  0  0  0  0  0  0  0  0
    7.6711  -15.3326    8.7180 O   0  0  0  0  0  0  0  0  0  0  0  0
   13.9242  -17.1516   11.5310 O   0  0  0  0  0  0  0  0  0  0  0  0
  1 36  1  6  0  0  0
  2 36  1  1  0  0  0
  2  3  1  0  0  0  0
  3 37  1  6  0  0  0
  3  4  1  0  0  0  0
  4 38  1  1  0  0  0
  5 37  1  6  0  0  0
  5  6  1  0  0  0  0
  6  7  1  0  0  0  0
  6 39  1  1  0  0  0
  7 42  1  6  0  0  0
  8  9  1  1  0  0  0
  8  7  1  0  0  0  0
 10 42  1  6  0  0  0
 10 11  1  0  0  0  0
 11 31  1  1  0  0  0
 11 13  1  0  0  0  0
 12 30  1  6  0  0  0
 12  1  1  0  0  0  0
 14 13  1  0  0  0  0
 15 16  1  1  0  0  0
 15 14  1  0  0  0  0
 17 19  1  6  0  0  0
 17 28  1  0  0  0  0
 18 34  1  0  0  0  0
 19 32  1  0  0  0  0
 20 18  1  1  0  0  0
 20 17  1  0  0  0  0
 20 43  1  0  0  0  0
 21 12  1  0  0  0  0
 22 21  1  0  0  0  0
 22 23  1  0  0  0  0
 23 24  1  1  0  0  0
 23 46  1  0  0  0  0
 24 33  1  0  0  0  0
 25 34  1  6  0  0  0
 25  4  1  0  0  0  0
 26 25  1  0  0  0  0
 27 35  1  6  0  0  0
 27 26  1  0  0  0  0
 27  2  1  0  0  0  0
 29 16  1  0  0  0  0
 40  8  1  0  0  0  0
 40  5  1  0  0  0  0
 41  9  1  0  0  0  0
 44 18  2  0  0  0  0
 45 15  1  0  0  0  0
 45 10  1  0  0  0  0
 46  1  1  0  0  0  0
M  END
>  <CHROM.1>
-154.67080929,-165.32012774,68.53380652,57.70401479,149.84007994,64.43011578
59.03493315,-179.01113302,65.51094021,65.77323691,160.76022404,-67.17762256
-55.95313717,13.33970365,-14.77284167,8.59079764,-3.01390462,-0.20043166
-1.01488023

>  <Name>
lig.pdb

>  <RI>
0

>  <Rbt.Current_Directory>
/home/afrankz/demos/rdock_decoys_rna/rnas/3wru

>  <Rbt.Executable>
rbdock ($Id: //depot/dev/client3/rdock/2013.1/src/exe/rbdock.cxx#4 $)

>  <Rbt.Library>
libRbt.so (2013.1, Build901 2013/11/27)

>  <Rbt.Parameter_File>
/export/apps/rDock/src/rDock_2013.1_src/data/scripts/dock_solv.prm

>  <Rbt.Receptor>
prm/pocket_docking_5.prm

>  <SCORE>
3.35704

>  <SCORE.INTER>
1.19581

>  <SCORE.INTER.CONST>
1

>  <SCORE.INTER.POLAR>
0

>  <SCORE.INTER.ROT>
13

>  <SCORE.INTER.SOLV>
20.6571

>  <SCORE.INTER.VDW>
-18.3552

>  <SCORE.INTER.norm>
0.0259958

>  <SCORE.INTRA>
2.16124

>  <SCORE.INTRA.DIHEDRAL>
-9.49648

>  <SCORE.INTRA.DIHEDRAL.0>
19.7146

>  <SCORE.INTRA.POLAR>
0

>  <SCORE.INTRA.POLAR.0>
0

>  <SCORE.INTRA.REPUL>
0.0387983

>  <SCORE.INTRA.REPUL.0>
0

>  <SCORE.INTRA.SOLV>
5.46778

>  <SCORE.INTRA.SOLV.lig_0>
-116.697

>  <SCORE.INTRA.VDW>
3.98159

>  <SCORE.INTRA.VDW.0>
-7.06424

>  <SCORE.INTRA.norm>
0.0469834

>  <SCORE.RESTR>
0

>  <SCORE.RESTR.CAVITY>
0

>  <SCORE.RESTR.norm>
0

>  <SCORE.SYSTEM>
0

>  <SCORE.SYSTEM.CONST>
0

>  <SCORE.SYSTEM.DIHEDRAL>
0

>  <SCORE.SYSTEM.SOLV>
0

>  <SCORE.SYSTEM.norm>
0

>  <SCORE.heavy>
46

>  <SCORE.norm>
0.0729792

>  <RMSD>
5.835

$$$$
lig.pdb
 OpenBabel03061811583D
libRbt.so/2013.1/901 2013/11/27
 46 49  0  0  0  0  0  0  0  0999 V2000
   11.1109  -12.7919   12.7450 C   0  0  1  0  0  0  0  0  0  0  0  0
   11.4678  -14.2875   10.7341 C   0  0  1  0  0  0  0  0  0  0  0  0
   11.1639  -13.2151    9.6444 C   0  0  1  0  0  0  0  0  0  0  0  0
   11.9453  -13.6127    8.2901 C   0  0  2  0  0  0  0  0  0  0  0  0
    8.8643  -14.2415    9.3343 C   0  0  2  0  0  0  0  0  0  0  0  0
    7.3672  -13.8496    9.4883 C   0  0  1  0  0  0  0  0  0  0  0  0
    6.7706  -14.9979    8.7109 C   0  0  1  0  0  0  0  0  0  0  0  0
    7.6403  -15.0959    7.4174 C   0  0  1  0  0  0  0  0  0  0  0  0
    7.2859  -14.1108    6.2488 C   0  0  0  0  0  0  0  0  0  0  0  0
    5.9294  -16.4235   10.5395 C   0  0  1  0  0  0  0  0  0  0  0  0
    6.4264  -16.0765   11.9111 C   0  0  1  0  0  0  0  0  0  0  0  0
   10.3420  -12.8334   14.0868 C   0  0  1  0  0  0  0  0  0  0  0  0
    5.2779  -16.3593   12.9433 C   0  0  0  0  0  0  0  0  0  0  0  0
    4.8335  -17.7228   12.9886 C   0  0  0  0  0  0  0  0  0  0  0  0
    4.3122  -18.0842   11.6876 C   0  0  2  0  0  0  0  0  0  0  0  0
    3.8140  -19.5830   11.6728 C   0  0  0  0  0  0  0  0  0  0  0  0
   16.0328  -13.2340    5.1717 C   0  0  2  0  0  0  0  0  0  0  0  0
   15.7196  -13.8393    7.4275 C   0  0  0  0  0  0  0  0  0  0  0  0
   17.0960  -12.3510    5.1719 C   0  0  0  0  0  0  0  0  0  0  0  0
   16.3230  -14.2675    6.0006 C   0  0  1  0  0  0  0  0  0  0  0  0
    8.7683  -12.7117   13.8495 C   0  0  0  0  0  0  0  0  0  0  0  0
    8.4834  -11.3388   13.0709 C   0  0  0  0  0  0  0  0  0  0  0  0
    9.2838  -11.3827   11.6876 C   0  0  1  0  0  0  0  0  0  0  0  0
    9.0842  -10.1007   10.8702 C   0  0  0  0  0  0  0  0  0  0  0  0
   13.5062  -13.5891    8.5963 C   0  0  1  0  0  0  0  0  0  0  0  0
   13.7632  -14.7352    9.7127 C   0  0  0  0  0  0  0  0  0  0  0  0
   12.9838  -14.3808   11.0374 C   0  0  2  0  0  0  0  0  0  0  0  0
   15.7544  -13.6542    3.8169 F   0  0  0  0  0  0  0  0  0  0  0  0
    3.3458  -20.0569   10.2669 N   0  0  0  0  0  0  0  0  0  0  0  0
   10.7137  -14.1099   14.8021 N   0  0  0  0  0  0  0  0  0  0  0  0
    7.5088  -16.8496   12.3403 N   0  0  0  0  0  0  0  0  0  0  0  0
   17.7167  -11.6336    6.2214 N   0  0  0  0  0  0  0  0  0  0  0  0
    7.7147   -9.8606   10.6294 N   0  0  0  0  0  0  0  0  0  0  0  0
   14.2591  -13.9350    7.3773 N   0  0  0  0  0  0  0  0  0  0  0  0
   13.1992  -15.4259   12.0625 N   0  0  0  0  0  0  0  0  0  0  0  0
   10.8270  -13.9486   11.9571 O   0  0  0  0  0  0  0  0  0  0  0  0
    9.6770  -13.2171    9.4392 O   0  0  0  0  0  0  0  0  0  0  0  0
   11.6615  -12.6519    7.3455 O   0  0  0  0  0  0  0  0  0  0  0  0
    7.0511  -13.8548   10.8474 O   0  0  0  0  0  0  0  0  0  0  0  0
    8.9214  -14.9692    8.0566 O   0  0  0  0  0  0  0  0  0  0  0  0
    5.9403  -14.4104    5.8271 O   0  0  0  0  0  0  0  0  0  0  0  0
    6.8667  -16.2646    9.5420 O   0  0  0  0  0  0  0  0  0  0  0  0
   15.7310  -15.5150    5.5770 O   0  0  0  0  0  0  0  0  0  0  0  0
   16.4006  -13.4998    8.4090 O   0  0  0  0  0  0  0  0  0  0  0  0
    5.3590  -17.8608   10.6217 O   0  0  0  0  0  0  0  0  0  0  0  0
   10.7690  -11.5592   11.9579 O   0  0  0  0  0  0  0  0  0  0  0  0
  1 36  1  6  0  0  0
  2 36  1  1  0  0  0
  2  3  1  0  0  0  0
  3 37  1  6  0  0  0
  3  4  1  0  0  0  0
  4 38  1  6  0  0  0
  5 37  1  6  0  0  0
  5  6  1  0  0  0  0
  6  7  1  0  0  0  0
  6 39  1  1  0  0  0
  7 42  1  1  0  0  0
  8  9  1  6  0  0  0
  8  7  1  0  0  0  0
 10 42  1  6  0  0  0
 10 11  1  0  0  0  0
 11 31  1  1  0  0  0
 11 13  1  0  0  0  0
 12 30  1  6  0  0  0
 12  1  1  0  0  0  0
 14 13  1  0  0  0  0
 15 16  1  1  0  0  0
 15 14  1  0  0  0  0
 17 19  1  6  0  0  0
 17 28  1  0  0  0  0
 18 34  1  0  0  0  0
 19 32  1  0  0  0  0
 20 18  1  1  0  0  0
 20 17  1  0  0  0  0
 20 43  1  0  0  0  0
 21 12  1  0  0  0  0
 22 21  1  0  0  0  0
 22 23  1  0  0  0  0
 23 24  1  1  0  0  0
 23 46  1  0  0  0  0
 24 33  1  0  0  0  0
 25 34  1  6  0  0  0
 25  4  1  0  0  0  0
 26 25  1  0  0  0  0
 27 35  1  1  0  0  0
 27 26  1  0  0  0  0
 27  2  1  0  0  0  0
 29 16  1  0  0  0  0
 40  8  1  0  0  0  0
 40  5  1  0  0  0  0
 41  9  1  0  0  0  0
 44 18  2  0  0  0  0
 45 15  1  0  0  0  0
 45 10  1  0  0  0  0
 46  1  1  0  0  0  0
M  END
>  <CHROM.1>
-173.36186113,-64.02460814,-43.64130991,165.42642650,78.82602987,-62.04209348
-100.20289036,-175.52222493,-58.20359376,72.85153378,92.18893044,-56.56395857
174.20445694,10.12909113,-14.31385573,9.67875391,-2.88886317,-0.45906076
-2.02987881

>  <Name>
lig.pdb

>  <RI>
0

>  <Rbt.Current_Directory>
/home/afrankz/demos/rdock_decoys_rna/rnas/3wru

>  <Rbt.Executable>
rbdock ($Id: //depot/dev/client3/rdock/2013.1/src/exe/rbdock.cxx#4 $)

>  <Rbt.Library>
libRbt.so (2013.1, Build901 2013/11/27)

>  <Rbt.Parameter_File>
/export/apps/rDock/src/rDock_2013.1_src/data/scripts/dock_solv.prm

>  <Rbt.Receptor>
prm/pocket_docking_5.prm

>  <SCORE>
4.01615

>  <SCORE.INTER>
4.03862

>  <SCORE.INTER.CONST>
1

>  <SCORE.INTER.POLAR>
0

>  <SCORE.INTER.ROT>
13

>  <SCORE.INTER.SOLV>
23.4803

>  <SCORE.INTER.VDW>
-17.401

>  <SCORE.INTER.norm>
0.0877961

>  <SCORE.INTRA>
-0.0224675

>  <SCORE.INTRA.DIHEDRAL>
-6.23864

>  <SCORE.INTRA.DIHEDRAL.0>
19.7146

>  <SCORE.INTRA.POLAR>
0

>  <SCORE.INTRA.POLAR.0>
0

>  <SCORE.INTRA.REPUL>
0

>  <SCORE.INTRA.REPUL.0>
0

>  <SCORE.INTRA.SOLV>
1.62386

>  <SCORE.INTRA.SOLV.lig_0>
-116.697

>  <SCORE.INTRA.VDW>
2.28492

>  <SCORE.INTRA.VDW.0>
-7.06424

>  <SCORE.INTRA.norm>
-0.000488425

>  <SCORE.RESTR>
0

>  <SCORE.RESTR.CAVITY>
0

>  <SCORE.RESTR.norm>
0

>  <SCORE.SYSTEM>
0

>  <SCORE.SYSTEM.CONST>
0

>  <SCORE.SYSTEM.DIHEDRAL>
0

>  <SCORE.SYSTEM.SOLV>
0

>  <SCORE.SYSTEM.norm>
0

>  <SCORE.heavy>
46

>  <SCORE.norm>
0.0873077

>  <RMSD>
5.850

$$$$
lig.pdb
 OpenBabel03061811583D
libRbt.so/2013.1/901 2013/11/27
 46 49  0  0  0  0  0  0  0  0999 V2000
   10.5468  -18.7150    7.0178 C   0  0  1  0  0  0  0  0  0  0  0  0
   12.3356  -17.0540    6.3475 C   0  0  1  0  0  0  0  0  0  0  0  0
   12.0995  -15.9844    7.4566 C   0  0  1  0  0  0  0  0  0  0  0  0
   12.6435  -14.5597    6.9302 C   0  0  2  0  0  0  0  0  0  0  0  0
    9.9867  -15.9054    8.8592 C   0  0  2  0  0  0  0  0  0  0  0  0
   10.1522  -14.5477    9.5995 C   0  0  1  0  0  0  0  0  0  0  0  0
    8.8867  -14.6030   10.4207 C   0  0  1  0  0  0  0  0  0  0  0  0
    7.7802  -15.0537    9.4148 C   0  0  1  0  0  0  0  0  0  0  0  0
    7.1513  -13.9394    8.5069 C   0  0  0  0  0  0  0  0  0  0  0  0
    7.9653  -15.8537   12.3365 C   0  0  1  0  0  0  0  0  0  0  0  0
    8.2577  -16.6785   13.5543 C   0  0  1  0  0  0  0  0  0  0  0  0
   10.4650  -20.1268    7.6450 C   0  0  1  0  0  0  0  0  0  0  0  0
    6.9130  -16.9189   14.3277 C   0  0  0  0  0  0  0  0  0  0  0  0
    5.9058  -17.6147   13.5794 C   0  0  0  0  0  0  0  0  0  0  0  0
    5.5707  -16.8292   12.4107 C   0  0  2  0  0  0  0  0  0  0  0  0
    4.4691  -17.5514   11.5390 C   0  0  0  0  0  0  0  0  0  0  0  0
   17.2750  -11.2039    6.6054 C   0  0  2  0  0  0  0  0  0  0  0  0
   16.2057  -13.2544    6.1525 C   0  0  0  0  0  0  0  0  0  0  0  0
   18.0630  -10.2050    6.0657 C   0  0  0  0  0  0  0  0  0  0  0  0
   16.5618  -11.7845    5.6086 C   0  0  1  0  0  0  0  0  0  0  0  0
   10.9697  -21.2400    6.6184 C   0  0  0  0  0  0  0  0  0  0  0  0
   10.0659  -21.1496    5.2966 C   0  0  0  0  0  0  0  0  0  0  0  0
   10.2250  -19.6783    4.6917 C   0  0  1  0  0  0  0  0  0  0  0  0
    9.3839  -19.4869    3.4239 C   0  0  0  0  0  0  0  0  0  0  0  0
   14.2097  -14.6903    6.6837 C   0  0  1  0  0  0  0  0  0  0  0  0
   14.3902  -15.7931    5.5102 C   0  0  0  0  0  0  0  0  0  0  0  0
   13.8374  -17.1890    5.9936 C   0  0  2  0  0  0  0  0  0  0  0  0
   16.4432  -10.6511    7.6505 F   0  0  0  0  0  0  0  0  0  0  0  0
    4.9146  -18.9524   11.0303 N   0  0  0  0  0  0  0  0  0  0  0  0
   11.2709  -20.1214    8.9217 N   0  0  0  0  0  0  0  0  0  0  0  0
    8.7576  -17.9537   13.2755 N   0  0  0  0  0  0  0  0  0  0  0  0
   19.0593   -9.3837    6.6439 N   0  0  0  0  0  0  0  0  0  0  0  0
    9.5856  -18.2049    2.8699 N   0  0  0  0  0  0  0  0  0  0  0  0
   14.7500  -13.4022    6.2131 N   0  0  0  0  0  0  0  0  0  0  0  0
   13.9842  -18.2038    4.9268 N   0  0  0  0  0  0  0  0  0  0  0  0
   11.9043  -18.3339    6.7918 O   0  0  0  0  0  0  0  0  0  0  0  0
   10.6209  -15.9454    7.7115 O   0  0  0  0  0  0  0  0  0  0  0  0
   12.4245  -13.6340    7.9258 O   0  0  0  0  0  0  0  0  0  0  0  0
   11.3251  -14.6007   10.3537 O   0  0  0  0  0  0  0  0  0  0  0  0
    8.5308  -16.1069    8.7877 O   0  0  0  0  0  0  0  0  0  0  0  0
    6.5408  -12.9677    9.3794 O   0  0  0  0  0  0  0  0  0  0  0  0
    9.0639  -15.6125   11.5404 O   0  0  0  0  0  0  0  0  0  0  0  0
   15.3440  -11.0732    5.2967 O   0  0  0  0  0  0  0  0  0  0  0  0
   17.0454  -14.1188    6.4531 O   0  0  0  0  0  0  0  0  0  0  0  0
    6.8078  -16.5586   11.5873 O   0  0  0  0  0  0  0  0  0  0  0  0
    9.7904  -18.6487    5.7219 O   0  0  0  0  0  0  0  0  0  0  0  0
  1 36  1  6  0  0  0
  2 36  1  1  0  0  0
  2  3  1  0  0  0  0
  3 37  1  6  0  0  0
  3  4  1  0  0  0  0
  4 38  1  1  0  0  0
  5 37  1  6  0  0  0
  5  6  1  0  0  0  0
  6  7  1  0  0  0  0
  6 39  1  1  0  0  0
  7 42  1  1  0  0  0
  8  9  1  6  0  0  0
  8  7  1  0  0  0  0
 10 42  1  6  0  0  0
 10 11  1  0  0  0  0
 11 31  1  6  0  0  0
 11 13  1  0  0  0  0
 12 30  1  1  0  0  0
 12  1  1  0  0  0  0
 14 13  1  0  0  0  0
 15 16  1  6  0  0  0
 15 14  1  0  0  0  0
 17 19  1  6  0  0  0
 17 28  1  0  0  0  0
 18 34  1  0  0  0  0
 19 32  1  0  0  0  0
 20 18  1  1  0  0  0
 20 17  1  0  0  0  0
 20 43  1  0  0  0  0
 21 12  1  0  0  0  0
 22 21  1  0  0  0  0
 22 23  1  0  0  0  0
 23 24  1  6  0  0  0
 23 46  1  0  0  0  0
 24 33  1  0  0  0  0
 25 34  1  6  0  0  0
 25  4  1  0  0  0  0
 26 25  1  0  0  0  0
 27 35  1  6  0  0  0
 27 26  1  0  0  0  0
 27  2  1  0  0  0  0
 29 16  1  0  0  0  0
 40  8  1  0  0  0  0
 40  5  1  0  0  0  0
 41  9  1  0  0  0  0
 44 18  2  0  0  0  0
 45 15  1  0  0  0  0
 45 10  1  0  0  0  0
 46  1  1  0  0  0  0
M  END
>  <CHROM.1>
-173.69413468,68.88422700,135.89834896,69.93047070,-175.80772107,-60.52331447
-170.36768568,-59.79593572,-174.03131931,119.59394824,156.10770158,-177.23393257
169.63722009,11.11387881,-15.86043555,8.17023293,-3.08834015,0.64766646,0.69950234

>  <Name>
lig.pdb

>  <RI>
0

>  <Rbt.Current_Directory>
/home/afrankz/demos/rdock_decoys_rna/rnas/3wru

>  <Rbt.Executable>
rbdock ($Id: //depot/dev/client3/rdock/2013.1/src/exe/rbdock.cxx#4 $)

>  <Rbt.Library>
libRbt.so (2013.1, Build901 2013/11/27)

>  <Rbt.Parameter_File>
/export/apps/rDock/src/rDock_2013.1_src/data/scripts/dock_solv.prm

>  <Rbt.Receptor>
prm/pocket_docking_7.prm

>  <SCORE>
5.74821

>  <SCORE.INTER>
9.48037

>  <SCORE.INTER.CONST>
1

>  <SCORE.INTER.POLAR>
0

>  <SCORE.INTER.ROT>
13

>  <SCORE.INTER.SOLV>
19.8935

>  <SCORE.INTER.VDW>
-12.5776

>  <SCORE.INTER.norm>
0.206095

>  <SCORE.INTRA>
-3.73216

>  <SCORE.INTRA.DIHEDRAL>
-7.55128

>  <SCORE.INTRA.DIHEDRAL.0>
19.7146

>  <SCORE.INTRA.POLAR>
0

>  <SCORE.INTRA.POLAR.0>
0

>  <SCORE.INTRA.REPUL>
0.00150418

>  <SCORE.INTRA.REPUL.0>
0

>  <SCORE.INTRA.SOLV>
-2.52034

>  <SCORE.INTRA.SOLV.lig_0>
-116.697

>  <SCORE.INTRA.VDW>
1.29613

>  <SCORE.INTRA.VDW.0>
-7.06424

>  <SCORE.INTRA.norm>
-0.081134

>  <SCORE.RESTR>
0

>  <SCORE.RESTR.CAVITY>
0

>  <SCORE.RESTR.norm>
0

>  <SCORE.SYSTEM>
0

>  <SCORE.SYSTEM.CONST>
0

>  <SCORE.SYSTEM.DIHEDRAL>
0

>  <SCORE.SYSTEM.SOLV>
0

>  <SCORE.SYSTEM.norm>
0

>  <SCORE.heavy>
46

>  <SCORE.norm>
0.124961

>  <RMSD>
5.939

$$$$
lig.pdb
 OpenBabel03061811583D
libRbt.so/2013.1/901 2013/11/27
 46 49  0  0  0  0  0  0  0  0999 V2000
   11.7980  -13.3347   12.8711 C   0  0  1  0  0  0  0  0  0  0  0  0
   12.0799  -14.2885   10.5433 C   0  0  1  0  0  0  0  0  0  0  0  0
   11.2118  -13.2590    9.7583 C   0  0  1  0  0  0  0  0  0  0  0  0
   11.7581  -13.1652    8.2431 C   0  0  2  0  0  0  0  0  0  0  0  0
    9.3195  -14.8997    9.3515 C   0  0  2  0  0  0  0  0  0  0  0  0
    7.8908  -15.2097    9.8820 C   0  0  1  0  0  0  0  0  0  0  0  0
    7.4420  -16.1100    8.7564 C   0  0  1  0  0  0  0  0  0  0  0  0
    7.8743  -15.3634    7.4545 C   0  0  1  0  0  0  0  0  0  0  0  0
    6.9207  -14.2296    6.9379 C   0  0  0  0  0  0  0  0  0  0  0  0
    7.7528  -18.2533    9.9368 C   0  0  1  0  0  0  0  0  0  0  0  0
    8.5984  -19.4782   10.1200 C   0  0  1  0  0  0  0  0  0  0  0  0
   11.3916  -13.8371   14.2767 C   0  0  1  0  0  0  0  0  0  0  0  0
    8.0092  -20.3167   11.3092 C   0  0  0  0  0  0  0  0  0  0  0  0
    6.6584  -20.7616   11.1191 C   0  0  0  0  0  0  0  0  0  0  0  0
    5.8043  -19.6021   10.9736 C   0  0  2  0  0  0  0  0  0  0  0  0
    4.3002  -20.0302   10.7514 C   0  0  0  0  0  0  0  0  0  0  0  0
   16.5371  -12.4606    5.1096 C   0  0  2  0  0  0  0  0  0  0  0  0
   14.9944  -11.7077    6.7240 C   0  0  0  0  0  0  0  0  0  0  0  0
   16.7586  -12.8386    3.7988 C   0  0  0  0  0  0  0  0  0  0  0  0
   15.3938  -11.7333    5.1673 C   0  0  1  0  0  0  0  0  0  0  0  0
    9.8288  -14.1555   14.3419 C   0  0  0  0  0  0  0  0  0  0  0  0
    9.0286  -12.8190   13.9601 C   0  0  0  0  0  0  0  0  0  0  0  0
    9.4773  -12.3802   12.4897 C   0  0  1  0  0  0  0  0  0  0  0  0
    8.7719  -11.0967   12.0355 C   0  0  0  0  0  0  0  0  0  0  0  0
   13.2545  -12.6273    8.2908 C   0  0  1  0  0  0  0  0  0  0  0  0
   14.1092  -13.7453    9.0943 C   0  0  0  0  0  0  0  0  0  0  0  0
   13.5721  -13.8744   10.5718 C   0  0  2  0  0  0  0  0  0  0  0  0
   17.6903  -11.7452    5.6073 F   0  0  0  0  0  0  0  0  0  0  0  0
    3.3292  -18.8189   10.6503 N   0  0  0  0  0  0  0  0  0  0  0  0
   12.2340  -15.0460   14.6055 N   0  0  0  0  0  0  0  0  0  0  0  0
    8.5990  -20.3427    9.0218 N   0  0  0  0  0  0  0  0  0  0  0  0
   17.7058  -13.7198    3.2262 N   0  0  0  0  0  0  0  0  0  0  0  0
    7.3718  -11.2699   12.0073 N   0  0  0  0  0  0  0  0  0  0  0  0
   13.7880  -12.5141    6.9215 N   0  0  0  0  0  0  0  0  0  0  0  0
   14.3355  -14.9016   11.3144 N   0  0  0  0  0  0  0  0  0  0  0  0
   11.6527  -14.3687   11.8970 O   0  0  0  0  0  0  0  0  0  0  0  0
    9.7990  -13.7640    9.8004 O   0  0  0  0  0  0  0  0  0  0  0  0
   10.9769  -12.2511    7.5722 O   0  0  0  0  0  0  0  0  0  0  0  0
    8.0117  -15.8532   11.1143 O   0  0  0  0  0  0  0  0  0  0  0  0
    9.1961  -15.0030    7.8889 O   0  0  0  0  0  0  0  0  0  0  0  0
    6.9976  -13.1408    7.8796 O   0  0  0  0  0  0  0  0  0  0  0  0
    8.1394  -17.4522    8.8844 O   0  0  0  0  0  0  0  0  0  0  0  0
   15.5588  -10.3818    4.6854 O   0  0  0  0  0  0  0  0  0  0  0  0
   15.6294  -11.1069    7.6062 O   0  0  0  0  0  0  0  0  0  0  0  0
    6.2849  -18.7354    9.8337 O   0  0  0  0  0  0  0  0  0  0  0  0
   10.9787  -12.1455   12.4585 O   0  0  0  0  0  0  0  0  0  0  0  0
  1 36  1  6  0  0  0
  2 36  1  1  0  0  0
  2  3  1  0  0  0  0
  3 37  1  6  0  0  0
  3  4  1  0  0  0  0
  4 38  1  6  0  0  0
  5 37  1  6  0  0  0
  5  6  1  0  0  0  0
  6  7  1  0  0  0  0
  6 39  1  1  0  0  0
  7 42  1  1  0  0  0
  8  9  1  1  0  0  0
  8  7  1  0  0  0  0
 10 42  1  6  0  0  0
 10 11  1  0  0  0  0
 11 31  1  6  0  0  0
 11 13  1  0  0  0  0
 12 30  1  6  0  0  0
 12  1  1  0  0  0  0
 14 13  1  0  0  0  0
 15 16  1  6  0  0  0
 15 14  1  0  0  0  0
 17 19  1  6  0  0  0
 17 28  1  0  0  0  0
 18 34  1  0  0  0  0
 19 32  1  0  0  0  0
 20 18  1  1  0  0  0
 20 17  1  0  0  0  0
 20 43  1  0  0  0  0
 21 12  1  0  0  0  0
 22 21  1  0  0  0  0
 22 23  1  0  0  0  0
 23 24  1  1  0  0  0
 23 46  1  0  0  0  0
 24 33  1  0  0  0  0
 25 34  1  6  0  0  0
 25  4  1  0  0  0  0
 26 25  1  0  0  0  0
 27 35  1  1  0  0  0
 27 26  1  0  0  0  0
 27  2  1  0  0  0  0
 29 16  1  0  0  0  0
 40  8  1  0  0  0  0
 40  5  1  0  0  0  0
 41  9  1  0  0  0  0
 44 18  2  0  0  0  0
 45 15  1  0  0  0  0
 45 10  1  0  0  0  0
 46  1  1  0  0  0  0
M  END
>  <CHROM.1>
-172.51638633,-68.51414006,-59.78524316,165.95843965,70.13891066,69.12558380
-172.23523985,177.51210398,-171.69596277,-110.53657573,164.07366056,-60.37335854
163.72957389,10.65477690,-14.61967995,9.45722924,-0.10474985,0.68733068,1.06381802

>  <Name>
lig.pdb

>  <RI>
0

>  <Rbt.Current_Directory>
/home/afrankz/demos/rdock_decoys_rna/rnas/3wru

>  <Rbt.Executable>
rbdock ($Id: //depot/dev/client3/rdock/2013.1/src/exe/rbdock.cxx#4 $)

>  <Rbt.Library>
libRbt.so (2013.1, Build901 2013/11/27)

>  <Rbt.Parameter_File>
/export/apps/rDock/src/rDock_2013.1_src/data/scripts/dock_solv.prm

>  <Rbt.Receptor>
prm/pocket_docking_7.prm

>  <SCORE>
-1.86071

>  <SCORE.INTER>
4.5123

>  <SCORE.INTER.CONST>
1

>  <SCORE.INTER.POLAR>
0

>  <SCORE.INTER.ROT>
13

>  <SCORE.INTER.SOLV>
26.4487

>  <SCORE.INTER.VDW>
-18.0747

>  <SCORE.INTER.norm>
0.0980934

>  <SCORE.INTRA>
-6.37301

>  <SCORE.INTRA.DIHEDRAL>
-13.2292

>  <SCORE.INTRA.DIHEDRAL.0>
19.7146

>  <SCORE.INTRA.POLAR>
0

>  <SCORE.INTRA.POLAR.0>
0

>  <SCORE.INTRA.REPUL>
0

>  <SCORE.INTRA.REPUL.0>
0

>  <SCORE.INTRA.SOLV>
-1.78365

>  <SCORE.INTRA.SOLV.lig_0>
-116.697

>  <SCORE.INTRA.VDW>
1.13341

>  <SCORE.INTRA.VDW.0>
-7.06424

>  <SCORE.INTRA.norm>
-0.138544

>  <SCORE.RESTR>
0

>  <SCORE.RESTR.CAVITY>
0

>  <SCORE.RESTR.norm>
0

>  <SCORE.SYSTEM>
0

>  <SCORE.SYSTEM.CONST>
0

>  <SCORE.SYSTEM.DIHEDRAL>
0

>  <SCORE.SYSTEM.SOLV>
0

>  <SCORE.SYSTEM.norm>
0

>  <SCORE.heavy>
46

>  <SCORE.norm>
-0.0404503

>  <RMSD>
5.982

$$$$
lig.pdb
 OpenBabel03061811583D
libRbt.so/2013.1/901 2013/11/27
 46 49  0  0  0  0  0  0  0  0999 V2000
   10.3230  -13.6186    4.5539 C   0  0  1  0  0  0  0  0  0  0  0  0
   10.1886  -11.1398    5.0493 C   0  0  1  0  0  0  0  0  0  0  0  0
   11.4925  -10.8305    5.8456 C   0  0  1  0  0  0  0  0  0  0  0  0
   11.9314   -9.3056    5.5539 C   0  0  2  0  0  0  0  0  0  0  0  0
   10.7864  -12.1378    7.9023 C   0  0  2  0  0  0  0  0  0  0  0  0
   11.1521  -12.1608    9.4138 C   0  0  1  0  0  0  0  0  0  0  0  0
   10.0784  -13.1175    9.8729 C   0  0  1  0  0  0  0  0  0  0  0  0
    8.7739  -12.6137    9.1775 C   0  0  1  0  0  0  0  0  0  0  0  0
    8.0182  -11.4234    9.8659 C   0  0  0  0  0  0  0  0  0  0  0  0
    9.7169  -15.5549    9.9828 C   0  0  1  0  0  0  0  0  0  0  0  0
    9.9393  -15.7363   11.4547 C   0  0  1  0  0  0  0  0  0  0  0  0
    9.7346  -14.9379    5.1075 C   0  0  1  0  0  0  0  0  0  0  0  0
    9.1029  -16.9745   11.9359 C   0  0  0  0  0  0  0  0  0  0  0  0
    9.4468  -18.2147   11.3018 C   0  0  0  0  0  0  0  0  0  0  0  0
    9.2106  -18.0895    9.8793 C   0  0  2  0  0  0  0  0  0  0  0  0
    9.5813  -19.4259    9.1232 C   0  0  0  0  0  0  0  0  0  0  0  0
   15.3308   -5.9613    2.0918 C   0  0  2  0  0  0  0  0  0  0  0  0
   14.0260   -7.5894    3.1871 C   0  0  0  0  0  0  0  0  0  0  0  0
   15.5017   -4.6537    1.6784 C   0  0  0  0  0  0  0  0  0  0  0  0
   14.2564   -6.0218    2.9172 C   0  0  1  0  0  0  0  0  0  0  0  0
   10.2199  -15.1976    6.6058 C   0  0  0  0  0  0  0  0  0  0  0  0
   11.8231  -15.2404    6.6131 C   0  0  0  0  0  0  0  0  0  0  0  0
   12.3551  -13.8384    6.0587 C   0  0  1  0  0  0  0  0  0  0  0  0
   13.8869  -13.7845    6.0151 C   0  0  0  0  0  0  0  0  0  0  0  0
   12.2480   -9.1721    4.0006 C   0  0  1  0  0  0  0  0  0  0  0  0
   10.8564   -9.4799    3.2296 C   0  0  0  0  0  0  0  0  0  0  0  0
   10.3930  -10.9585    3.5248 C   0  0  2  0  0  0  0  0  0  0  0  0
   16.5485   -6.4355    2.7098 F   0  0  0  0  0  0  0  0  0  0  0  0
   11.0876  -19.7964    9.2412 N   0  0  0  0  0  0  0  0  0  0  0  0
    8.2305  -14.8633    5.0003 N   0  0  0  0  0  0  0  0  0  0  0  0
   11.2619  -16.0250   11.8025 N   0  0  0  0  0  0  0  0  0  0  0  0
   16.4658   -4.0583    0.8313 N   0  0  0  0  0  0  0  0  0  0  0  0
   14.4379  -13.9683    7.3010 N   0  0  0  0  0  0  0  0  0  0  0  0
   12.6670   -7.7927    3.6935 N   0  0  0  0  0  0  0  0  0  0  0  0
    9.1159  -11.2500    2.8368 N   0  0  0  0  0  0  0  0  0  0  0  0
    9.7924  -12.4904    5.2502 O   0  0  0  0  0  0  0  0  0  0  0  0
   11.1723  -11.0398    7.2970 O   0  0  0  0  0  0  0  0  0  0  0  0
   13.0832   -9.0578    6.2667 O   0  0  0  0  0  0  0  0  0  0  0  0
   12.4506  -12.6553    9.5424 O   0  0  0  0  0  0  0  0  0  0  0  0
    9.3395  -12.4042    7.8729 O   0  0  0  0  0  0  0  0  0  0  0  0
    8.9183  -10.2977    9.8877 O   0  0  0  0  0  0  0  0  0  0  0  0
   10.4393  -14.5224    9.4253 O   0  0  0  0  0  0  0  0  0  0  0  0
   14.4685   -5.3384    4.1719 O   0  0  0  0  0  0  0  0  0  0  0  0
   14.8725   -8.4739    2.9782 O   0  0  0  0  0  0  0  0  0  0  0  0
    9.9926  -16.9257    9.3174 O   0  0  0  0  0  0  0  0  0  0  0  0
   11.8214  -13.6044    4.6549 O   0  0  0  0  0  0  0  0  0  0  0  0
  1 36  1  1  0  0  0
  2 36  1  6  0  0  0
  2  3  1  0  0  0  0
  3 37  1  1  0  0  0
  3  4  1  0  0  0  0
  4 38  1  1  0  0  0
  5 37  1  1  0  0  0
  5  6  1  0  0  0  0
  6  7  1  0  0  0  0
  6 39  1  6  0  0  0
  7 42  1  6  0  0  0
  8  9  1  1  0  0  0
  8  7  1  0  0  0  0
 10 42  1  6  0  0  0
 10 11  1  0  0  0  0
 11 31  1  6  0  0  0
 11 13  1  0  0  0  0
 12 30  1  1  0  0  0
 12  1  1  0  0  0  0
 14 13  1  0  0  0  0
 15 16  1  6  0  0  0
 15 14  1  0  0  0  0
 17 19  1  1  0  0  0
 17 28  1  0  0  0  0
 18 34  1  0  0  0  0
 19 32  1  0  0  0  0
 20 18  1  1  0  0  0
 20 17  1  0  0  0  0
 20 43  1  0  0  0  0
 21 12  1  0  0  0  0
 22 21  1  0  0  0  0
 22 23  1  0  0  0  0
 23 24  1  6  0  0  0
 23 46  1  0  0  0  0
 24 33  1  0  0  0  0
 25 34  1  1  0  0  0
 25  4  1  0  0  0  0
 26 25  1  0  0  0  0
 27 35  1  6  0  0  0
 27 26  1  0  0  0  0
 27  2  1  0  0  0  0
 29 16  1  0  0  0  0
 40  8  1  0  0  0  0
 40  5  1  0  0  0  0
 41  9  1  0  0  0  0
 44 18  2  0  0  0  0
 45 15  1  0  0  0  0
 45 10  1  0  0  0  0
 46  1  1  0  0  0  0
M  END
>  <CHROM.1>
175.66446416,-81.96425036,61.49191524,154.27272659,167.36002894,61.13874119
-66.37279008,-62.67852268,179.52718317,-161.78523797,172.87659010,-59.87218261
116.86253642,11.48896311,-12.08639232,6.55919738,-3.10914189,1.20416893,0.91836607

>  <Name>
lig.pdb

>  <RI>
0

>  <Rbt.Current_Directory>
/home/afrankz/demos/rdock_decoys_rna/rnas/3wru

>  <Rbt.Executable>
rbdock ($Id: //depot/dev/client3/rdock/2013.1/src/exe/rbdock.cxx#4 $)

>  <Rbt.Library>
libRbt.so (2013.1, Build901 2013/11/27)

>  <Rbt.Parameter_File>
/export/apps/rDock/src/rDock_2013.1_src/data/scripts/dock_solv.prm

>  <Rbt.Receptor>
prm/pocket_docking_7.prm

>  <SCORE>
-4.25484

>  <SCORE.INTER>
-1.9495

>  <SCORE.INTER.CONST>
1

>  <SCORE.INTER.POLAR>
0

>  <SCORE.INTER.ROT>
13

>  <SCORE.INTER.SOLV>
28.4313

>  <SCORE.INTER.VDW>
-23.0434

>  <SCORE.INTER.norm>
-0.0423805

>  <SCORE.INTRA>
-2.30534

>  <SCORE.INTRA.DIHEDRAL>
-10.9781

>  <SCORE.INTRA.DIHEDRAL.0>
19.7146

>  <SCORE.INTRA.POLAR>
0

>  <SCORE.INTRA.POLAR.0>
0

>  <SCORE.INTRA.REPUL>
0.413691

>  <SCORE.INTRA.REPUL.0>
0

>  <SCORE.INTRA.SOLV>
1.3319

>  <SCORE.INTRA.SOLV.lig_0>
-116.697

>  <SCORE.INTRA.VDW>
0.449328

>  <SCORE.INTRA.VDW.0>
-7.06424

>  <SCORE.INTRA.norm>
-0.050116

>  <SCORE.RESTR>
0

>  <SCORE.RESTR.CAVITY>
0

>  <SCORE.RESTR.norm>
0

>  <SCORE.SYSTEM>
0

>  <SCORE.SYSTEM.CONST>
0

>  <SCORE.SYSTEM.DIHEDRAL>
0

>  <SCORE.SYSTEM.SOLV>
0

>  <SCORE.SYSTEM.norm>
0

>  <SCORE.heavy>
46

>  <SCORE.norm>
-0.0924965

>  <RMSD>
6.042

$$$$
lig.pdb
 OpenBabel03061811583D
libRbt.so/2013.1/901 2013/11/27
 46 49  0  0  0  0  0  0  0  0999 V2000
    7.9428  -12.9557   11.9027 C   0  0  1  0  0  0  0  0  0  0  0  0
    9.9329  -13.2882   10.3739 C   0  0  1  0  0  0  0  0  0  0  0  0
   10.4284  -12.7262    9.0070 C   0  0  1  0  0  0  0  0  0  0  0  0
   11.7450  -13.5419    8.5551 C   0  0  2  0  0  0  0  0  0  0  0  0
    8.6784  -14.0203    7.7029 C   0  0  2  0  0  0  0  0  0  0  0  0
    7.7000  -13.8354    6.5082 C   0  0  1  0  0  0  0  0  0  0  0  0
    7.6929  -15.2646    6.0221 C   0  0  1  0  0  0  0  0  0  0  0  0
    9.1959  -15.6886    6.0143 C   0  0  1  0  0  0  0  0  0  0  0  0
   10.0465  -15.2609    4.7672 C   0  0  0  0  0  0  0  0  0  0  0  0
    6.9364  -17.4783    6.8038 C   0  0  1  0  0  0  0  0  0  0  0  0
    6.4455  -17.9417    5.4647 C   0  0  1  0  0  0  0  0  0  0  0  0
    6.9742  -14.0793   11.4640 C   0  0  1  0  0  0  0  0  0  0  0  0
    6.5125  -19.5096    5.4252 C   0  0  0  0  0  0  0  0  0  0  0  0
    5.7148  -20.1702    6.4182 C   0  0  0  0  0  0  0  0  0  0  0  0
    6.1839  -19.7737    7.7289 C   0  0  2  0  0  0  0  0  0  0  0  0
    5.3349  -20.4643    8.8678 C   0  0  0  0  0  0  0  0  0  0  0  0
   17.1789  -13.9447    8.8872 C   0  0  2  0  0  0  0  0  0  0  0  0
   15.2254  -14.0007   10.2038 C   0  0  0  0  0  0  0  0  0  0  0  0
   18.3934  -14.5180    8.5606 C   0  0  0  0  0  0  0  0  0  0  0  0
   16.4430  -14.8466    9.5832 C   0  0  1  0  0  0  0  0  0  0  0  0
    5.9336  -13.5470   10.3770 C   0  0  0  0  0  0  0  0  0  0  0  0
    5.1278  -12.3158   11.0151 C   0  0  0  0  0  0  0  0  0  0  0  0
    6.1883  -11.1879   11.4141 C   0  0  1  0  0  0  0  0  0  0  0  0
    5.5126   -9.9661   12.0482 C   0  0  0  0  0  0  0  0  0  0  0  0
   12.8787  -13.2899    9.6423 C   0  0  1  0  0  0  0  0  0  0  0  0
   12.3187  -13.9135   11.0293 C   0  0  0  0  0  0  0  0  0  0  0  0
   11.0131  -13.1487   11.4750 C   0  0  2  0  0  0  0  0  0  0  0  0
   16.5230  -13.4848    7.6839 F   0  0  0  0  0  0  0  0  0  0  0  0
    5.7862  -20.0549   10.2992 N   0  0  0  0  0  0  0  0  0  0  0  0
    7.7975  -15.2345   10.9474 N   0  0  0  0  0  0  0  0  0  0  0  0
    5.1106  -17.6213    5.2022 N   0  0  0  0  0  0  0  0  0  0  0  0
   19.5135  -14.0053    7.8651 N   0  0  0  0  0  0  0  0  0  0  0  0
    4.6210   -9.3525   11.1429 N   0  0  0  0  0  0  0  0  0  0  0  0
   14.1066  -14.0092    9.2589 N   0  0  0  0  0  0  0  0  0  0  0  0
   10.4830  -13.7161   12.7345 N   0  0  0  0  0  0  0  0  0  0  0  0
    8.7946  -12.5655   10.8250 O   0  0  0  0  0  0  0  0  0  0  0  0
    9.3051  -12.9151    8.0295 O   0  0  0  0  0  0  0  0  0  0  0  0
   12.1625  -13.0274    7.3480 O   0  0  0  0  0  0  0  0  0  0  0  0
    6.4741  -13.3969    7.0104 O   0  0  0  0  0  0  0  0  0  0  0  0
    9.5396  -15.1430    7.2988 O   0  0  0  0  0  0  0  0  0  0  0  0
   10.1319  -13.8219    4.7780 O   0  0  0  0  0  0  0  0  0  0  0  0
    6.8814  -16.1133    6.9841 O   0  0  0  0  0  0  0  0  0  0  0  0
   15.9239  -15.9110    8.7563 O   0  0  0  0  0  0  0  0  0  0  0  0
   15.2437  -13.4486   11.3162 O   0  0  0  0  0  0  0  0  0  0  0  0
    6.1403  -18.2704    7.8699 O   0  0  0  0  0  0  0  0  0  0  0  0
    7.1938  -11.7539   12.4033 O   0  0  0  0  0  0  0  0  0  0  0  0
  1 36  1  6  0  0  0
  2 36  1  1  0  0  0
  2  3  1  0  0  0  0
  3 37  1  6  0  0  0
  3  4  1  0  0  0  0
  4 38  1  6  0  0  0
  5 37  1  6  0  0  0
  5  6  1  0  0  0  0
  6  7  1  0  0  0  0
  6 39  1  1  0  0  0
  7 42  1  1  0  0  0
  8  9  1  6  0  0  0
  8  7  1  0  0  0  0
 10 42  1  1  0  0  0
 10 11  1  0  0  0  0
 11 31  1  1  0  0  0
 11 13  1  0  0  0  0
 12 30  1  6  0  0  0
 12  1  1  0  0  0  0
 14 13  1  0  0  0  0
 15 16  1  1  0  0  0
 15 14  1  0  0  0  0
 17 19  1  6  0  0  0
 17 28  1  0  0  0  0
 18 34  1  0  0  0  0
 19 32  1  0  0  0  0
 20 18  1  6  0  0  0
 20 17  1  0  0  0  0
 20 43  1  0  0  0  0
 21 12  1  0  0  0  0
 22 21  1  0  0  0  0
 22 23  1  0  0  0  0
 23 24  1  1  0  0  0
 23 46  1  0  0  0  0
 24 33  1  0  0  0  0
 25 34  1  6  0  0  0
 25  4  1  0  0  0  0
 26 25  1  0  0  0  0
 27 35  1  1  0  0  0
 27 26  1  0  0  0  0
 27  2  1  0  0  0  0
 29 16  1  0  0  0  0
 40  8  1  0  0  0  0
 40  5  1  0  0  0  0
 41  9  1  0  0  0  0
 44 18  2  0  0  0  0
 45 15  1  0  0  0  0
 45 10  1  0  0  0  0
 46  1  1  0  0  0  0
M  END
>  <CHROM.1>
-77.50592214,168.02704519,-56.03639367,-172.16886026,-170.53899473,65.81741328
-60.40576107,-179.17286454,-179.03428716,90.16263196,167.23152996,-61.99010981
-174.35709247,9.72332502,-14.64517376,8.78059929,2.90613185,-0.08382357,-2.46307702

>  <Name>
lig.pdb

>  <RI>
0

>  <Rbt.Current_Directory>
/home/afrankz/demos/rdock_decoys_rna/rnas/3wru

>  <Rbt.Executable>
rbdock ($Id: //depot/dev/client3/rdock/2013.1/src/exe/rbdock.cxx#4 $)

>  <Rbt.Library>
libRbt.so (2013.1, Build901 2013/11/27)

>  <Rbt.Parameter_File>
/export/apps/rDock/src/rDock_2013.1_src/data/scripts/dock_solv.prm

>  <Rbt.Receptor>
prm/pocket_docking_7.prm

>  <SCORE>
0.841156

>  <SCORE.INTER>
5.22481

>  <SCORE.INTER.CONST>
1

>  <SCORE.INTER.POLAR>
0

>  <SCORE.INTER.ROT>
13

>  <SCORE.INTER.SOLV>
18.9828

>  <SCORE.INTER.VDW>
-15.1111

>  <SCORE.INTER.norm>
0.113583

>  <SCORE.INTRA>
-4.38366

>  <SCORE.INTRA.DIHEDRAL>
-14.2922

>  <SCORE.INTRA.DIHEDRAL.0>
19.7146

>  <SCORE.INTRA.POLAR>
0

>  <SCORE.INTRA.POLAR.0>
0

>  <SCORE.INTRA.REPUL>
0

>  <SCORE.INTRA.REPUL.0>
0

>  <SCORE.INTRA.SOLV>
2.11028

>  <SCORE.INTRA.SOLV.lig_0>
-116.697

>  <SCORE.INTRA.VDW>
1.70732

>  <SCORE.INTRA.VDW.0>
-7.06424

>  <SCORE.INTRA.norm>
-0.0952969

>  <SCORE.RESTR>
0

>  <SCORE.RESTR.CAVITY>
0

>  <SCORE.RESTR.norm>
0

>  <SCORE.SYSTEM>
0

>  <SCORE.SYSTEM.CONST>
0

>  <SCORE.SYSTEM.DIHEDRAL>
0

>  <SCORE.SYSTEM.SOLV>
0

>  <SCORE.SYSTEM.norm>
0

>  <SCORE.heavy>
46

>  <SCORE.norm>
0.018286

>  <RMSD>
6.109

$$$$
lig.pdb
 OpenBabel03061811583D
libRbt.so/2013.1/901 2013/11/27
 46 49  0  0  0  0  0  0  0  0999 V2000
   13.2148  -17.1360    3.5483 C   0  0  1  0  0  0  0  0  0  0  0  0
   14.1076  -16.4798    5.8243 C   0  0  1  0  0  0  0  0  0  0  0  0
   14.7607  -17.8529    6.1675 C   0  0  1  0  0  0  0  0  0  0  0  0
   15.9748  -17.6080    7.2015 C   0  0  2  0  0  0  0  0  0  0  0  0
   12.8499  -18.4010    7.7442 C   0  0  2  0  0  0  0  0  0  0  0  0
   12.1788  -19.6509    8.3816 C   0  0  1  0  0  0  0  0  0  0  0  0
   11.8714  -19.0548    9.7341 C   0  0  1  0  0  0  0  0  0  0  0  0
   13.1829  -18.3154   10.1493 C   0  0  1  0  0  0  0  0  0  0  0  0
   14.3192  -19.1908   10.7850 C   0  0  0  0  0  0  0  0  0  0  0  0
   10.2836  -17.4660   10.7529 C   0  0  1  0  0  0  0  0  0  0  0  0
    9.0037  -16.6992   10.6021 C   0  0  1  0  0  0  0  0  0  0  0  0
   11.8906  -17.0214    2.7568 C   0  0  1  0  0  0  0  0  0  0  0  0
    8.6772  -16.0013   11.9699 C   0  0  0  0  0  0  0  0  0  0  0  0
    9.6732  -15.0737   12.4237 C   0  0  0  0  0  0  0  0  0  0  0  0
   10.9182  -15.7867   12.6154 C   0  0  2  0  0  0  0  0  0  0  0  0
   12.0597  -14.8123   13.1078 C   0  0  0  0  0  0  0  0  0  0  0  0
   21.2273  -16.8254    7.9577 C   0  0  2  0  0  0  0  0  0  0  0  0
   19.4047  -15.8500    6.8265 C   0  0  0  0  0  0  0  0  0  0  0  0
   22.3386  -16.6697    8.7645 C   0  0  0  0  0  0  0  0  0  0  0  0
   20.4987  -15.6821    7.9920 C   0  0  1  0  0  0  0  0  0  0  0  0
   10.7807  -18.0025    3.3513 C   0  0  0  0  0  0  0  0  0  0  0  0
   11.3524  -19.4998    3.2933 C   0  0  0  0  0  0  0  0  0  0  0  0
   12.6986  -19.5460    4.1545 C   0  0  1  0  0  0  0  0  0  0  0  0
   13.3325  -20.9423    4.1507 C   0  0  0  0  0  0  0  0  0  0  0  0
   17.0633  -16.7010    6.4781 C   0  0  1  0  0  0  0  0  0  0  0  0
   16.3366  -15.2860    6.1692 C   0  0  0  0  0  0  0  0  0  0  0  0
   15.1266  -15.5065    5.1816 C   0  0  2  0  0  0  0  0  0  0  0  0
   20.4803  -17.9873    8.3839 F   0  0  0  0  0  0  0  0  0  0  0  0
   11.7355  -14.1303   14.4680 N   0  0  0  0  0  0  0  0  0  0  0  0
   11.4495  -15.5777    2.7851 N   0  0  0  0  0  0  0  0  0  0  0  0
    9.0631  -15.6652    9.6636 N   0  0  0  0  0  0  0  0  0  0  0  0
   23.4310  -15.7739    8.6901 N   0  0  0  0  0  0  0  0  0  0  0  0
   12.4242  -21.9132    4.6234 N   0  0  0  0  0  0  0  0  0  0  0  0
   18.1992  -16.4639    7.3871 N   0  0  0  0  0  0  0  0  0  0  0  0
   14.4451  -14.2237    4.9001 N   0  0  0  0  0  0  0  0  0  0  0  0
   13.0567  -16.6512    4.8821 O   0  0  0  0  0  0  0  0  0  0  0  0
   13.6847  -18.7026    6.7782 O   0  0  0  0  0  0  0  0  0  0  0  0
   16.5343  -18.8332    7.4879 O   0  0  0  0  0  0  0  0  0  0  0  0
   11.0485  -19.9722    7.6290 O   0  0  0  0  0  0  0  0  0  0  0  0
   13.4335  -17.6784    8.8854 O   0  0  0  0  0  0  0  0  0  0  0  0
   14.7128  -20.1663    9.7993 O   0  0  0  0  0  0  0  0  0  0  0  0
   10.7081  -18.0890    9.5995 O   0  0  0  0  0  0  0  0  0  0  0  0
   19.8334  -15.4736    9.2569 O   0  0  0  0  0  0  0  0  0  0  0  0
   19.5685  -15.4948    5.6477 O   0  0  0  0  0  0  0  0  0  0  0  0
   11.3268  -16.4827   11.3385 O   0  0  0  0  0  0  0  0  0  0  0  0
   13.7041  -18.5554    3.5909 O   0  0  0  0  0  0  0  0  0  0  0  0
  1 36  1  1  0  0  0
  2 36  1  6  0  0  0
  2  3  1  0  0  0  0
  3 37  1  1  0  0  0
  3  4  1  0  0  0  0
  4 38  1  6  0  0  0
  5 37  1  6  0  0  0
  5  6  1  0  0  0  0
  6  7  1  0  0  0  0
  6 39  1  6  0  0  0
  7 42  1  6  0  0  0
  8  9  1  6  0  0  0
  8  7  1  0  0  0  0
 10 42  1  6  0  0  0
 10 11  1  0  0  0  0
 11 31  1  6  0  0  0
 11 13  1  0  0  0  0
 12 30  1  1  0  0  0
 12  1  1  0  0  0  0
 14 13  1  0  0  0  0
 15 16  1  6  0  0  0
 15 14  1  0  0  0  0
 17 19  1  1  0  0  0
 17 28  1  0  0  0  0
 18 34  1  0  0  0  0
 19 32  1  0  0  0  0
 20 18  1  6  0  0  0
 20 17  1  0  0  0  0
 20 43  1  0  0  0  0
 21 12  1  0  0  0  0
 22 21  1  0  0  0  0
 22 23  1  0  0  0  0
 23 24  1  6  0  0  0
 23 46  1  0  0  0  0
 24 33  1  0  0  0  0
 25 34  1  1  0  0  0
 25  4  1  0  0  0  0
 26 25  1  0  0  0  0
 27 35  1  1  0  0  0
 27 26  1  0  0  0  0
 27  2  1  0  0  0  0
 29 16  1  0  0  0  0
 40  8  1  0  0  0  0
 40  5  1  0  0  0  0
 41  9  1  0  0  0  0
 44 18  2  0  0  0  0
 45 15  1  0  0  0  0
 45 10  1  0  0  0  0
 46  1  1  0  0  0  0
M  END
>  <CHROM.1>
-172.78935247,-63.44551994,-49.30764179,-162.89429515,179.14101599,61.40191461
-170.69731373,60.68907489,-62.22546338,90.86662213,169.44094603,-56.66200794
169.48853800,14.25946152,-17.30551973,7.70732207,2.93783474,0.13268973,1.29766598

>  <Name>
lig.pdb

>  <RI>
0

>  <Rbt.Current_Directory>
/home/afrankz/demos/rdock_decoys_rna/rnas/3wru

>  <Rbt.Executable>
rbdock ($Id: //depot/dev/client3/rdock/2013.1/src/exe/rbdock.cxx#4 $)

>  <Rbt.Library>
libRbt.so (2013.1, Build901 2013/11/27)

>  <Rbt.Parameter_File>
/export/apps/rDock/src/rDock_2013.1_src/data/scripts/dock_solv.prm

>  <Rbt.Receptor>
prm/pocket_docking_8.prm

>  <SCORE>
0.7969

>  <SCORE.INTER>
7.35131

>  <SCORE.INTER.CONST>
1

>  <SCORE.INTER.POLAR>
0

>  <SCORE.INTER.ROT>
13

>  <SCORE.INTER.SOLV>
16.1598

>  <SCORE.INTER.VDW>
-12.7524

>  <SCORE.INTER.norm>
0.159811

>  <SCORE.INTRA>
-6.55441

>  <SCORE.INTRA.DIHEDRAL>
-14.6758

>  <SCORE.INTRA.DIHEDRAL.0>
19.7146

>  <SCORE.INTRA.POLAR>
0

>  <SCORE.INTRA.POLAR.0>
0

>  <SCORE.INTRA.REPUL>
0

>  <SCORE.INTRA.REPUL.0>
0

>  <SCORE.INTRA.SOLV>
-0.0385136

>  <SCORE.INTRA.SOLV.lig_0>
-116.697

>  <SCORE.INTRA.VDW>
0.802733

>  <SCORE.INTRA.VDW.0>
-7.06424

>  <SCORE.INTRA.norm>
-0.142487

>  <SCORE.RESTR>
0

>  <SCORE.RESTR.CAVITY>
0

>  <SCORE.RESTR.norm>
0

>  <SCORE.SYSTEM>
0

>  <SCORE.SYSTEM.CONST>
0

>  <SCORE.SYSTEM.DIHEDRAL>
0

>  <SCORE.SYSTEM.SOLV>
0

>  <SCORE.SYSTEM.norm>
0

>  <SCORE.heavy>
46

>  <SCORE.norm>
0.0173239

>  <RMSD>
6.278

$$$$
lig.pdb
 OpenBabel03061811583D
libRbt.so/2013.1/901 2013/11/27
 46 49  0  0  0  0  0  0  0  0999 V2000
   11.7479  -18.0117   10.0798 C   0  0  1  0  0  0  0  0  0  0  0  0
   12.4403  -16.6715    8.0470 C   0  0  1  0  0  0  0  0  0  0  0  0
   13.2755  -15.5132    8.6719 C   0  0  1  0  0  0  0  0  0  0  0  0
   14.3859  -15.0363    7.6030 C   0  0  2  0  0  0  0  0  0  0  0  0
   11.0569  -14.4951    9.3639 C   0  0  2  0  0  0  0  0  0  0  0  0
   10.5444  -13.2133   10.0804 C   0  0  1  0  0  0  0  0  0  0  0  0
    9.0752  -13.3777    9.7749 C   0  0  1  0  0  0  0  0  0  0  0  0
    9.0244  -13.7523    8.2596 C   0  0  1  0  0  0  0  0  0  0  0  0
    9.1129  -12.5685    7.2335 C   0  0  0  0  0  0  0  0  0  0  0  0
    7.2308  -14.9125   10.3459 C   0  0  1  0  0  0  0  0  0  0  0  0
    6.1690  -13.8818   10.5890 C   0  0  1  0  0  0  0  0  0  0  0  0
   10.4603  -18.3032   10.8862 C   0  0  1  0  0  0  0  0  0  0  0  0
    4.7717  -14.5207   10.2671 C   0  0  0  0  0  0  0  0  0  0  0  0
    4.4372  -15.6663   11.0636 C   0  0  0  0  0  0  0  0  0  0  0  0
    5.4234  -16.6992   10.8276 C   0  0  2  0  0  0  0  0  0  0  0  0
    5.1122  -17.9872   11.6875 C   0  0  0  0  0  0  0  0  0  0  0  0
   16.8075  -14.0790    3.2520 C   0  0  2  0  0  0  0  0  0  0  0  0
   15.9636  -15.3149    5.0722 C   0  0  0  0  0  0  0  0  0  0  0  0
   17.8905  -13.5736    2.5579 C   0  0  0  0  0  0  0  0  0  0  0  0
   17.2574  -14.9460    4.1929 C   0  0  1  0  0  0  0  0  0  0  0  0
    9.9246  -16.9838   11.6073 C   0  0  0  0  0  0  0  0  0  0  0  0
   11.0852  -16.4300   12.5658 C   0  0  0  0  0  0  0  0  0  0  0  0
   12.3669  -16.1248   11.6603 C   0  0  1  0  0  0  0  0  0  0  0  0
   13.5428  -15.5987   12.4922 C   0  0  0  0  0  0  0  0  0  0  0  0
   15.3594  -16.2628    7.3226 C   0  0  1  0  0  0  0  0  0  0  0  0
   14.4436  -17.4208    6.6548 C   0  0  0  0  0  0  0  0  0  0  0  0
   13.3313  -17.8821    7.6737 C   0  0  2  0  0  0  0  0  0  0  0  0
   15.8776  -14.6816    2.3236 F   0  0  0  0  0  0  0  0  0  0  0  0
    3.8173  -18.7230   11.2382 N   0  0  0  0  0  0  0  0  0  0  0  0
    9.4387  -18.8926    9.9437 N   0  0  0  0  0  0  0  0  0  0  0  0
    6.0825  -13.4511   11.9159 N   0  0  0  0  0  0  0  0  0  0  0  0
   19.0226  -12.8446    2.9918 N   0  0  0  0  0  0  0  0  0  0  0  0
   14.6203  -15.2188   11.6641 N   0  0  0  0  0  0  0  0  0  0  0  0
   16.3999  -15.8637    6.3580 N   0  0  0  0  0  0  0  0  0  0  0  0
   12.4787  -18.9314    7.0724 N   0  0  0  0  0  0  0  0  0  0  0  0
   11.4755  -17.1462    8.9771 O   0  0  0  0  0  0  0  0  0  0  0  0
   12.3112  -14.4077    8.9896 O   0  0  0  0  0  0  0  0  0  0  0  0
   15.1091  -14.0152    8.1778 O   0  0  0  0  0  0  0  0  0  0  0  0
   10.8606  -13.3137   11.4358 O   0  0  0  0  0  0  0  0  0  0  0  0
   10.0856  -14.7214    8.2820 O   0  0  0  0  0  0  0  0  0  0  0  0
   10.3611  -11.8871    7.4699 O   0  0  0  0  0  0  0  0  0  0  0  0
    8.5082  -14.4881   10.6408 O   0  0  0  0  0  0  0  0  0  0  0  0
   17.8211  -16.1501    3.6284 O   0  0  0  0  0  0  0  0  0  0  0  0
   14.7891  -15.1402    4.7082 O   0  0  0  0  0  0  0  0  0  0  0  0
    6.8097  -16.1805   11.1287 O   0  0  0  0  0  0  0  0  0  0  0  0
   12.8066  -17.3927   10.9468 O   0  0  0  0  0  0  0  0  0  0  0  0
  1 36  1  6  0  0  0
  2 36  1  1  0  0  0
  2  3  1  0  0  0  0
  3 37  1  6  0  0  0
  3  4  1  0  0  0  0
  4 38  1  1  0  0  0
  5 37  1  6  0  0  0
  5  6  1  0  0  0  0
  6  7  1  0  0  0  0
  6 39  1  1  0  0  0
  7 42  1  1  0  0  0
  8  9  1  6  0  0  0
  8  7  1  0  0  0  0
 10 42  1  1  0  0  0
 10 11  1  0  0  0  0
 11 31  1  1  0  0  0
 11 13  1  0  0  0  0
 12 30  1  6  0  0  0
 12  1  1  0  0  0  0
 14 13  1  0  0  0  0
 15 16  1  1  0  0  0
 15 14  1  0  0  0  0
 17 19  1  6  0  0  0
 17 28  1  0  0  0  0
 18 34  1  0  0  0  0
 19 32  1  0  0  0  0
 20 18  1  1  0  0  0
 20 17  1  0  0  0  0
 20 43  1  0  0  0  0
 21 12  1  0  0  0  0
 22 21  1  0  0  0  0
 22 23  1  0  0  0  0
 23 24  1  1  0  0  0
 23 46  1  0  0  0  0
 24 33  1  0  0  0  0
 25 34  1  6  0  0  0
 25  4  1  0  0  0  0
 26 25  1  0  0  0  0
 27 35  1  6  0  0  0
 27 26  1  0  0  0  0
 27  2  1  0  0  0  0
 29 16  1  0  0  0  0
 40  8  1  0  0  0  0
 40  5  1  0  0  0  0
 41  9  1  0  0  0  0
 44 18  2  0  0  0  0
 45 15  1  0  0  0  0
 45 10  1  0  0  0  0
 46  1  1  0  0  0  0
M  END
>  <CHROM.1>
179.25196095,-77.65780521,32.87305818,159.22899196,-170.23561780,59.24929467
-66.09948083,67.87511310,-59.33891539,-160.93987497,172.25253832,-174.56363782
-55.28209448,11.57341037,-15.47064351,8.60433895,-2.68304269,0.38562732,-0.77814753

>  <Name>
lig.pdb

>  <RI>
0

>  <Rbt.Current_Directory>
/home/afrankz/demos/rdock_decoys_rna/rnas/3wru

>  <Rbt.Executable>
rbdock ($Id: //depot/dev/client3/rdock/2013.1/src/exe/rbdock.cxx#4 $)

>  <Rbt.Library>
libRbt.so (2013.1, Build901 2013/11/27)

>  <Rbt.Parameter_File>
/export/apps/rDock/src/rDock_2013.1_src/data/scripts/dock_solv.prm

>  <Rbt.Receptor>
prm/pocket_docking_6.prm

>  <SCORE>
4.72154

>  <SCORE.INTER>
7.47235

>  <SCORE.INTER.CONST>
1

>  <SCORE.INTER.POLAR>
0

>  <SCORE.INTER.ROT>
13

>  <SCORE.INTER.SOLV>
18.5602

>  <SCORE.INTER.VDW>
-13.4718

>  <SCORE.INTER.norm>
0.162442

>  <SCORE.INTRA>
-2.75081

>  <SCORE.INTRA.DIHEDRAL>
-10.7029

>  <SCORE.INTRA.DIHEDRAL.0>
19.7146

>  <SCORE.INTRA.POLAR>
0

>  <SCORE.INTRA.POLAR.0>
0

>  <SCORE.INTRA.REPUL>
0

>  <SCORE.INTRA.REPUL.0>
0

>  <SCORE.INTRA.SOLV>
2.65583

>  <SCORE.INTRA.SOLV.lig_0>
-116.697

>  <SCORE.INTRA.VDW>
1.2727

>  <SCORE.INTRA.VDW.0>
-7.06424

>  <SCORE.INTRA.norm>
-0.0598002

>  <SCORE.RESTR>
0

>  <SCORE.RESTR.CAVITY>
0

>  <SCORE.RESTR.norm>
0

>  <SCORE.SYSTEM>
0

>  <SCORE.SYSTEM.CONST>
0

>  <SCORE.SYSTEM.DIHEDRAL>
0

>  <SCORE.SYSTEM.SOLV>
0

>  <SCORE.SYSTEM.norm>
0

>  <SCORE.heavy>
46

>  <SCORE.norm>
0.102642

>  <RMSD>
6.284

$$$$
lig.pdb
 OpenBabel03061811583D
libRbt.so/2013.1/901 2013/11/27
 46 49  0  0  0  0  0  0  0  0999 V2000
   11.2397  -16.0165    3.1942 C   0  0  1  0  0  0  0  0  0  0  0  0
   12.4364  -15.5711    5.3799 C   0  0  1  0  0  0  0  0  0  0  0  0
   11.6108  -16.5324    6.2876 C   0  0  1  0  0  0  0  0  0  0  0  0
   11.7175  -16.0257    7.8156 C   0  0  2  0  0  0  0  0  0  0  0  0
    9.1512  -17.1524    6.2236 C   0  0  2  0  0  0  0  0  0  0  0  0
    7.8074  -16.6204    5.6493 C   0  0  1  0  0  0  0  0  0  0  0  0
    7.0066  -17.8933    5.7807 C   0  0  1  0  0  0  0  0  0  0  0  0
    7.9458  -19.0119    5.2277 C   0  0  1  0  0  0  0  0  0  0  0  0
    7.9918  -19.1927    3.6699 C   0  0  0  0  0  0  0  0  0  0  0  0
    5.7873  -19.1402    7.5249 C   0  0  1  0  0  0  0  0  0  0  0  0
    5.4389  -19.2680    8.9779 C   0  0  1  0  0  0  0  0  0  0  0  0
   11.5674  -16.5889    1.7948 C   0  0  1  0  0  0  0  0  0  0  0  0
    4.4760  -20.4954    9.1529 C   0  0  0  0  0  0  0  0  0  0  0  0
    5.0262  -21.7543    8.7392 C   0  0  0  0  0  0  0  0  0  0  0  0
    5.3429  -21.6809    7.3288 C   0  0  2  0  0  0  0  0  0  0  0  0
    5.9633  -23.0399    6.8156 C   0  0  0  0  0  0  0  0  0  0  0  0
   12.2915  -15.2639   12.3466 C   0  0  2  0  0  0  0  0  0  0  0  0
   13.2349  -16.6701   10.7079 C   0  0  0  0  0  0  0  0  0  0  0  0
   12.1987  -14.9513   13.6896 C   0  0  0  0  0  0  0  0  0  0  0  0
   13.4329  -15.9664   12.1392 C   0  0  1  0  0  0  0  0  0  0  0  0
   12.5594  -15.6244    0.9990 C   0  0  0  0  0  0  0  0  0  0  0  0
   11.8672  -14.1827    0.8780 C   0  0  0  0  0  0  0  0  0  0  0  0
   11.5877  -13.6456    2.3576 C   0  0  1  0  0  0  0  0  0  0  0  0
   10.9116  -12.2693    2.3485 C   0  0  0  0  0  0  0  0  0  0  0  0
   13.2440  -16.1062    8.2564 C   0  0  1  0  0  0  0  0  0  0  0  0
   14.0442  -15.0732    7.2981 C   0  0  0  0  0  0  0  0  0  0  0  0
   13.9284  -15.5341    5.7941 C   0  0  2  0  0  0  0  0  0  0  0  0
   12.2212  -14.0514   11.5627 F   0  0  0  0  0  0  0  0  0  0  0  0
    6.2414  -23.0445    5.2849 N   0  0  0  0  0  0  0  0  0  0  0  0
   12.1415  -17.9734    1.9760 N   0  0  0  0  0  0  0  0  0  0  0  0
    6.5320  -19.5336    9.8074 N   0  0  0  0  0  0  0  0  0  0  0  0
   11.2214  -14.2333   14.4181 N   0  0  0  0  0  0  0  0  0  0  0  0
   10.6716  -11.8131    3.6620 N   0  0  0  0  0  0  0  0  0  0  0  0
   13.3835  -15.6630    9.6552 N   0  0  0  0  0  0  0  0  0  0  0  0
   14.6444  -14.5925    4.9053 N   0  0  0  0  0  0  0  0  0  0  0  0
   12.3989  -16.0098    4.0280 O   0  0  0  0  0  0  0  0  0  0  0  0
   10.1946  -16.4841    5.7926 O   0  0  0  0  0  0  0  0  0  0  0  0
   10.9819  -16.8897    8.5956 O   0  0  0  0  0  0  0  0  0  0  0  0
    7.3638  -15.5798    6.4664 O   0  0  0  0  0  0  0  0  0  0  0  0
    9.1411  -18.5889    5.9047 O   0  0  0  0  0  0  0  0  0  0  0  0
    8.8351  -20.3287    3.3935 O   0  0  0  0  0  0  0  0  0  0  0  0
    6.6721  -18.1220    7.2436 O   0  0  0  0  0  0  0  0  0  0  0  0
   14.6124  -15.1331   12.1123 O   0  0  0  0  0  0  0  0  0  0  0  0
   13.0084  -17.8799   10.5410 O   0  0  0  0  0  0  0  0  0  0  0  0
    6.2854  -20.5312    7.0611 O   0  0  0  0  0  0  0  0  0  0  0  0
   10.6892  -14.6223    3.0984 O   0  0  0  0  0  0  0  0  0  0  0  0
  1 36  1  1  0  0  0
  2 36  1  6  0  0  0
  2  3  1  0  0  0  0
  3 37  1  6  0  0  0
  3  4  1  0  0  0  0
  4 38  1  1  0  0  0
  5 37  1  6  0  0  0
  5  6  1  0  0  0  0
  6  7  1  0  0  0  0
  6 39  1  1  0  0  0
  7 42  1  1  0  0  0
  8  9  1  6  0  0  0
  8  7  1  0  0  0  0
 10 42  1  1  0  0  0
 10 11  1  0  0  0  0
 11 31  1  1  0  0  0
 11 13  1  0  0  0  0
 12 30  1  1  0  0  0
 12  1  1  0  0  0  0
 14 13  1  0  0  0  0
 15 16  1  1  0  0  0
 15 14  1  0  0  0  0
 17 19  1  1  0  0  0
 17 28  1  0  0  0  0
 18 34  1  0  0  0  0
 19 32  1  0  0  0  0
 20 18  1  6  0  0  0
 20 17  1  0  0  0  0
 20 43  1  0  0  0  0
 21 12  1  0  0  0  0
 22 21  1  0  0  0  0
 22 23  1  0  0  0  0
 23 24  1  6  0  0  0
 23 46  1  0  0  0  0
 24 33  1  0  0  0  0
 25 34  1  1  0  0  0
 25  4  1  0  0  0  0
 26 25  1  0  0  0  0
 27 35  1  6  0  0  0
 27 26  1  0  0  0  0
 27  2  1  0  0  0  0
 29 16  1  0  0  0  0
 40  8  1  0  0  0  0
 40  5  1  0  0  0  0
 41  9  1  0  0  0  0
 44 18  2  0  0  0  0
 45 15  1  0  0  0  0
 45 10  1  0  0  0  0
 46  1  1  0  0  0  0
M  END
>  <CHROM.1>
-178.78091618,67.31669427,178.06217729,168.35656992,171.26191900,-175.89628120
-176.80833051,176.46697249,179.52138228,74.39321066,162.63879550,179.92167722
88.54942736,10.15647698,-16.99715567,6.80824073,-0.06154440,-0.70557210,-1.48093218

>  <Name>
lig.pdb

>  <RI>
0

>  <Rbt.Current_Directory>
/home/afrankz/demos/rdock_decoys_rna/rnas/3wru

>  <Rbt.Executable>
rbdock ($Id: //depot/dev/client3/rdock/2013.1/src/exe/rbdock.cxx#4 $)

>  <Rbt.Library>
libRbt.so (2013.1, Build901 2013/11/27)

>  <Rbt.Parameter_File>
/export/apps/rDock/src/rDock_2013.1_src/data/scripts/dock_solv.prm

>  <Rbt.Receptor>
prm/pocket_docking_8.prm

>  <SCORE>
-5.10548

>  <SCORE.INTER>
3.78744

>  <SCORE.INTER.CONST>
1

>  <SCORE.INTER.POLAR>
0

>  <SCORE.INTER.ROT>
13

>  <SCORE.INTER.SOLV>
16.8299

>  <SCORE.INTER.VDW>
-15.3517

>  <SCORE.INTER.norm>
0.0823356

>  <SCORE.INTRA>
-8.89292

>  <SCORE.INTRA.DIHEDRAL>
-15.5375

>  <SCORE.INTRA.DIHEDRAL.0>
19.7146

>  <SCORE.INTRA.POLAR>
0

>  <SCORE.INTRA.POLAR.0>
0

>  <SCORE.INTRA.REPUL>
0

>  <SCORE.INTRA.REPUL.0>
0

>  <SCORE.INTRA.SOLV>
-3.27915

>  <SCORE.INTRA.SOLV.lig_0>
-116.697

>  <SCORE.INTRA.VDW>
0.515404

>  <SCORE.INTRA.VDW.0>
-7.06424

>  <SCORE.INTRA.norm>
-0.193324

>  <SCORE.RESTR>
0

>  <SCORE.RESTR.CAVITY>
0

>  <SCORE.RESTR.norm>
0

>  <SCORE.SYSTEM>
0

>  <SCORE.SYSTEM.CONST>
0

>  <SCORE.SYSTEM.DIHEDRAL>
0

>  <SCORE.SYSTEM.SOLV>
0

>  <SCORE.SYSTEM.norm>
0

>  <SCORE.heavy>
46

>  <SCORE.norm>
-0.110989

>  <RMSD>
6.326

$$$$
lig.pdb
 OpenBabel03061811583D
libRbt.so/2013.1/901 2013/11/27
 46 49  0  0  0  0  0  0  0  0999 V2000
    9.9694  -14.2016    5.2659 C   0  0  1  0  0  0  0  0  0  0  0  0
    9.8265  -11.6784    5.4096 C   0  0  1  0  0  0  0  0  0  0  0  0
   11.1215  -11.2293    6.1519 C   0  0  1  0  0  0  0  0  0  0  0  0
   11.5370   -9.7597    5.6316 C   0  0  2  0  0  0  0  0  0  0  0  0
   10.3850  -12.2093    8.3734 C   0  0  2  0  0  0  0  0  0  0  0  0
   10.8574  -12.0861    9.8500 C   0  0  1  0  0  0  0  0  0  0  0  0
    9.7587  -12.9011   10.4885 C   0  0  1  0  0  0  0  0  0  0  0  0
    8.4435  -12.3843    9.8234 C   0  0  1  0  0  0  0  0  0  0  0  0
    7.8208  -11.0699   10.4119 C   0  0  0  0  0  0  0  0  0  0  0  0
    9.1819  -15.2725   10.8457 C   0  0  1  0  0  0  0  0  0  0  0  0
    9.2553  -15.1897   12.3412 C   0  0  1  0  0  0  0  0  0  0  0  0
    9.3426  -15.4345    5.9590 C   0  0  1  0  0  0  0  0  0  0  0  0
    8.3319  -16.3051   12.9476 C   0  0  0  0  0  0  0  0  0  0  0  0
    8.6896  -17.6455   12.5816 C   0  0  0  0  0  0  0  0  0  0  0  0
    8.5958  -17.7743   11.1430 C   0  0  2  0  0  0  0  0  0  0  0  0
    8.9883  -19.2318   10.6774 C   0  0  0  0  0  0  0  0  0  0  0  0
   13.4232   -6.0351    3.7140 C   0  0  2  0  0  0  0  0  0  0  0  0
   11.5071   -7.3692    4.0327 C   0  0  0  0  0  0  0  0  0  0  0  0
   14.0875   -5.0921    2.9528 C   0  0  0  0  0  0  0  0  0  0  0  0
   12.1161   -6.0465    3.3526 C   0  0  1  0  0  0  0  0  0  0  0  0
    9.7953  -15.5248    7.4870 C   0  0  0  0  0  0  0  0  0  0  0  0
   11.3968  -15.5978    7.5318 C   0  0  0  0  0  0  0  0  0  0  0  0
   11.9691  -14.2819    6.8270 C   0  0  1  0  0  0  0  0  0  0  0  0
   13.5023  -14.2636    6.8084 C   0  0  0  0  0  0  0  0  0  0  0  0
   11.8585   -9.8597    4.0768 C   0  0  1  0  0  0  0  0  0  0  0  0
   10.4756  -10.3049    3.3590 C   0  0  0  0  0  0  0  0  0  0  0  0
   10.0349  -11.7286    3.8757 C   0  0  2  0  0  0  0  0  0  0  0  0
   13.6215   -5.7498    5.1171 F   0  0  0  0  0  0  0  0  0  0  0  0
    8.8988  -19.4252    9.1364 N   0  0  0  0  0  0  0  0  0  0  0  0
    7.8426  -15.3436    5.8133 N   0  0  0  0  0  0  0  0  0  0  0  0
   10.5270  -15.4357   12.8664 N   0  0  0  0  0  0  0  0  0  0  0  0
   15.4535   -4.7284    2.8963 N   0  0  0  0  0  0  0  0  0  0  0  0
   13.9881  -13.1038    6.1682 N   0  0  0  0  0  0  0  0  0  0  0  0
   12.2564   -8.5366    3.5634 N   0  0  0  0  0  0  0  0  0  0  0  0
    8.7658  -12.1431    3.2377 N   0  0  0  0  0  0  0  0  0  0  0  0
    9.4514  -12.9889    5.8137 O   0  0  0  0  0  0  0  0  0  0  0  0
   10.7981  -11.2198    7.6176 O   0  0  0  0  0  0  0  0  0  0  0  0
   12.6813   -9.3867    6.3005 O   0  0  0  0  0  0  0  0  0  0  0  0
   12.1260  -12.6582    9.9528 O   0  0  0  0  0  0  0  0  0  0  0  0
    8.9253  -12.3685    8.4693 O   0  0  0  0  0  0  0  0  0  0  0  0
    8.7920  -10.0188   10.2384 O   0  0  0  0  0  0  0  0  0  0  0  0
    9.9917  -14.3710   10.1896 O   0  0  0  0  0  0  0  0  0  0  0  0
   11.3920   -4.8850    3.8142 O   0  0  0  0  0  0  0  0  0  0  0  0
   10.5616   -7.3779    4.8380 O   0  0  0  0  0  0  0  0  0  0  0  0
    9.4700  -16.7456   10.4654 O   0  0  0  0  0  0  0  0  0  0  0  0
   11.4658  -14.2050    5.3949 O   0  0  0  0  0  0  0  0  0  0  0  0
  1 36  1  1  0  0  0
  2 36  1  1  0  0  0
  2  3  1  0  0  0  0
  3 37  1  1  0  0  0
  3  4  1  0  0  0  0
  4 38  1  1  0  0  0
  5 37  1  6  0  0  0
  5  6  1  0  0  0  0
  6  7  1  0  0  0  0
  6 39  1  6  0  0  0
  7 42  1  6  0  0  0
  8  9  1  1  0  0  0
  8  7  1  0  0  0  0
 10 42  1  6  0  0  0
 10 11  1  0  0  0  0
 11 31  1  6  0  0  0
 11 13  1  0  0  0  0
 12 30  1  1  0  0  0
 12  1  1  0  0  0  0
 14 13  1  0  0  0  0
 15 16  1  1  0  0  0
 15 14  1  0  0  0  0
 17 19  1  6  0  0  0
 17 28  1  0  0  0  0
 18 34  1  0  0  0  0
 19 32  1  0  0  0  0
 20 18  1  1  0  0  0
 20 17  1  0  0  0  0
 20 43  1  0  0  0  0
 21 12  1  0  0  0  0
 22 21  1  0  0  0  0
 22 23  1  0  0  0  0
 23 24  1  6  0  0  0
 23 46  1  0  0  0  0
 24 33  1  0  0  0  0
 25 34  1  6  0  0  0
 25  4  1  0  0  0  0
 26 25  1  0  0  0  0
 27 35  1  6  0  0  0
 27 26  1  0  0  0  0
 27  2  1  0  0  0  0
 29 16  1  0  0  0  0
 40  8  1  0  0  0  0
 40  5  1  0  0  0  0
 41  9  1  0  0  0  0
 44 18  2  0  0  0  0
 45 15  1  0  0  0  0
 45 10  1  0  0  0  0
 46  1  1  0  0  0  0
M  END
>  <CHROM.1>
179.42271384,-84.29152798,59.01071789,149.29643286,171.60916133,61.25571453
-58.42784031,179.79077672,-177.03597795,-57.84868934,167.68054836,179.26348625
-41.41220488,10.65726445,-12.13987694,7.26092579,-3.11986932,1.28940696,0.93330262

>  <Name>
lig.pdb

>  <RI>
0

>  <Rbt.Current_Directory>
/home/afrankz/demos/rdock_decoys_rna/rnas/3wru

>  <Rbt.Executable>
rbdock ($Id: //depot/dev/client3/rdock/2013.1/src/exe/rbdock.cxx#4 $)

>  <Rbt.Library>
libRbt.so (2013.1, Build901 2013/11/27)

>  <Rbt.Parameter_File>
/export/apps/rDock/src/rDock_2013.1_src/data/scripts/dock_solv.prm

>  <Rbt.Receptor>
prm/pocket_docking_5.prm

>  <SCORE>
-1.97953

>  <SCORE.INTER>
0.870687

>  <SCORE.INTER.CONST>
1

>  <SCORE.INTER.POLAR>
0

>  <SCORE.INTER.ROT>
13

>  <SCORE.INTER.SOLV>
22.3796

>  <SCORE.INTER.VDW>
-19.1461

>  <SCORE.INTER.norm>
0.018928

>  <SCORE.INTRA>
-2.85022

>  <SCORE.INTRA.DIHEDRAL>
-11.2486

>  <SCORE.INTRA.DIHEDRAL.0>
19.7146

>  <SCORE.INTRA.POLAR>
0

>  <SCORE.INTRA.POLAR.0>
0

>  <SCORE.INTRA.REPUL>
0.292176

>  <SCORE.INTRA.REPUL.0>
0

>  <SCORE.INTRA.SOLV>
2.10964

>  <SCORE.INTRA.SOLV.lig_0>
-116.697

>  <SCORE.INTRA.VDW>
0.258386

>  <SCORE.INTRA.VDW.0>
-7.06424

>  <SCORE.INTRA.norm>
-0.0619613

>  <SCORE.RESTR>
0

>  <SCORE.RESTR.CAVITY>
0

>  <SCORE.RESTR.norm>
0

>  <SCORE.SYSTEM>
0

>  <SCORE.SYSTEM.CONST>
0

>  <SCORE.SYSTEM.DIHEDRAL>
0

>  <SCORE.SYSTEM.SOLV>
0

>  <SCORE.SYSTEM.norm>
0

>  <SCORE.heavy>
46

>  <SCORE.norm>
-0.0430333

>  <RMSD>
6.385

$$$$
lig.pdb
 OpenBabel03061811583D
libRbt.so/2013.1/901 2013/11/27
 46 49  0  0  0  0  0  0  0  0999 V2000
   14.1596  -15.5908   11.4336 C   0  0  1  0  0  0  0  0  0  0  0  0
   14.2419  -14.9488    8.9864 C   0  0  1  0  0  0  0  0  0  0  0  0
   13.4756  -13.9895    8.0261 C   0  0  1  0  0  0  0  0  0  0  0  0
   14.0249  -14.2073    6.5249 C   0  0  2  0  0  0  0  0  0  0  0  0
   11.0166  -13.5828    8.5014 C   0  0  2  0  0  0  0  0  0  0  0  0
   10.7095  -12.4452    7.4864 C   0  0  1  0  0  0  0  0  0  0  0  0
    9.2547  -12.2427    7.8349 C   0  0  1  0  0  0  0  0  0  0  0  0
    8.6612  -13.6851    7.9147 C   0  0  1  0  0  0  0  0  0  0  0  0
    8.2504  -14.3585    6.5585 C   0  0  0  0  0  0  0  0  0  0  0  0
    7.8899  -11.2757    9.6476 C   0  0  1  0  0  0  0  0  0  0  0  0
    7.8402  -10.2725   10.7611 C   0  0  1  0  0  0  0  0  0  0  0  0
   13.6520  -17.0361   11.2179 C   0  0  1  0  0  0  0  0  0  0  0  0
    6.3513  -10.1315   11.2383 C   0  0  0  0  0  0  0  0  0  0  0  0
    5.7626  -11.3420   11.7351 C   0  0  0  0  0  0  0  0  0  0  0  0
    5.7605  -12.3263   10.6739 C   0  0  2  0  0  0  0  0  0  0  0  0
    5.1303  -13.6887   11.1655 C   0  0  0  0  0  0  0  0  0  0  0  0
   19.1998  -13.7842    3.3043 C   0  0  2  0  0  0  0  0  0  0  0  0
   17.4707  -13.5247    4.8841 C   0  0  0  0  0  0  0  0  0  0  0  0
   19.6186  -14.2920    2.0890 C   0  0  0  0  0  0  0  0  0  0  0  0
   17.8448  -13.8196    3.3490 C   0  0  1  0  0  0  0  0  0  0  0  0
   12.0568  -17.0914   11.2317 C   0  0  0  0  0  0  0  0  0  0  0  0
   11.5473  -16.5115   12.6376 C   0  0  0  0  0  0  0  0  0  0  0  0
   12.0837  -15.0117   12.7744 C   0  0  1  0  0  0  0  0  0  0  0  0
   11.6566  -14.3701   14.1000 C   0  0  0  0  0  0  0  0  0  0  0  0
   15.5664  -13.8147    6.5019 C   0  0  1  0  0  0  0  0  0  0  0  0
   16.3109  -14.8564    7.4952 C   0  0  0  0  0  0  0  0  0  0  0  0
   15.7672  -14.6805    8.9654 C   0  0  2  0  0  0  0  0  0  0  0  0
   19.7389  -12.4551    3.4839 F   0  0  0  0  0  0  0  0  0  0  0  0
    5.1138  -14.7866   10.0634 N   0  0  0  0  0  0  0  0  0  0  0  0
   14.2290  -17.5482    9.9201 N   0  0  0  0  0  0  0  0  0  0  0  0
    8.5603  -10.6449   11.8996 N   0  0  0  0  0  0  0  0  0  0  0  0
   20.9122  -14.5554    1.5805 N   0  0  0  0  0  0  0  0  0  0  0  0
   10.2563  -14.2061   14.1565 N   0  0  0  0  0  0  0  0  0  0  0  0
   16.1052  -13.9874    5.1409 N   0  0  0  0  0  0  0  0  0  0  0  0
   16.4295  -15.6348    9.8820 N   0  0  0  0  0  0  0  0  0  0  0  0
   13.8121  -14.7566   10.3279 O   0  0  0  0  0  0  0  0  0  0  0  0
   12.0207  -14.3426    8.1331 O   0  0  0  0  0  0  0  0  0  0  0  0
   13.3341  -13.3501    5.6978 O   0  0  0  0  0  0  0  0  0  0  0  0
   11.5264  -11.3554    7.7901 O   0  0  0  0  0  0  0  0  0  0  0  0
    9.7289  -14.2729    8.6766 O   0  0  0  0  0  0  0  0  0  0  0  0
    9.4505  -14.5156    5.7754 O   0  0  0  0  0  0  0  0  0  0  0  0
    9.1578  -11.5276    9.1704 O   0  0  0  0  0  0  0  0  0  0  0  0
   17.2252  -12.8298    2.4989 O   0  0  0  0  0  0  0  0  0  0  0  0
   18.2369  -13.0014    5.7097 O   0  0  0  0  0  0  0  0  0  0  0  0
    7.1630  -12.5446   10.1571 O   0  0  0  0  0  0  0  0  0  0  0  0
   13.6015  -14.9990   12.6963 O   0  0  0  0  0  0  0  0  0  0  0  0
  1 36  1  6  0  0  0
  2 36  1  1  0  0  0
  2  3  1  0  0  0  0
  3 37  1  6  0  0  0
  3  4  1  0  0  0  0
  4 38  1  6  0  0  0
  5 37  1  6  0  0  0
  5  6  1  0  0  0  0
  6  7  1  0  0  0  0
  6 39  1  1  0  0  0
  7 42  1  1  0  0  0
  8  9  1  6  0  0  0
  8  7  1  0  0  0  0
 10 42  1  1  0  0  0
 10 11  1  0  0  0  0
 11 31  1  1  0  0  0
 11 13  1  0  0  0  0
 12 30  1  6  0  0  0
 12  1  1  0  0  0  0
 14 13  1  0  0  0  0
 15 16  1  1  0  0  0
 15 14  1  0  0  0  0
 17 19  1  6  0  0  0
 17 28  1  0  0  0  0
 18 34  1  0  0  0  0
 19 32  1  0  0  0  0
 20 18  1  1  0  0  0
 20 17  1  0  0  0  0
 20 43  1  0  0  0  0
 21 12  1  0  0  0  0
 22 21  1  0  0  0  0
 22 23  1  0  0  0  0
 23 24  1  1  0  0  0
 23 46  1  0  0  0  0
 24 33  1  0  0  0  0
 25 34  1  6  0  0  0
 25  4  1  0  0  0  0
 26 25  1  0  0  0  0
 27 35  1  1  0  0  0
 27 26  1  0  0  0  0
 27  2  1  0  0  0  0
 29 16  1  0  0  0  0
 40  8  1  0  0  0  0
 40  5  1  0  0  0  0
 41  9  1  0  0  0  0
 44 18  2  0  0  0  0
 45 15  1  0  0  0  0
 45 10  1  0  0  0  0
 46  1  1  0  0  0  0
M  END
>  <CHROM.1>
-61.32178866,170.54331300,120.54782284,67.71553736,-179.29020329,63.63149727
-164.79546676,-179.56410378,-175.23208428,-160.58624948,167.96669284,-65.81481822
172.91251715,12.46846588,-13.76734265,8.42721756,-2.66835798,0.34204724,-1.14257631

>  <Name>
lig.pdb

>  <RI>
0

>  <Rbt.Current_Directory>
/home/afrankz/demos/rdock_decoys_rna/rnas/3wru

>  <Rbt.Executable>
rbdock ($Id: //depot/dev/client3/rdock/2013.1/src/exe/rbdock.cxx#4 $)

>  <Rbt.Library>
libRbt.so (2013.1, Build901 2013/11/27)

>  <Rbt.Parameter_File>
/export/apps/rDock/src/rDock_2013.1_src/data/scripts/dock_solv.prm

>  <Rbt.Receptor>
prm/pocket_docking_7.prm

>  <SCORE>
1.48712

>  <SCORE.INTER>
2.34286

>  <SCORE.INTER.CONST>
1

>  <SCORE.INTER.POLAR>
0

>  <SCORE.INTER.ROT>
13

>  <SCORE.INTER.SOLV>
17.2278

>  <SCORE.INTER.VDW>
-16.4474

>  <SCORE.INTER.norm>
0.0509317

>  <SCORE.INTRA>
-0.855736

>  <SCORE.INTRA.DIHEDRAL>
-8.53832

>  <SCORE.INTRA.DIHEDRAL.0>
19.7146

>  <SCORE.INTRA.POLAR>
0

>  <SCORE.INTRA.POLAR.0>
0

>  <SCORE.INTRA.REPUL>
0

>  <SCORE.INTRA.REPUL.0>
0

>  <SCORE.INTRA.SOLV>
1.95438

>  <SCORE.INTRA.SOLV.lig_0>
-116.697

>  <SCORE.INTRA.VDW>
2.43623

>  <SCORE.INTRA.VDW.0>
-7.06424

>  <SCORE.INTRA.norm>
-0.018603

>  <SCORE.RESTR>
0

>  <SCORE.RESTR.CAVITY>
0

>  <SCORE.RESTR.norm>
0

>  <SCORE.SYSTEM>
0

>  <SCORE.SYSTEM.CONST>
0

>  <SCORE.SYSTEM.DIHEDRAL>
0

>  <SCORE.SYSTEM.SOLV>
0

>  <SCORE.SYSTEM.norm>
0

>  <SCORE.heavy>
46

>  <SCORE.norm>
0.0323287

>  <RMSD>
6.389

$$$$
lig.pdb
 OpenBabel03061811583D
libRbt.so/2013.1/901 2013/11/27
 46 49  0  0  0  0  0  0  0  0999 V2000
    9.1014  -13.1947   11.6956 C   0  0  1  0  0  0  0  0  0  0  0  0
   11.3362  -13.3565   10.5178 C   0  0  1  0  0  0  0  0  0  0  0  0
   11.1767  -12.2132    9.4703 C   0  0  1  0  0  0  0  0  0  0  0  0
   12.1454  -12.5169    8.2163 C   0  0  2  0  0  0  0  0  0  0  0  0
    9.0548  -13.1310    8.4247 C   0  0  2  0  0  0  0  0  0  0  0  0
    7.7380  -12.5972    7.7926 C   0  0  1  0  0  0  0  0  0  0  0  0
    7.5990  -13.6289    6.6994 C   0  0  1  0  0  0  0  0  0  0  0  0
    9.0252  -13.7374    6.0723 C   0  0  1  0  0  0  0  0  0  0  0  0
    9.4161  -12.6522    5.0087 C   0  0  0  0  0  0  0  0  0  0  0  0
    6.8999  -15.9798    6.4378 C   0  0  1  0  0  0  0  0  0  0  0  0
    6.2075  -17.1541    7.0627 C   0  0  1  0  0  0  0  0  0  0  0  0
    8.5501  -12.7009   13.0541 C   0  0  1  0  0  0  0  0  0  0  0  0
    6.0303  -18.2671    5.9698 C   0  0  0  0  0  0  0  0  0  0  0  0
    7.2556  -18.7529    5.4031 C   0  0  0  0  0  0  0  0  0  0  0  0
    7.9372  -17.6510    4.7579 C   0  0  2  0  0  0  0  0  0  0  0  0
    9.3030  -18.1242    4.1208 C   0  0  0  0  0  0  0  0  0  0  0  0
   17.0470  -12.0972    6.1134 C   0  0  2  0  0  0  0  0  0  0  0  0
   14.7885  -11.6956    6.6527 C   0  0  0  0  0  0  0  0  0  0  0  0
   17.9689  -12.7677    5.3320 C   0  0  0  0  0  0  0  0  0  0  0  0
   15.8255  -12.1995    5.5329 C   0  0  1  0  0  0  0  0  0  0  0  0
    8.9906  -13.6749   14.2395 C   0  0  0  0  0  0  0  0  0  0  0  0
    8.4499  -15.1474   13.9055 C   0  0  0  0  0  0  0  0  0  0  0  0
    9.0836  -15.5989   12.5089 C   0  0  1  0  0  0  0  0  0  0  0  0
    8.6144  -16.9985   12.0936 C   0  0  0  0  0  0  0  0  0  0  0  0
   13.6473  -12.5116    8.7407 C   0  0  1  0  0  0  0  0  0  0  0  0
   13.7574  -13.7303    9.8031 C   0  0  0  0  0  0  0  0  0  0  0  0
   12.7954  -13.4677   11.0252 C   0  0  2  0  0  0  0  0  0  0  0  0
   17.4747  -10.7287    6.2978 F   0  0  0  0  0  0  0  0  0  0  0  0
    9.9972  -17.0187    3.2746 N   0  0  0  0  0  0  0  0  0  0  0  0
    9.0307  -11.2861   13.2702 N   0  0  0  0  0  0  0  0  0  0  0  0
    6.9282  -17.7605    8.0954 N   0  0  0  0  0  0  0  0  0  0  0  0
   19.3255  -13.0977    5.5604 N   0  0  0  0  0  0  0  0  0  0  0  0
    8.9074  -17.9495   13.0940 N   0  0  0  0  0  0  0  0  0  0  0  0
   14.5681  -12.7729    7.6198 N   0  0  0  0  0  0  0  0  0  0  0  0
   12.8760  -14.5795   11.9982 N   0  0  0  0  0  0  0  0  0  0  0  0
   10.5259  -13.1022   11.6580 O   0  0  0  0  0  0  0  0  0  0  0  0
    9.7337  -12.2037    9.0575 O   0  0  0  0  0  0  0  0  0  0  0  0
   11.9867  -11.4948    7.3075 O   0  0  0  0  0  0  0  0  0  0  0  0
    6.7343  -12.6521    8.7605 O   0  0  0  0  0  0  0  0  0  0  0  0
    9.7579  -13.7820    7.3080 O   0  0  0  0  0  0  0  0  0  0  0  0
    9.5078  -11.3889    5.6970 O   0  0  0  0  0  0  0  0  0  0  0  0
    7.1599  -14.9467    7.3118 O   0  0  0  0  0  0  0  0  0  0  0  0
   15.6936  -11.3859    4.3468 O   0  0  0  0  0  0  0  0  0  0  0  0
   14.2784  -10.5636    6.6845 O   0  0  0  0  0  0  0  0  0  0  0  0
    8.1696  -16.5286    5.7418 O   0  0  0  0  0  0  0  0  0  0  0  0
    8.6888  -14.6127   11.4219 O   0  0  0  0  0  0  0  0  0  0  0  0
  1 36  1  1  0  0  0
  2 36  1  1  0  0  0
  2  3  1  0  0  0  0
  3 37  1  6  0  0  0
  3  4  1  0  0  0  0
  4 38  1  6  0  0  0
  5 37  1  6  0  0  0
  5  6  1  0  0  0  0
  6  7  1  0  0  0  0
  6 39  1  1  0  0  0
  7 42  1  1  0  0  0
  8  9  1  6  0  0  0
  8  7  1  0  0  0  0
 10 42  1  1  0  0  0
 10 11  1  0  0  0  0
 11 31  1  1  0  0  0
 11 13  1  0  0  0  0
 12 30  1  1  0  0  0
 12  1  1  0  0  0  0
 14 13  1  0  0  0  0
 15 16  1  1  0  0  0
 15 14  1  0  0  0  0
 17 19  1  6  0  0  0
 17 28  1  0  0  0  0
 18 34  1  0  0  0  0
 19 32  1  0  0  0  0
 20 18  1  1  0  0  0
 20 17  1  0  0  0  0
 20 43  1  0  0  0  0
 21 12  1  0  0  0  0
 22 21  1  0  0  0  0
 22 23  1  0  0  0  0
 23 24  1  6  0  0  0
 23 46  1  0  0  0  0
 24 33  1  0  0  0  0
 25 34  1  6  0  0  0
 25  4  1  0  0  0  0
 26 25  1  0  0  0  0
 27 35  1  1  0  0  0
 27 26  1  0  0  0  0
 27  2  1  0  0  0  0
 29 16  1  0  0  0  0
 40  8  1  0  0  0  0
 40  5  1  0  0  0  0
 41  9  1  0  0  0  0
 44 18  2  0  0  0  0
 45 15  1  0  0  0  0
 45 10  1  0  0  0  0
 46  1  1  0  0  0  0
M  END
>  <CHROM.1>
-173.84530069,71.78977568,-64.52000407,-162.09510606,175.89188174,67.25611193
-168.06464484,173.36096638,-171.42641874,-78.86477218,167.56909982,-56.26148092
73.90527595,10.70876812,-13.94145907,8.25304037,-2.93525368,-0.49430691,-1.81115475

>  <Name>
lig.pdb

>  <RI>
0

>  <Rbt.Current_Directory>
/home/afrankz/demos/rdock_decoys_rna/rnas/3wru

>  <Rbt.Executable>
rbdock ($Id: //depot/dev/client3/rdock/2013.1/src/exe/rbdock.cxx#4 $)

>  <Rbt.Library>
libRbt.so (2013.1, Build901 2013/11/27)

>  <Rbt.Parameter_File>
/export/apps/rDock/src/rDock_2013.1_src/data/scripts/dock_solv.prm

>  <Rbt.Receptor>
prm/pocket_docking_8.prm

>  <SCORE>
-7.7823

>  <SCORE.INTER>
-0.778083

>  <SCORE.INTER.CONST>
1

>  <SCORE.INTER.POLAR>
0

>  <SCORE.INTER.ROT>
13

>  <SCORE.INTER.SOLV>
18.5004

>  <SCORE.INTER.VDW>
-18.9522

>  <SCORE.INTER.norm>
-0.0169149

>  <SCORE.INTRA>
-7.00422

>  <SCORE.INTRA.DIHEDRAL>
-13.7919

>  <SCORE.INTRA.DIHEDRAL.0>
19.7146

>  <SCORE.INTRA.POLAR>
0

>  <SCORE.INTRA.POLAR.0>
0

>  <SCORE.INTRA.REPUL>
0.00231669

>  <SCORE.INTRA.REPUL.0>
0

>  <SCORE.INTRA.SOLV>
-1.57178

>  <SCORE.INTRA.SOLV.lig_0>
-116.697

>  <SCORE.INTRA.VDW>
0.666047

>  <SCORE.INTRA.VDW.0>
-7.06424

>  <SCORE.INTRA.norm>
-0.152266

>  <SCORE.RESTR>
0

>  <SCORE.RESTR.CAVITY>
0

>  <SCORE.RESTR.norm>
0

>  <SCORE.SYSTEM>
0

>  <SCORE.SYSTEM.CONST>
0

>  <SCORE.SYSTEM.DIHEDRAL>
0

>  <SCORE.SYSTEM.SOLV>
0

>  <SCORE.SYSTEM.norm>
0

>  <SCORE.heavy>
46

>  <SCORE.norm>
-0.16918

>  <RMSD>
6.573

$$$$
lig.pdb
 OpenBabel03061811583D
libRbt.so/2013.1/901 2013/11/27
 46 49  0  0  0  0  0  0  0  0999 V2000
   11.8163  -15.4961    8.1827 C   0  0  1  0  0  0  0  0  0  0  0  0
   10.9622  -14.1796    6.1964 C   0  0  1  0  0  0  0  0  0  0  0  0
   10.4716  -12.8379    6.8200 C   0  0  1  0  0  0  0  0  0  0  0  0
   10.6369  -11.6639    5.7259 C   0  0  2  0  0  0  0  0  0  0  0  0
    8.4998  -13.9817    7.9345 C   0  0  2  0  0  0  0  0  0  0  0  0
    7.1967  -13.5308    8.6537 C   0  0  1  0  0  0  0  0  0  0  0  0
    6.5676  -14.8933    8.8176 C   0  0  1  0  0  0  0  0  0  0  0  0
    6.7434  -15.5815    7.4267 C   0  0  1  0  0  0  0  0  0  0  0  0
    5.6918  -15.2209    6.3196 C   0  0  0  0  0  0  0  0  0  0  0  0
    6.7530  -16.8530   10.3038 C   0  0  1  0  0  0  0  0  0  0  0  0
    5.4280  -16.7271   10.9946 C   0  0  1  0  0  0  0  0  0  0  0  0
   11.4182  -16.7539    8.9905 C   0  0  1  0  0  0  0  0  0  0  0  0
    4.9577  -18.1588   11.4345 C   0  0  0  0  0  0  0  0  0  0  0  0
    5.8439  -18.8298   12.3417 C   0  0  0  0  0  0  0  0  0  0  0  0
    7.1272  -19.0017   11.6946 C   0  0  2  0  0  0  0  0  0  0  0  0
    8.1518  -19.7293   12.6516 C   0  0  0  0  0  0  0  0  0  0  0  0
   13.4036   -6.9687    4.1807 C   0  0  2  0  0  0  0  0  0  0  0  0
   12.8276   -9.1425    4.8850 C   0  0  0  0  0  0  0  0  0  0  0  0
   13.9210   -6.1744    3.1750 C   0  0  0  0  0  0  0  0  0  0  0  0
   12.9798   -8.1379    3.6396 C   0  0  1  0  0  0  0  0  0  0  0  0
   10.0709  -16.5061    9.8099 C   0  0  0  0  0  0  0  0  0  0  0  0
   10.2994  -15.2517   10.7828 C   0  0  0  0  0  0  0  0  0  0  0  0
   10.6762  -13.9892    9.8773 C   0  0  1  0  0  0  0  0  0  0  0  0
   10.9277  -12.7342   10.7217 C   0  0  0  0  0  0  0  0  0  0  0  0
   12.1841  -11.5225    5.3841 C   0  0  1  0  0  0  0  0  0  0  0  0
   12.6290  -12.9323    4.7203 C   0  0  0  0  0  0  0  0  0  0  0  0
   12.4476  -14.1002    5.7649 C   0  0  2  0  0  0  0  0  0  0  0  0
   12.3566   -6.2511    4.8724 F   0  0  0  0  0  0  0  0  0  0  0  0
    7.7488  -21.1967   12.9750 N   0  0  0  0  0  0  0  0  0  0  0  0
   11.2959  -17.9111    8.0286 N   0  0  0  0  0  0  0  0  0  0  0  0
    5.4648  -15.9720   12.1701 N   0  0  0  0  0  0  0  0  0  0  0  0
   14.9941   -6.3820    2.2769 N   0  0  0  0  0  0  0  0  0  0  0  0
    9.7802  -12.3841   11.4645 N   0  0  0  0  0  0  0  0  0  0  0  0
   12.3805  -10.4479    4.3946 N   0  0  0  0  0  0  0  0  0  0  0  0
   12.8384  -15.3965    5.1681 N   0  0  0  0  0  0  0  0  0  0  0  0
   10.8691  -15.2327    7.1470 O   0  0  0  0  0  0  0  0  0  0  0  0
    9.0321  -13.0371    7.1959 O   0  0  0  0  0  0  0  0  0  0  0  0
   10.1981  -10.4917    6.3000 O   0  0  0  0  0  0  0  0  0  0  0  0
    7.5503  -12.9168    9.8558 O   0  0  0  0  0  0  0  0  0  0  0  0
    8.1154  -15.2077    7.2174 O   0  0  0  0  0  0  0  0  0  0  0  0
    5.9615  -13.8703    5.8939 O   0  0  0  0  0  0  0  0  0  0  0  0
    7.3008  -15.6518    9.9092 O   0  0  0  0  0  0  0  0  0  0  0  0
   11.7139   -8.0176    2.9546 O   0  0  0  0  0  0  0  0  0  0  0  0
   13.0706   -8.8449    6.0661 O   0  0  0  0  0  0  0  0  0  0  0  0
    7.6730  -17.6661   11.2473 O   0  0  0  0  0  0  0  0  0  0  0  0
   11.9289  -14.2900    9.0707 O   0  0  0  0  0  0  0  0  0  0  0  0
  1 36  1  6  0  0  0
  2 36  1  1  0  0  0
  2  3  1  0  0  0  0
  3 37  1  6  0  0  0
  3  4  1  0  0  0  0
  4 38  1  1  0  0  0
  5 37  1  6  0  0  0
  5  6  1  0  0  0  0
  6  7  1  0  0  0  0
  6 39  1  1  0  0  0
  7 42  1  1  0  0  0
  8  9  1  6  0  0  0
  8  7  1  0  0  0  0
 10 42  1  1  0  0  0
 10 11  1  0  0  0  0
 11 31  1  1  0  0  0
 11 13  1  0  0  0  0
 12 30  1  6  0  0  0
 12  1  1  0  0  0  0
 14 13  1  0  0  0  0
 15 16  1  1  0  0  0
 15 14  1  0  0  0  0
 17 19  1  6  0  0  0
 17 28  1  0  0  0  0
 18 34  1  0  0  0  0
 19 32  1  0  0  0  0
 20 18  1  1  0  0  0
 20 17  1  0  0  0  0
 20 43  1  0  0  0  0
 21 12  1  0  0  0  0
 22 21  1  0  0  0  0
 22 23  1  0  0  0  0
 23 24  1  1  0  0  0
 23 46  1  0  0  0  0
 24 33  1  0  0  0  0
 25 34  1  6  0  0  0
 25  4  1  0  0  0  0
 26 25  1  0  0  0  0
 27 35  1  6  0  0  0
 27 26  1  0  0  0  0
 27  2  1  0  0  0  0
 29 16  1  0  0  0  0
 40  8  1  0  0  0  0
 40  5  1  0  0  0  0
 41  9  1  0  0  0  0
 44 18  2  0  0  0  0
 45 15  1  0  0  0  0
 45 10  1  0  0  0  0
 46  1  1  0  0  0  0
M  END
>  <CHROM.1>
-177.75773513,-80.61774650,53.26315715,152.36187146,172.24123407,71.97001551
-66.74249339,65.83757679,-59.90782589,-179.52852290,163.13248062,-60.36562770
100.13343430,9.80095219,-13.67568405,7.84185611,-2.04777198,0.23275484,-0.51921827

>  <Name>
lig.pdb

>  <RI>
0

>  <Rbt.Current_Directory>
/home/afrankz/demos/rdock_decoys_rna/rnas/3wru

>  <Rbt.Executable>
rbdock ($Id: //depot/dev/client3/rdock/2013.1/src/exe/rbdock.cxx#4 $)

>  <Rbt.Library>
libRbt.so (2013.1, Build901 2013/11/27)

>  <Rbt.Parameter_File>
/export/apps/rDock/src/rDock_2013.1_src/data/scripts/dock_solv.prm

>  <Rbt.Receptor>
prm/pocket_docking_4.prm

>  <SCORE>
-1.13514

>  <SCORE.INTER>
1.71597

>  <SCORE.INTER.CONST>
1

>  <SCORE.INTER.POLAR>
0

>  <SCORE.INTER.ROT>
13

>  <SCORE.INTER.SOLV>
18.8494

>  <SCORE.INTER.VDW>
-17.4058

>  <SCORE.INTER.norm>
0.0373038

>  <SCORE.INTRA>
-2.85111

>  <SCORE.INTRA.DIHEDRAL>
-10.4985

>  <SCORE.INTRA.DIHEDRAL.0>
19.7146

>  <SCORE.INTRA.POLAR>
0

>  <SCORE.INTRA.POLAR.0>
0

>  <SCORE.INTRA.REPUL>
0.232604

>  <SCORE.INTRA.REPUL.0>
0

>  <SCORE.INTRA.SOLV>
1.74372

>  <SCORE.INTRA.SOLV.lig_0>
-116.697

>  <SCORE.INTRA.VDW>
0.36327

>  <SCORE.INTRA.VDW.0>
-7.06424

>  <SCORE.INTRA.norm>
-0.0619807

>  <SCORE.RESTR>
0

>  <SCORE.RESTR.CAVITY>
0

>  <SCORE.RESTR.norm>
0

>  <SCORE.SYSTEM>
0

>  <SCORE.SYSTEM.CONST>
0

>  <SCORE.SYSTEM.DIHEDRAL>
0

>  <SCORE.SYSTEM.SOLV>
0

>  <SCORE.SYSTEM.norm>
0

>  <SCORE.heavy>
46

>  <SCORE.norm>
-0.0246769

>  <RMSD>
6.630

$$$$
lig.pdb
 OpenBabel03061811583D
libRbt.so/2013.1/901 2013/11/27
 46 49  0  0  0  0  0  0  0  0999 V2000
   10.7565  -12.6902    9.4387 C   0  0  1  0  0  0  0  0  0  0  0  0
   13.0401  -12.4202    8.3803 C   0  0  1  0  0  0  0  0  0  0  0  0
   12.9399  -11.2859    7.3159 C   0  0  1  0  0  0  0  0  0  0  0  0
   14.0521  -11.5420    6.1756 C   0  0  2  0  0  0  0  0  0  0  0  0
   11.0261  -12.2517    5.9585 C   0  0  2  0  0  0  0  0  0  0  0  0
    9.5415  -11.9593    5.5992 C   0  0  1  0  0  0  0  0  0  0  0  0
    9.4914  -12.7137    4.2926 C   0  0  1  0  0  0  0  0  0  0  0  0
   10.7935  -12.2920    3.5405 C   0  0  1  0  0  0  0  0  0  0  0  0
   10.7537  -10.9293    2.7638 C   0  0  0  0  0  0  0  0  0  0  0  0
    9.4201  -15.0442    3.4879 C   0  0  1  0  0  0  0  0  0  0  0  0
    9.1502  -16.4793    3.8294 C   0  0  1  0  0  0  0  0  0  0  0  0
   10.0247  -12.2564   10.7308 C   0  0  1  0  0  0  0  0  0  0  0  0
    9.1751  -17.3197    2.5038 C   0  0  0  0  0  0  0  0  0  0  0  0
   10.4206  -17.2828    1.7924 C   0  0  0  0  0  0  0  0  0  0  0  0
   10.6981  -15.9136    1.4138 C   0  0  2  0  0  0  0  0  0  0  0  0
   12.0668  -15.8077    0.6325 C   0  0  0  0  0  0  0  0  0  0  0  0
   17.2256  -13.5602    2.9184 C   0  0  2  0  0  0  0  0  0  0  0  0
   16.4770  -12.9123    5.0568 C   0  0  0  0  0  0  0  0  0  0  0  0
   18.1289  -13.3995    1.8849 C   0  0  0  0  0  0  0  0  0  0  0  0
   17.7044  -12.9292    4.0193 C   0  0  1  0  0  0  0  0  0  0  0  0
   10.6595  -12.9629   12.0137 C   0  0  0  0  0  0  0  0  0  0  0  0
   10.5647  -14.5508   11.8098 C   0  0  0  0  0  0  0  0  0  0  0  0
   11.3657  -14.9244   10.4776 C   0  0  1  0  0  0  0  0  0  0  0  0
   11.3231  -16.4295   10.1876 C   0  0  0  0  0  0  0  0  0  0  0  0
   15.4865  -11.4638    6.8592 C   0  0  1  0  0  0  0  0  0  0  0  0
   15.5396  -12.6759    7.9334 C   0  0  0  0  0  0  0  0  0  0  0  0
   14.4394  -12.4606    9.0430 C   0  0  2  0  0  0  0  0  0  0  0  0
   16.9826  -14.9690    3.1326 F   0  0  0  0  0  0  0  0  0  0  0  0
   12.3452  -14.3806    0.0795 N   0  0  0  0  0  0  0  0  0  0  0  0
   10.0837  -10.7506   10.8214 N   0  0  0  0  0  0  0  0  0  0  0  0
   10.1150  -17.0622    4.6557 N   0  0  0  0  0  0  0  0  0  0  0  0
   18.0850  -13.8086    0.5313 N   0  0  0  0  0  0  0  0  0  0  0  0
   12.0354  -17.1552   11.1659 N   0  0  0  0  0  0  0  0  0  0  0  0
   16.5347  -11.6799    5.8459 N   0  0  0  0  0  0  0  0  0  0  0  0
   14.4678  -13.5673   10.0247 N   0  0  0  0  0  0  0  0  0  0  0  0
   12.0998  -12.2058    9.4249 O   0  0  0  0  0  0  0  0  0  0  0  0
   11.5512  -11.3463    6.7494 O   0  0  0  0  0  0  0  0  0  0  0  0
   13.9436  -10.5285    5.2497 O   0  0  0  0  0  0  0  0  0  0  0  0
    8.7343  -12.4988    6.6014 O   0  0  0  0  0  0  0  0  0  0  0  0
   11.6905  -12.4196    4.6563 O   0  0  0  0  0  0  0  0  0  0  0  0
    9.7612  -11.0548    1.7259 O   0  0  0  0  0  0  0  0  0  0  0  0
    9.4735  -14.2043    4.5790 O   0  0  0  0  0  0  0  0  0  0  0  0
   18.8334  -13.6069    4.6129 O   0  0  0  0  0  0  0  0  0  0  0  0
   15.6175  -13.8042    5.1486 O   0  0  0  0  0  0  0  0  0  0  0  0
   10.7118  -15.0236    2.6343 O   0  0  0  0  0  0  0  0  0  0  0  0
   10.7665  -14.1850    9.2926 O   0  0  0  0  0  0  0  0  0  0  0  0
  1 36  1  1  0  0  0
  2 36  1  1  0  0  0
  2  3  1  0  0  0  0
  3 37  1  6  0  0  0
  3  4  1  0  0  0  0
  4 38  1  6  0  0  0
  5 37  1  6  0  0  0
  5  6  1  0  0  0  0
  6  7  1  0  0  0  0
  6 39  1  1  0  0  0
  7 42  1  1  0  0  0
  8  9  1  1  0  0  0
  8  7  1  0  0  0  0
 10 42  1  1  0  0  0
 10 11  1  0  0  0  0
 11 31  1  1  0  0  0
 11 13  1  0  0  0  0
 12 30  1  1  0  0  0
 12  1  1  0  0  0  0
 14 13  1  0  0  0  0
 15 16  1  1  0  0  0
 15 14  1  0  0  0  0
 17 19  1  6  0  0  0
 17 28  1  0  0  0  0
 18 34  1  0  0  0  0
 19 32  1  0  0  0  0
 20 18  1  1  0  0  0
 20 17  1  0  0  0  0
 20 43  1  0  0  0  0
 21 12  1  0  0  0  0
 22 21  1  0  0  0  0
 22 23  1  0  0  0  0
 23 24  1  6  0  0  0
 23 46  1  0  0  0  0
 24 33  1  0  0  0  0
 25 34  1  6  0  0  0
 25  4  1  0  0  0  0
 26 25  1  0  0  0  0
 27 35  1  1  0  0  0
 27 26  1  0  0  0  0
 27  2  1  0  0  0  0
 29 16  1  0  0  0  0
 40  8  1  0  0  0  0
 40  5  1  0  0  0  0
 41  9  1  0  0  0  0
 44 18  2  0  0  0  0
 45 15  1  0  0  0  0
 45 10  1  0  0  0  0
 46  1  1  0  0  0  0
M  END
>  <CHROM.1>
-179.64369863,89.32234239,-70.86249675,179.58794560,179.63456964,-63.07524395
-169.26781749,174.29884942,-177.12471665,-146.15269431,168.87602107,-66.96024798
-55.95299308,12.54045902,-13.49487149,5.76903753,1.99737966,0.21279535,1.38282343

>  <Name>
lig.pdb

>  <RI>
0

>  <Rbt.Current_Directory>
/home/afrankz/demos/rdock_decoys_rna/rnas/3wru

>  <Rbt.Executable>
rbdock ($Id: //depot/dev/client3/rdock/2013.1/src/exe/rbdock.cxx#4 $)

>  <Rbt.Library>
libRbt.so (2013.1, Build901 2013/11/27)

>  <Rbt.Parameter_File>
/export/apps/rDock/src/rDock_2013.1_src/data/scripts/dock_solv.prm

>  <Rbt.Receptor>
prm/pocket_docking_7.prm

>  <SCORE>
-7.11624

>  <SCORE.INTER>
-1.40137

>  <SCORE.INTER.CONST>
1

>  <SCORE.INTER.POLAR>
0

>  <SCORE.INTER.ROT>
13

>  <SCORE.INTER.SOLV>
27.9732

>  <SCORE.INTER.VDW>
-22.5253

>  <SCORE.INTER.norm>
-0.0304646

>  <SCORE.INTRA>
-5.71487

>  <SCORE.INTRA.DIHEDRAL>
-12.3294

>  <SCORE.INTRA.DIHEDRAL.0>
19.7146

>  <SCORE.INTRA.POLAR>
0

>  <SCORE.INTRA.POLAR.0>
0

>  <SCORE.INTRA.REPUL>
0

>  <SCORE.INTRA.REPUL.0>
0

>  <SCORE.INTRA.SOLV>
-1.56883

>  <SCORE.INTRA.SOLV.lig_0>
-116.697

>  <SCORE.INTRA.VDW>
1.23424

>  <SCORE.INTRA.VDW.0>
-7.06424

>  <SCORE.INTRA.norm>
-0.124236

>  <SCORE.RESTR>
0

>  <SCORE.RESTR.CAVITY>
0

>  <SCORE.RESTR.norm>
0

>  <SCORE.SYSTEM>
0

>  <SCORE.SYSTEM.CONST>
0

>  <SCORE.SYSTEM.DIHEDRAL>
0

>  <SCORE.SYSTEM.SOLV>
0

>  <SCORE.SYSTEM.norm>
0

>  <SCORE.heavy>
46

>  <SCORE.norm>
-0.154701

>  <RMSD>
6.694

$$$$
lig.pdb
 OpenBabel03061811583D
libRbt.so/2013.1/901 2013/11/27
 46 49  0  0  0  0  0  0  0  0999 V2000
   11.1190  -13.2613   11.9161 C   0  0  1  0  0  0  0  0  0  0  0  0
   12.3639  -14.8456   10.3838 C   0  0  1  0  0  0  0  0  0  0  0  0
   12.3906  -13.9124    9.1356 C   0  0  1  0  0  0  0  0  0  0  0  0
   13.6628  -14.3003    8.2225 C   0  0  2  0  0  0  0  0  0  0  0  0
   10.6713  -13.5617    7.3028 C   0  0  2  0  0  0  0  0  0  0  0  0
   10.0919  -14.5726    6.2727 C   0  0  1  0  0  0  0  0  0  0  0  0
    9.1743  -13.6222    5.5422 C   0  0  1  0  0  0  0  0  0  0  0  0
    8.4420  -12.8305    6.6718 C   0  0  1  0  0  0  0  0  0  0  0  0
    7.2033  -13.5271    7.3369 C   0  0  0  0  0  0  0  0  0  0  0  0
   10.5947  -11.6216    5.2897 C   0  0  1  0  0  0  0  0  0  0  0  0
   10.2300  -10.2947    4.6939 C   0  0  1  0  0  0  0  0  0  0  0  0
   10.4110  -13.4606   13.2771 C   0  0  1  0  0  0  0  0  0  0  0  0
   11.0141   -9.1719    5.4613 C   0  0  0  0  0  0  0  0  0  0  0  0
   12.4429   -9.2849    5.3956 C   0  0  0  0  0  0  0  0  0  0  0  0
   12.8368  -10.5418    5.9956 C   0  0  2  0  0  0  0  0  0  0  0  0
   14.4045  -10.7279    5.9443 C   0  0  0  0  0  0  0  0  0  0  0  0
   19.0507  -15.6743    8.2357 C   0  0  2  0  0  0  0  0  0  0  0  0
   17.4821  -14.0138    8.8148 C   0  0  0  0  0  0  0  0  0  0  0  0
   19.8243  -16.2722    7.2590 C   0  0  0  0  0  0  0  0  0  0  0  0
   18.6218  -14.4717    7.7782 C   0  0  1  0  0  0  0  0  0  0  0  0
    8.9010  -13.9362   13.0735 C   0  0  0  0  0  0  0  0  0  0  0  0
    8.1422  -12.8320   12.1919 C   0  0  0  0  0  0  0  0  0  0  0  0
    8.9106  -12.7043   10.7958 C   0  0  1  0  0  0  0  0  0  0  0  0
    8.2644  -11.6571    9.8808 C   0  0  0  0  0  0  0  0  0  0  0  0
   14.9801  -14.0368    9.0746 C   0  0  1  0  0  0  0  0  0  0  0  0
   14.9075  -15.0472   10.3394 C   0  0  0  0  0  0  0  0  0  0  0  0
   13.6526  -14.7041   11.2312 C   0  0  2  0  0  0  0  0  0  0  0  0
   19.8109  -15.5767    9.4614 F   0  0  0  0  0  0  0  0  0  0  0  0
   14.9649  -10.7890    4.4943 N   0  0  0  0  0  0  0  0  0  0  0  0
   11.2162  -14.4495   14.0853 N   0  0  0  0  0  0  0  0  0  0  0  0
   10.5944  -10.1500    3.3523 N   0  0  0  0  0  0  0  0  0  0  0  0
   21.0694  -15.9054    6.6963 N   0  0  0  0  0  0  0  0  0  0  0  0
    8.3321  -10.3702   10.4556 N   0  0  0  0  0  0  0  0  0  0  0  0
   16.1697  -14.3672    8.2694 N   0  0  0  0  0  0  0  0  0  0  0  0
   13.5663  -15.6275   12.3842 N   0  0  0  0  0  0  0  0  0  0  0  0
   11.2766  -14.5063   11.2347 O   0  0  0  0  0  0  0  0  0  0  0  0
   11.1009  -14.1365    8.4010 O   0  0  0  0  0  0  0  0  0  0  0  0
   13.6642  -13.4633    7.1290 O   0  0  0  0  0  0  0  0  0  0  0  0
   11.1450  -15.0591    5.4971 O   0  0  0  0  0  0  0  0  0  0  0  0
    9.5996  -12.5696    7.4828 O   0  0  0  0  0  0  0  0  0  0  0  0
    7.6787  -14.7259    7.9810 O   0  0  0  0  0  0  0  0  0  0  0  0
   10.0058  -12.7011    4.6679 O   0  0  0  0  0  0  0  0  0  0  0  0
   19.6684  -13.4772    7.7358 O   0  0  0  0  0  0  0  0  0  0  0  0
   17.7004  -13.4636    9.9067 O   0  0  0  0  0  0  0  0  0  0  0  0
   12.1415  -11.6930    5.3078 O   0  0  0  0  0  0  0  0  0  0  0  0
   10.3578  -12.3086   11.0393 O   0  0  0  0  0  0  0  0  0  0  0  0
  1 36  1  6  0  0  0
  2 36  1  1  0  0  0
  2  3  1  0  0  0  0
  3 37  1  6  0  0  0
  3  4  1  0  0  0  0
  4 38  1  6  0  0  0
  5 37  1  1  0  0  0
  5  6  1  0  0  0  0
  6  7  1  0  0  0  0
  6 39  1  6  0  0  0
  7 42  1  6  0  0  0
  8  9  1  1  0  0  0
  8  7  1  0  0  0  0
 10 42  1  6  0  0  0
 10 11  1  0  0  0  0
 11 31  1  6  0  0  0
 11 13  1  0  0  0  0
 12 30  1  1  0  0  0
 12  1  1  0  0  0  0
 14 13  1  0  0  0  0
 15 16  1  6  0  0  0
 15 14  1  0  0  0  0
 17 19  1  6  0  0  0
 17 28  1  0  0  0  0
 18 34  1  0  0  0  0
 19 32  1  0  0  0  0
 20 18  1  1  0  0  0
 20 17  1  0  0  0  0
 20 43  1  0  0  0  0
 21 12  1  0  0  0  0
 22 21  1  0  0  0  0
 22 23  1  0  0  0  0
 23 24  1  6  0  0  0
 23 46  1  0  0  0  0
 24 33  1  0  0  0  0
 25 34  1  6  0  0  0
 25  4  1  0  0  0  0
 26 25  1  0  0  0  0
 27 35  1  1  0  0  0
 27 26  1  0  0  0  0
 27  2  1  0  0  0  0
 29 16  1  0  0  0  0
 40  8  1  0  0  0  0
 40  5  1  0  0  0  0
 41  9  1  0  0  0  0
 44 18  2  0  0  0  0
 45 15  1  0  0  0  0
 45 10  1  0  0  0  0
 46  1  1  0  0  0  0
M  END
>  <CHROM.1>
-146.97371728,-63.59764710,179.09146384,133.73957721,-80.97896681,62.91170052
-123.37973876,-62.59744980,65.09090644,-96.94562480,167.46038340,62.93281165
171.63854012,12.64297567,-13.28323627,8.31913954,3.06581924,0.22351444,-1.18516633

>  <Name>
lig.pdb

>  <RI>
0

>  <Rbt.Current_Directory>
/home/afrankz/demos/rdock_decoys_rna/rnas/3wru

>  <Rbt.Executable>
rbdock ($Id: //depot/dev/client3/rdock/2013.1/src/exe/rbdock.cxx#4 $)

>  <Rbt.Library>
libRbt.so (2013.1, Build901 2013/11/27)

>  <Rbt.Parameter_File>
/export/apps/rDock/src/rDock_2013.1_src/data/scripts/dock_solv.prm

>  <Rbt.Receptor>
prm/pocket_docking_4.prm

>  <SCORE>
6.40526

>  <SCORE.INTER>
0.349524

>  <SCORE.INTER.CONST>
1

>  <SCORE.INTER.POLAR>
0

>  <SCORE.INTER.ROT>
13

>  <SCORE.INTER.SOLV>
22.3567

>  <SCORE.INTER.VDW>
-19.4859

>  <SCORE.INTER.norm>
0.00759835

>  <SCORE.INTRA>
6.0259

>  <SCORE.INTRA.DIHEDRAL>
2.75075

>  <SCORE.INTRA.DIHEDRAL.0>
19.7146

>  <SCORE.INTRA.POLAR>
0

>  <SCORE.INTRA.POLAR.0>
0

>  <SCORE.INTRA.REPUL>
0

>  <SCORE.INTRA.REPUL.0>
0

>  <SCORE.INTRA.SOLV>
4.91747

>  <SCORE.INTRA.SOLV.lig_0>
-116.697

>  <SCORE.INTRA.VDW>
2.19179

>  <SCORE.INTRA.VDW.0>
-7.06424

>  <SCORE.INTRA.norm>
0.130998

>  <SCORE.RESTR>
0.0298306

>  <SCORE.RESTR.CAVITY>
0.0298306

>  <SCORE.RESTR.norm>
0.000648491

>  <SCORE.SYSTEM>
0

>  <SCORE.SYSTEM.CONST>
0

>  <SCORE.SYSTEM.DIHEDRAL>
0

>  <SCORE.SYSTEM.SOLV>
0

>  <SCORE.SYSTEM.norm>
0

>  <SCORE.heavy>
46

>  <SCORE.norm>
0.139245

>  <RMSD>
6.712

$$$$
lig.pdb
 OpenBabel03061811583D
libRbt.so/2013.1/901 2013/11/27
 46 49  0  0  0  0  0  0  0  0999 V2000
   16.5686  -13.4038    8.7570 C   0  0  1  0  0  0  0  0  0  0  0  0
   15.4371  -13.1604    6.5058 C   0  0  1  0  0  0  0  0  0  0  0  0
   13.9515  -12.8970    6.8974 C   0  0  1  0  0  0  0  0  0  0  0  0
   13.2626  -11.9953    5.7506 C   0  0  2  0  0  0  0  0  0  0  0  0
   12.3089  -14.6079    7.7990 C   0  0  2  0  0  0  0  0  0  0  0  0
   11.1544  -13.5677    7.8621 C   0  0  1  0  0  0  0  0  0  0  0  0
   10.0430  -14.5139    8.2476 C   0  0  1  0  0  0  0  0  0  0  0  0
   10.2191  -15.7410    7.2978 C   0  0  1  0  0  0  0  0  0  0  0  0
    9.6184  -15.6118    5.8541 C   0  0  0  0  0  0  0  0  0  0  0  0
    9.1692  -15.6073   10.2785 C   0  0  1  0  0  0  0  0  0  0  0  0
    9.3728  -15.9300   11.7288 C   0  0  1  0  0  0  0  0  0  0  0  0
   17.3988  -14.4664    9.5153 C   0  0  1  0  0  0  0  0  0  0  0  0
    8.1440  -16.7688   12.2296 C   0  0  0  0  0  0  0  0  0  0  0  0
    7.9474  -18.0140   11.5443 C   0  0  0  0  0  0  0  0  0  0  0  0
    7.7116  -17.7399   10.1428 C   0  0  2  0  0  0  0  0  0  0  0  0
    7.4965  -19.0782    9.3318 C   0  0  0  0  0  0  0  0  0  0  0  0
   12.2851   -7.0649    3.8726 C   0  0  2  0  0  0  0  0  0  0  0  0
   12.1055   -9.1483    4.9591 C   0  0  0  0  0  0  0  0  0  0  0  0
   12.1498   -6.3218    2.7152 C   0  0  0  0  0  0  0  0  0  0  0  0
   11.6452   -8.2494    3.7087 C   0  0  1  0  0  0  0  0  0  0  0  0
   16.4807  -15.6867    9.9798 C   0  0  0  0  0  0  0  0  0  0  0  0
   15.3096  -15.1072   10.9099 C   0  0  0  0  0  0  0  0  0  0  0  0
   14.4811  -14.0429   10.0516 C   0  0  1  0  0  0  0  0  0  0  0  0
   13.3388  -13.4190   10.8624 C   0  0  0  0  0  0  0  0  0  0  0  0
   14.0231  -10.5990    5.6978 C   0  0  1  0  0  0  0  0  0  0  0  0
   15.5484  -10.9334    5.2645 C   0  0  0  0  0  0  0  0  0  0  0  0
   16.2326  -11.8396    6.3593 C   0  0  2  0  0  0  0  0  0  0  0  0
   11.7893   -6.3029    4.9964 F   0  0  0  0  0  0  0  0  0  0  0  0
    7.2375  -18.8389    7.8166 N   0  0  0  0  0  0  0  0  0  0  0  0
   18.5265  -14.9116    8.6156 N   0  0  0  0  0  0  0  0  0  0  0  0
   10.4934  -16.7245   11.9865 N   0  0  0  0  0  0  0  0  0  0  0  0
   11.0028   -5.9004    2.0023 N   0  0  0  0  0  0  0  0  0  0  0  0
   12.4255  -14.4044   11.2936 N   0  0  0  0  0  0  0  0  0  0  0  0
   13.4142   -9.7376    4.6684 N   0  0  0  0  0  0  0  0  0  0  0  0
   17.6231  -12.1638    5.9707 N   0  0  0  0  0  0  0  0  0  0  0  0
   16.0897  -13.9202    7.5148 O   0  0  0  0  0  0  0  0  0  0  0  0
   13.2896  -14.2396    7.0093 O   0  0  0  0  0  0  0  0  0  0  0  0
   11.9541  -11.7767    6.1194 O   0  0  0  0  0  0  0  0  0  0  0  0
   11.4676  -12.6252    8.8423 O   0  0  0  0  0  0  0  0  0  0  0  0
   11.6436  -15.8700    7.4390 O   0  0  0  0  0  0  0  0  0  0  0  0
   10.2389  -14.4695    5.2309 O   0  0  0  0  0  0  0  0  0  0  0  0
   10.2094  -14.9101    9.7035 O   0  0  0  0  0  0  0  0  0  0  0  0
   10.2067   -8.1191    3.7070 O   0  0  0  0  0  0  0  0  0  0  0  0
   11.4491   -9.2945    6.0033 O   0  0  0  0  0  0  0  0  0  0  0  0
    8.8576  -16.9447    9.5630 O   0  0  0  0  0  0  0  0  0  0  0  0
   15.4044  -12.9315    9.5800 O   0  0  0  0  0  0  0  0  0  0  0  0
  1 36  1  6  0  0  0
  2 36  1  1  0  0  0
  2  3  1  0  0  0  0
  3 37  1  6  0  0  0
  3  4  1  0  0  0  0
  4 38  1  1  0  0  0
  5 37  1  6  0  0  0
  5  6  1  0  0  0  0
  6  7  1  0  0  0  0
  6 39  1  1  0  0  0
  7 42  1  1  0  0  0
  8  9  1  6  0  0  0
  8  7  1  0  0  0  0
 10 42  1  6  0  0  0
 10 11  1  0  0  0  0
 11 31  1  6  0  0  0
 11 13  1  0  0  0  0
 12 30  1  6  0  0  0
 12  1  1  0  0  0  0
 14 13  1  0  0  0  0
 15 16  1  6  0  0  0
 15 14  1  0  0  0  0
 17 19  1  6  0  0  0
 17 28  1  0  0  0  0
 18 34  1  0  0  0  0
 19 32  1  0  0  0  0
 20 18  1  1  0  0  0
 20 17  1  0  0  0  0
 20 43  1  0  0  0  0
 21 12  1  0  0  0  0
 22 21  1  0  0  0  0
 22 23  1  0  0  0  0
 23 24  1  1  0  0  0
 23 46  1  0  0  0  0
 24 33  1  0  0  0  0
 25 34  1  6  0  0  0
 25  4  1  0  0  0  0
 26 25  1  0  0  0  0
 27 35  1  6  0  0  0
 27 26  1  0  0  0  0
 27  2  1  0  0  0  0
 29 16  1  0  0  0  0
 40  8  1  0  0  0  0
 40  5  1  0  0  0  0
 41  9  1  0  0  0  0
 44 18  2  0  0  0  0
 45 15  1  0  0  0  0
 45 10  1  0  0  0  0
 46  1  1  0  0  0  0
M  END
>  <CHROM.1>
-171.90709883,-77.76610839,148.38016204,44.39954332,170.39027866,58.42466394
-178.06950693,179.96095247,56.05011474,-81.75800493,168.74070366,-60.39294609
73.37144119,12.29339248,-13.20969116,7.63324306,-1.26996552,0.13162577,2.49082291

>  <Name>
lig.pdb

>  <RI>
0

>  <Rbt.Current_Directory>
/home/afrankz/demos/rdock_decoys_rna/rnas/3wru

>  <Rbt.Executable>
rbdock ($Id: //depot/dev/client3/rdock/2013.1/src/exe/rbdock.cxx#4 $)

>  <Rbt.Library>
libRbt.so (2013.1, Build901 2013/11/27)

>  <Rbt.Parameter_File>
/export/apps/rDock/src/rDock_2013.1_src/data/scripts/dock_solv.prm

>  <Rbt.Receptor>
prm/pocket_docking_3.prm

>  <SCORE>
2.23714

>  <SCORE.INTER>
2.55669

>  <SCORE.INTER.CONST>
1

>  <SCORE.INTER.POLAR>
0

>  <SCORE.INTER.ROT>
13

>  <SCORE.INTER.SOLV>
12.4467

>  <SCORE.INTER.VDW>
-14.7111

>  <SCORE.INTER.norm>
0.0555802

>  <SCORE.INTRA>
-0.426097

>  <SCORE.INTRA.DIHEDRAL>
-10.2954

>  <SCORE.INTRA.DIHEDRAL.0>
19.7146

>  <SCORE.INTRA.POLAR>
0

>  <SCORE.INTRA.POLAR.0>
0

>  <SCORE.INTRA.REPUL>
0

>  <SCORE.INTRA.REPUL.0>
0

>  <SCORE.INTRA.SOLV>
7.79296

>  <SCORE.INTRA.SOLV.lig_0>
-116.697

>  <SCORE.INTRA.VDW>
0.825148

>  <SCORE.INTRA.VDW.0>
-7.06424

>  <SCORE.INTRA.norm>
-0.00926298

>  <SCORE.RESTR>
0.106552

>  <SCORE.RESTR.CAVITY>
0.106552

>  <SCORE.RESTR.norm>
0.00231635

>  <SCORE.SYSTEM>
0

>  <SCORE.SYSTEM.CONST>
0

>  <SCORE.SYSTEM.DIHEDRAL>
0

>  <SCORE.SYSTEM.SOLV>
0

>  <SCORE.SYSTEM.norm>
0

>  <SCORE.heavy>
46

>  <SCORE.norm>
0.0486335

>  <RMSD>
6.715

$$$$
lig.pdb
 OpenBabel03061811583D
libRbt.so/2013.1/901 2013/11/27
 46 49  0  0  0  0  0  0  0  0999 V2000
   13.7127  -15.4978    6.0360 C   0  0  1  0  0  0  0  0  0  0  0  0
   12.0773  -13.5983    5.6818 C   0  0  1  0  0  0  0  0  0  0  0  0
   12.5294  -12.7217    6.8888 C   0  0  1  0  0  0  0  0  0  0  0  0
   12.1947  -11.1770    6.5649 C   0  0  2  0  0  0  0  0  0  0  0  0
   10.4776  -13.1332    8.3237 C   0  0  2  0  0  0  0  0  0  0  0  0
   10.0191  -14.0539    9.4902 C   0  0  1  0  0  0  0  0  0  0  0  0
    8.7846  -13.2829    9.8907 C   0  0  1  0  0  0  0  0  0  0  0  0
    9.2437  -11.7906    9.9291 C   0  0  1  0  0  0  0  0  0  0  0  0
    9.9764  -11.3077   11.2298 C   0  0  0  0  0  0  0  0  0  0  0  0
    6.5293  -14.0809    9.2907 C   0  0  1  0  0  0  0  0  0  0  0  0
    5.7621  -13.2447   10.2710 C   0  0  1  0  0  0  0  0  0  0  0  0
   13.6779  -17.0394    6.1596 C   0  0  1  0  0  0  0  0  0  0  0  0
    4.4917  -14.0480   10.7238 C   0  0  0  0  0  0  0  0  0  0  0  0
    4.7702  -15.3006   11.3657 C   0  0  0  0  0  0  0  0  0  0  0  0
    5.4813  -16.1508   10.4347 C   0  0  2  0  0  0  0  0  0  0  0  0
    5.8251  -17.5462   11.0902 C   0  0  0  0  0  0  0  0  0  0  0  0
   12.2617   -7.2063    2.9391 C   0  0  2  0  0  0  0  0  0  0  0  0
   13.7286   -8.6379    4.1017 C   0  0  0  0  0  0  0  0  0  0  0  0
   11.5663   -6.0122    2.9119 C   0  0  0  0  0  0  0  0  0  0  0  0
   13.2333   -7.1248    3.8818 C   0  0  1  0  0  0  0  0  0  0  0  0
   12.9961  -17.4891    7.5310 C   0  0  0  0  0  0  0  0  0  0  0  0
   13.8249  -16.8382    8.7400 C   0  0  0  0  0  0  0  0  0  0  0  0
   13.7907  -15.2500    8.5608 C   0  0  1  0  0  0  0  0  0  0  0  0
   14.5713  -14.5323    9.6684 C   0  0  0  0  0  0  0  0  0  0  0  0
   13.0395  -10.7467    5.2875 C   0  0  1  0  0  0  0  0  0  0  0  0
   12.5108  -11.6712    4.0660 C   0  0  0  0  0  0  0  0  0  0  0  0
   12.8022  -13.1902    4.3753 C   0  0  2  0  0  0  0  0  0  0  0  0
   12.7747   -7.4965    1.6192 F   0  0  0  0  0  0  0  0  0  0  0  0
    6.7184  -17.4217   12.3578 N   0  0  0  0  0  0  0  0  0  0  0  0
   12.9540  -17.5914    4.9552 N   0  0  0  0  0  0  0  0  0  0  0  0
    6.4590  -12.9593   11.4485 N   0  0  0  0  0  0  0  0  0  0  0  0
   10.4546   -5.5939    2.1435 N   0  0  0  0  0  0  0  0  0  0  0  0
   14.4970  -13.1315    9.5157 N   0  0  0  0  0  0  0  0  0  0  0  0
   12.7718   -9.3336    4.9649 N   0  0  0  0  0  0  0  0  0  0  0  0
   12.3131  -14.0480    3.2734 N   0  0  0  0  0  0  0  0  0  0  0  0
   12.3934  -14.9648    5.9142 O   0  0  0  0  0  0  0  0  0  0  0  0
   11.7656  -13.2079    8.0860 O   0  0  0  0  0  0  0  0  0  0  0  0
   12.6031  -10.4250    7.6437 O   0  0  0  0  0  0  0  0  0  0  0  0
    9.7567  -15.3217    8.9697 O   0  0  0  0  0  0  0  0  0  0  0  0
    9.9762  -11.7998    8.6925 O   0  0  0  0  0  0  0  0  0  0  0  0
   10.1281   -9.8775   11.1320 O   0  0  0  0  0  0  0  0  0  0  0  0
    7.7008  -13.5039    8.8511 O   0  0  0  0  0  0  0  0  0  0  0  0
   14.3486   -6.3025    3.4743 O   0  0  0  0  0  0  0  0  0  0  0  0
   14.7539   -9.1256    3.5983 O   0  0  0  0  0  0  0  0  0  0  0  0
    6.7379  -15.4655    9.9520 O   0  0  0  0  0  0  0  0  0  0  0  0
   14.3941  -14.8705    7.2184 O   0  0  0  0  0  0  0  0  0  0  0  0
  1 36  1  1  0  0  0
  2 36  1  1  0  0  0
  2  3  1  0  0  0  0
  3 37  1  1  0  0  0
  3  4  1  0  0  0  0
  4 38  1  1  0  0  0
  5 37  1  1  0  0  0
  5  6  1  0  0  0  0
  6  7  1  0  0  0  0
  6 39  1  6  0  0  0
  7 42  1  6  0  0  0
  8  9  1  1  0  0  0
  8  7  1  0  0  0  0
 10 42  1  1  0  0  0
 10 11  1  0  0  0  0
 11 31  1  1  0  0  0
 11 13  1  0  0  0  0
 12 30  1  6  0  0  0
 12  1  1  0  0  0  0
 14 13  1  0  0  0  0
 15 16  1  1  0  0  0
 15 14  1  0  0  0  0
 17 19  1  6  0  0  0
 17 28  1  0  0  0  0
 18 34  1  0  0  0  0
 19 32  1  0  0  0  0
 20 18  1  6  0  0  0
 20 17  1  0  0  0  0
 20 43  1  0  0  0  0
 21 12  1  0  0  0  0
 22 21  1  0  0  0  0
 22 23  1  0  0  0  0
 23 24  1  1  0  0  0
 23 46  1  0  0  0  0
 24 33  1  0  0  0  0
 25 34  1  6  0  0  0
 25  4  1  0  0  0  0
 26 25  1  0  0  0  0
 27 35  1  6  0  0  0
 27 26  1  0  0  0  0
 27  2  1  0  0  0  0
 29 16  1  0  0  0  0
 40  8  1  0  0  0  0
 40  5  1  0  0  0  0
 41  9  1  0  0  0  0
 44 18  2  0  0  0  0
 45 15  1  0  0  0  0
 45 10  1  0  0  0  0
 46  1  1  0  0  0  0
M  END
>  <CHROM.1>
-174.97266183,-64.75080517,-66.94373652,165.52269405,119.74415424,-171.64690407
64.71729717,-59.95280144,-178.30233968,-79.16890654,166.11968613,-178.27636535
161.82388207,10.96169108,-12.67265293,7.35063876,-0.93289952,-0.54566096
2.71157738

>  <Name>
lig.pdb

>  <RI>
0

>  <Rbt.Current_Directory>
/home/afrankz/demos/rdock_decoys_rna/rnas/3wru

>  <Rbt.Executable>
rbdock ($Id: //depot/dev/client3/rdock/2013.1/src/exe/rbdock.cxx#4 $)

>  <Rbt.Library>
libRbt.so (2013.1, Build901 2013/11/27)

>  <Rbt.Parameter_File>
/export/apps/rDock/src/rDock_2013.1_src/data/scripts/dock_solv.prm

>  <Rbt.Receptor>
prm/pocket_docking_5.prm

>  <SCORE>
0.243529

>  <SCORE.INTER>
2.72403

>  <SCORE.INTER.CONST>
1

>  <SCORE.INTER.POLAR>
0

>  <SCORE.INTER.ROT>
13

>  <SCORE.INTER.SOLV>
17.8993

>  <SCORE.INTER.VDW>
-16.4171

>  <SCORE.INTER.norm>
0.0592181

>  <SCORE.INTRA>
-2.51193

>  <SCORE.INTRA.DIHEDRAL>
-8.53522

>  <SCORE.INTRA.DIHEDRAL.0>
19.7146

>  <SCORE.INTRA.POLAR>
0

>  <SCORE.INTRA.POLAR.0>
0

>  <SCORE.INTRA.REPUL>
0

>  <SCORE.INTRA.REPUL.0>
0

>  <SCORE.INTRA.SOLV>
2.91081

>  <SCORE.INTRA.SOLV.lig_0>
-116.697

>  <SCORE.INTRA.VDW>
0.300279

>  <SCORE.INTRA.VDW.0>
-7.06424

>  <SCORE.INTRA.norm>
-0.0546071

>  <SCORE.RESTR>
0.0314212

>  <SCORE.RESTR.CAVITY>
0.0314212

>  <SCORE.RESTR.norm>
0.00068307

>  <SCORE.SYSTEM>
0

>  <SCORE.SYSTEM.CONST>
0

>  <SCORE.SYSTEM.DIHEDRAL>
0

>  <SCORE.SYSTEM.SOLV>
0

>  <SCORE.SYSTEM.norm>
0

>  <SCORE.heavy>
46

>  <SCORE.norm>
0.0052941

>  <RMSD>
6.772

$$$$
lig.pdb
 OpenBabel03061811583D
libRbt.so/2013.1/901 2013/11/27
 46 49  0  0  0  0  0  0  0  0999 V2000
   11.7708  -18.8712    6.8054 C   0  0  1  0  0  0  0  0  0  0  0  0
   12.9975  -17.1039    8.1396 C   0  0  1  0  0  0  0  0  0  0  0  0
   13.6002  -18.0661    9.2076 C   0  0  1  0  0  0  0  0  0  0  0  0
   14.9537  -17.4119    9.7932 C   0  0  2  0  0  0  0  0  0  0  0  0
   12.0705  -17.3189   11.0891 C   0  0  2  0  0  0  0  0  0  0  0  0
   13.0204  -16.9811   12.2733 C   0  0  1  0  0  0  0  0  0  0  0  0
   12.5132  -15.5876   12.5557 C   0  0  1  0  0  0  0  0  0  0  0  0
   12.4032  -14.9131   11.1513 C   0  0  1  0  0  0  0  0  0  0  0  0
   13.7227  -14.3183   10.5455 C   0  0  0  0  0  0  0  0  0  0  0  0
   10.5688  -14.4895   13.6031 C   0  0  1  0  0  0  0  0  0  0  0  0
    9.2368  -14.6457   14.2741 C   0  0  1  0  0  0  0  0  0  0  0  0
   10.4220  -18.9953    6.0580 C   0  0  1  0  0  0  0  0  0  0  0  0
    8.6633  -13.2170   14.5811 C   0  0  0  0  0  0  0  0  0  0  0  0
    8.4590  -12.3908   13.4260 C   0  0  0  0  0  0  0  0  0  0  0  0
    9.7330  -12.1877   12.7698 C   0  0  2  0  0  0  0  0  0  0  0  0
    9.5700  -11.2896   11.4806 C   0  0  0  0  0  0  0  0  0  0  0  0
   19.5128  -14.5891    8.6699 C   0  0  2  0  0  0  0  0  0  0  0  0
   18.3718  -16.5857    8.1557 C   0  0  0  0  0  0  0  0  0  0  0  0
   20.4824  -13.9227    9.3950 C   0  0  0  0  0  0  0  0  0  0  0  0
   19.6258  -15.9194    8.9084 C   0  0  1  0  0  0  0  0  0  0  0  0
    9.2139  -19.1860    7.0836 C   0  0  0  0  0  0  0  0  0  0  0  0
    9.5031  -20.4974    7.9605 C   0  0  0  0  0  0  0  0  0  0  0  0
   10.8918  -20.2828    8.7230 C   0  0  1  0  0  0  0  0  0  0  0  0
   11.2648  -21.4953    9.5844 C   0  0  0  0  0  0  0  0  0  0  0  0
   15.9932  -17.2753    8.5968 C   0  0  1  0  0  0  0  0  0  0  0  0
   15.3250  -16.2498    7.5349 C   0  0  0  0  0  0  0  0  0  0  0  0
   13.9833  -16.8575    6.9706 C   0  0  2  0  0  0  0  0  0  0  0  0
   19.6389  -14.2509    7.2701 F   0  0  0  0  0  0  0  0  0  0  0  0
    9.1037   -9.8405   11.8011 N   0  0  0  0  0  0  0  0  0  0  0  0
   10.2487  -17.7690    5.1945 N   0  0  0  0  0  0  0  0  0  0  0  0
    8.2681  -15.2718   13.4847 N   0  0  0  0  0  0  0  0  0  0  0  0
   21.8892  -13.8742    9.2531 N   0  0  0  0  0  0  0  0  0  0  0  0
   10.2278  -21.8153   10.4862 N   0  0  0  0  0  0  0  0  0  0  0  0
   17.2523  -16.6921    9.0938 N   0  0  0  0  0  0  0  0  0  0  0  0
   13.3549  -15.9256    6.0083 N   0  0  0  0  0  0  0  0  0  0  0  0
   11.8223  -17.6666    7.5707 O   0  0  0  0  0  0  0  0  0  0  0  0
   12.5617  -18.2268   10.2794 O   0  0  0  0  0  0  0  0  0  0  0  0
   15.4658  -18.2792   10.7321 O   0  0  0  0  0  0  0  0  0  0  0  0
   12.7811  -17.8949   13.3005 O   0  0  0  0  0  0  0  0  0  0  0  0
   11.7740  -16.0147   10.4757 O   0  0  0  0  0  0  0  0  0  0  0  0
   14.1264  -13.2209   11.3887 O   0  0  0  0  0  0  0  0  0  0  0  0
   11.1590  -15.6791   13.2353 O   0  0  0  0  0  0  0  0  0  0  0  0
   20.8543  -16.4825    8.3985 O   0  0  0  0  0  0  0  0  0  0  0  0
   18.3673  -16.9338    6.9634 O   0  0  0  0  0  0  0  0  0  0  0  0
   10.3599  -13.5161   12.4171 O   0  0  0  0  0  0  0  0  0  0  0  0
   12.0022  -20.0457    7.7126 O   0  0  0  0  0  0  0  0  0  0  0  0
  1 36  1  1  0  0  0
  2 36  1  6  0  0  0
  2  3  1  0  0  0  0
  3 37  1  1  0  0  0
  3  4  1  0  0  0  0
  4 38  1  1  0  0  0
  5 37  1  6  0  0  0
  5  6  1  0  0  0  0
  6  7  1  0  0  0  0
  6 39  1  1  0  0  0
  7 42  1  6  0  0  0
  8  9  1  6  0  0  0
  8  7  1  0  0  0  0
 10 42  1  6  0  0  0
 10 11  1  0  0  0  0
 11 31  1  6  0  0  0
 11 13  1  0  0  0  0
 12 30  1  1  0  0  0
 12  1  1  0  0  0  0
 14 13  1  0  0  0  0
 15 16  1  6  0  0  0
 15 14  1  0  0  0  0
 17 19  1  1  0  0  0
 17 28  1  0  0  0  0
 18 34  1  0  0  0  0
 19 32  1  0  0  0  0
 20 18  1  6  0  0  0
 20 17  1  0  0  0  0
 20 43  1  0  0  0  0
 21 12  1  0  0  0  0
 22 21  1  0  0  0  0
 22 23  1  0  0  0  0
 23 24  1  6  0  0  0
 23 46  1  0  0  0  0
 24 33  1  0  0  0  0
 25 34  1  1  0  0  0
 25  4  1  0  0  0  0
 26 25  1  0  0  0  0
 27 35  1  6  0  0  0
 27 26  1  0  0  0  0
 27  2  1  0  0  0  0
 29 16  1  0  0  0  0
 40  8  1  0  0  0  0
 40  5  1  0  0  0  0
 41  9  1  0  0  0  0
 44 18  2  0  0  0  0
 45 15  1  0  0  0  0
 45 10  1  0  0  0  0
 46  1  1  0  0  0  0
M  END
>  <CHROM.1>
-165.85092568,-63.46205767,-63.86218608,-78.17587824,178.01947294,-65.60944600
-179.76380676,64.66109528,69.82468831,-92.22714783,174.12790225,-54.87012910
175.29456937,13.29469265,-16.29623506,9.87284400,2.84914983,0.27670574,0.63503087

>  <Name>
lig.pdb

>  <RI>
0

>  <Rbt.Current_Directory>
/home/afrankz/demos/rdock_decoys_rna/rnas/3wru

>  <Rbt.Executable>
rbdock ($Id: //depot/dev/client3/rdock/2013.1/src/exe/rbdock.cxx#4 $)

>  <Rbt.Library>
libRbt.so (2013.1, Build901 2013/11/27)

>  <Rbt.Parameter_File>
/export/apps/rDock/src/rDock_2013.1_src/data/scripts/dock_solv.prm

>  <Rbt.Receptor>
prm/pocket_docking_7.prm

>  <SCORE>
-3.70058

>  <SCORE.INTER>
2.81709

>  <SCORE.INTER.CONST>
1

>  <SCORE.INTER.POLAR>
0

>  <SCORE.INTER.ROT>
13

>  <SCORE.INTER.SOLV>
21.4124

>  <SCORE.INTER.VDW>
-17.5261

>  <SCORE.INTER.norm>
0.0612411

>  <SCORE.INTRA>
-6.51767

>  <SCORE.INTRA.DIHEDRAL>
-14.3376

>  <SCORE.INTRA.DIHEDRAL.0>
19.7146

>  <SCORE.INTRA.POLAR>
0

>  <SCORE.INTRA.POLAR.0>
0

>  <SCORE.INTRA.REPUL>
0

>  <SCORE.INTRA.REPUL.0>
0

>  <SCORE.INTRA.SOLV>
-0.0460612

>  <SCORE.INTRA.SOLV.lig_0>
-116.697

>  <SCORE.INTRA.VDW>
0.674185

>  <SCORE.INTRA.VDW.0>
-7.06424

>  <SCORE.INTRA.norm>
-0.141688

>  <SCORE.RESTR>
0

>  <SCORE.RESTR.CAVITY>
0

>  <SCORE.RESTR.norm>
0

>  <SCORE.SYSTEM>
0

>  <SCORE.SYSTEM.CONST>
0

>  <SCORE.SYSTEM.DIHEDRAL>
0

>  <SCORE.SYSTEM.SOLV>
0

>  <SCORE.SYSTEM.norm>
0

>  <SCORE.heavy>
46

>  <SCORE.norm>
-0.0804473

>  <RMSD>
6.791

$$$$
lig.pdb
 OpenBabel03061811583D
libRbt.so/2013.1/901 2013/11/27
 46 49  0  0  0  0  0  0  0  0999 V2000
   12.5838  -15.0214    7.3306 C   0  0  1  0  0  0  0  0  0  0  0  0
   11.7480  -12.9118    6.2086 C   0  0  1  0  0  0  0  0  0  0  0  0
   10.9303  -11.6464    6.6083 C   0  0  1  0  0  0  0  0  0  0  0  0
   10.9604  -10.5982    5.3822 C   0  0  2  0  0  0  0  0  0  0  0  0
    9.1333  -13.0502    7.7209 C   0  0  2  0  0  0  0  0  0  0  0  0
    7.7424  -12.7578    8.3523 C   0  0  1  0  0  0  0  0  0  0  0  0
    7.3437  -14.1837    8.6465 C   0  0  1  0  0  0  0  0  0  0  0  0
    7.6938  -14.9706    7.3437 C   0  0  1  0  0  0  0  0  0  0  0  0
    6.6469  -14.9108    6.1766 C   0  0  0  0  0  0  0  0  0  0  0  0
    8.2474  -16.0565    9.9730 C   0  0  1  0  0  0  0  0  0  0  0  0
    6.9302  -16.7637   10.0905 C   0  0  1  0  0  0  0  0  0  0  0  0
   11.9176  -16.1127    8.2016 C   0  0  1  0  0  0  0  0  0  0  0  0
    7.2042  -18.2950   10.3009 C   0  0  0  0  0  0  0  0  0  0  0  0
    7.9601  -18.6137   11.4781 C   0  0  0  0  0  0  0  0  0  0  0  0
    9.2559  -17.9755   11.3842 C   0  0  2  0  0  0  0  0  0  0  0  0
   10.1334  -18.2836   12.6609 C   0  0  0  0  0  0  0  0  0  0  0  0
   11.9578   -5.6891    3.3270 C   0  0  2  0  0  0  0  0  0  0  0  0
   12.0233   -7.8452    4.2755 C   0  0  0  0  0  0  0  0  0  0  0  0
   13.1581   -5.0135    3.4406 C   0  0  0  0  0  0  0  0  0  0  0  0
   12.2093   -6.9654    2.9434 C   0  0  1  0  0  0  0  0  0  0  0  0
   11.8627  -15.6687    9.7338 C   0  0  0  0  0  0  0  0  0  0  0  0
   13.3617  -15.3815   10.2265 C   0  0  0  0  0  0  0  0  0  0  0  0
   13.9705  -14.2275    9.3026 C   0  0  1  0  0  0  0  0  0  0  0  0
   15.4149  -13.8874    9.6892 C   0  0  0  0  0  0  0  0  0  0  0  0
   12.4718  -10.1640    5.1415 C   0  0  1  0  0  0  0  0  0  0  0  0
   13.2631  -11.5100    4.7079 C   0  0  0  0  0  0  0  0  0  0  0  0
   13.2212  -12.5614    5.8829 C   0  0  2  0  0  0  0  0  0  0  0  0
   11.0905   -4.9821    2.4118 F   0  0  0  0  0  0  0  0  0  0  0  0
   11.5096  -17.5582   12.6452 N   0  0  0  0  0  0  0  0  0  0  0  0
   10.5444  -16.3900    7.6388 N   0  0  0  0  0  0  0  0  0  0  0  0
    6.1652  -16.3695   11.1917 N   0  0  0  0  0  0  0  0  0  0  0  0
   14.2759   -5.2263    4.2811 N   0  0  0  0  0  0  0  0  0  0  0  0
   15.9706  -12.9459    8.7972 N   0  0  0  0  0  0  0  0  0  0  0  0
   12.5420   -9.1934    4.0346 N   0  0  0  0  0  0  0  0  0  0  0  0
   13.9296  -13.8015    5.4962 N   0  0  0  0  0  0  0  0  0  0  0  0
   11.7778  -13.8436    7.2820 O   0  0  0  0  0  0  0  0  0  0  0  0
    9.5323  -12.1092    6.8984 O   0  0  0  0  0  0  0  0  0  0  0  0
   10.2332   -9.4914    5.7596 O   0  0  0  0  0  0  0  0  0  0  0  0
    7.9345  -11.9723    9.4896 O   0  0  0  0  0  0  0  0  0  0  0  0
    8.9917  -14.3909    7.1313 O   0  0  0  0  0  0  0  0  0  0  0  0
    5.4318  -15.5196    6.6572 O   0  0  0  0  0  0  0  0  0  0  0  0
    8.1442  -14.6896    9.8329 O   0  0  0  0  0  0  0  0  0  0  0  0
   11.3058   -7.4363    1.9196 O   0  0  0  0  0  0  0  0  0  0  0  0
   11.5304   -7.4260    5.3357 O   0  0  0  0  0  0  0  0  0  0  0  0
    9.0951  -16.4854   11.1958 O   0  0  0  0  0  0  0  0  0  0  0  0
   13.9487  -14.6678    7.8480 O   0  0  0  0  0  0  0  0  0  0  0  0
  1 36  1  1  0  0  0
  2 36  1  1  0  0  0
  2  3  1  0  0  0  0
  3 37  1  6  0  0  0
  3  4  1  0  0  0  0
  4 38  1  1  0  0  0
  5 37  1  6  0  0  0
  5  6  1  0  0  0  0
  6  7  1  0  0  0  0
  6 39  1  1  0  0  0
  7 42  1  1  0  0  0
  8  9  1  6  0  0  0
  8  7  1  0  0  0  0
 10 42  1  1  0  0  0
 10 11  1  0  0  0  0
 11 31  1  1  0  0  0
 11 13  1  0  0  0  0
 12 30  1  6  0  0  0
 12  1  1  0  0  0  0
 14 13  1  0  0  0  0
 15 16  1  1  0  0  0
 15 14  1  0  0  0  0
 17 19  1  6  0  0  0
 17 28  1  0  0  0  0
 18 34  1  0  0  0  0
 19 32  1  0  0  0  0
 20 18  1  1  0  0  0
 20 17  1  0  0  0  0
 20 43  1  0  0  0  0
 21 12  1  0  0  0  0
 22 21  1  0  0  0  0
 22 23  1  0  0  0  0
 23 24  1  1  0  0  0
 23 46  1  0  0  0  0
 24 33  1  0  0  0  0
 25 34  1  6  0  0  0
 25  4  1  0  0  0  0
 26 25  1  0  0  0  0
 27 35  1  6  0  0  0
 27 26  1  0  0  0  0
 27  2  1  0  0  0  0
 29 16  1  0  0  0  0
 40  8  1  0  0  0  0
 40  5  1  0  0  0  0
 41  9  1  0  0  0  0
 44 18  2  0  0  0  0
 45 15  1  0  0  0  0
 45 10  1  0  0  0  0
 46  1  1  0  0  0  0
M  END
>  <CHROM.1>
-151.79418809,-170.91425620,53.71988679,147.96051608,-159.35025383,-62.81514474
-58.21830149,-176.93299389,-62.00219940,-168.29934491,103.69295096,175.27574863
71.23245359,10.69818907,-12.88645154,7.41089286,-1.85285115,-0.07065795,-0.62386400

>  <Name>
lig.pdb

>  <RI>
0

>  <Rbt.Current_Directory>
/home/afrankz/demos/rdock_decoys_rna/rnas/3wru

>  <Rbt.Executable>
rbdock ($Id: //depot/dev/client3/rdock/2013.1/src/exe/rbdock.cxx#4 $)

>  <Rbt.Library>
libRbt.so (2013.1, Build901 2013/11/27)

>  <Rbt.Parameter_File>
/export/apps/rDock/src/rDock_2013.1_src/data/scripts/dock_solv.prm

>  <Rbt.Receptor>
prm/pocket_docking_3.prm

>  <SCORE>
9.17167

>  <SCORE.INTER>
3.57073

>  <SCORE.INTER.CONST>
1

>  <SCORE.INTER.POLAR>
0

>  <SCORE.INTER.ROT>
13

>  <SCORE.INTER.SOLV>
20.5097

>  <SCORE.INTER.VDW>
-16.7227

>  <SCORE.INTER.norm>
0.0776245

>  <SCORE.INTRA>
5.56096

>  <SCORE.INTRA.DIHEDRAL>
-4.74254

>  <SCORE.INTRA.DIHEDRAL.0>
19.7146

>  <SCORE.INTRA.POLAR>
0

>  <SCORE.INTRA.POLAR.0>
0

>  <SCORE.INTRA.REPUL>
0.00149302

>  <SCORE.INTRA.REPUL.0>
0

>  <SCORE.INTRA.SOLV>
8.41924

>  <SCORE.INTRA.SOLV.lig_0>
-116.697

>  <SCORE.INTRA.VDW>
3.71515

>  <SCORE.INTRA.VDW.0>
-7.06424

>  <SCORE.INTRA.norm>
0.12089

>  <SCORE.RESTR>
0.0399819

>  <SCORE.RESTR.CAVITY>
0.0399819

>  <SCORE.RESTR.norm>
0.000869173

>  <SCORE.SYSTEM>
0

>  <SCORE.SYSTEM.CONST>
0

>  <SCORE.SYSTEM.DIHEDRAL>
0

>  <SCORE.SYSTEM.SOLV>
0

>  <SCORE.SYSTEM.norm>
0

>  <SCORE.heavy>
46

>  <SCORE.norm>
0.199384

>  <RMSD>
6.855

$$$$
lig.pdb
 OpenBabel03061811583D
libRbt.so/2013.1/901 2013/11/27
 46 49  0  0  0  0  0  0  0  0999 V2000
   12.4644  -17.9973    8.1042 C   0  0  1  0  0  0  0  0  0  0  0  0
   14.0756  -17.6457    6.1837 C   0  0  1  0  0  0  0  0  0  0  0  0
   14.5369  -16.1861    6.4776 C   0  0  1  0  0  0  0  0  0  0  0  0
   15.0394  -15.5115    5.1009 C   0  0  2  0  0  0  0  0  0  0  0  0
   13.1280  -15.0818    8.2759 C   0  0  2  0  0  0  0  0  0  0  0  0
   14.2836  -14.2229    8.8637 C   0  0  1  0  0  0  0  0  0  0  0  0
   13.4804  -13.4755    9.9006 C   0  0  1  0  0  0  0  0  0  0  0  0
   12.1901  -13.0178    9.1491 C   0  0  1  0  0  0  0  0  0  0  0  0
   12.2992  -11.7141    8.2830 C   0  0  0  0  0  0  0  0  0  0  0  0
   12.5500  -13.8547   12.1533 C   0  0  1  0  0  0  0  0  0  0  0  0
   12.2884  -14.8238   13.2673 C   0  0  1  0  0  0  0  0  0  0  0  0
   12.3623  -18.8653    9.3807 C   0  0  1  0  0  0  0  0  0  0  0  0
   11.5534  -14.0627   14.4271 C   0  0  0  0  0  0  0  0  0  0  0  0
   10.2901  -13.4885   14.0627 C   0  0  0  0  0  0  0  0  0  0  0  0
   10.5077  -12.5186   13.0105 C   0  0  2  0  0  0  0  0  0  0  0  0
    9.1464  -11.8566   12.5592 C   0  0  0  0  0  0  0  0  0  0  0  0
   19.4538  -13.6583    2.0737 C   0  0  2  0  0  0  0  0  0  0  0  0
   17.8428  -14.7288    3.4197 C   0  0  0  0  0  0  0  0  0  0  0  0
   19.9516  -13.3752    0.8159 C   0  0  0  0  0  0  0  0  0  0  0  0
   18.2328  -14.2335    1.9412 C   0  0  1  0  0  0  0  0  0  0  0  0
   12.1785  -20.4074    9.0119 C   0  0  0  0  0  0  0  0  0  0  0  0
   10.8572  -20.5543    8.1148 C   0  0  0  0  0  0  0  0  0  0  0  0
   11.0492  -19.6568    6.8058 C   0  0  1  0  0  0  0  0  0  0  0  0
    9.8258  -19.7211    5.8835 C   0  0  0  0  0  0  0  0  0  0  0  0
   16.2930  -16.3381    4.5755 C   0  0  1  0  0  0  0  0  0  0  0  0
   15.7488  -17.8327    4.2658 C   0  0  0  0  0  0  0  0  0  0  0  0
   15.2249  -18.5011    5.5950 C   0  0  2  0  0  0  0  0  0  0  0  0
   19.4286  -12.4496    2.8663 F   0  0  0  0  0  0  0  0  0  0  0  0
    8.5024  -10.9708   13.6642 N   0  0  0  0  0  0  0  0  0  0  0  0
   13.5970  -18.6218   10.2147 N   0  0  0  0  0  0  0  0  0  0  0  0
   11.4398  -15.8789   12.9206 N   0  0  0  0  0  0  0  0  0  0  0  0
   21.1787  -12.8063    0.4012 N   0  0  0  0  0  0  0  0  0  0  0  0
   10.0634  -19.0297    4.6766 N   0  0  0  0  0  0  0  0  0  0  0  0
   16.7924  -15.7445    3.3222 N   0  0  0  0  0  0  0  0  0  0  0  0
   14.7127  -19.8628    5.3252 N   0  0  0  0  0  0  0  0  0  0  0  0
   13.6625  -18.2873    7.3833 O   0  0  0  0  0  0  0  0  0  0  0  0
   13.3482  -15.4623    7.0398 O   0  0  0  0  0  0  0  0  0  0  0  0
   15.4410  -14.2258    5.3868 O   0  0  0  0  0  0  0  0  0  0  0  0
   15.2425  -15.0853    9.3967 O   0  0  0  0  0  0  0  0  0  0  0  0
   11.9230  -14.2633    8.4833 O   0  0  0  0  0  0  0  0  0  0  0  0
   13.2198  -11.9878    7.2080 O   0  0  0  0  0  0  0  0  0  0  0  0
   13.1518  -14.4145   11.0472 O   0  0  0  0  0  0  0  0  0  0  0  0
   17.2270  -13.3186    1.4538 O   0  0  0  0  0  0  0  0  0  0  0  0
   18.3708  -14.3155    4.4651 O   0  0  0  0  0  0  0  0  0  0  0  0
   11.2004  -13.1658   11.8345 O   0  0  0  0  0  0  0  0  0  0  0  0
   11.2804  -18.2084    7.2044 O   0  0  0  0  0  0  0  0  0  0  0  0
  1 36  1  6  0  0  0
  2 36  1  1  0  0  0
  2  3  1  0  0  0  0
  3 37  1  6  0  0  0
  3  4  1  0  0  0  0
  4 38  1  1  0  0  0
  5 37  1  6  0  0  0
  5  6  1  0  0  0  0
  6  7  1  0  0  0  0
  6 39  1  1  0  0  0
  7 42  1  1  0  0  0
  8  9  1  6  0  0  0
  8  7  1  0  0  0  0
 10 42  1  6  0  0  0
 10 11  1  0  0  0  0
 11 31  1  6  0  0  0
 11 13  1  0  0  0  0
 12 30  1  6  0  0  0
 12  1  1  0  0  0  0
 14 13  1  0  0  0  0
 15 16  1  6  0  0  0
 15 14  1  0  0  0  0
 17 19  1  6  0  0  0
 17 28  1  0  0  0  0
 18 34  1  0  0  0  0
 19 32  1  0  0  0  0
 20 18  1  1  0  0  0
 20 17  1  0  0  0  0
 20 43  1  0  0  0  0
 21 12  1  0  0  0  0
 22 21  1  0  0  0  0
 22 23  1  0  0  0  0
 23 24  1  6  0  0  0
 23 46  1  0  0  0  0
 24 33  1  0  0  0  0
 25 34  1  6  0  0  0
 25  4  1  0  0  0  0
 26 25  1  0  0  0  0
 27 35  1  6  0  0  0
 27 26  1  0  0  0  0
 27  2  1  0  0  0  0
 29 16  1  0  0  0  0
 40  8  1  0  0  0  0
 40  5  1  0  0  0  0
 41  9  1  0  0  0  0
 44 18  2  0  0  0  0
 45 15  1  0  0  0  0
 45 10  1  0  0  0  0
 46  1  1  0  0  0  0
M  END
>  <CHROM.1>
-178.50622431,71.77480075,107.08452944,53.64152169,172.90531605,65.05684734
-178.24193946,66.82446314,-178.56107245,-160.74459604,171.46359752,-174.30379035
91.72981961,13.87277166,-15.41854987,7.48876783,2.72520495,0.83877769,0.53689311

>  <Name>
lig.pdb

>  <RI>
0

>  <Rbt.Current_Directory>
/home/afrankz/demos/rdock_decoys_rna/rnas/3wru

>  <Rbt.Executable>
rbdock ($Id: //depot/dev/client3/rdock/2013.1/src/exe/rbdock.cxx#4 $)

>  <Rbt.Library>
libRbt.so (2013.1, Build901 2013/11/27)

>  <Rbt.Parameter_File>
/export/apps/rDock/src/rDock_2013.1_src/data/scripts/dock_solv.prm

>  <Rbt.Receptor>
prm/pocket_docking_8.prm

>  <SCORE>
-1.50919

>  <SCORE.INTER>
2.85572

>  <SCORE.INTER.CONST>
1

>  <SCORE.INTER.POLAR>
0

>  <SCORE.INTER.ROT>
13

>  <SCORE.INTER.SOLV>
13.6751

>  <SCORE.INTER.VDW>
-14.9212

>  <SCORE.INTER.norm>
0.0620808

>  <SCORE.INTRA>
-4.36491

>  <SCORE.INTRA.DIHEDRAL>
-9.50928

>  <SCORE.INTRA.DIHEDRAL.0>
19.7146

>  <SCORE.INTRA.POLAR>
0

>  <SCORE.INTRA.POLAR.0>
0

>  <SCORE.INTRA.REPUL>
0

>  <SCORE.INTRA.REPUL.0>
0

>  <SCORE.INTRA.SOLV>
-1.83677

>  <SCORE.INTRA.SOLV.lig_0>
-116.697

>  <SCORE.INTRA.VDW>
1.30812

>  <SCORE.INTRA.VDW.0>
-7.06424

>  <SCORE.INTRA.norm>
-0.0948893

>  <SCORE.RESTR>
0

>  <SCORE.RESTR.CAVITY>
0

>  <SCORE.RESTR.norm>
0

>  <SCORE.SYSTEM>
0

>  <SCORE.SYSTEM.CONST>
0

>  <SCORE.SYSTEM.DIHEDRAL>
0

>  <SCORE.SYSTEM.SOLV>
0

>  <SCORE.SYSTEM.norm>
0

>  <SCORE.heavy>
46

>  <SCORE.norm>
-0.0328085

>  <RMSD>
6.901

$$$$
lig.pdb
 OpenBabel03061811583D
libRbt.so/2013.1/901 2013/11/27
 46 49  0  0  0  0  0  0  0  0999 V2000
   10.9526  -16.1556   10.6737 C   0  0  1  0  0  0  0  0  0  0  0  0
   13.3616  -15.8206    9.9718 C   0  0  1  0  0  0  0  0  0  0  0  0
   13.5917  -14.3556   10.4520 C   0  0  1  0  0  0  0  0  0  0  0  0
   14.7771  -13.7004    9.5755 C   0  0  2  0  0  0  0  0  0  0  0  0
   11.6122  -13.4563    9.1440 C   0  0  2  0  0  0  0  0  0  0  0  0
   10.6945  -12.2013    9.1813 C   0  0  1  0  0  0  0  0  0  0  0  0
   10.6148  -11.9577    7.6936 C   0  0  1  0  0  0  0  0  0  0  0  0
   12.0868  -12.0932    7.1898 C   0  0  1  0  0  0  0  0  0  0  0  0
   13.0106  -10.8356    7.3537 C   0  0  0  0  0  0  0  0  0  0  0  0
    9.2306  -12.7317    5.8045 C   0  0  1  0  0  0  0  0  0  0  0  0
    9.0372  -13.9440    4.9433 C   0  0  1  0  0  0  0  0  0  0  0  0
   10.2441  -16.4897   12.0077 C   0  0  1  0  0  0  0  0  0  0  0  0
    8.5415  -13.4762    3.5291 C   0  0  0  0  0  0  0  0  0  0  0  0
    9.4451  -12.6052    2.8338 C   0  0  0  0  0  0  0  0  0  0  0  0
    9.6292  -11.4042    3.6204 C   0  0  2  0  0  0  0  0  0  0  0  0
   10.6251  -10.4067    2.9077 C   0  0  0  0  0  0  0  0  0  0  0  0
   20.8410  -14.1014    8.8086 C   0  0  2  0  0  0  0  0  0  0  0  0
   18.5782  -14.3972    9.3962 C   0  0  0  0  0  0  0  0  0  0  0  0
   21.7745  -13.7090    7.8680 C   0  0  0  0  0  0  0  0  0  0  0  0
   19.6204  -13.6491    8.4280 C   0  0  1  0  0  0  0  0  0  0  0  0
   10.2558  -18.0616   12.2849 C   0  0  0  0  0  0  0  0  0  0  0  0
    9.5312  -18.7929   11.0552 C   0  0  0  0  0  0  0  0  0  0  0  0
   10.3343  -18.4260    9.7224 C   0  0  1  0  0  0  0  0  0  0  0  0
    9.7078  -19.0721    8.4808 C   0  0  0  0  0  0  0  0  0  0  0  0
   16.1066  -14.5317    9.8444 C   0  0  1  0  0  0  0  0  0  0  0  0
   15.8160  -16.0321    9.3056 C   0  0  0  0  0  0  0  0  0  0  0  0
   14.6391  -16.6818   10.1306 C   0  0  2  0  0  0  0  0  0  0  0  0
   21.2409  -13.6253   10.1136 F   0  0  0  0  0  0  0  0  0  0  0  0
   10.0280   -9.7603    1.6249 N   0  0  0  0  0  0  0  0  0  0  0  0
   10.9237  -15.7115   13.1086 N   0  0  0  0  0  0  0  0  0  0  0  0
   10.2079  -14.6690    4.7043 N   0  0  0  0  0  0  0  0  0  0  0  0
   21.8894  -13.9954    6.4874 N   0  0  0  0  0  0  0  0  0  0  0  0
   10.5085  -18.8581    7.3388 N   0  0  0  0  0  0  0  0  0  0  0  0
   17.2206  -13.9556    9.0700 N   0  0  0  0  0  0  0  0  0  0  0  0
   14.3539  -18.0486    9.6409 N   0  0  0  0  0  0  0  0  0  0  0  0
   12.3489  -16.4453   10.7500 O   0  0  0  0  0  0  0  0  0  0  0  0
   12.2952  -13.6264   10.2511 O   0  0  0  0  0  0  0  0  0  0  0  0
   14.9610  -12.4096   10.0183 O   0  0  0  0  0  0  0  0  0  0  0  0
    9.4807  -12.5639    9.7664 O   0  0  0  0  0  0  0  0  0  0  0  0
   12.4147  -13.2854    7.9226 O   0  0  0  0  0  0  0  0  0  0  0  0
   14.2852  -11.1584    6.7627 O   0  0  0  0  0  0  0  0  0  0  0  0
    9.7141  -13.0058    7.0654 O   0  0  0  0  0  0  0  0  0  0  0  0
   19.4775  -12.2190    8.5720 O   0  0  0  0  0  0  0  0  0  0  0  0
   18.8923  -15.2265   10.2658 O   0  0  0  0  0  0  0  0  0  0  0  0
   10.1249  -11.7533    5.0040 O   0  0  0  0  0  0  0  0  0  0  0  0
   10.3493  -16.9185    9.5292 O   0  0  0  0  0  0  0  0  0  0  0  0
  1 36  1  1  0  0  0
  2 36  1  1  0  0  0
  2  3  1  0  0  0  0
  3 37  1  6  0  0  0
  3  4  1  0  0  0  0
  4 38  1  1  0  0  0
  5 37  1  1  0  0  0
  5  6  1  0  0  0  0
  6  7  1  0  0  0  0
  6 39  1  6  0  0  0
  7 42  1  6  0  0  0
  8  9  1  1  0  0  0
  8  7  1  0  0  0  0
 10 42  1  1  0  0  0
 10 11  1  0  0  0  0
 11 31  1  6  0  0  0
 11 13  1  0  0  0  0
 12 30  1  1  0  0  0
 12  1  1  0  0  0  0
 14 13  1  0  0  0  0
 15 16  1  6  0  0  0
 15 14  1  0  0  0  0
 17 19  1  6  0  0  0
 17 28  1  0  0  0  0
 18 34  1  0  0  0  0
 19 32  1  0  0  0  0
 20 18  1  1  0  0  0
 20 17  1  0  0  0  0
 20 43  1  0  0  0  0
 21 12  1  0  0  0  0
 22 21  1  0  0  0  0
 22 23  1  0  0  0  0
 23 24  1  6  0  0  0
 23 46  1  0  0  0  0
 24 33  1  0  0  0  0
 25 34  1  6  0  0  0
 25  4  1  0  0  0  0
 26 25  1  0  0  0  0
 27 35  1  6  0  0  0
 27 26  1  0  0  0  0
 27  2  1  0  0  0  0
 29 16  1  0  0  0  0
 40  8  1  0  0  0  0
 40  5  1  0  0  0  0
 41  9  1  0  0  0  0
 44 18  2  0  0  0  0
 45 15  1  0  0  0  0
 45 10  1  0  0  0  0
 46  1  1  0  0  0  0
M  END
>  <CHROM.1>
-154.23915326,72.34479993,-58.07510307,-155.56382992,162.54077708,-176.93700325
147.61975686,70.03701287,-60.78949177,179.26386765,168.69704912,-173.63597018
167.29995315,13.21362004,-14.23859961,8.28080785,2.90676562,-0.16466178,-0.83903082

>  <Name>
lig.pdb

>  <RI>
0

>  <Rbt.Current_Directory>
/home/afrankz/demos/rdock_decoys_rna/rnas/3wru

>  <Rbt.Executable>
rbdock ($Id: //depot/dev/client3/rdock/2013.1/src/exe/rbdock.cxx#4 $)

>  <Rbt.Library>
libRbt.so (2013.1, Build901 2013/11/27)

>  <Rbt.Parameter_File>
/export/apps/rDock/src/rDock_2013.1_src/data/scripts/dock_solv.prm

>  <Rbt.Receptor>
prm/pocket_docking_5.prm

>  <SCORE>
-4.19729

>  <SCORE.INTER>
-2.10224

>  <SCORE.INTER.CONST>
1

>  <SCORE.INTER.POLAR>
0

>  <SCORE.INTER.ROT>
13

>  <SCORE.INTER.SOLV>
22.1508

>  <SCORE.INTER.VDW>
-21.0518

>  <SCORE.INTER.norm>
-0.045701

>  <SCORE.INTRA>
-2.09505

>  <SCORE.INTRA.DIHEDRAL>
-6.10613

>  <SCORE.INTRA.DIHEDRAL.0>
19.7146

>  <SCORE.INTRA.POLAR>
0

>  <SCORE.INTRA.POLAR.0>
0

>  <SCORE.INTRA.REPUL>
0

>  <SCORE.INTRA.REPUL.0>
0

>  <SCORE.INTRA.SOLV>
-1.48714

>  <SCORE.INTRA.SOLV.lig_0>
-116.697

>  <SCORE.INTRA.VDW>
1.70159

>  <SCORE.INTRA.VDW.0>
-7.06424

>  <SCORE.INTRA.norm>
-0.0455445

>  <SCORE.RESTR>
0

>  <SCORE.RESTR.CAVITY>
0

>  <SCORE.RESTR.norm>
0

>  <SCORE.SYSTEM>
0

>  <SCORE.SYSTEM.CONST>
0

>  <SCORE.SYSTEM.DIHEDRAL>
0

>  <SCORE.SYSTEM.SOLV>
0

>  <SCORE.SYSTEM.norm>
0

>  <SCORE.heavy>
46

>  <SCORE.norm>
-0.0912455

>  <RMSD>
6.909

$$$$
lig.pdb
 OpenBabel03061811583D
libRbt.so/2013.1/901 2013/11/27
 46 49  0  0  0  0  0  0  0  0999 V2000
   10.4747  -14.2102   10.3192 C   0  0  1  0  0  0  0  0  0  0  0  0
   12.7831  -13.7774    9.3748 C   0  0  1  0  0  0  0  0  0  0  0  0
   12.6810  -12.3126    8.8517 C   0  0  1  0  0  0  0  0  0  0  0  0
   13.7536  -12.1078    7.6641 C   0  0  2  0  0  0  0  0  0  0  0  0
   10.7347  -12.5544    7.2418 C   0  0  2  0  0  0  0  0  0  0  0  0
   10.6805  -14.1057    7.1462 C   0  0  1  0  0  0  0  0  0  0  0  0
    9.5173  -14.2145    6.1901 C   0  0  1  0  0  0  0  0  0  0  0  0
    8.4508  -13.2191    6.7477 C   0  0  1  0  0  0  0  0  0  0  0  0
    7.5448  -13.7346    7.9204 C   0  0  0  0  0  0  0  0  0  0  0  0
    9.7991  -12.4954    4.4441 C   0  0  1  0  0  0  0  0  0  0  0  0
    9.5765  -12.2788    2.9770 C   0  0  1  0  0  0  0  0  0  0  0  0
    9.7525  -14.0190   11.6738 C   0  0  1  0  0  0  0  0  0  0  0  0
    9.4488  -10.7362    2.7151 C   0  0  0  0  0  0  0  0  0  0  0  0
   10.6022   -9.9668    3.0844 C   0  0  0  0  0  0  0  0  0  0  0  0
   10.8283  -10.1230    4.5055 C   0  0  2  0  0  0  0  0  0  0  0  0
   12.0955   -9.3032    4.9715 C   0  0  0  0  0  0  0  0  0  0  0  0
   19.7359  -12.6968    6.5638 C   0  0  2  0  0  0  0  0  0  0  0  0
   17.6195  -12.4053    7.5583 C   0  0  0  0  0  0  0  0  0  0  0  0
   20.2198  -13.3386    5.4396 C   0  0  0  0  0  0  0  0  0  0  0  0
   18.5366  -12.1380    6.2658 C   0  0  1  0  0  0  0  0  0  0  0  0
   10.1860  -15.1455   12.7184 C   0  0  0  0  0  0  0  0  0  0  0  0
    9.8395  -16.5772   12.0841 C   0  0  0  0  0  0  0  0  0  0  0  0
   10.6421  -16.7127   10.7081 C   0  0  1  0  0  0  0  0  0  0  0  0
   10.3659  -18.0520   10.0142 C   0  0  0  0  0  0  0  0  0  0  0  0
   15.2083  -12.3241    8.2706 C   0  0  1  0  0  0  0  0  0  0  0  0
   15.2618  -13.8635    8.7737 C   0  0  0  0  0  0  0  0  0  0  0  0
   14.1992  -14.0937    9.9165 C   0  0  2  0  0  0  0  0  0  0  0  0
   20.7103  -11.7351    7.0279 F   0  0  0  0  0  0  0  0  0  0  0  0
   11.9620   -7.7746    4.7148 N   0  0  0  0  0  0  0  0  0  0  0  0
   10.0565  -12.6282   12.1764 N   0  0  0  0  0  0  0  0  0  0  0  0
   10.6337  -12.7055    2.1685 N   0  0  0  0  0  0  0  0  0  0  0  0
   20.4802  -12.8666    4.1317 N   0  0  0  0  0  0  0  0  0  0  0  0
   11.1424  -18.1867    8.8438 N   0  0  0  0  0  0  0  0  0  0  0  0
   16.2217  -12.1322    7.2176 N   0  0  0  0  0  0  0  0  0  0  0  0
   14.2279  -15.4995   10.3773 N   0  0  0  0  0  0  0  0  0  0  0  0
   11.8785  -13.9845   10.4519 O   0  0  0  0  0  0  0  0  0  0  0  0
   11.2757  -12.1271    8.3580 O   0  0  0  0  0  0  0  0  0  0  0  0
   13.6441  -10.8088    7.2203 O   0  0  0  0  0  0  0  0  0  0  0  0
   11.8937  -14.5546    6.6228 O   0  0  0  0  0  0  0  0  0  0  0  0
    9.3475  -12.1254    7.0035 O   0  0  0  0  0  0  0  0  0  0  0  0
    6.7407  -12.6231    8.3630 O   0  0  0  0  0  0  0  0  0  0  0  0
    9.9769  -13.8147    4.7998 O   0  0  0  0  0  0  0  0  0  0  0  0
   18.6215  -10.7180    6.0151 O   0  0  0  0  0  0  0  0  0  0  0  0
   18.0452  -12.7964    8.6576 O   0  0  0  0  0  0  0  0  0  0  0  0
   10.9817  -11.5844    4.8555 O   0  0  0  0  0  0  0  0  0  0  0  0
   10.2436  -15.5877    9.7670 O   0  0  0  0  0  0  0  0  0  0  0  0
  1 36  1  1  0  0  0
  2 36  1  1  0  0  0
  2  3  1  0  0  0  0
  3 37  1  6  0  0  0
  3  4  1  0  0  0  0
  4 38  1  1  0  0  0
  5 37  1  1  0  0  0
  5  6  1  0  0  0  0
  6  7  1  0  0  0  0
  6 39  1  6  0  0  0
  7 42  1  6  0  0  0
  8  9  1  1  0  0  0
  8  7  1  0  0  0  0
 10 42  1  6  0  0  0
 10 11  1  0  0  0  0
 11 31  1  6  0  0  0
 11 13  1  0  0  0  0
 12 30  1  1  0  0  0
 12  1  1  0  0  0  0
 14 13  1  0  0  0  0
 15 16  1  6  0  0  0
 15 14  1  0  0  0  0
 17 19  1  6  0  0  0
 17 28  1  0  0  0  0
 18 34  1  0  0  0  0
 19 32  1  0  0  0  0
 20 18  1  1  0  0  0
 20 17  1  0  0  0  0
 20 43  1  0  0  0  0
 21 12  1  0  0  0  0
 22 21  1  0  0  0  0
 22 23  1  0  0  0  0
 23 24  1  6  0  0  0
 23 46  1  0  0  0  0
 24 33  1  0  0  0  0
 25 34  1  6  0  0  0
 25  4  1  0  0  0  0
 26 25  1  0  0  0  0
 27 35  1  6  0  0  0
 27 26  1  0  0  0  0
 27  2  1  0  0  0  0
 29 16  1  0  0  0  0
 40  8  1  0  0  0  0
 40  5  1  0  0  0  0
 41  9  1  0  0  0  0
 44 18  2  0  0  0  0
 45 15  1  0  0  0  0
 45 10  1  0  0  0  0
 46  1  1  0  0  0  0
M  END
>  <CHROM.1>
-164.86873464,78.75584460,-76.56109501,63.93576811,-93.16187449,174.25039227
-149.90136860,60.53674689,56.56693433,-166.42439491,139.30195297,-176.51058636
-174.76537188,12.61763011,-13.04092341,7.44818275,-2.82584442,-0.05451084
-0.98564096

>  <Name>
lig.pdb

>  <RI>
0

>  <Rbt.Current_Directory>
/home/afrankz/demos/rdock_decoys_rna/rnas/3wru

>  <Rbt.Executable>
rbdock ($Id: //depot/dev/client3/rdock/2013.1/src/exe/rbdock.cxx#4 $)

>  <Rbt.Library>
libRbt.so (2013.1, Build901 2013/11/27)

>  <Rbt.Parameter_File>
/export/apps/rDock/src/rDock_2013.1_src/data/scripts/dock_solv.prm

>  <Rbt.Receptor>
prm/pocket_docking_3.prm

>  <SCORE>
-0.0852382

>  <SCORE.INTER>
-2.29993

>  <SCORE.INTER.CONST>
1

>  <SCORE.INTER.POLAR>
0

>  <SCORE.INTER.ROT>
13

>  <SCORE.INTER.SOLV>
21.4435

>  <SCORE.INTER.VDW>
-20.9478

>  <SCORE.INTER.norm>
-0.0499984

>  <SCORE.INTRA>
2.13832

>  <SCORE.INTRA.DIHEDRAL>
-2.96278

>  <SCORE.INTRA.DIHEDRAL.0>
19.7146

>  <SCORE.INTRA.POLAR>
0

>  <SCORE.INTRA.POLAR.0>
0

>  <SCORE.INTRA.REPUL>
0

>  <SCORE.INTRA.REPUL.0>
0

>  <SCORE.INTRA.SOLV>
0.243315

>  <SCORE.INTRA.SOLV.lig_0>
-116.697

>  <SCORE.INTRA.VDW>
3.49805

>  <SCORE.INTRA.VDW.0>
-7.06424

>  <SCORE.INTRA.norm>
0.0464851

>  <SCORE.RESTR>
0.0763717

>  <SCORE.RESTR.CAVITY>
0.0763717

>  <SCORE.RESTR.norm>
0.00166025

>  <SCORE.SYSTEM>
0

>  <SCORE.SYSTEM.CONST>
0

>  <SCORE.SYSTEM.DIHEDRAL>
0

>  <SCORE.SYSTEM.SOLV>
0

>  <SCORE.SYSTEM.norm>
0

>  <SCORE.heavy>
46

>  <SCORE.norm>
-0.001853

>  <RMSD>
6.922

$$$$
lig.pdb
 OpenBabel03061811583D
libRbt.so/2013.1/901 2013/11/27
 46 49  0  0  0  0  0  0  0  0999 V2000
   10.9992  -19.7011    9.5974 C   0  0  1  0  0  0  0  0  0  0  0  0
   13.0594  -18.6803    8.5382 C   0  0  1  0  0  0  0  0  0  0  0  0
   14.0399  -18.7533    9.7477 C   0  0  1  0  0  0  0  0  0  0  0  0
   15.1782  -17.6248    9.5642 C   0  0  2  0  0  0  0  0  0  0  0  0
   12.5653  -17.4294   11.3322 C   0  0  2  0  0  0  0  0  0  0  0  0
   13.1091  -16.7820   12.6375 C   0  0  1  0  0  0  0  0  0  0  0  0
   12.6411  -15.3701   12.3799 C   0  0  1  0  0  0  0  0  0  0  0  0
   13.0349  -15.0860   10.8955 C   0  0  1  0  0  0  0  0  0  0  0  0
   14.5183  -14.6515   10.6265 C   0  0  0  0  0  0  0  0  0  0  0  0
   10.5697  -14.0446   12.5699 C   0  0  1  0  0  0  0  0  0  0  0  0
   10.9423  -13.1927   13.7464 C   0  0  1  0  0  0  0  0  0  0  0  0
   10.0719  -20.9195    9.3765 C   0  0  1  0  0  0  0  0  0  0  0  0
   10.1814  -11.8244   13.6313 C   0  0  0  0  0  0  0  0  0  0  0  0
    8.7506  -11.9315   13.6248 C   0  0  0  0  0  0  0  0  0  0  0  0
    8.3497  -12.7200   12.4791 C   0  0  2  0  0  0  0  0  0  0  0  0
    6.7794  -12.8811   12.4232 C   0  0  0  0  0  0  0  0  0  0  0  0
   19.0370  -15.6329    6.3939 C   0  0  2  0  0  0  0  0  0  0  0  0
   18.4088  -17.4380    7.7722 C   0  0  0  0  0  0  0  0  0  0  0  0
   19.6686  -14.4109    6.2597 C   0  0  0  0  0  0  0  0  0  0  0  0
   19.3895  -16.1786    7.5844 C   0  0  1  0  0  0  0  0  0  0  0  0
    9.2915  -20.8017    7.9891 C   0  0  0  0  0  0  0  0  0  0  0  0
    8.4480  -19.4376    8.0027 C   0  0  0  0  0  0  0  0  0  0  0  0
    9.4731  -18.2275    8.2040 C   0  0  1  0  0  0  0  0  0  0  0  0
    8.7573  -16.8719    8.2432 C   0  0  0  0  0  0  0  0  0  0  0  0
   15.9916  -17.9559    8.2377 C   0  0  1  0  0  0  0  0  0  0  0  0
   14.9301  -17.8414    7.0186 C   0  0  0  0  0  0  0  0  0  0  0  0
   13.7908  -18.9181    7.1939 C   0  0  2  0  0  0  0  0  0  0  0  0
   19.3664  -16.4732    5.2648 F   0  0  0  0  0  0  0  0  0  0  0  0
    6.1930  -13.5865   13.6797 N   0  0  0  0  0  0  0  0  0  0  0  0
   10.9135  -22.1706    9.4527 N   0  0  0  0  0  0  0  0  0  0  0  0
   10.5624  -13.7250   14.9817 N   0  0  0  0  0  0  0  0  0  0  0  0
   19.5929  -13.4243    5.2487 N   0  0  0  0  0  0  0  0  0  0  0  0
    9.6844  -15.8082    8.2387 N   0  0  0  0  0  0  0  0  0  0  0  0
   17.0532  -16.9528    8.0398 N   0  0  0  0  0  0  0  0  0  0  0  0
   12.8065  -18.8171    6.0937 N   0  0  0  0  0  0  0  0  0  0  0  0
   12.0630  -19.6889    8.6448 O   0  0  0  0  0  0  0  0  0  0  0  0
   13.2219  -18.5099   10.9824 O   0  0  0  0  0  0  0  0  0  0  0  0
   16.0301  -17.7102   10.6426 O   0  0  0  0  0  0  0  0  0  0  0  0
   12.4885  -17.4000   13.7239 O   0  0  0  0  0  0  0  0  0  0  0  0
   12.5759  -16.3339   10.3497 O   0  0  0  0  0  0  0  0  0  0  0  0
   14.7263  -13.3931   11.2983 O   0  0  0  0  0  0  0  0  0  0  0  0
   11.1379  -15.3000   12.5789 O   0  0  0  0  0  0  0  0  0  0  0  0
   20.7634  -16.6231    7.6176 O   0  0  0  0  0  0  0  0  0  0  0  0
   18.7603  -18.6260    7.6849 O   0  0  0  0  0  0  0  0  0  0  0  0
    9.0226  -14.0720   12.5106 O   0  0  0  0  0  0  0  0  0  0  0  0
   10.2362  -18.4106    9.5057 O   0  0  0  0  0  0  0  0  0  0  0  0
  1 36  1  6  0  0  0
  2 36  1  1  0  0  0
  2  3  1  0  0  0  0
  3 37  1  1  0  0  0
  3  4  1  0  0  0  0
  4 38  1  1  0  0  0
  5 37  1  6  0  0  0
  5  6  1  0  0  0  0
  6  7  1  0  0  0  0
  6 39  1  1  0  0  0
  7 42  1  6  0  0  0
  8  9  1  1  0  0  0
  8  7  1  0  0  0  0
 10 42  1  1  0  0  0
 10 11  1  0  0  0  0
 11 31  1  1  0  0  0
 11 13  1  0  0  0  0
 12 30  1  6  0  0  0
 12  1  1  0  0  0  0
 14 13  1  0  0  0  0
 15 16  1  1  0  0  0
 15 14  1  0  0  0  0
 17 19  1  6  0  0  0
 17 28  1  0  0  0  0
 18 34  1  0  0  0  0
 19 32  1  0  0  0  0
 20 18  1  6  0  0  0
 20 17  1  0  0  0  0
 20 43  1  0  0  0  0
 21 12  1  0  0  0  0
 22 21  1  0  0  0  0
 22 23  1  0  0  0  0
 23 24  1  1  0  0  0
 23 46  1  0  0  0  0
 24 33  1  0  0  0  0
 25 34  1  6  0  0  0
 25  4  1  0  0  0  0
 26 25  1  0  0  0  0
 27 35  1  6  0  0  0
 27 26  1  0  0  0  0
 27  2  1  0  0  0  0
 29 16  1  0  0  0  0
 40  8  1  0  0  0  0
 40  5  1  0  0  0  0
 41  9  1  0  0  0  0
 44 18  2  0  0  0  0
 45 15  1  0  0  0  0
 45 10  1  0  0  0  0
 46  1  1  0  0  0  0
M  END
>  <CHROM.1>
177.46738183,70.80104095,-64.06941578,-116.68741542,171.05774766,-63.30679240
-68.30024363,-60.04313898,-176.68108127,-70.93063392,169.66650438,-172.03181664
130.14622754,13.07951889,-16.57198756,9.82809159,2.70454429,0.34800606,0.57795285

>  <Name>
lig.pdb

>  <RI>
0

>  <Rbt.Current_Directory>
/home/afrankz/demos/rdock_decoys_rna/rnas/3wru

>  <Rbt.Executable>
rbdock ($Id: //depot/dev/client3/rdock/2013.1/src/exe/rbdock.cxx#4 $)

>  <Rbt.Library>
libRbt.so (2013.1, Build901 2013/11/27)

>  <Rbt.Parameter_File>
/export/apps/rDock/src/rDock_2013.1_src/data/scripts/dock_solv.prm

>  <Rbt.Receptor>
prm/pocket_docking_8.prm

>  <SCORE>
-2.88972

>  <SCORE.INTER>
1.60324

>  <SCORE.INTER.CONST>
1

>  <SCORE.INTER.POLAR>
0

>  <SCORE.INTER.ROT>
13

>  <SCORE.INTER.SOLV>
21.0912

>  <SCORE.INTER.VDW>
-18.2282

>  <SCORE.INTER.norm>
0.0348531

>  <SCORE.INTRA>
-4.49296

>  <SCORE.INTRA.DIHEDRAL>
-8.21797

>  <SCORE.INTRA.DIHEDRAL.0>
19.7146

>  <SCORE.INTRA.POLAR>
0

>  <SCORE.INTRA.POLAR.0>
0

>  <SCORE.INTRA.REPUL>
0.00784485

>  <SCORE.INTRA.REPUL.0>
0

>  <SCORE.INTRA.SOLV>
-1.3285

>  <SCORE.INTRA.SOLV.lig_0>
-116.697

>  <SCORE.INTRA.VDW>
0.241053

>  <SCORE.INTRA.VDW.0>
-7.06424

>  <SCORE.INTRA.norm>
-0.097673

>  <SCORE.RESTR>
0

>  <SCORE.RESTR.CAVITY>
0

>  <SCORE.RESTR.norm>
0

>  <SCORE.SYSTEM>
0

>  <SCORE.SYSTEM.CONST>
0

>  <SCORE.SYSTEM.DIHEDRAL>
0

>  <SCORE.SYSTEM.SOLV>
0

>  <SCORE.SYSTEM.norm>
0

>  <SCORE.heavy>
46

>  <SCORE.norm>
-0.0628199

>  <RMSD>
6.925

$$$$
lig.pdb
 OpenBabel03061811583D
libRbt.so/2013.1/901 2013/11/27
 46 49  0  0  0  0  0  0  0  0999 V2000
    7.4987  -12.7378    9.9749 C   0  0  1  0  0  0  0  0  0  0  0  0
    9.5605  -14.0738   10.5849 C   0  0  1  0  0  0  0  0  0  0  0  0
   10.2850  -13.8726    9.2195 C   0  0  1  0  0  0  0  0  0  0  0  0
   11.3714  -15.0498    9.0280 C   0  0  2  0  0  0  0  0  0  0  0  0
    8.5595  -14.9660    7.7145 C   0  0  2  0  0  0  0  0  0  0  0  0
    7.6155  -14.6237    6.5269 C   0  0  1  0  0  0  0  0  0  0  0  0
    7.5567  -15.9981    5.9052 C   0  0  1  0  0  0  0  0  0  0  0  0
    9.0398  -16.4870    5.8819 C   0  0  1  0  0  0  0  0  0  0  0  0
    9.9343  -15.9808    4.6964 C   0  0  0  0  0  0  0  0  0  0  0  0
    6.6166  -18.2239    6.4012 C   0  0  1  0  0  0  0  0  0  0  0  0
    6.1030  -18.4508    5.0107 C   0  0  1  0  0  0  0  0  0  0  0  0
    6.7928  -11.4394   10.4321 C   0  0  1  0  0  0  0  0  0  0  0  0
    6.0211  -19.9978    4.7564 C   0  0  0  0  0  0  0  0  0  0  0  0
    5.1501  -20.7078    5.6485 C   0  0  0  0  0  0  0  0  0  0  0  0
    5.6360  -20.5410    7.0017 C   0  0  2  0  0  0  0  0  0  0  0  0
    4.7089  -21.2957    8.0341 C   0  0  0  0  0  0  0  0  0  0  0  0
   16.0573  -16.9229    9.1679 C   0  0  2  0  0  0  0  0  0  0  0  0
   14.7343  -15.8018   10.7635 C   0  0  0  0  0  0  0  0  0  0  0  0
   17.1464  -16.0742    9.1079 C   0  0  0  0  0  0  0  0  0  0  0  0
   15.6837  -17.0636   10.4641 C   0  0  1  0  0  0  0  0  0  0  0  0
    6.1188  -11.6281   11.8666 C   0  0  0  0  0  0  0  0  0  0  0  0
    5.0754  -12.8426   11.7744 C   0  0  0  0  0  0  0  0  0  0  0  0
    5.8804  -14.1496   11.3277 C   0  0  1  0  0  0  0  0  0  0  0  0
    4.9620  -15.3708   11.1985 C   0  0  0  0  0  0  0  0  0  0  0  0
   12.4485  -14.9211   10.1917 C   0  0  1  0  0  0  0  0  0  0  0  0
   11.6443  -15.1620   11.5778 C   0  0  0  0  0  0  0  0  0  0  0  0
   10.5556  -14.0372   11.7712 C   0  0  2  0  0  0  0  0  0  0  0  0
   16.3882  -18.1788    8.5333 F   0  0  0  0  0  0  0  0  0  0  0  0
    4.7132  -22.8397    7.8433 N   0  0  0  0  0  0  0  0  0  0  0  0
    7.8095  -10.3233   10.4222 N   0  0  0  0  0  0  0  0  0  0  0  0
    4.8085  -17.9707    4.7931 N   0  0  0  0  0  0  0  0  0  0  0  0
   17.9525  -15.6614    8.0211 N   0  0  0  0  0  0  0  0  0  0  0  0
    5.7106  -16.5492   10.9932 N   0  0  0  0  0  0  0  0  0  0  0  0
   13.4698  -15.9736   10.0451 N   0  0  0  0  0  0  0  0  0  0  0  0
    9.8043  -14.2516   13.0277 N   0  0  0  0  0  0  0  0  0  0  0  0
    8.6214  -13.0298   10.8076 O   0  0  0  0  0  0  0  0  0  0  0  0
    9.2265  -13.9264    8.1567 O   0  0  0  0  0  0  0  0  0  0  0  0
   11.9967  -14.8498    7.8176 O   0  0  0  0  0  0  0  0  0  0  0  0
    6.3994  -14.1803    7.0482 O   0  0  0  0  0  0  0  0  0  0  0  0
    9.3795  -16.0826    7.2187 O   0  0  0  0  0  0  0  0  0  0  0  0
   11.2698  -16.4732    4.9248 O   0  0  0  0  0  0  0  0  0  0  0  0
    6.6891  -16.8973    6.7671 O   0  0  0  0  0  0  0  0  0  0  0  0
   14.9587  -18.2876   10.7135 O   0  0  0  0  0  0  0  0  0  0  0  0
   15.0366  -14.8501   11.5020 O   0  0  0  0  0  0  0  0  0  0  0  0
    5.7336  -19.0738    7.3476 O   0  0  0  0  0  0  0  0  0  0  0  0
    6.5545  -13.9058    9.9874 O   0  0  0  0  0  0  0  0  0  0  0  0
  1 36  1  1  0  0  0
  2 36  1  1  0  0  0
  2  3  1  0  0  0  0
  3 37  1  6  0  0  0
  3  4  1  0  0  0  0
  4 38  1  6  0  0  0
  5 37  1  6  0  0  0
  5  6  1  0  0  0  0
  6  7  1  0  0  0  0
  6 39  1  1  0  0  0
  7 42  1  1  0  0  0
  8  9  1  6  0  0  0
  8  7  1  0  0  0  0
 10 42  1  1  0  0  0
 10 11  1  0  0  0  0
 11 31  1  1  0  0  0
 11 13  1  0  0  0  0
 12 30  1  1  0  0  0
 12  1  1  0  0  0  0
 14 13  1  0  0  0  0
 15 16  1  1  0  0  0
 15 14  1  0  0  0  0
 17 19  1  1  0  0  0
 17 28  1  0  0  0  0
 18 34  1  0  0  0  0
 19 32  1  0  0  0  0
 20 18  1  6  0  0  0
 20 17  1  0  0  0  0
 20 43  1  0  0  0  0
 21 12  1  0  0  0  0
 22 21  1  0  0  0  0
 22 23  1  0  0  0  0
 23 24  1  6  0  0  0
 23 46  1  0  0  0  0
 24 33  1  0  0  0  0
 25 34  1  6  0  0  0
 25  4  1  0  0  0  0
 26 25  1  0  0  0  0
 27 35  1  1  0  0  0
 27 26  1  0  0  0  0
 27  2  1  0  0  0  0
 29 16  1  0  0  0  0
 40  8  1  0  0  0  0
 40  5  1  0  0  0  0
 41  9  1  0  0  0  0
 44 18  2  0  0  0  0
 45 15  1  0  0  0  0
 45 10  1  0  0  0  0
 46  1  1  0  0  0  0
M  END
>  <CHROM.1>
-173.52149209,60.73352061,-72.59903338,-175.79518521,-174.84755283,176.08235302
-58.52922598,64.54865317,176.08835817,70.58188461,84.22197914,-171.55963318
162.75676363,9.38109544,-15.92488038,8.72257341,2.83754992,0.08922336,-2.50124928

>  <Name>
lig.pdb

>  <RI>
0

>  <Rbt.Current_Directory>
/home/afrankz/demos/rdock_decoys_rna/rnas/3wru

>  <Rbt.Executable>
rbdock ($Id: //depot/dev/client3/rdock/2013.1/src/exe/rbdock.cxx#4 $)

>  <Rbt.Library>
libRbt.so (2013.1, Build901 2013/11/27)

>  <Rbt.Parameter_File>
/export/apps/rDock/src/rDock_2013.1_src/data/scripts/dock_solv.prm

>  <Rbt.Receptor>
prm/pocket_docking_6.prm

>  <SCORE>
-3.23632

>  <SCORE.INTER>
4.1446

>  <SCORE.INTER.CONST>
1

>  <SCORE.INTER.POLAR>
0

>  <SCORE.INTER.ROT>
13

>  <SCORE.INTER.SOLV>
20.8626

>  <SCORE.INTER.VDW>
-16.4578

>  <SCORE.INTER.norm>
0.0901001

>  <SCORE.INTRA>
-7.38093

>  <SCORE.INTRA.DIHEDRAL>
-15.0813

>  <SCORE.INTRA.DIHEDRAL.0>
19.7146

>  <SCORE.INTRA.POLAR>
0

>  <SCORE.INTRA.POLAR.0>
0

>  <SCORE.INTRA.REPUL>
0.00634484

>  <SCORE.INTRA.REPUL.0>
0

>  <SCORE.INTRA.SOLV>
-2.77347

>  <SCORE.INTRA.SOLV.lig_0>
-116.697

>  <SCORE.INTRA.VDW>
1.51471

>  <SCORE.INTRA.VDW.0>
-7.06424

>  <SCORE.INTRA.norm>
-0.160455

>  <SCORE.RESTR>
0

>  <SCORE.RESTR.CAVITY>
0

>  <SCORE.RESTR.norm>
0

>  <SCORE.SYSTEM>
0

>  <SCORE.SYSTEM.CONST>
0

>  <SCORE.SYSTEM.DIHEDRAL>
0

>  <SCORE.SYSTEM.SOLV>
0

>  <SCORE.SYSTEM.norm>
0

>  <SCORE.heavy>
46

>  <SCORE.norm>
-0.0703548

>  <RMSD>
6.945

$$$$
lig.pdb
 OpenBabel03061811583D
libRbt.so/2013.1/901 2013/11/27
 46 49  0  0  0  0  0  0  0  0999 V2000
   11.6774  -15.6058    4.5601 C   0  0  1  0  0  0  0  0  0  0  0  0
   10.3123  -13.6251    5.3483 C   0  0  1  0  0  0  0  0  0  0  0  0
   11.5223  -12.7947    5.8736 C   0  0  1  0  0  0  0  0  0  0  0  0
   11.1349  -11.2290    5.8361 C   0  0  2  0  0  0  0  0  0  0  0  0
   10.9406  -13.7254    8.1612 C   0  0  2  0  0  0  0  0  0  0  0  0
   11.6133  -14.0937    9.5142 C   0  0  1  0  0  0  0  0  0  0  0  0
   10.3987  -13.9435   10.3980 C   0  0  1  0  0  0  0  0  0  0  0  0
    9.7465  -12.5967    9.9508 C   0  0  1  0  0  0  0  0  0  0  0  0
   10.3551  -11.2809   10.5509 C   0  0  0  0  0  0  0  0  0  0  0  0
    8.4587  -15.3019   11.0874 C   0  0  1  0  0  0  0  0  0  0  0  0
    8.9437  -15.5309   12.4878 C   0  0  1  0  0  0  0  0  0  0  0  0
   11.6196  -17.1492    4.6482 C   0  0  1  0  0  0  0  0  0  0  0  0
    7.6991  -15.7808   13.4112 C   0  0  0  0  0  0  0  0  0  0  0  0
    6.9019  -16.9178   13.0501 C   0  0  0  0  0  0  0  0  0  0  0  0
    6.3853  -16.7163   11.7131 C   0  0  2  0  0  0  0  0  0  0  0  0
    5.5038  -17.9442   11.2547 C   0  0  0  0  0  0  0  0  0  0  0  0
   11.2515   -6.5417    2.8191 C   0  0  2  0  0  0  0  0  0  0  0  0
   11.6221   -8.4277    4.1824 C   0  0  0  0  0  0  0  0  0  0  0  0
   10.2874   -7.0876    1.9929 C   0  0  0  0  0  0  0  0  0  0  0  0
   11.0136   -6.9428    4.0926 C   0  0  1  0  0  0  0  0  0  0  0  0
   11.9492  -17.6516    6.1269 C   0  0  0  0  0  0  0  0  0  0  0  0
   13.4053  -17.1113    6.5271 C   0  0  0  0  0  0  0  0  0  0  0  0
   13.3781  -15.5151    6.4420 C   0  0  1  0  0  0  0  0  0  0  0  0
   14.7371  -14.9001    6.7972 C   0  0  0  0  0  0  0  0  0  0  0  0
   10.8672  -10.8233    4.3213 C   0  0  1  0  0  0  0  0  0  0  0  0
    9.5901  -11.6971    3.8403 C   0  0  0  0  0  0  0  0  0  0  0  0
    9.9377  -13.2347    3.8970 C   0  0  2  0  0  0  0  0  0  0  0  0
   11.2583   -5.1040    2.6690 F   0  0  0  0  0  0  0  0  0  0  0  0
    4.2434  -18.1558   12.1417 N   0  0  0  0  0  0  0  0  0  0  0  0
   10.2536  -17.5956    4.1855 N   0  0  0  0  0  0  0  0  0  0  0  0
    9.7488  -16.6637   12.6366 N   0  0  0  0  0  0  0  0  0  0  0  0
   10.0461   -8.4223    1.5907 N   0  0  0  0  0  0  0  0  0  0  0  0
   15.7266  -15.2846    5.8676 N   0  0  0  0  0  0  0  0  0  0  0  0
   10.5220   -9.3926    4.2414 N   0  0  0  0  0  0  0  0  0  0  0  0
    8.7756  -14.0461    3.4722 N   0  0  0  0  0  0  0  0  0  0  0  0
   10.6315  -15.0105    5.3287 O   0  0  0  0  0  0  0  0  0  0  0  0
   11.7889  -13.2591    7.2758 O   0  0  0  0  0  0  0  0  0  0  0  0
   12.2178  -10.5184    6.3034 O   0  0  0  0  0  0  0  0  0  0  0  0
   12.0945  -15.4003    9.4223 O   0  0  0  0  0  0  0  0  0  0  0  0
    9.8465  -12.8146    8.5337 O   0  0  0  0  0  0  0  0  0  0  0  0
   10.1768  -11.3375   11.9802 O   0  0  0  0  0  0  0  0  0  0  0  0
    9.4649  -15.1172   10.1642 O   0  0  0  0  0  0  0  0  0  0  0  0
   11.6460   -6.0979    5.0787 O   0  0  0  0  0  0  0  0  0  0  0  0
   12.8350   -8.6950    4.1840 O   0  0  0  0  0  0  0  0  0  0  0  0
    7.5184  -16.4826   10.7418 O   0  0  0  0  0  0  0  0  0  0  0  0
   13.0023  -15.0812    5.0347 O   0  0  0  0  0  0  0  0  0  0  0  0
  1 36  1  1  0  0  0
  2 36  1  6  0  0  0
  2  3  1  0  0  0  0
  3 37  1  1  0  0  0
  3  4  1  0  0  0  0
  4 38  1  6  0  0  0
  5 37  1  6  0  0  0
  5  6  1  0  0  0  0
  6  7  1  0  0  0  0
  6 39  1  6  0  0  0
  7 42  1  6  0  0  0
  8  9  1  6  0  0  0
  8  7  1  0  0  0  0
 10 42  1  6  0  0  0
 10 11  1  0  0  0  0
 11 31  1  6  0  0  0
 11 13  1  0  0  0  0
 12 30  1  1  0  0  0
 12  1  1  0  0  0  0
 14 13  1  0  0  0  0
 15 16  1  6  0  0  0
 15 14  1  0  0  0  0
 17 19  1  6  0  0  0
 17 28  1  0  0  0  0
 18 34  1  0  0  0  0
 19 32  1  0  0  0  0
 20 18  1  6  0  0  0
 20 17  1  0  0  0  0
 20 43  1  0  0  0  0
 21 12  1  0  0  0  0
 22 21  1  0  0  0  0
 22 23  1  0  0  0  0
 23 24  1  6  0  0  0
 23 46  1  0  0  0  0
 24 33  1  0  0  0  0
 25 34  1  1  0  0  0
 25  4  1  0  0  0  0
 26 25  1  0  0  0  0
 27 35  1  1  0  0  0
 27 26  1  0  0  0  0
 27  2  1  0  0  0  0
 29 16  1  0  0  0  0
 40  8  1  0  0  0  0
 40  5  1  0  0  0  0
 41  9  1  0  0  0  0
 44 18  2  0  0  0  0
 45 15  1  0  0  0  0
 45 10  1  0  0  0  0
 46  1  1  0  0  0  0
M  END
>  <CHROM.1>
-172.86835145,-61.30842423,-30.46259833,-179.65820570,166.05953738,-61.91761028
-59.86842672,62.43847588,-68.93225222,-107.84825804,80.49430894,63.73135587
84.64625593,10.51972276,-13.16619865,7.16014081,-1.07642884,-0.98223394,2.80103803

>  <Name>
lig.pdb

>  <RI>
0

>  <Rbt.Current_Directory>
/home/afrankz/demos/rdock_decoys_rna/rnas/3wru

>  <Rbt.Executable>
rbdock ($Id: //depot/dev/client3/rdock/2013.1/src/exe/rbdock.cxx#4 $)

>  <Rbt.Library>
libRbt.so (2013.1, Build901 2013/11/27)

>  <Rbt.Parameter_File>
/export/apps/rDock/src/rDock_2013.1_src/data/scripts/dock_solv.prm

>  <Rbt.Receptor>
prm/pocket_docking_6.prm

>  <SCORE>
1.70301

>  <SCORE.INTER>
4.37458

>  <SCORE.INTER.CONST>
1

>  <SCORE.INTER.POLAR>
0

>  <SCORE.INTER.ROT>
13

>  <SCORE.INTER.SOLV>
18.2905

>  <SCORE.INTER.VDW>
-15.4471

>  <SCORE.INTER.norm>
0.0950995

>  <SCORE.INTRA>
-2.67156

>  <SCORE.INTRA.DIHEDRAL>
-10.5113

>  <SCORE.INTRA.DIHEDRAL.0>
19.7146

>  <SCORE.INTRA.POLAR>
0

>  <SCORE.INTRA.POLAR.0>
0

>  <SCORE.INTRA.REPUL>
0

>  <SCORE.INTRA.REPUL.0>
0

>  <SCORE.INTRA.SOLV>
2.89331

>  <SCORE.INTRA.SOLV.lig_0>
-116.697

>  <SCORE.INTRA.VDW>
1.13745

>  <SCORE.INTRA.VDW.0>
-7.06424

>  <SCORE.INTRA.norm>
-0.0580775

>  <SCORE.RESTR>
0

>  <SCORE.RESTR.CAVITY>
0

>  <SCORE.RESTR.norm>
0

>  <SCORE.SYSTEM>
0

>  <SCORE.SYSTEM.CONST>
0

>  <SCORE.SYSTEM.DIHEDRAL>
0

>  <SCORE.SYSTEM.SOLV>
0

>  <SCORE.SYSTEM.norm>
0

>  <SCORE.heavy>
46

>  <SCORE.norm>
0.037022

>  <RMSD>
6.953

$$$$
lig.pdb
 OpenBabel03061811583D
libRbt.so/2013.1/901 2013/11/27
 46 49  0  0  0  0  0  0  0  0999 V2000
   12.5780  -17.4765    7.6377 C   0  0  1  0  0  0  0  0  0  0  0  0
   11.0269  -15.4808    7.7761 C   0  0  1  0  0  0  0  0  0  0  0  0
   12.0336  -14.3955    8.2643 C   0  0  1  0  0  0  0  0  0  0  0  0
   11.5326  -12.9511    7.7491 C   0  0  2  0  0  0  0  0  0  0  0  0
   11.3063  -15.1952   10.5599 C   0  0  2  0  0  0  0  0  0  0  0  0
   11.6253  -14.9724   12.0657 C   0  0  1  0  0  0  0  0  0  0  0  0
   10.2841  -15.3814   12.6250 C   0  0  1  0  0  0  0  0  0  0  0  0
    9.2385  -14.6591   11.7171 C   0  0  1  0  0  0  0  0  0  0  0  0
    8.9280  -13.1576   12.0501 C   0  0  0  0  0  0  0  0  0  0  0  0
    8.9696  -17.4341   13.0018 C   0  0  1  0  0  0  0  0  0  0  0  0
    9.0196  -18.9175   13.2165 C   0  0  1  0  0  0  0  0  0  0  0  0
   12.7585  -18.8482    8.3300 C   0  0  1  0  0  0  0  0  0  0  0  0
    7.6021  -19.4005   13.6872 C   0  0  0  0  0  0  0  0  0  0  0  0
    6.5407  -19.1450   12.7562 C   0  0  0  0  0  0  0  0  0  0  0  0
    6.4382  -17.7160   12.5504 C   0  0  2  0  0  0  0  0  0  0  0  0
    5.2882  -17.3721   11.5238 C   0  0  0  0  0  0  0  0  0  0  0  0
   11.5593   -8.8536    5.0474 C   0  0  2  0  0  0  0  0  0  0  0  0
   11.7759  -11.1251    4.4587 C   0  0  0  0  0  0  0  0  0  0  0  0
   12.7802   -8.3272    4.6702 C   0  0  0  0  0  0  0  0  0  0  0  0
   11.1315   -9.7022    4.0798 C   0  0  1  0  0  0  0  0  0  0  0  0
   13.1701  -18.6675    9.8615 C   0  0  0  0  0  0  0  0  0  0  0  0
   14.5284  -17.8165    9.9185 C   0  0  0  0  0  0  0  0  0  0  0  0
   14.2559  -16.4075    9.2139 C   0  0  1  0  0  0  0  0  0  0  0  0
   15.5065  -15.5202    9.2067 C   0  0  0  0  0  0  0  0  0  0  0  0
   11.5412  -12.9646    6.1583 C   0  0  1  0  0  0  0  0  0  0  0  0
   10.4638  -14.0897    5.7120 C   0  0  0  0  0  0  0  0  0  0  0  0
   10.9197  -15.5077    6.2312 C   0  0  2  0  0  0  0  0  0  0  0  0
   10.6300   -7.7779    5.3100 F   0  0  0  0  0  0  0  0  0  0  0  0
    5.2066  -15.8562   11.1837 N   0  0  0  0  0  0  0  0  0  0  0  0
   11.4744  -19.6265    8.1727 N   0  0  0  0  0  0  0  0  0  0  0  0
    9.2972  -19.6540   12.0615 N   0  0  0  0  0  0  0  0  0  0  0  0
   13.1361   -7.4468    3.6216 N   0  0  0  0  0  0  0  0  0  0  0  0
   15.9485  -15.2557   10.5204 N   0  0  0  0  0  0  0  0  0  0  0  0
   11.1011  -11.6547    5.6457 N   0  0  0  0  0  0  0  0  0  0  0  0
    9.9381  -16.5441    5.8416 N   0  0  0  0  0  0  0  0  0  0  0  0
   11.4577  -16.7748    8.1779 O   0  0  0  0  0  0  0  0  0  0  0  0
   12.0513  -14.4659    9.7636 O   0  0  0  0  0  0  0  0  0  0  0  0
   12.4368  -12.0118    8.1919 O   0  0  0  0  0  0  0  0  0  0  0  0
   12.6748  -15.8208   12.4208 O   0  0  0  0  0  0  0  0  0  0  0  0
    9.8561  -14.9687   10.4567 O   0  0  0  0  0  0  0  0  0  0  0  0
   10.1350  -12.4060   11.8128 O   0  0  0  0  0  0  0  0  0  0  0  0
   10.1475  -16.8906   12.5370 O   0  0  0  0  0  0  0  0  0  0  0  0
    9.6929   -9.8188    4.0259 O   0  0  0  0  0  0  0  0  0  0  0  0
   12.6891  -11.6782    3.8242 O   0  0  0  0  0  0  0  0  0  0  0  0
    7.7593  -17.1575   12.0764 O   0  0  0  0  0  0  0  0  0  0  0  0
   13.8095  -16.6281    7.7779 O   0  0  0  0  0  0  0  0  0  0  0  0
  1 36  1  1  0  0  0
  2 36  1  6  0  0  0
  2  3  1  0  0  0  0
  3 37  1  1  0  0  0
  3  4  1  0  0  0  0
  4 38  1  1  0  0  0
  5 37  1  6  0  0  0
  5  6  1  0  0  0  0
  6  7  1  0  0  0  0
  6 39  1  1  0  0  0
  7 42  1  6  0  0  0
  8  9  1  1  0  0  0
  8  7  1  0  0  0  0
 10 42  1  6  0  0  0
 10 11  1  0  0  0  0
 11 31  1  6  0  0  0
 11 13  1  0  0  0  0
 12 30  1  1  0  0  0
 12  1  1  0  0  0  0
 14 13  1  0  0  0  0
 15 16  1  6  0  0  0
 15 14  1  0  0  0  0
 17 19  1  6  0  0  0
 17 28  1  0  0  0  0
 18 34  1  0  0  0  0
 19 32  1  0  0  0  0
 20 18  1  1  0  0  0
 20 17  1  0  0  0  0
 20 43  1  0  0  0  0
 21 12  1  0  0  0  0
 22 21  1  0  0  0  0
 22 23  1  0  0  0  0
 23 24  1  6  0  0  0
 23 46  1  0  0  0  0
 24 33  1  0  0  0  0
 25 34  1  6  0  0  0
 25  4  1  0  0  0  0
 26 25  1  0  0  0  0
 27 35  1  1  0  0  0
 27 26  1  0  0  0  0
 27  2  1  0  0  0  0
 29 16  1  0  0  0  0
 40  8  1  0  0  0  0
 40  5  1  0  0  0  0
 41  9  1  0  0  0  0
 44 18  2  0  0  0  0
 45 15  1  0  0  0  0
 45 10  1  0  0  0  0
 46  1  1  0  0  0  0
M  END
>  <CHROM.1>
179.17414625,-71.06818713,-5.38588907,-179.49153856,-179.65295128,65.10398140
-165.23785431,-175.60768363,67.35854534,71.38671585,87.73283424,-60.01957699
141.56200841,10.92047764,-14.80412617,8.97643526,-1.85548123,0.42135363,-0.62676584

>  <Name>
lig.pdb

>  <RI>
0

>  <Rbt.Current_Directory>
/home/afrankz/demos/rdock_decoys_rna/rnas/3wru

>  <Rbt.Executable>
rbdock ($Id: //depot/dev/client3/rdock/2013.1/src/exe/rbdock.cxx#4 $)

>  <Rbt.Library>
libRbt.so (2013.1, Build901 2013/11/27)

>  <Rbt.Parameter_File>
/export/apps/rDock/src/rDock_2013.1_src/data/scripts/dock_solv.prm

>  <Rbt.Receptor>
prm/pocket_docking_4.prm

>  <SCORE>
2.05295

>  <SCORE.INTER>
4.56868

>  <SCORE.INTER.CONST>
1

>  <SCORE.INTER.POLAR>
0

>  <SCORE.INTER.ROT>
13

>  <SCORE.INTER.SOLV>
19.0863

>  <SCORE.INTER.VDW>
-15.583

>  <SCORE.INTER.norm>
0.0993192

>  <SCORE.INTRA>
-2.56145

>  <SCORE.INTRA.DIHEDRAL>
-6.64634

>  <SCORE.INTRA.DIHEDRAL.0>
19.7146

>  <SCORE.INTRA.POLAR>
0

>  <SCORE.INTRA.POLAR.0>
0

>  <SCORE.INTRA.REPUL>
0

>  <SCORE.INTRA.REPUL.0>
0

>  <SCORE.INTRA.SOLV>
-0.396644

>  <SCORE.INTRA.SOLV.lig_0>
-116.697

>  <SCORE.INTRA.VDW>
0.960038

>  <SCORE.INTRA.VDW.0>
-7.06424

>  <SCORE.INTRA.norm>
-0.0556838

>  <SCORE.RESTR>
0.0457229

>  <SCORE.RESTR.CAVITY>
0.0457229

>  <SCORE.RESTR.norm>
0.000993977

>  <SCORE.SYSTEM>
0

>  <SCORE.SYSTEM.CONST>
0

>  <SCORE.SYSTEM.DIHEDRAL>
0

>  <SCORE.SYSTEM.SOLV>
0

>  <SCORE.SYSTEM.norm>
0

>  <SCORE.heavy>
46

>  <SCORE.norm>
0.0446294

>  <RMSD>
6.998

$$$$
lig.pdb
 OpenBabel03061811583D
libRbt.so/2013.1/901 2013/11/27
 46 49  0  0  0  0  0  0  0  0999 V2000
    6.2549  -12.8946    9.9263 C   0  0  1  0  0  0  0  0  0  0  0  0
    8.7847  -12.9406   10.0020 C   0  0  1  0  0  0  0  0  0  0  0  0
    8.9244  -12.2893    8.5927 C   0  0  1  0  0  0  0  0  0  0  0  0
   10.3975  -12.6061    8.0163 C   0  0  2  0  0  0  0  0  0  0  0  0
    7.8001  -14.1028    7.2197 C   0  0  2  0  0  0  0  0  0  0  0  0
    8.6539  -14.2601    5.9293 C   0  0  1  0  0  0  0  0  0  0  0  0
    8.8850  -15.7495    6.0133 C   0  0  1  0  0  0  0  0  0  0  0  0
    9.2835  -16.0061    7.5014 C   0  0  1  0  0  0  0  0  0  0  0  0
   10.7810  -15.7443    7.8894 C   0  0  0  0  0  0  0  0  0  0  0  0
    7.7043  -17.8222    5.3860 C   0  0  1  0  0  0  0  0  0  0  0  0
    6.3889  -18.5073    5.1642 C   0  0  1  0  0  0  0  0  0  0  0  0
    5.0801  -12.5748   10.8807 C   0  0  1  0  0  0  0  0  0  0  0  0
    6.6566  -20.0371    4.9348 C   0  0  0  0  0  0  0  0  0  0  0  0
    7.3003  -20.7049    6.0295 C   0  0  0  0  0  0  0  0  0  0  0  0
    8.5928  -20.0923    6.2512 C   0  0  2  0  0  0  0  0  0  0  0  0
    9.3480  -20.7818    7.4550 C   0  0  0  0  0  0  0  0  0  0  0  0
   15.1988  -10.9611    6.0279 C   0  0  2  0  0  0  0  0  0  0  0  0
   13.3120  -11.3628    7.3812 C   0  0  0  0  0  0  0  0  0  0  0  0
   16.5474  -11.1445    5.7876 C   0  0  0  0  0  0  0  0  0  0  0  0
   14.8108  -11.8102    7.0117 C   0  0  1  0  0  0  0  0  0  0  0  0
    5.0498  -13.5895   12.1124 C   0  0  0  0  0  0  0  0  0  0  0  0
    4.9239  -15.0792   11.5316 C   0  0  0  0  0  0  0  0  0  0  0  0
    6.1829  -15.3453   10.5830 C   0  0  1  0  0  0  0  0  0  0  0  0
    6.1474  -16.7484    9.9653 C   0  0  0  0  0  0  0  0  0  0  0  0
   11.4626  -11.9336    8.9880 C   0  0  1  0  0  0  0  0  0  0  0  0
   11.2865  -12.6644   10.4235 C   0  0  0  0  0  0  0  0  0  0  0  0
    9.8410  -12.3916   10.9929 C   0  0  2  0  0  0  0  0  0  0  0  0
   14.4603  -11.1419    4.7984 F   0  0  0  0  0  0  0  0  0  0  0  0
    8.5173  -20.7939    8.7703 N   0  0  0  0  0  0  0  0  0  0  0  0
    5.2154  -11.1391   11.3279 N   0  0  0  0  0  0  0  0  0  0  0  0
    5.5188  -18.4433    6.2561 N   0  0  0  0  0  0  0  0  0  0  0  0
   17.6786  -10.9681    6.6187 N   0  0  0  0  0  0  0  0  0  0  0  0
    6.2098  -17.7438   10.9634 N   0  0  0  0  0  0  0  0  0  0  0  0
   12.8254  -12.1890    8.4881 N   0  0  0  0  0  0  0  0  0  0  0  0
    9.6613  -13.0639   12.2987 N   0  0  0  0  0  0  0  0  0  0  0  0
    7.5104  -12.6481   10.5604 O   0  0  0  0  0  0  0  0  0  0  0  0
    7.8567  -12.8951    7.7291 O   0  0  0  0  0  0  0  0  0  0  0  0
   10.4957  -12.0210    6.7737 O   0  0  0  0  0  0  0  0  0  0  0  0
    7.8775  -13.8633    4.8398 O   0  0  0  0  0  0  0  0  0  0  0  0
    8.2663  -15.1858    8.1000 O   0  0  0  0  0  0  0  0  0  0  0  0
   10.9253  -16.0644    9.2875 O   0  0  0  0  0  0  0  0  0  0  0  0
    7.6014  -16.4736    5.6493 O   0  0  0  0  0  0  0  0  0  0  0  0
   14.8172  -13.1943    6.5987 O   0  0  0  0  0  0  0  0  0  0  0  0
   12.6883  -10.4489    6.8168 O   0  0  0  0  0  0  0  0  0  0  0  0
    8.4361  -18.6106    6.4999 O   0  0  0  0  0  0  0  0  0  0  0  0
    6.2063  -14.3215    9.4598 O   0  0  0  0  0  0  0  0  0  0  0  0
  1 36  1  1  0  0  0
  2 36  1  1  0  0  0
  2  3  1  0  0  0  0
  3 37  1  6  0  0  0
  3  4  1  0  0  0  0
  4 38  1  6  0  0  0
  5 37  1  1  0  0  0
  5  6  1  0  0  0  0
  6  7  1  0  0  0  0
  6 39  1  6  0  0  0
  7 42  1  1  0  0  0
  8  9  1  6  0  0  0
  8  7  1  0  0  0  0
 10 42  1  1  0  0  0
 10 11  1  0  0  0  0
 11 31  1  1  0  0  0
 11 13  1  0  0  0  0
 12 30  1  1  0  0  0
 12  1  1  0  0  0  0
 14 13  1  0  0  0  0
 15 16  1  1  0  0  0
 15 14  1  0  0  0  0
 17 19  1  6  0  0  0
 17 28  1  0  0  0  0
 18 34  1  0  0  0  0
 19 32  1  0  0  0  0
 20 18  1  6  0  0  0
 20 17  1  0  0  0  0
 20 43  1  0  0  0  0
 21 12  1  0  0  0  0
 22 21  1  0  0  0  0
 22 23  1  0  0  0  0
 23 24  1  6  0  0  0
 23 46  1  0  0  0  0
 24 33  1  0  0  0  0
 25 34  1  6  0  0  0
 25  4  1  0  0  0  0
 26 25  1  0  0  0  0
 27 35  1  1  0  0  0
 27 26  1  0  0  0  0
 27  2  1  0  0  0  0
 29 16  1  0  0  0  0
 40  8  1  0  0  0  0
 40  5  1  0  0  0  0
 41  9  1  0  0  0  0
 44 18  2  0  0  0  0
 45 15  1  0  0  0  0
 45 10  1  0  0  0  0
 46  1  1  0  0  0  0
M  END
>  <CHROM.1>
174.63408197,53.70014272,-73.07050517,-80.59814639,166.07018121,-179.01779887
174.35070082,-55.07556715,-62.07541902,-177.35801630,171.12130264,-62.35964071
79.02674393,9.34619430,-14.57270373,8.00181399,2.66872158,-0.52040687,-2.56670927

>  <Name>
lig.pdb

>  <RI>
0

>  <Rbt.Current_Directory>
/home/afrankz/demos/rdock_decoys_rna/rnas/3wru

>  <Rbt.Executable>
rbdock ($Id: //depot/dev/client3/rdock/2013.1/src/exe/rbdock.cxx#4 $)

>  <Rbt.Library>
libRbt.so (2013.1, Build901 2013/11/27)

>  <Rbt.Parameter_File>
/export/apps/rDock/src/rDock_2013.1_src/data/scripts/dock_solv.prm

>  <Rbt.Receptor>
prm/pocket_docking_6.prm

>  <SCORE>
-1.83057

>  <SCORE.INTER>
4.03705

>  <SCORE.INTER.CONST>
1

>  <SCORE.INTER.POLAR>
0

>  <SCORE.INTER.ROT>
13

>  <SCORE.INTER.SOLV>
20.6954

>  <SCORE.INTER.VDW>
-16.4738

>  <SCORE.INTER.norm>
0.087762

>  <SCORE.INTRA>
-5.86763

>  <SCORE.INTRA.DIHEDRAL>
-13.9099

>  <SCORE.INTRA.DIHEDRAL.0>
19.7146

>  <SCORE.INTRA.POLAR>
0

>  <SCORE.INTRA.POLAR.0>
0

>  <SCORE.INTRA.REPUL>
0.0785178

>  <SCORE.INTRA.REPUL.0>
0

>  <SCORE.INTRA.SOLV>
-0.270701

>  <SCORE.INTRA.SOLV.lig_0>
-116.697

>  <SCORE.INTRA.VDW>
0.830063

>  <SCORE.INTRA.VDW.0>
-7.06424

>  <SCORE.INTRA.norm>
-0.127557

>  <SCORE.RESTR>
0

>  <SCORE.RESTR.CAVITY>
0

>  <SCORE.RESTR.norm>
0

>  <SCORE.SYSTEM>
0

>  <SCORE.SYSTEM.CONST>
0

>  <SCORE.SYSTEM.DIHEDRAL>
0

>  <SCORE.SYSTEM.SOLV>
0

>  <SCORE.SYSTEM.norm>
0

>  <SCORE.heavy>
46

>  <SCORE.norm>
-0.0397951

>  <RMSD>
7.050

$$$$
lig.pdb
 OpenBabel03061811583D
libRbt.so/2013.1/901 2013/11/27
 46 49  0  0  0  0  0  0  0  0999 V2000
   12.4598  -14.7472    9.7846 C   0  0  1  0  0  0  0  0  0  0  0  0
   11.8341  -13.2102    7.8730 C   0  0  1  0  0  0  0  0  0  0  0  0
   10.5429  -12.5532    7.2977 C   0  0  1  0  0  0  0  0  0  0  0  0
   10.9315  -11.7090    5.9788 C   0  0  2  0  0  0  0  0  0  0  0  0
    8.9367  -14.4537    7.7935 C   0  0  2  0  0  0  0  0  0  0  0  0
    7.8328  -13.7041    8.5925 C   0  0  1  0  0  0  0  0  0  0  0  0
    6.9363  -14.8870    8.8683 C   0  0  1  0  0  0  0  0  0  0  0  0
    6.8338  -15.6346    7.5009 C   0  0  1  0  0  0  0  0  0  0  0  0
    5.7943  -15.0787    6.4654 C   0  0  0  0  0  0  0  0  0  0  0  0
    6.8976  -16.9050   10.2858 C   0  0  1  0  0  0  0  0  0  0  0  0
    5.5805  -16.6552   10.9579 C   0  0  1  0  0  0  0  0  0  0  0  0
   11.9917  -16.2215    9.8122 C   0  0  1  0  0  0  0  0  0  0  0  0
    4.9523  -18.0387   11.3524 C   0  0  0  0  0  0  0  0  0  0  0  0
    5.7447  -18.8222   12.2562 C   0  0  0  0  0  0  0  0  0  0  0  0
    7.0145  -19.1144   11.6260 C   0  0  2  0  0  0  0  0  0  0  0  0
    7.9374  -19.9703   12.5804 C   0  0  0  0  0  0  0  0  0  0  0  0
   12.9639   -6.8250    4.1267 C   0  0  2  0  0  0  0  0  0  0  0  0
   11.5605   -8.5081    4.9932 C   0  0  0  0  0  0  0  0  0  0  0  0
   13.7916   -6.4252    3.0948 C   0  0  0  0  0  0  0  0  0  0  0  0
   12.1366   -7.7984    3.6712 C   0  0  1  0  0  0  0  0  0  0  0  0
   10.6502  -16.3810   10.6625 C   0  0  0  0  0  0  0  0  0  0  0  0
   10.9310  -15.8434   12.1473 C   0  0  0  0  0  0  0  0  0  0  0  0
   11.3790  -14.3125   12.0396 C   0  0  1  0  0  0  0  0  0  0  0  0
   11.6840  -13.7076   13.4152 C   0  0  0  0  0  0  0  0  0  0  0  0
   11.9338  -10.5519    6.4115 C   0  0  1  0  0  0  0  0  0  0  0  0
   13.2596  -11.2928    6.9764 C   0  0  0  0  0  0  0  0  0  0  0  0
   12.8965  -12.1484    8.2508 C   0  0  2  0  0  0  0  0  0  0  0  0
   12.2565   -5.6783    4.6504 F   0  0  0  0  0  0  0  0  0  0  0  0
    9.3042  -20.3412   11.9364 N   0  0  0  0  0  0  0  0  0  0  0  0
   11.8216  -16.6875    8.3863 N   0  0  0  0  0  0  0  0  0  0  0  0
    5.6749  -15.9369   12.1532 N   0  0  0  0  0  0  0  0  0  0  0  0
   14.7734   -7.1272    2.3568 N   0  0  0  0  0  0  0  0  0  0  0  0
   10.4953  -13.3622   14.0925 N   0  0  0  0  0  0  0  0  0  0  0  0
   12.3043   -9.7464    5.2340 N   0  0  0  0  0  0  0  0  0  0  0  0
   14.0961  -12.8414    8.7706 N   0  0  0  0  0  0  0  0  0  0  0  0
   11.5372  -13.9314    9.0618 O   0  0  0  0  0  0  0  0  0  0  0  0
    9.5969  -13.6721    6.9723 O   0  0  0  0  0  0  0  0  0  0  0  0
    9.7767  -11.1394    5.4910 O   0  0  0  0  0  0  0  0  0  0  0  0
    8.4168  -13.1520    9.7332 O   0  0  0  0  0  0  0  0  0  0  0  0
    8.2306  -15.5821    7.1663 O   0  0  0  0  0  0  0  0  0  0  0  0
    5.2721  -16.2054    5.7333 O   0  0  0  0  0  0  0  0  0  0  0  0
    7.5774  -15.7599    9.9318 O   0  0  0  0  0  0  0  0  0  0  0  0
   11.0431   -7.2856    2.8789 O   0  0  0  0  0  0  0  0  0  0  0  0
   10.6411   -8.0548    5.6945 O   0  0  0  0  0  0  0  0  0  0  0  0
    7.7077  -17.8343   11.2228 O   0  0  0  0  0  0  0  0  0  0  0  0
   12.6232  -14.2002   11.1738 O   0  0  0  0  0  0  0  0  0  0  0  0
  1 36  1  6  0  0  0
  2 36  1  1  0  0  0
  2  3  1  0  0  0  0
  3 37  1  6  0  0  0
  3  4  1  0  0  0  0
  4 38  1  1  0  0  0
  5 37  1  6  0  0  0
  5  6  1  0  0  0  0
  6  7  1  0  0  0  0
  6 39  1  1  0  0  0
  7 42  1  1  0  0  0
  8  9  1  6  0  0  0
  8  7  1  0  0  0  0
 10 42  1  1  0  0  0
 10 11  1  0  0  0  0
 11 31  1  1  0  0  0
 11 13  1  0  0  0  0
 12 30  1  6  0  0  0
 12  1  1  0  0  0  0
 14 13  1  0  0  0  0
 15 16  1  1  0  0  0
 15 14  1  0  0  0  0
 17 19  1  6  0  0  0
 17 28  1  0  0  0  0
 18 34  1  0  0  0  0
 19 32  1  0  0  0  0
 20 18  1  1  0  0  0
 20 17  1  0  0  0  0
 20 43  1  0  0  0  0
 21 12  1  0  0  0  0
 22 21  1  0  0  0  0
 22 23  1  0  0  0  0
 23 24  1  1  0  0  0
 23 46  1  0  0  0  0
 24 33  1  0  0  0  0
 25 34  1  6  0  0  0
 25  4  1  0  0  0  0
 26 25  1  0  0  0  0
 27 35  1  6  0  0  0
 27 26  1  0  0  0  0
 27  2  1  0  0  0  0
 29 16  1  0  0  0  0
 40  8  1  0  0  0  0
 40  5  1  0  0  0  0
 41  9  1  0  0  0  0
 44 18  2  0  0  0  0
 45 15  1  0  0  0  0
 45 10  1  0  0  0  0
 46  1  1  0  0  0  0
M  END
>  <CHROM.1>
-117.73726141,174.31718658,70.82287313,68.05172677,-178.76729470,-146.22647299
-65.56040293,178.62897029,-63.09728578,-99.91406311,162.72973573,-78.79948812
96.38891479,9.95956324,-13.51302049,8.38529646,-2.01363269,-0.45395477,-0.82795409

>  <Name>
lig.pdb

>  <RI>
0

>  <Rbt.Current_Directory>
/home/afrankz/demos/rdock_decoys_rna/rnas/3wru

>  <Rbt.Executable>
rbdock ($Id: //depot/dev/client3/rdock/2013.1/src/exe/rbdock.cxx#4 $)

>  <Rbt.Library>
libRbt.so (2013.1, Build901 2013/11/27)

>  <Rbt.Parameter_File>
/export/apps/rDock/src/rDock_2013.1_src/data/scripts/dock_solv.prm

>  <Rbt.Receptor>
prm/pocket_docking_4.prm

>  <SCORE>
-0.852082

>  <SCORE.INTER>
0.272213

>  <SCORE.INTER.CONST>
1

>  <SCORE.INTER.POLAR>
0

>  <SCORE.INTER.ROT>
13

>  <SCORE.INTER.SOLV>
25.8201

>  <SCORE.INTER.VDW>
-20.6919

>  <SCORE.INTER.norm>
0.00591767

>  <SCORE.INTRA>
-1.12429

>  <SCORE.INTRA.DIHEDRAL>
-3.12805

>  <SCORE.INTRA.DIHEDRAL.0>
19.7146

>  <SCORE.INTRA.POLAR>
0

>  <SCORE.INTRA.POLAR.0>
0

>  <SCORE.INTRA.REPUL>
0

>  <SCORE.INTRA.REPUL.0>
0

>  <SCORE.INTRA.SOLV>
0.0566332

>  <SCORE.INTRA.SOLV.lig_0>
-116.697

>  <SCORE.INTRA.VDW>
0.411412

>  <SCORE.INTRA.VDW.0>
-7.06424

>  <SCORE.INTRA.norm>
-0.0244412

>  <SCORE.RESTR>
0

>  <SCORE.RESTR.CAVITY>
0

>  <SCORE.RESTR.norm>
0

>  <SCORE.SYSTEM>
0

>  <SCORE.SYSTEM.CONST>
0

>  <SCORE.SYSTEM.DIHEDRAL>
0

>  <SCORE.SYSTEM.SOLV>
0

>  <SCORE.SYSTEM.norm>
0

>  <SCORE.heavy>
46

>  <SCORE.norm>
-0.0185235

>  <RMSD>
7.071

$$$$
lig.pdb
 OpenBabel03061811583D
libRbt.so/2013.1/901 2013/11/27
 46 49  0  0  0  0  0  0  0  0999 V2000
   11.3176  -13.9719    3.2520 C   0  0  1  0  0  0  0  0  0  0  0  0
   11.6138  -12.2343    5.0688 C   0  0  1  0  0  0  0  0  0  0  0  0
   13.1632  -12.1148    4.9480 C   0  0  1  0  0  0  0  0  0  0  0  0
   13.6138  -10.6511    5.4554 C   0  0  2  0  0  0  0  0  0  0  0  0
   13.5874  -13.3994    7.0946 C   0  0  2  0  0  0  0  0  0  0  0  0
   13.9965  -14.8319    7.5411 C   0  0  1  0  0  0  0  0  0  0  0  0
   14.3079  -14.5187    8.9847 C   0  0  1  0  0  0  0  0  0  0  0  0
   15.1665  -13.2152    8.9317 C   0  0  1  0  0  0  0  0  0  0  0  0
   16.6969  -13.3864    8.6309 C   0  0  0  0  0  0  0  0  0  0  0  0
   13.0701  -14.3634   11.1124 C   0  0  1  0  0  0  0  0  0  0  0  0
   13.2647  -15.7484   11.6534 C   0  0  1  0  0  0  0  0  0  0  0  0
   10.6093  -15.3346    3.0664 C   0  0  1  0  0  0  0  0  0  0  0  0
   13.2576  -15.6760   13.2216 C   0  0  0  0  0  0  0  0  0  0  0  0
   12.0446  -15.1666   13.7939 C   0  0  0  0  0  0  0  0  0  0  0  0
   11.8410  -13.8138   13.3212 C   0  0  2  0  0  0  0  0  0  0  0  0
   10.5107  -13.2007   13.9124 C   0  0  0  0  0  0  0  0  0  0  0  0
   12.6426   -4.9253    4.5159 C   0  0  2  0  0  0  0  0  0  0  0  0
   13.2296   -7.1331    3.9382 C   0  0  0  0  0  0  0  0  0  0  0  0
   12.9120   -3.7684    5.2223 C   0  0  0  0  0  0  0  0  0  0  0  0
   13.7091   -5.7570    4.6162 C   0  0  1  0  0  0  0  0  0  0  0  0
   11.3332  -16.4769    3.9143 C   0  0  0  0  0  0  0  0  0  0  0  0
   12.8631  -16.5598    3.4400 C   0  0  0  0  0  0  0  0  0  0  0  0
   13.5334  -15.1299    3.6894 C   0  0  1  0  0  0  0  0  0  0  0  0
   15.0033  -15.1033    3.2534 C   0  0  0  0  0  0  0  0  0  0  0  0
   12.9505   -9.5703    4.4948 C   0  0  1  0  0  0  0  0  0  0  0  0
   11.3482   -9.7260    4.6808 C   0  0  0  0  0  0  0  0  0  0  0  0
   10.8894  -11.1622    4.2174 C   0  0  2  0  0  0  0  0  0  0  0  0
   12.3108   -4.5904    3.1493 F   0  0  0  0  0  0  0  0  0  0  0  0
    9.2465  -14.0399   13.5690 N   0  0  0  0  0  0  0  0  0  0  0  0
    9.1600  -15.1678    3.4552 N   0  0  0  0  0  0  0  0  0  0  0  0
   12.2433  -16.6422   11.3193 N   0  0  0  0  0  0  0  0  0  0  0  0
   12.1911   -2.5573    5.3450 N   0  0  0  0  0  0  0  0  0  0  0  0
   15.1211  -15.2639    1.8565 N   0  0  0  0  0  0  0  0  0  0  0  0
   13.3490   -8.2157    4.9172 N   0  0  0  0  0  0  0  0  0  0  0  0
    9.4292  -11.3233    4.3936 N   0  0  0  0  0  0  0  0  0  0  0  0
   11.1743  -13.4995    4.5919 O   0  0  0  0  0  0  0  0  0  0  0  0
   13.7484  -13.1965    5.8086 O   0  0  0  0  0  0  0  0  0  0  0  0
   14.9835  -10.5707    5.3385 O   0  0  0  0  0  0  0  0  0  0  0  0
   12.8992  -15.6756    7.3638 O   0  0  0  0  0  0  0  0  0  0  0  0
   14.3550  -12.5084    7.9790 O   0  0  0  0  0  0  0  0  0  0  0  0
   16.8174  -13.8765    7.2805 O   0  0  0  0  0  0  0  0  0  0  0  0
   13.0084  -14.2975    9.7374 O   0  0  0  0  0  0  0  0  0  0  0  0
   14.8798   -5.2599    3.9318 O   0  0  0  0  0  0  0  0  0  0  0  0
   12.8125   -7.2385    2.7731 O   0  0  0  0  0  0  0  0  0  0  0  0
   11.8159  -13.7833   11.8111 O   0  0  0  0  0  0  0  0  0  0  0  0
   12.7776  -14.0648    2.9120 O   0  0  0  0  0  0  0  0  0  0  0  0
  1 36  1  1  0  0  0
  2 36  1  6  0  0  0
  2  3  1  0  0  0  0
  3 37  1  1  0  0  0
  3  4  1  0  0  0  0
  4 38  1  6  0  0  0
  5 37  1  6  0  0  0
  5  6  1  0  0  0  0
  6  7  1  0  0  0  0
  6 39  1  1  0  0  0
  7 42  1  1  0  0  0
  8  9  1  6  0  0  0
  8  7  1  0  0  0  0
 10 42  1  6  0  0  0
 10 11  1  0  0  0  0
 11 31  1  1  0  0  0
 11 13  1  0  0  0  0
 12 30  1  1  0  0  0
 12  1  1  0  0  0  0
 14 13  1  0  0  0  0
 15 16  1  1  0  0  0
 15 14  1  0  0  0  0
 17 19  1  1  0  0  0
 17 28  1  0  0  0  0
 18 34  1  0  0  0  0
 19 32  1  0  0  0  0
 20 18  1  6  0  0  0
 20 17  1  0  0  0  0
 20 43  1  0  0  0  0
 21 12  1  0  0  0  0
 22 21  1  0  0  0  0
 22 23  1  0  0  0  0
 23 24  1  6  0  0  0
 23 46  1  0  0  0  0
 24 33  1  0  0  0  0
 25 34  1  1  0  0  0
 25  4  1  0  0  0  0
 26 25  1  0  0  0  0
 27 35  1  1  0  0  0
 27 26  1  0  0  0  0
 27  2  1  0  0  0  0
 29 16  1  0  0  0  0
 40  8  1  0  0  0  0
 40  5  1  0  0  0  0
 41  9  1  0  0  0  0
 44 18  2  0  0  0  0
 45 15  1  0  0  0  0
 45 10  1  0  0  0  0
 46  1  1  0  0  0  0
M  END
>  <CHROM.1>
-174.77418134,-62.83052030,-58.54230786,162.85320097,162.79720007,66.41218147
-72.05313818,-57.70819692,174.10120026,-121.89219623,172.73266341,65.77137174
159.94549710,12.86120342,-12.09840717,6.57099714,-0.55466589,-1.53608372
-2.80135381

>  <Name>
lig.pdb

>  <RI>
0

>  <Rbt.Current_Directory>
/home/afrankz/demos/rdock_decoys_rna/rnas/3wru

>  <Rbt.Executable>
rbdock ($Id: //depot/dev/client3/rdock/2013.1/src/exe/rbdock.cxx#4 $)

>  <Rbt.Library>
libRbt.so (2013.1, Build901 2013/11/27)

>  <Rbt.Parameter_File>
/export/apps/rDock/src/rDock_2013.1_src/data/scripts/dock_solv.prm

>  <Rbt.Receptor>
prm/pocket_docking_6.prm

>  <SCORE>
-9.0411

>  <SCORE.INTER>
-3.72625

>  <SCORE.INTER.CONST>
1

>  <SCORE.INTER.POLAR>
0

>  <SCORE.INTER.ROT>
13

>  <SCORE.INTER.SOLV>
23.9515

>  <SCORE.INTER.VDW>
-22.7347

>  <SCORE.INTER.norm>
-0.0810054

>  <SCORE.INTRA>
-5.31484

>  <SCORE.INTRA.DIHEDRAL>
-12.5834

>  <SCORE.INTRA.DIHEDRAL.0>
19.7146

>  <SCORE.INTRA.POLAR>
0

>  <SCORE.INTRA.POLAR.0>
0

>  <SCORE.INTRA.REPUL>
0

>  <SCORE.INTRA.REPUL.0>
0

>  <SCORE.INTRA.SOLV>
-0.00988849

>  <SCORE.INTRA.SOLV.lig_0>
-116.697

>  <SCORE.INTRA.VDW>
0.981794

>  <SCORE.INTRA.VDW.0>
-7.06424

>  <SCORE.INTRA.norm>
-0.11554

>  <SCORE.RESTR>
0

>  <SCORE.RESTR.CAVITY>
0

>  <SCORE.RESTR.norm>
0

>  <SCORE.SYSTEM>
0

>  <SCORE.SYSTEM.CONST>
0

>  <SCORE.SYSTEM.DIHEDRAL>
0

>  <SCORE.SYSTEM.SOLV>
0

>  <SCORE.SYSTEM.norm>
0

>  <SCORE.heavy>
46

>  <SCORE.norm>
-0.196546

>  <RMSD>
7.076

$$$$
lig.pdb
 OpenBabel03061811583D
libRbt.so/2013.1/901 2013/11/27
 46 49  0  0  0  0  0  0  0  0999 V2000
   11.6271  -13.0830   12.1673 C   0  0  1  0  0  0  0  0  0  0  0  0
   11.4132  -13.9340    9.7928 C   0  0  1  0  0  0  0  0  0  0  0  0
   10.4613  -12.8133    9.2755 C   0  0  1  0  0  0  0  0  0  0  0  0
   10.6661  -12.6499    7.6836 C   0  0  2  0  0  0  0  0  0  0  0  0
    8.5348  -14.4456    9.5241 C   0  0  2  0  0  0  0  0  0  0  0  0
    7.0312  -14.4766    9.9202 C   0  0  1  0  0  0  0  0  0  0  0  0
    6.6343  -15.7027    9.1341 C   0  0  1  0  0  0  0  0  0  0  0  0
    7.2838  -15.5003    7.7283 C   0  0  1  0  0  0  0  0  0  0  0  0
    6.5078  -14.5894    6.7135 C   0  0  0  0  0  0  0  0  0  0  0  0
    6.9001  -18.1525    9.2425 C   0  0  1  0  0  0  0  0  0  0  0  0
    5.4911  -18.6217    9.4504 C   0  0  1  0  0  0  0  0  0  0  0  0
   11.5090  -13.6423   13.6048 C   0  0  1  0  0  0  0  0  0  0  0  0
    5.3331  -20.0342    8.7841 C   0  0  0  0  0  0  0  0  0  0  0  0
    6.1978  -21.0488    9.3147 C   0  0  0  0  0  0  0  0  0  0  0  0
    7.5714  -20.6465    9.0997 C   0  0  2  0  0  0  0  0  0  0  0  0
    8.5741  -21.7237    9.6735 C   0  0  0  0  0  0  0  0  0  0  0  0
   11.2423  -12.5832    3.0224 C   0  0  2  0  0  0  0  0  0  0  0  0
   12.1661  -13.1749    5.1079 C   0  0  0  0  0  0  0  0  0  0  0  0
   10.8155  -11.2914    3.2657 C   0  0  0  0  0  0  0  0  0  0  0  0
   12.4641  -12.7532    3.5859 C   0  0  1  0  0  0  0  0  0  0  0  0
    9.9905  -13.9745   13.9676 C   0  0  0  0  0  0  0  0  0  0  0  0
    9.1309  -12.6301   13.8059 C   0  0  0  0  0  0  0  0  0  0  0  0
    9.2774  -12.1315   12.2940 C   0  0  1  0  0  0  0  0  0  0  0  0
    8.4962  -10.8366   12.0404 C   0  0  0  0  0  0  0  0  0  0  0  0
   12.1676  -12.1929    7.4238 C   0  0  1  0  0  0  0  0  0  0  0  0
   13.1048  -13.4023    7.9575 C   0  0  0  0  0  0  0  0  0  0  0  0
   12.8985  -13.5989    9.5089 C   0  0  2  0  0  0  0  0  0  0  0  0
   11.2340  -12.8343    1.5989 F   0  0  0  0  0  0  0  0  0  0  0  0
   10.0667  -21.3160    9.5114 N   0  0  0  0  0  0  0  0  0  0  0  0
   12.3994  -14.8569   13.7112 N   0  0  0  0  0  0  0  0  0  0  0  0
    5.1403  -18.8033   10.7911 N   0  0  0  0  0  0  0  0  0  0  0  0
    9.6551  -10.5956    2.8526 N   0  0  0  0  0  0  0  0  0  0  0  0
    8.9584   -9.7942   12.8716 N   0  0  0  0  0  0  0  0  0  0  0  0
   12.3932  -12.0188    5.9777 N   0  0  0  0  0  0  0  0  0  0  0  0
   13.7393  -14.7093   10.0084 N   0  0  0  0  0  0  0  0  0  0  0  0
   11.2898  -14.0796   11.2017 O   0  0  0  0  0  0  0  0  0  0  0  0
    9.0630  -13.2476    9.6058 O   0  0  0  0  0  0  0  0  0  0  0  0
    9.8165  -11.6559    7.2520 O   0  0  0  0  0  0  0  0  0  0  0  0
    6.9463  -14.6334   11.3042 O   0  0  0  0  0  0  0  0  0  0  0  0
    8.5739  -15.0673    8.1910 O   0  0  0  0  0  0  0  0  0  0  0  0
    5.3114  -15.2959    6.3294 O   0  0  0  0  0  0  0  0  0  0  0  0
    7.1829  -16.9370    9.8268 O   0  0  0  0  0  0  0  0  0  0  0  0
   13.2459  -13.7820    2.9405 O   0  0  0  0  0  0  0  0  0  0  0  0
   11.7888  -14.3023    5.4674 O   0  0  0  0  0  0  0  0  0  0  0  0
    7.8270  -19.2953    9.7248 O   0  0  0  0  0  0  0  0  0  0  0  0
   10.7425  -11.8847   11.9734 O   0  0  0  0  0  0  0  0  0  0  0  0
  1 36  1  6  0  0  0
  2 36  1  1  0  0  0
  2  3  1  0  0  0  0
  3 37  1  6  0  0  0
  3  4  1  0  0  0  0
  4 38  1  1  0  0  0
  5 37  1  6  0  0  0
  5  6  1  0  0  0  0
  6  7  1  0  0  0  0
  6 39  1  1  0  0  0
  7 42  1  1  0  0  0
  8  9  1  6  0  0  0
  8  7  1  0  0  0  0
 10 42  1  1  0  0  0
 10 11  1  0  0  0  0
 11 31  1  1  0  0  0
 11 13  1  0  0  0  0
 12 30  1  6  0  0  0
 12  1  1  0  0  0  0
 14 13  1  0  0  0  0
 15 16  1  1  0  0  0
 15 14  1  0  0  0  0
 17 19  1  6  0  0  0
 17 28  1  0  0  0  0
 18 34  1  0  0  0  0
 19 32  1  0  0  0  0
 20 18  1  1  0  0  0
 20 17  1  0  0  0  0
 20 43  1  0  0  0  0
 21 12  1  0  0  0  0
 22 21  1  0  0  0  0
 22 23  1  0  0  0  0
 23 24  1  1  0  0  0
 23 46  1  0  0  0  0
 24 33  1  0  0  0  0
 25 34  1  6  0  0  0
 25  4  1  0  0  0  0
 26 25  1  0  0  0  0
 27 35  1  6  0  0  0
 27 26  1  0  0  0  0
 27  2  1  0  0  0  0
 29 16  1  0  0  0  0
 40  8  1  0  0  0  0
 40  5  1  0  0  0  0
 41  9  1  0  0  0  0
 44 18  2  0  0  0  0
 45 15  1  0  0  0  0
 45 10  1  0  0  0  0
 46  1  1  0  0  0  0
M  END
>  <CHROM.1>
-173.85248657,-63.99751478,-40.25654300,-178.26090379,179.45952967,-69.11559750
-75.34306861,-178.02763967,176.84501518,-102.83770519,86.09445506,60.16190211
-58.59672037,9.53408239,-14.65920923,8.73071746,-2.63247966,-0.99464182,-1.72184609

>  <Name>
lig.pdb

>  <RI>
0

>  <Rbt.Current_Directory>
/home/afrankz/demos/rdock_decoys_rna/rnas/3wru

>  <Rbt.Executable>
rbdock ($Id: //depot/dev/client3/rdock/2013.1/src/exe/rbdock.cxx#4 $)

>  <Rbt.Library>
libRbt.so (2013.1, Build901 2013/11/27)

>  <Rbt.Parameter_File>
/export/apps/rDock/src/rDock_2013.1_src/data/scripts/dock_solv.prm

>  <Rbt.Receptor>
prm/pocket_docking_6.prm

>  <SCORE>
-3.15064

>  <SCORE.INTER>
1.90639

>  <SCORE.INTER.CONST>
1

>  <SCORE.INTER.POLAR>
0

>  <SCORE.INTER.ROT>
13

>  <SCORE.INTER.SOLV>
23.8702

>  <SCORE.INTER.VDW>
-18.9525

>  <SCORE.INTER.norm>
0.0414433

>  <SCORE.INTRA>
-5.05703

>  <SCORE.INTRA.DIHEDRAL>
-11.9893

>  <SCORE.INTRA.DIHEDRAL.0>
19.7146

>  <SCORE.INTRA.POLAR>
0

>  <SCORE.INTRA.POLAR.0>
0

>  <SCORE.INTRA.REPUL>
0.0232939

>  <SCORE.INTRA.REPUL.0>
0

>  <SCORE.INTRA.SOLV>
-0.929409

>  <SCORE.INTRA.SOLV.lig_0>
-116.697

>  <SCORE.INTRA.VDW>
1.28585

>  <SCORE.INTRA.VDW.0>
-7.06424

>  <SCORE.INTRA.norm>
-0.109935

>  <SCORE.RESTR>
0

>  <SCORE.RESTR.CAVITY>
0

>  <SCORE.RESTR.norm>
0

>  <SCORE.SYSTEM>
0

>  <SCORE.SYSTEM.CONST>
0

>  <SCORE.SYSTEM.DIHEDRAL>
0

>  <SCORE.SYSTEM.SOLV>
0

>  <SCORE.SYSTEM.norm>
0

>  <SCORE.heavy>
46

>  <SCORE.norm>
-0.0684922

>  <RMSD>
7.093

$$$$
lig.pdb
 OpenBabel03061811583D
libRbt.so/2013.1/901 2013/11/27
 46 49  0  0  0  0  0  0  0  0999 V2000
   10.1053  -14.1842   13.3879 C   0  0  1  0  0  0  0  0  0  0  0  0
   11.5562  -15.3644   11.6820 C   0  0  1  0  0  0  0  0  0  0  0  0
   11.5303  -14.3494   10.4994 C   0  0  1  0  0  0  0  0  0  0  0  0
   12.9025  -14.4897    9.6626 C   0  0  2  0  0  0  0  0  0  0  0  0
   10.0298  -14.2728    8.4547 C   0  0  2  0  0  0  0  0  0  0  0  0
    8.8190  -15.0262    7.8342 C   0  0  1  0  0  0  0  0  0  0  0  0
    8.3672  -13.9451    6.8823 C   0  0  1  0  0  0  0  0  0  0  0  0
    8.3881  -12.6345    7.7313 C   0  0  1  0  0  0  0  0  0  0  0  0
    7.1418  -12.3616    8.6446 C   0  0  0  0  0  0  0  0  0  0  0  0
    9.3140  -12.7151    4.9654 C   0  0  1  0  0  0  0  0  0  0  0  0
    9.7028  -12.9094    3.5302 C   0  0  1  0  0  0  0  0  0  0  0  0
    8.6330  -14.2273   13.8611 C   0  0  1  0  0  0  0  0  0  0  0  0
    9.6847  -11.5118    2.8157 C   0  0  0  0  0  0  0  0  0  0  0  0
   10.5864  -10.5426    3.3690 C   0  0  0  0  0  0  0  0  0  0  0  0
   10.2191  -10.3016    4.7482 C   0  0  2  0  0  0  0  0  0  0  0  0
   11.1856   -9.2458    5.4162 C   0  0  0  0  0  0  0  0  0  0  0  0
   16.8026  -14.9839    7.1506 C   0  0  2  0  0  0  0  0  0  0  0  0
   15.6471  -15.4448    9.1519 C   0  0  0  0  0  0  0  0  0  0  0  0
   17.9918  -14.7612    6.4825 C   0  0  0  0  0  0  0  0  0  0  0  0
   17.0797  -15.3299    8.4324 C   0  0  1  0  0  0  0  0  0  0  0  0
    7.6348  -13.9041   12.6583 C   0  0  0  0  0  0  0  0  0  0  0  0
    8.0046  -12.4566   12.0752 C   0  0  0  0  0  0  0  0  0  0  0  0
    9.5244  -12.4990   11.5811 C   0  0  1  0  0  0  0  0  0  0  0  0
    9.9795  -11.1489   11.0140 C   0  0  0  0  0  0  0  0  0  0  0  0
   14.1091  -14.1073   10.6262 C   0  0  1  0  0  0  0  0  0  0  0  0
   14.0997  -15.2062   11.8171 C   0  0  0  0  0  0  0  0  0  0  0  0
   12.7524  -15.1061   12.6313 C   0  0  2  0  0  0  0  0  0  0  0  0
   16.0333  -15.9847    6.4464 F   0  0  0  0  0  0  0  0  0  0  0  0
   11.2510   -7.9002    4.6383 N   0  0  0  0  0  0  0  0  0  0  0  0
    8.3739  -15.5853   14.4678 N   0  0  0  0  0  0  0  0  0  0  0  0
   10.9988  -13.4009    3.3498 N   0  0  0  0  0  0  0  0  0  0  0  0
   19.0644  -13.8783    6.7499 N   0  0  0  0  0  0  0  0  0  0  0  0
   10.9926  -11.3203   10.0469 N   0  0  0  0  0  0  0  0  0  0  0  0
   15.3843  -14.2101    9.8942 N   0  0  0  0  0  0  0  0  0  0  0  0
   12.7242  -16.1130   13.7152 N   0  0  0  0  0  0  0  0  0  0  0  0
   10.3777  -15.2418   12.4679 O   0  0  0  0  0  0  0  0  0  0  0  0
   10.3376  -14.6975    9.6572 O   0  0  0  0  0  0  0  0  0  0  0  0
   12.8554  -13.5843    8.6262 O   0  0  0  0  0  0  0  0  0  0  0  0
    9.2953  -16.1776    7.2060 O   0  0  0  0  0  0  0  0  0  0  0  0
    9.6634  -12.8510    8.3579 O   0  0  0  0  0  0  0  0  0  0  0  0
    6.8466  -13.5858    9.3462 O   0  0  0  0  0  0  0  0  0  0  0  0
    9.3391  -13.8686    5.7187 O   0  0  0  0  0  0  0  0  0  0  0  0
   17.7798  -16.5887    8.5392 O   0  0  0  0  0  0  0  0  0  0  0  0
   14.8909  -16.4264    9.0670 O   0  0  0  0  0  0  0  0  0  0  0  0
   10.2248  -11.5958    5.5271 O   0  0  0  0  0  0  0  0  0  0  0  0
   10.4328  -12.8682   12.7423 O   0  0  0  0  0  0  0  0  0  0  0  0
  1 36  1  6  0  0  0
  2 36  1  1  0  0  0
  2  3  1  0  0  0  0
  3 37  1  6  0  0  0
  3  4  1  0  0  0  0
  4 38  1  6  0  0  0
  5 37  1  1  0  0  0
  5  6  1  0  0  0  0
  6  7  1  0  0  0  0
  6 39  1  6  0  0  0
  7 42  1  6  0  0  0
  8  9  1  1  0  0  0
  8  7  1  0  0  0  0
 10 42  1  1  0  0  0
 10 11  1  0  0  0  0
 11 31  1  1  0  0  0
 11 13  1  0  0  0  0
 12 30  1  6  0  0  0
 12  1  1  0  0  0  0
 14 13  1  0  0  0  0
 15 16  1  1  0  0  0
 15 14  1  0  0  0  0
 17 19  1  6  0  0  0
 17 28  1  0  0  0  0
 18 34  1  0  0  0  0
 19 32  1  0  0  0  0
 20 18  1  1  0  0  0
 20 17  1  0  0  0  0
 20 43  1  0  0  0  0
 21 12  1  0  0  0  0
 22 21  1  0  0  0  0
 22 23  1  0  0  0  0
 23 24  1  1  0  0  0
 23 46  1  0  0  0  0
 24 33  1  0  0  0  0
 25 34  1  6  0  0  0
 25  4  1  0  0  0  0
 26 25  1  0  0  0  0
 27 35  1  1  0  0  0
 27 26  1  0  0  0  0
 27  2  1  0  0  0  0
 29 16  1  0  0  0  0
 40  8  1  0  0  0  0
 40  5  1  0  0  0  0
 41  9  1  0  0  0  0
 44 18  2  0  0  0  0
 45 15  1  0  0  0  0
 45 10  1  0  0  0  0
 46  1  1  0  0  0  0
M  END
>  <CHROM.1>
169.25903300,-74.94167589,-167.74385601,171.47025856,-161.93259101,46.55651814
-150.45225550,55.68643404,-56.92054163,-98.98803772,175.38194737,-151.86289248
-50.34672477,11.50936932,-13.69938834,8.75175804,-2.59954030,0.31185805,-1.22017461

>  <Name>
lig.pdb

>  <RI>
0

>  <Rbt.Current_Directory>
/home/afrankz/demos/rdock_decoys_rna/rnas/3wru

>  <Rbt.Executable>
rbdock ($Id: //depot/dev/client3/rdock/2013.1/src/exe/rbdock.cxx#4 $)

>  <Rbt.Library>
libRbt.so (2013.1, Build901 2013/11/27)

>  <Rbt.Parameter_File>
/export/apps/rDock/src/rDock_2013.1_src/data/scripts/dock_solv.prm

>  <Rbt.Receptor>
prm/pocket_docking_8.prm

>  <SCORE>
-3.21178

>  <SCORE.INTER>
-3.15984

>  <SCORE.INTER.CONST>
1

>  <SCORE.INTER.POLAR>
0

>  <SCORE.INTER.ROT>
13

>  <SCORE.INTER.SOLV>
22.2511

>  <SCORE.INTER.VDW>
-21.7903

>  <SCORE.INTER.norm>
-0.0686923

>  <SCORE.INTRA>
-0.0519392

>  <SCORE.INTRA.DIHEDRAL>
-6.53584

>  <SCORE.INTRA.DIHEDRAL.0>
19.7146

>  <SCORE.INTRA.POLAR>
0

>  <SCORE.INTRA.POLAR.0>
0

>  <SCORE.INTRA.REPUL>
0

>  <SCORE.INTRA.REPUL.0>
0

>  <SCORE.INTRA.SOLV>
4.68973

>  <SCORE.INTRA.SOLV.lig_0>
-116.697

>  <SCORE.INTRA.VDW>
0.87112

>  <SCORE.INTRA.VDW.0>
-7.06424

>  <SCORE.INTRA.norm>
-0.00112911

>  <SCORE.RESTR>
0

>  <SCORE.RESTR.CAVITY>
0

>  <SCORE.RESTR.norm>
0

>  <SCORE.SYSTEM>
0

>  <SCORE.SYSTEM.CONST>
0

>  <SCORE.SYSTEM.DIHEDRAL>
0

>  <SCORE.SYSTEM.SOLV>
0

>  <SCORE.SYSTEM.norm>
0

>  <SCORE.heavy>
46

>  <SCORE.norm>
-0.0698214

>  <RMSD>
7.104

$$$$
lig.pdb
 OpenBabel03061811583D
libRbt.so/2013.1/901 2013/11/27
 46 49  0  0  0  0  0  0  0  0999 V2000
    8.4907  -15.6630   11.3362 C   0  0  1  0  0  0  0  0  0  0  0  0
   10.2827  -15.8500    9.5581 C   0  0  1  0  0  0  0  0  0  0  0  0
   10.7151  -14.3524    9.5576 C   0  0  1  0  0  0  0  0  0  0  0  0
   12.2506  -14.2540    9.0721 C   0  0  2  0  0  0  0  0  0  0  0  0
    9.7639  -13.6886    7.3009 C   0  0  2  0  0  0  0  0  0  0  0  0
    9.6676  -15.1398    6.7502 C   0  0  1  0  0  0  0  0  0  0  0  0
    9.0252  -14.8163    5.4229 C   0  0  1  0  0  0  0  0  0  0  0  0
    7.8813  -13.8112    5.7701 C   0  0  1  0  0  0  0  0  0  0  0  0
    6.5310  -14.4239    6.2828 C   0  0  0  0  0  0  0  0  0  0  0  0
   10.2472  -12.8255    4.6310 C   0  0  1  0  0  0  0  0  0  0  0  0
    9.4817  -12.0085    3.6332 C   0  0  1  0  0  0  0  0  0  0  0  0
    6.9885  -15.9947   11.4993 C   0  0  1  0  0  0  0  0  0  0  0  0
    9.8347  -10.4948    3.8534 C   0  0  0  0  0  0  0  0  0  0  0  0
   11.2226  -10.1714    3.6869 C   0  0  0  0  0  0  0  0  0  0  0  0
   11.9925  -10.9166    4.6600 C   0  0  2  0  0  0  0  0  0  0  0  0
   13.5352  -10.6079    4.5192 C   0  0  0  0  0  0  0  0  0  0  0  0
   16.7955  -13.5100    8.3483 C   0  0  2  0  0  0  0  0  0  0  0  0
   15.3444  -13.8051   10.1814 C   0  0  0  0  0  0  0  0  0  0  0  0
   18.0824  -13.2774    7.9011 C   0  0  0  0  0  0  0  0  0  0  0  0
   16.8503  -13.9354    9.6349 C   0  0  1  0  0  0  0  0  0  0  0  0
    6.0891  -15.0440   10.5854 C   0  0  0  0  0  0  0  0  0  0  0  0
    6.3859  -13.5233   10.9999 C   0  0  0  0  0  0  0  0  0  0  0  0
    7.9449  -13.2482   10.7769 C   0  0  1  0  0  0  0  0  0  0  0  0
    8.3332  -11.8148   11.1592 C   0  0  0  0  0  0  0  0  0  0  0  0
   13.1516  -15.0364   10.1242 C   0  0  1  0  0  0  0  0  0  0  0  0
   12.6743  -16.5837   10.0626 C   0  0  0  0  0  0  0  0  0  0  0  0
   11.1650  -16.6996   10.5061 C   0  0  2  0  0  0  0  0  0  0  0  0
   16.1407  -14.4503    7.4671 F   0  0  0  0  0  0  0  0  0  0  0  0
   14.4130  -11.4148    5.5185 N   0  0  0  0  0  0  0  0  0  0  0  0
    6.7912  -17.4549   11.1701 N   0  0  0  0  0  0  0  0  0  0  0  0
    9.8111  -12.2757    2.3014 N   0  0  0  0  0  0  0  0  0  0  0  0
   18.5714  -12.8130    6.6575 N   0  0  0  0  0  0  0  0  0  0  0  0
    7.7102  -10.8765   10.3093 N   0  0  0  0  0  0  0  0  0  0  0  0
   14.5679  -14.9591    9.7233 N   0  0  0  0  0  0  0  0  0  0  0  0
   10.7113  -18.1066   10.4427 N   0  0  0  0  0  0  0  0  0  0  0  0
    8.9444  -15.9805   10.0200 O   0  0  0  0  0  0  0  0  0  0  0  0
    9.7950  -13.6374    8.6115 O   0  0  0  0  0  0  0  0  0  0  0  0
   12.6079  -12.9242    9.0807 O   0  0  0  0  0  0  0  0  0  0  0  0
   10.9601  -15.6558    6.6483 O   0  0  0  0  0  0  0  0  0  0  0  0
    8.6414  -12.9815    6.6643 O   0  0  0  0  0  0  0  0  0  0  0  0
    6.8277  -15.7272    6.8227 O   0  0  0  0  0  0  0  0  0  0  0  0
   10.0606  -14.1854    4.5096 O   0  0  0  0  0  0  0  0  0  0  0  0
   17.2958  -15.3038    9.7592 O   0  0  0  0  0  0  0  0  0  0  0  0
   14.9288  -12.8744   10.8911 O   0  0  0  0  0  0  0  0  0  0  0  0
   11.7307  -12.3971    4.5147 O   0  0  0  0  0  0  0  0  0  0  0  0
    8.7633  -14.2133   11.6188 O   0  0  0  0  0  0  0  0  0  0  0  0
  1 36  1  6  0  0  0
  2 36  1  1  0  0  0
  2  3  1  0  0  0  0
  3 37  1  6  0  0  0
  3  4  1  0  0  0  0
  4 38  1  1  0  0  0
  5 37  1  1  0  0  0
  5  6  1  0  0  0  0
  6  7  1  0  0  0  0
  6 39  1  6  0  0  0
  7 42  1  6  0  0  0
  8  9  1  1  0  0  0
  8  7  1  0  0  0  0
 10 42  1  6  0  0  0
 10 11  1  0  0  0  0
 11 31  1  6  0  0  0
 11 13  1  0  0  0  0
 12 30  1  6  0  0  0
 12  1  1  0  0  0  0
 14 13  1  0  0  0  0
 15 16  1  6  0  0  0
 15 14  1  0  0  0  0
 17 19  1  6  0  0  0
 17 28  1  0  0  0  0
 18 34  1  0  0  0  0
 19 32  1  0  0  0  0
 20 18  1  6  0  0  0
 20 17  1  0  0  0  0
 20 43  1  0  0  0  0
 21 12  1  0  0  0  0
 22 21  1  0  0  0  0
 22 23  1  0  0  0  0
 23 24  1  1  0  0  0
 23 46  1  0  0  0  0
 24 33  1  0  0  0  0
 25 34  1  6  0  0  0
 25  4  1  0  0  0  0
 26 25  1  0  0  0  0
 27 35  1  6  0  0  0
 27 26  1  0  0  0  0
 27  2  1  0  0  0  0
 29 16  1  0  0  0  0
 40  8  1  0  0  0  0
 40  5  1  0  0  0  0
 41  9  1  0  0  0  0
 44 18  2  0  0  0  0
 45 15  1  0  0  0  0
 45 10  1  0  0  0  0
 46  1  1  0  0  0  0
M  END
>  <CHROM.1>
-177.23468669,-64.66316875,-72.57158512,53.36041333,-85.18139641,22.96358022
-96.64581536,-178.41906055,-179.08130172,80.18762491,165.50903912,-64.97288416
87.37789634,11.11684016,-13.91211224,8.04335292,-2.88014117,-0.05907246,-1.08838556

>  <Name>
lig.pdb

>  <RI>
0

>  <Rbt.Current_Directory>
/home/afrankz/demos/rdock_decoys_rna/rnas/3wru

>  <Rbt.Executable>
rbdock ($Id: //depot/dev/client3/rdock/2013.1/src/exe/rbdock.cxx#4 $)

>  <Rbt.Library>
libRbt.so (2013.1, Build901 2013/11/27)

>  <Rbt.Parameter_File>
/export/apps/rDock/src/rDock_2013.1_src/data/scripts/dock_solv.prm

>  <Rbt.Receptor>
prm/pocket_docking_4.prm

>  <SCORE>
1.43729

>  <SCORE.INTER>
0.475083

>  <SCORE.INTER.CONST>
1

>  <SCORE.INTER.POLAR>
0

>  <SCORE.INTER.ROT>
13

>  <SCORE.INTER.SOLV>
16.9496

>  <SCORE.INTER.VDW>
-17.5998

>  <SCORE.INTER.norm>
0.0103279

>  <SCORE.INTRA>
0.948123

>  <SCORE.INTRA.DIHEDRAL>
-4.88811

>  <SCORE.INTRA.DIHEDRAL.0>
19.7146

>  <SCORE.INTRA.POLAR>
0

>  <SCORE.INTRA.POLAR.0>
0

>  <SCORE.INTRA.REPUL>
0

>  <SCORE.INTRA.REPUL.0>
0

>  <SCORE.INTRA.SOLV>
0.324249

>  <SCORE.INTRA.SOLV.lig_0>
-116.697

>  <SCORE.INTRA.VDW>
3.23005

>  <SCORE.INTRA.VDW.0>
-7.06424

>  <SCORE.INTRA.norm>
0.0206114

>  <SCORE.RESTR>
0.0140867

>  <SCORE.RESTR.CAVITY>
0.0140867

>  <SCORE.RESTR.norm>
0.000306232

>  <SCORE.SYSTEM>
0

>  <SCORE.SYSTEM.CONST>
0

>  <SCORE.SYSTEM.DIHEDRAL>
0

>  <SCORE.SYSTEM.SOLV>
0

>  <SCORE.SYSTEM.norm>
0

>  <SCORE.heavy>
46

>  <SCORE.norm>
0.0312455

>  <RMSD>
7.126

$$$$
lig.pdb
 OpenBabel03061811583D
libRbt.so/2013.1/901 2013/11/27
 46 49  0  0  0  0  0  0  0  0999 V2000
    8.6685  -15.0261    5.4115 C   0  0  1  0  0  0  0  0  0  0  0  0
   10.3974  -13.5175    6.4806 C   0  0  1  0  0  0  0  0  0  0  0  0
   11.5437  -13.6529    5.4331 C   0  0  1  0  0  0  0  0  0  0  0  0
   12.4305  -12.3053    5.4544 C   0  0  2  0  0  0  0  0  0  0  0  0
   12.6301  -15.2890    7.0395 C   0  0  2  0  0  0  0  0  0  0  0  0
   13.9647  -16.0845    7.1092 C   0  0  1  0  0  0  0  0  0  0  0  0
   14.2676  -15.8548    8.5702 C   0  0  1  0  0  0  0  0  0  0  0  0
   14.0106  -14.3307    8.7940 C   0  0  1  0  0  0  0  0  0  0  0  0
   15.1679  -13.3504    8.3922 C   0  0  0  0  0  0  0  0  0  0  0  0
   13.3517  -16.4852   10.7719 C   0  0  1  0  0  0  0  0  0  0  0  0
   12.6728  -17.5531   11.5766 C   0  0  1  0  0  0  0  0  0  0  0  0
    7.9432  -16.3555    5.7276 C   0  0  1  0  0  0  0  0  0  0  0  0
   12.7217  -17.1424   13.0909 C   0  0  0  0  0  0  0  0  0  0  0  0
   12.0677  -15.9030   13.3985 C   0  0  0  0  0  0  0  0  0  0  0  0
   12.7204  -14.8395   12.6651 C   0  0  2  0  0  0  0  0  0  0  0  0
   12.0358  -13.4463   12.9570 C   0  0  0  0  0  0  0  0  0  0  0  0
   11.8620   -6.2747    4.4812 C   0  0  2  0  0  0  0  0  0  0  0  0
   11.5812   -8.6098    4.6284 C   0  0  0  0  0  0  0  0  0  0  0  0
   12.6233   -5.1554    4.7599 C   0  0  0  0  0  0  0  0  0  0  0  0
   12.6148   -7.3812    4.7011 C   0  0  1  0  0  0  0  0  0  0  0  0
    8.9671  -17.5801    5.7318 C   0  0  0  0  0  0  0  0  0  0  0  0
    9.6769  -17.6449    4.2950 C   0  0  0  0  0  0  0  0  0  0  0  0
   10.4268  -16.2537    4.0537 C   0  0  1  0  0  0  0  0  0  0  0  0
   11.1309  -16.2120    2.6921 C   0  0  0  0  0  0  0  0  0  0  0  0
   11.4958  -11.0928    5.0220 C   0  0  1  0  0  0  0  0  0  0  0  0
   10.3429  -10.9868    6.1558 C   0  0  0  0  0  0  0  0  0  0  0  0
    9.4808  -12.3076    6.1721 C   0  0  2  0  0  0  0  0  0  0  0  0
   11.3576   -6.1912    3.1291 F   0  0  0  0  0  0  0  0  0  0  0  0
   10.5528  -13.3852   12.4911 N   0  0  0  0  0  0  0  0  0  0  0  0
    7.2341  -16.2008    7.0515 N   0  0  0  0  0  0  0  0  0  0  0  0
   11.3166  -17.7174   11.2810 N   0  0  0  0  0  0  0  0  0  0  0  0
   13.7862   -4.6372    4.1431 N   0  0  0  0  0  0  0  0  0  0  0  0
   10.2161  -16.4340    1.6409 N   0  0  0  0  0  0  0  0  0  0  0  0
   12.2734   -9.8407    5.0157 N   0  0  0  0  0  0  0  0  0  0  0  0
    8.4311  -12.2302    7.2121 N   0  0  0  0  0  0  0  0  0  0  0  0
    9.5686  -14.6725    6.4623 O   0  0  0  0  0  0  0  0  0  0  0  0
   12.3564  -14.8493    5.8342 O   0  0  0  0  0  0  0  0  0  0  0  0
   13.4337  -12.4494    4.5223 O   0  0  0  0  0  0  0  0  0  0  0  0
   13.6986  -17.4150    6.7835 O   0  0  0  0  0  0  0  0  0  0  0  0
   12.7673  -14.2546    8.0769 O   0  0  0  0  0  0  0  0  0  0  0  0
   15.2946  -13.3999    6.9571 O   0  0  0  0  0  0  0  0  0  0  0  0
   13.3330  -16.7050    9.4117 O   0  0  0  0  0  0  0  0  0  0  0  0
   13.6550   -7.5619    3.7155 O   0  0  0  0  0  0  0  0  0  0  0  0
   10.3855   -8.5087    4.3079 O   0  0  0  0  0  0  0  0  0  0  0  0
   12.7085  -15.1384   11.1845 O   0  0  0  0  0  0  0  0  0  0  0  0
    9.4258  -15.1118    4.1173 O   0  0  0  0  0  0  0  0  0  0  0  0
  1 36  1  1  0  0  0
  2 36  1  6  0  0  0
  2  3  1  0  0  0  0
  3 37  1  1  0  0  0
  3  4  1  0  0  0  0
  4 38  1  6  0  0  0
  5 37  1  6  0  0  0
  5  6  1  0  0  0  0
  6  7  1  0  0  0  0
  6 39  1  1  0  0  0
  7 42  1  1  0  0  0
  8  9  1  6  0  0  0
  8  7  1  0  0  0  0
 10 42  1  6  0  0  0
 10 11  1  0  0  0  0
 11 31  1  6  0  0  0
 11 13  1  0  0  0  0
 12 30  1  1  0  0  0
 12  1  1  0  0  0  0
 14 13  1  0  0  0  0
 15 16  1  6  0  0  0
 15 14  1  0  0  0  0
 17 19  1  6  0  0  0
 17 28  1  0  0  0  0
 18 34  1  0  0  0  0
 19 32  1  0  0  0  0
 20 18  1  6  0  0  0
 20 17  1  0  0  0  0
 20 43  1  0  0  0  0
 21 12  1  0  0  0  0
 22 21  1  0  0  0  0
 22 23  1  0  0  0  0
 23 24  1  6  0  0  0
 23 46  1  0  0  0  0
 24 33  1  0  0  0  0
 25 34  1  1  0  0  0
 25  4  1  0  0  0  0
 26 25  1  0  0  0  0
 27 35  1  1  0  0  0
 27 26  1  0  0  0  0
 27  2  1  0  0  0  0
 29 16  1  0  0  0  0
 40  8  1  0  0  0  0
 40  5  1  0  0  0  0
 41  9  1  0  0  0  0
 44 18  2  0  0  0  0
 45 15  1  0  0  0  0
 45 10  1  0  0  0  0
 46  1  1  0  0  0  0
M  END
>  <CHROM.1>
179.42011294,-70.55754877,-34.59281855,-152.95492822,-171.63755150,67.53650027
-166.05119508,-62.96813385,65.01037301,-173.17755621,169.48455405,57.69014342
179.44236725,11.72795428,-13.37771273,6.89355389,1.57862009,1.09601435,2.54457434

>  <Name>
lig.pdb

>  <RI>
0

>  <Rbt.Current_Directory>
/home/afrankz/demos/rdock_decoys_rna/rnas/3wru

>  <Rbt.Executable>
rbdock ($Id: //depot/dev/client3/rdock/2013.1/src/exe/rbdock.cxx#4 $)

>  <Rbt.Library>
libRbt.so (2013.1, Build901 2013/11/27)

>  <Rbt.Parameter_File>
/export/apps/rDock/src/rDock_2013.1_src/data/scripts/dock_solv.prm

>  <Rbt.Receptor>
prm/pocket_docking_5.prm

>  <SCORE>
-3.39209

>  <SCORE.INTER>
-0.729248

>  <SCORE.INTER.CONST>
1

>  <SCORE.INTER.POLAR>
0

>  <SCORE.INTER.ROT>
13

>  <SCORE.INTER.SOLV>
17.682

>  <SCORE.INTER.VDW>
-18.6468

>  <SCORE.INTER.norm>
-0.0158532

>  <SCORE.INTRA>
-2.66284

>  <SCORE.INTRA.DIHEDRAL>
-10.3489

>  <SCORE.INTRA.DIHEDRAL.0>
19.7146

>  <SCORE.INTRA.POLAR>
0

>  <SCORE.INTRA.POLAR.0>
0

>  <SCORE.INTRA.REPUL>
0

>  <SCORE.INTRA.REPUL.0>
0

>  <SCORE.INTRA.SOLV>
1.02534

>  <SCORE.INTRA.SOLV.lig_0>
-116.697

>  <SCORE.INTRA.VDW>
1.99894

>  <SCORE.INTRA.VDW.0>
-7.06424

>  <SCORE.INTRA.norm>
-0.0578878

>  <SCORE.RESTR>
0

>  <SCORE.RESTR.CAVITY>
0

>  <SCORE.RESTR.norm>
0

>  <SCORE.SYSTEM>
0

>  <SCORE.SYSTEM.CONST>
0

>  <SCORE.SYSTEM.DIHEDRAL>
0

>  <SCORE.SYSTEM.SOLV>
0

>  <SCORE.SYSTEM.norm>
0

>  <SCORE.heavy>
46

>  <SCORE.norm>
-0.073741

>  <RMSD>
7.128

$$$$
lig.pdb
 OpenBabel03061811583D
libRbt.so/2013.1/901 2013/11/27
 46 49  0  0  0  0  0  0  0  0999 V2000
   11.1386  -10.7477    4.1416 C   0  0  1  0  0  0  0  0  0  0  0  0
    9.6708  -12.3244    5.4710 C   0  0  1  0  0  0  0  0  0  0  0  0
    8.7682  -12.2535    6.7399 C   0  0  1  0  0  0  0  0  0  0  0  0
    8.2256  -13.7352    7.0764 C   0  0  2  0  0  0  0  0  0  0  0  0
    9.8458  -12.2332    9.0369 C   0  0  2  0  0  0  0  0  0  0  0  0
   11.0823  -11.6140    9.7485 C   0  0  1  0  0  0  0  0  0  0  0  0
   10.6666  -11.8975   11.1718 C   0  0  1  0  0  0  0  0  0  0  0  0
    9.1667  -11.4676   11.2403 C   0  0  1  0  0  0  0  0  0  0  0  0
    8.8761   -9.9403   11.4516 C   0  0  0  0  0  0  0  0  0  0  0  0
    9.7680  -14.0207   12.0482 C   0  0  1  0  0  0  0  0  0  0  0  0
   10.1409  -15.2629   12.8011 C   0  0  1  0  0  0  0  0  0  0  0  0
   12.5481  -11.0894    4.6801 C   0  0  1  0  0  0  0  0  0  0  0  0
    8.8302  -15.9117   13.3716 C   0  0  0  0  0  0  0  0  0  0  0  0
    7.8677  -16.2939   12.3786 C   0  0  0  0  0  0  0  0  0  0  0  0
    7.4560  -15.1114   11.6523 C   0  0  2  0  0  0  0  0  0  0  0  0
    6.3996  -15.4715   10.5347 C   0  0  0  0  0  0  0  0  0  0  0  0
    6.5851  -17.9336    7.9645 C   0  0  2  0  0  0  0  0  0  0  0  0
    7.7715  -16.6417    6.3908 C   0  0  0  0  0  0  0  0  0  0  0  0
    5.7981  -19.0311    8.2582 C   0  0  0  0  0  0  0  0  0  0  0  0
    6.9756  -18.0103    6.6680 C   0  0  1  0  0  0  0  0  0  0  0  0
   12.9545  -10.1177    5.8794 C   0  0  0  0  0  0  0  0  0  0  0  0
   12.8997   -8.6077    5.3418 C   0  0  0  0  0  0  0  0  0  0  0  0
   11.4117   -8.3207    4.8325 C   0  0  1  0  0  0  0  0  0  0  0  0
   11.2593   -6.8968    4.2842 C   0  0  0  0  0  0  0  0  0  0  0  0
    7.3341  -14.2237    5.8528 C   0  0  1  0  0  0  0  0  0  0  0  0
    8.3274  -14.3005    4.5747 C   0  0  0  0  0  0  0  0  0  0  0  0
    8.8932  -12.8653    4.2456 C   0  0  2  0  0  0  0  0  0  0  0  0
    7.6950  -17.8741    8.8888 F   0  0  0  0  0  0  0  0  0  0  0  0
    5.0250  -15.9137   11.1138 N   0  0  0  0  0  0  0  0  0  0  0  0
   12.5534  -12.5409    5.0954 N   0  0  0  0  0  0  0  0  0  0  0  0
   10.7321  -16.2542   12.0130 N   0  0  0  0  0  0  0  0  0  0  0  0
    6.0979  -20.4130    8.3019 N   0  0  0  0  0  0  0  0  0  0  0  0
   12.1448   -6.6695    3.2094 N   0  0  0  0  0  0  0  0  0  0  0  0
    6.8065  -15.5724    6.1268 N   0  0  0  0  0  0  0  0  0  0  0  0
    9.8124  -12.9221    3.0875 N   0  0  0  0  0  0  0  0  0  0  0  0
   10.1362  -11.0279    5.1192 O   0  0  0  0  0  0  0  0  0  0  0  0
    9.6251  -11.7191    7.8503 O   0  0  0  0  0  0  0  0  0  0  0  0
    7.4324  -13.6457    8.1984 O   0  0  0  0  0  0  0  0  0  0  0  0
   12.2189  -12.3107    9.3362 O   0  0  0  0  0  0  0  0  0  0  0  0
    8.7513  -12.0808   10.0085 O   0  0  0  0  0  0  0  0  0  0  0  0
    9.6180   -9.5182   12.6133 O   0  0  0  0  0  0  0  0  0  0  0  0
   10.8328  -13.3799   11.4529 O   0  0  0  0  0  0  0  0  0  0  0  0
    7.8396  -19.1372    6.4037 O   0  0  0  0  0  0  0  0  0  0  0  0
    9.0079  -16.5262    6.4166 O   0  0  0  0  0  0  0  0  0  0  0  0
    8.6564  -14.4219   11.0476 O   0  0  0  0  0  0  0  0  0  0  0  0
   11.0449   -9.3051    3.7341 O   0  0  0  0  0  0  0  0  0  0  0  0
  1 36  1  1  0  0  0
  2 36  1  6  0  0  0
  2  3  1  0  0  0  0
  3 37  1  1  0  0  0
  3  4  1  0  0  0  0
  4 38  1  1  0  0  0
  5 37  1  6  0  0  0
  5  6  1  0  0  0  0
  6  7  1  0  0  0  0
  6 39  1  6  0  0  0
  7 42  1  6  0  0  0
  8  9  1  6  0  0  0
  8  7  1  0  0  0  0
 10 42  1  6  0  0  0
 10 11  1  0  0  0  0
 11 31  1  6  0  0  0
 11 13  1  0  0  0  0
 12 30  1  1  0  0  0
 12  1  1  0  0  0  0
 14 13  1  0  0  0  0
 15 16  1  6  0  0  0
 15 14  1  0  0  0  0
 17 19  1  1  0  0  0
 17 28  1  0  0  0  0
 18 34  1  0  0  0  0
 19 32  1  0  0  0  0
 20 18  1  1  0  0  0
 20 17  1  0  0  0  0
 20 43  1  0  0  0  0
 21 12  1  0  0  0  0
 22 21  1  0  0  0  0
 22 23  1  0  0  0  0
 23 24  1  6  0  0  0
 23 46  1  0  0  0  0
 24 33  1  0  0  0  0
 25 34  1  1  0  0  0
 25  4  1  0  0  0  0
 26 25  1  0  0  0  0
 27 35  1  6  0  0  0
 27 26  1  0  0  0  0
 27  2  1  0  0  0  0
 29 16  1  0  0  0  0
 40  8  1  0  0  0  0
 40  5  1  0  0  0  0
 41  9  1  0  0  0  0
 44 18  2  0  0  0  0
 45 15  1  0  0  0  0
 45 10  1  0  0  0  0
 46  1  1  0  0  0  0
M  END
>  <CHROM.1>
-75.07129369,169.96757820,-126.17632990,163.76124220,-131.57775261,-52.94912105
-156.08719183,68.93836202,65.01018811,-80.96479827,175.32249954,58.94251028
-57.98479165,9.27496367,-13.44288768,8.02243979,0.50614933,-1.08624384,-1.58858377

>  <Name>
lig.pdb

>  <RI>
0

>  <Rbt.Current_Directory>
/home/afrankz/demos/rdock_decoys_rna/rnas/3wru

>  <Rbt.Executable>
rbdock ($Id: //depot/dev/client3/rdock/2013.1/src/exe/rbdock.cxx#4 $)

>  <Rbt.Library>
libRbt.so (2013.1, Build901 2013/11/27)

>  <Rbt.Parameter_File>
/export/apps/rDock/src/rDock_2013.1_src/data/scripts/dock_solv.prm

>  <Rbt.Receptor>
prm/pocket_docking_6.prm

>  <SCORE>
0.826876

>  <SCORE.INTER>
-5.22104

>  <SCORE.INTER.CONST>
1

>  <SCORE.INTER.POLAR>
0

>  <SCORE.INTER.ROT>
13

>  <SCORE.INTER.SOLV>
20.0112

>  <SCORE.INTER.VDW>
-22.4178

>  <SCORE.INTER.norm>
-0.113501

>  <SCORE.INTRA>
6.04792

>  <SCORE.INTRA.DIHEDRAL>
1.07807

>  <SCORE.INTRA.DIHEDRAL.0>
19.7146

>  <SCORE.INTRA.POLAR>
0

>  <SCORE.INTRA.POLAR.0>
0

>  <SCORE.INTRA.REPUL>
0

>  <SCORE.INTRA.REPUL.0>
0

>  <SCORE.INTRA.SOLV>
4.83971

>  <SCORE.INTRA.SOLV.lig_0>
-116.697

>  <SCORE.INTRA.VDW>
3.08903

>  <SCORE.INTRA.VDW.0>
-7.06424

>  <SCORE.INTRA.norm>
0.131476

>  <SCORE.RESTR>
0

>  <SCORE.RESTR.CAVITY>
0

>  <SCORE.RESTR.norm>
0

>  <SCORE.SYSTEM>
0

>  <SCORE.SYSTEM.CONST>
0

>  <SCORE.SYSTEM.DIHEDRAL>
0

>  <SCORE.SYSTEM.SOLV>
0

>  <SCORE.SYSTEM.norm>
0

>  <SCORE.heavy>
46

>  <SCORE.norm>
0.0179756

>  <RMSD>
7.142

$$$$
lig.pdb
 OpenBabel03061811583D
libRbt.so/2013.1/901 2013/11/27
 46 49  0  0  0  0  0  0  0  0999 V2000
   13.1367  -12.9823    9.9052 C   0  0  1  0  0  0  0  0  0  0  0  0
   12.4660  -13.5118    7.5224 C   0  0  1  0  0  0  0  0  0  0  0  0
   11.2043  -12.5981    7.5763 C   0  0  1  0  0  0  0  0  0  0  0  0
   10.8148  -12.1588    6.0736 C   0  0  2  0  0  0  0  0  0  0  0  0
    9.6627  -14.5923    7.8677 C   0  0  2  0  0  0  0  0  0  0  0  0
    8.4377  -15.0471    8.7110 C   0  0  1  0  0  0  0  0  0  0  0  0
    7.8365  -16.0005    7.7068 C   0  0  1  0  0  0  0  0  0  0  0  0
    7.8725  -15.2246    6.3519 C   0  0  1  0  0  0  0  0  0  0  0  0
    6.7109  -14.2032    6.0890 C   0  0  0  0  0  0  0  0  0  0  0  0
    8.4650  -18.1980    8.6339 C   0  0  1  0  0  0  0  0  0  0  0  0
    9.4614  -19.3187    8.6460 C   0  0  1  0  0  0  0  0  0  0  0  0
   13.9193  -13.6858   11.0391 C   0  0  1  0  0  0  0  0  0  0  0  0
    9.0574  -20.3321    9.7748 C   0  0  0  0  0  0  0  0  0  0  0  0
    7.7600  -20.9235    9.6148 C   0  0  0  0  0  0  0  0  0  0  0  0
    6.7654  -19.8721    9.6340 C   0  0  2  0  0  0  0  0  0  0  0  0
    5.3120  -20.4632    9.4520 C   0  0  0  0  0  0  0  0  0  0  0  0
    9.9507   -8.2424    2.3252 C   0  0  2  0  0  0  0  0  0  0  0  0
   10.8622   -9.6887    3.9470 C   0  0  0  0  0  0  0  0  0  0  0  0
   10.8383   -7.1841    2.3725 C   0  0  0  0  0  0  0  0  0  0  0  0
   10.6507   -9.4027    2.3796 C   0  0  1  0  0  0  0  0  0  0  0  0
   13.0229  -14.7998   11.7486 C   0  0  0  0  0  0  0  0  0  0  0  0
   11.7028  -14.0912   12.3208 C   0  0  0  0  0  0  0  0  0  0  0  0
   10.9353  -13.4154   11.0919 C   0  0  1  0  0  0  0  0  0  0  0  0
    9.6572  -12.6970   11.5409 C   0  0  0  0  0  0  0  0  0  0  0  0
   12.0230  -11.3119    5.4786 C   0  0  1  0  0  0  0  0  0  0  0  0
   13.2933  -12.3166    5.4248 C   0  0  0  0  0  0  0  0  0  0  0  0
   13.6735  -12.7822    6.8831 C   0  0  2  0  0  0  0  0  0  0  0  0
    9.1287   -8.1307    1.1413 F   0  0  0  0  0  0  0  0  0  0  0  0
    4.9358  -21.5058   10.5436 N   0  0  0  0  0  0  0  0  0  0  0  0
   15.1842  -14.2622   10.4498 N   0  0  0  0  0  0  0  0  0  0  0  0
    9.4925  -20.0698    7.4677 N   0  0  0  0  0  0  0  0  0  0  0  0
   11.6962   -6.7275    3.4005 N   0  0  0  0  0  0  0  0  0  0  0  0
    9.9550  -11.6316   12.4168 N   0  0  0  0  0  0  0  0  0  0  0  0
   11.7009  -10.8785    4.1071 N   0  0  0  0  0  0  0  0  0  0  0  0
   14.8250  -13.7108    6.8485 N   0  0  0  0  0  0  0  0  0  0  0  0
   12.8640  -13.8872    8.8346 O   0  0  0  0  0  0  0  0  0  0  0  0
   10.1112  -13.4080    8.2104 O   0  0  0  0  0  0  0  0  0  0  0  0
    9.7002  -11.3538    6.1482 O   0  0  0  0  0  0  0  0  0  0  0  0
    8.9093  -15.6625    9.8712 O   0  0  0  0  0  0  0  0  0  0  0  0
    9.2136  -14.7219    6.4725 O   0  0  0  0  0  0  0  0  0  0  0  0
    5.4734  -14.9421    6.1201 O   0  0  0  0  0  0  0  0  0  0  0  0
    8.6819  -17.2599    7.6482 O   0  0  0  0  0  0  0  0  0  0  0  0
    9.9534  -10.5125    1.7726 O   0  0  0  0  0  0  0  0  0  0  0  0
   10.3940   -8.9910    4.8616 O   0  0  0  0  0  0  0  0  0  0  0  0
    7.0618  -18.8490    8.5628 O   0  0  0  0  0  0  0  0  0  0  0  0
   11.8445  -12.4065   10.4095 O   0  0  0  0  0  0  0  0  0  0  0  0
  1 36  1  6  0  0  0
  2 36  1  1  0  0  0
  2  3  1  0  0  0  0
  3 37  1  6  0  0  0
  3  4  1  0  0  0  0
  4 38  1  1  0  0  0
  5 37  1  1  0  0  0
  5  6  1  0  0  0  0
  6  7  1  0  0  0  0
  6 39  1  1  0  0  0
  7 42  1  6  0  0  0
  8  9  1  1  0  0  0
  8  7  1  0  0  0  0
 10 42  1  6  0  0  0
 10 11  1  0  0  0  0
 11 31  1  6  0  0  0
 11 13  1  0  0  0  0
 12 30  1  6  0  0  0
 12  1  1  0  0  0  0
 14 13  1  0  0  0  0
 15 16  1  6  0  0  0
 15 14  1  0  0  0  0
 17 19  1  6  0  0  0
 17 28  1  0  0  0  0
 18 34  1  0  0  0  0
 19 32  1  0  0  0  0
 20 18  1  1  0  0  0
 20 17  1  0  0  0  0
 20 43  1  0  0  0  0
 21 12  1  0  0  0  0
 22 21  1  0  0  0  0
 22 23  1  0  0  0  0
 23 24  1  1  0  0  0
 23 46  1  0  0  0  0
 24 33  1  0  0  0  0
 25 34  1  6  0  0  0
 25  4  1  0  0  0  0
 26 25  1  0  0  0  0
 27 35  1  6  0  0  0
 27 26  1  0  0  0  0
 27  2  1  0  0  0  0
 29 16  1  0  0  0  0
 40  8  1  0  0  0  0
 40  5  1  0  0  0  0
 41  9  1  0  0  0  0
 44 18  2  0  0  0  0
 45 15  1  0  0  0  0
 45 10  1  0  0  0  0
 46  1  1  0  0  0  0
M  END
>  <CHROM.1>
-163.70939995,-54.42339464,-53.76618581,-175.43875276,81.10392251,-59.83130967
-171.33562473,58.21207350,-66.84084418,-175.80642570,85.91134797,62.96447805
81.76622898,10.10395866,-13.96102627,7.45967529,-1.22765310,0.69006745,2.36233559

>  <Name>
lig.pdb

>  <RI>
0

>  <Rbt.Current_Directory>
/home/afrankz/demos/rdock_decoys_rna/rnas/3wru

>  <Rbt.Executable>
rbdock ($Id: //depot/dev/client3/rdock/2013.1/src/exe/rbdock.cxx#4 $)

>  <Rbt.Library>
libRbt.so (2013.1, Build901 2013/11/27)

>  <Rbt.Parameter_File>
/export/apps/rDock/src/rDock_2013.1_src/data/scripts/dock_solv.prm

>  <Rbt.Receptor>
prm/pocket_docking_4.prm

>  <SCORE>
-3.7802

>  <SCORE.INTER>
0.0468799

>  <SCORE.INTER.CONST>
1

>  <SCORE.INTER.POLAR>
0

>  <SCORE.INTER.ROT>
13

>  <SCORE.INTER.SOLV>
16.2786

>  <SCORE.INTER.VDW>
-17.6616

>  <SCORE.INTER.norm>
0.00101913

>  <SCORE.INTRA>
-3.8367

>  <SCORE.INTRA.DIHEDRAL>
-12.3117

>  <SCORE.INTRA.DIHEDRAL.0>
19.7146

>  <SCORE.INTRA.POLAR>
0

>  <SCORE.INTRA.POLAR.0>
0

>  <SCORE.INTRA.REPUL>
0

>  <SCORE.INTRA.REPUL.0>
0

>  <SCORE.INTRA.SOLV>
1.70608

>  <SCORE.INTRA.SOLV.lig_0>
-116.697

>  <SCORE.INTRA.VDW>
1.46612

>  <SCORE.INTRA.VDW.0>
-7.06424

>  <SCORE.INTRA.norm>
-0.0834065

>  <SCORE.RESTR>
0.00962162

>  <SCORE.RESTR.CAVITY>
0.00962162

>  <SCORE.RESTR.norm>
0.000209166

>  <SCORE.SYSTEM>
0

>  <SCORE.SYSTEM.CONST>
0

>  <SCORE.SYSTEM.DIHEDRAL>
0

>  <SCORE.SYSTEM.SOLV>
0

>  <SCORE.SYSTEM.norm>
0

>  <SCORE.heavy>
46

>  <SCORE.norm>
-0.0821782

>  <RMSD>
7.161

$$$$
lig.pdb
 OpenBabel03061811583D
libRbt.so/2013.1/901 2013/11/27
 46 49  0  0  0  0  0  0  0  0999 V2000
   10.9237  -19.8379    9.6131 C   0  0  1  0  0  0  0  0  0  0  0  0
   12.8343  -18.7927    8.3227 C   0  0  1  0  0  0  0  0  0  0  0  0
   13.9419  -18.8471    9.4182 C   0  0  1  0  0  0  0  0  0  0  0  0
   15.0393  -17.7064    9.1061 C   0  0  2  0  0  0  0  0  0  0  0  0
   12.6139  -17.5392   11.1397 C   0  0  2  0  0  0  0  0  0  0  0  0
   12.8797  -17.1975   12.6335 C   0  0  1  0  0  0  0  0  0  0  0  0
   12.5798  -15.7196   12.5653 C   0  0  1  0  0  0  0  0  0  0  0  0
   13.3272  -15.2215   11.2877 C   0  0  1  0  0  0  0  0  0  0  0  0
   14.8580  -14.9116   11.4376 C   0  0  0  0  0  0  0  0  0  0  0  0
   10.6231  -14.2214   12.4635 C   0  0  1  0  0  0  0  0  0  0  0  0
   10.8815  -13.4983   13.7517 C   0  0  1  0  0  0  0  0  0  0  0  0
   10.0992  -21.1468    9.5932 C   0  0  1  0  0  0  0  0  0  0  0  0
   10.2602  -12.0603   13.6489 C   0  0  0  0  0  0  0  0  0  0  0  0
    8.8430  -12.0328   13.4271 C   0  0  0  0  0  0  0  0  0  0  0  0
    8.5571  -12.6926   12.1709 C   0  0  2  0  0  0  0  0  0  0  0  0
    7.0055  -12.7020   11.8756 C   0  0  0  0  0  0  0  0  0  0  0  0
   19.3515  -16.3362    5.8426 C   0  0  2  0  0  0  0  0  0  0  0  0
   18.1341  -17.3893    7.5636 C   0  0  0  0  0  0  0  0  0  0  0  0
   18.3216  -15.8239    5.0765 C   0  0  0  0  0  0  0  0  0  0  0  0
   19.0601  -16.1416    7.1528 C   0  0  1  0  0  0  0  0  0  0  0  0
    9.1607  -21.2135    8.3038 C   0  0  0  0  0  0  0  0  0  0  0  0
    8.1965  -19.9319    8.3188 C   0  0  0  0  0  0  0  0  0  0  0  0
    9.1163  -18.6243    8.3082 C   0  0  1  0  0  0  0  0  0  0  0  0
    8.2821  -17.3379    8.3339 C   0  0  0  0  0  0  0  0  0  0  0  0
   15.7070  -18.0358    7.7002 C   0  0  1  0  0  0  0  0  0  0  0  0
   14.5174  -17.9411    6.6039 C   0  0  0  0  0  0  0  0  0  0  0  0
   13.4174  -19.0300    6.9076 C   0  0  2  0  0  0  0  0  0  0  0  0
   20.5999  -15.7272    5.4424 F   0  0  0  0  0  0  0  0  0  0  0  0
    6.1811  -13.4456   12.9655 N   0  0  0  0  0  0  0  0  0  0  0  0
   11.0607  -22.3090    9.6592 N   0  0  0  0  0  0  0  0  0  0  0  0
   10.2775  -14.0838   14.8678 N   0  0  0  0  0  0  0  0  0  0  0  0
   18.1216  -15.7949    3.6763 N   0  0  0  0  0  0  0  0  0  0  0  0
    7.4991  -17.2175    7.1662 N   0  0  0  0  0  0  0  0  0  0  0  0
   16.7282  -17.0215    7.3828 N   0  0  0  0  0  0  0  0  0  0  0  0
   12.3177  -18.9470    5.9211 N   0  0  0  0  0  0  0  0  0  0  0  0
   11.8680  -19.8123    8.5422 O   0  0  0  0  0  0  0  0  0  0  0  0
   13.2607  -18.6059   10.7337 O   0  0  0  0  0  0  0  0  0  0  0  0
   16.0049  -17.7753   10.0854 O   0  0  0  0  0  0  0  0  0  0  0  0
   11.9830  -17.9267   13.4154 O   0  0  0  0  0  0  0  0  0  0  0  0
   12.9264  -16.2946   10.4196 O   0  0  0  0  0  0  0  0  0  0  0  0
   15.3329  -14.4592   10.1539 O   0  0  0  0  0  0  0  0  0  0  0  0
   11.0798  -15.5213   12.4439 O   0  0  0  0  0  0  0  0  0  0  0  0
   20.2339  -16.1094    7.9940 O   0  0  0  0  0  0  0  0  0  0  0  0
   18.5621  -18.4878    7.9546 O   0  0  0  0  0  0  0  0  0  0  0  0
    9.1057  -14.1000   12.1800 O   0  0  0  0  0  0  0  0  0  0  0  0
   10.0343  -18.6312    9.5195 O   0  0  0  0  0  0  0  0  0  0  0  0
  1 36  1  6  0  0  0
  2 36  1  1  0  0  0
  2  3  1  0  0  0  0
  3 37  1  1  0  0  0
  3  4  1  0  0  0  0
  4 38  1  1  0  0  0
  5 37  1  6  0  0  0
  5  6  1  0  0  0  0
  6  7  1  0  0  0  0
  6 39  1  1  0  0  0
  7 42  1  6  0  0  0
  8  9  1  1  0  0  0
  8  7  1  0  0  0  0
 10 42  1  1  0  0  0
 10 11  1  0  0  0  0
 11 31  1  1  0  0  0
 11 13  1  0  0  0  0
 12 30  1  6  0  0  0
 12  1  1  0  0  0  0
 14 13  1  0  0  0  0
 15 16  1  1  0  0  0
 15 14  1  0  0  0  0
 17 19  1  6  0  0  0
 17 28  1  0  0  0  0
 18 34  1  0  0  0  0
 19 32  1  0  0  0  0
 20 18  1  1  0  0  0
 20 17  1  0  0  0  0
 20 43  1  0  0  0  0
 21 12  1  0  0  0  0
 22 21  1  0  0  0  0
 22 23  1  0  0  0  0
 23 24  1  1  0  0  0
 23 46  1  0  0  0  0
 24 33  1  0  0  0  0
 25 34  1  6  0  0  0
 25  4  1  0  0  0  0
 26 25  1  0  0  0  0
 27 35  1  6  0  0  0
 27 26  1  0  0  0  0
 27  2  1  0  0  0  0
 29 16  1  0  0  0  0
 40  8  1  0  0  0  0
 40  5  1  0  0  0  0
 41  9  1  0  0  0  0
 44 18  2  0  0  0  0
 45 15  1  0  0  0  0
 45 10  1  0  0  0  0
 46  1  1  0  0  0  0
M  END
>  <CHROM.1>
-175.95106207,70.13743341,-62.82074897,-140.58534331,175.61838111,-179.42303853
-63.75665917,-60.22123837,-178.57605627,-92.40661579,84.76396934,-64.10211070
103.05568148,12.92951652,-16.82126599,9.62315473,2.69251539,0.33559987,0.64053578

>  <Name>
lig.pdb

>  <RI>
0

>  <Rbt.Current_Directory>
/home/afrankz/demos/rdock_decoys_rna/rnas/3wru

>  <Rbt.Executable>
rbdock ($Id: //depot/dev/client3/rdock/2013.1/src/exe/rbdock.cxx#4 $)

>  <Rbt.Library>
libRbt.so (2013.1, Build901 2013/11/27)

>  <Rbt.Parameter_File>
/export/apps/rDock/src/rDock_2013.1_src/data/scripts/dock_solv.prm

>  <Rbt.Receptor>
prm/pocket_docking_6.prm

>  <SCORE>
-2.3303

>  <SCORE.INTER>
2.04618

>  <SCORE.INTER.CONST>
1

>  <SCORE.INTER.POLAR>
0

>  <SCORE.INTER.ROT>
13

>  <SCORE.INTER.SOLV>
19.5612

>  <SCORE.INTER.VDW>
-17.423

>  <SCORE.INTER.norm>
0.0444822

>  <SCORE.INTRA>
-4.37648

>  <SCORE.INTRA.DIHEDRAL>
-8.91578

>  <SCORE.INTRA.DIHEDRAL.0>
19.7146

>  <SCORE.INTRA.POLAR>
0

>  <SCORE.INTRA.POLAR.0>
0

>  <SCORE.INTRA.REPUL>
0.0033778

>  <SCORE.INTRA.REPUL.0>
0

>  <SCORE.INTRA.SOLV>
-1.44667

>  <SCORE.INTRA.SOLV.lig_0>
-116.697

>  <SCORE.INTRA.VDW>
0.787857

>  <SCORE.INTRA.VDW.0>
-7.06424

>  <SCORE.INTRA.norm>
-0.0951408

>  <SCORE.RESTR>
0

>  <SCORE.RESTR.CAVITY>
0

>  <SCORE.RESTR.norm>
0

>  <SCORE.SYSTEM>
0

>  <SCORE.SYSTEM.CONST>
0

>  <SCORE.SYSTEM.DIHEDRAL>
0

>  <SCORE.SYSTEM.SOLV>
0

>  <SCORE.SYSTEM.norm>
0

>  <SCORE.heavy>
46

>  <SCORE.norm>
-0.0506586

>  <RMSD>
7.163

$$$$
lig.pdb
 OpenBabel03061811583D
libRbt.so/2013.1/901 2013/11/27
 46 49  0  0  0  0  0  0  0  0999 V2000
   11.8049  -13.5284    2.9780 C   0  0  1  0  0  0  0  0  0  0  0  0
   10.5398  -11.6167    4.0518 C   0  0  1  0  0  0  0  0  0  0  0  0
   11.6076  -11.1758    5.0984 C   0  0  1  0  0  0  0  0  0  0  0  0
   11.4095   -9.6063    5.4149 C   0  0  2  0  0  0  0  0  0  0  0  0
   10.2839  -12.1692    7.0216 C   0  0  2  0  0  0  0  0  0  0  0  0
    9.4285  -13.3791    6.5493 C   0  0  1  0  0  0  0  0  0  0  0  0
    8.7055  -13.6423    7.8481 C   0  0  1  0  0  0  0  0  0  0  0  0
    9.8194  -13.5840    8.9413 C   0  0  1  0  0  0  0  0  0  0  0  0
   10.6782  -14.8808    9.1479 C   0  0  0  0  0  0  0  0  0  0  0  0
    6.7200  -12.7979    9.0431 C   0  0  1  0  0  0  0  0  0  0  0  0
    6.9958  -12.0965   10.3396 C   0  0  1  0  0  0  0  0  0  0  0  0
   11.7103  -15.0703    2.8949 C   0  0  1  0  0  0  0  0  0  0  0  0
    5.8830  -12.5000   11.3707 C   0  0  0  0  0  0  0  0  0  0  0  0
    5.8109  -13.9039   11.6580 C   0  0  0  0  0  0  0  0  0  0  0  0
    5.5098  -14.6132   10.4327 C   0  0  2  0  0  0  0  0  0  0  0  0
    5.4265  -16.1703   10.6849 C   0  0  0  0  0  0  0  0  0  0  0  0
   12.0268   -4.4488    3.3232 C   0  0  2  0  0  0  0  0  0  0  0  0
   12.6991   -6.5115    4.2433 C   0  0  0  0  0  0  0  0  0  0  0  0
   10.7192   -4.7373    2.9809 C   0  0  0  0  0  0  0  0  0  0  0  0
   12.2885   -4.9862    4.5405 C   0  0  1  0  0  0  0  0  0  0  0  0
   11.9030  -15.7347    4.3333 C   0  0  0  0  0  0  0  0  0  0  0  0
   13.3298  -15.2807    4.9081 C   0  0  0  0  0  0  0  0  0  0  0  0
   13.3406  -13.6843    4.9929 C   0  0  1  0  0  0  0  0  0  0  0  0
   14.6759  -13.1485    5.5231 C   0  0  0  0  0  0  0  0  0  0  0  0
   11.6611   -8.7962    4.0690 C   0  0  1  0  0  0  0  0  0  0  0  0
   10.5119   -9.2772    3.0327 C   0  0  0  0  0  0  0  0  0  0  0  0
   10.6692  -10.8175    2.7314 C   0  0  2  0  0  0  0  0  0  0  0  0
   12.2336   -3.0189    3.2778 F   0  0  0  0  0  0  0  0  0  0  0  0
    6.7745  -16.7847   11.1600 N   0  0  0  0  0  0  0  0  0  0  0  0
   10.3803  -15.4268    2.2757 N   0  0  0  0  0  0  0  0  0  0  0  0
    8.2053  -12.4578   10.9398 N   0  0  0  0  0  0  0  0  0  0  0  0
    9.9516   -4.3923    1.8437 N   0  0  0  0  0  0  0  0  0  0  0  0
   14.9336  -13.6271    6.8252 N   0  0  0  0  0  0  0  0  0  0  0  0
   11.5024   -7.3522    4.3186 N   0  0  0  0  0  0  0  0  0  0  0  0
    9.6179  -11.2740    1.7955 N   0  0  0  0  0  0  0  0  0  0  0  0
   10.7089  -12.9881    3.7171 O   0  0  0  0  0  0  0  0  0  0  0  0
   11.3836  -12.0137    6.3234 O   0  0  0  0  0  0  0  0  0  0  0  0
   12.3627   -9.2420    6.3394 O   0  0  0  0  0  0  0  0  0  0  0  0
    8.6001  -12.9507    5.5113 O   0  0  0  0  0  0  0  0  0  0  0  0
   10.4736  -12.3970    8.4629 O   0  0  0  0  0  0  0  0  0  0  0  0
   11.3652  -15.1436    7.9081 O   0  0  0  0  0  0  0  0  0  0  0  0
    7.6596  -12.5634    8.0629 O   0  0  0  0  0  0  0  0  0  0  0  0
   13.3661   -4.3188    5.2331 O   0  0  0  0  0  0  0  0  0  0  0  0
   13.8506   -6.8940    3.9781 O   0  0  0  0  0  0  0  0  0  0  0  0
    6.5433  -14.2996    9.3767 O   0  0  0  0  0  0  0  0  0  0  0  0
   13.0944  -13.0941    3.6140 O   0  0  0  0  0  0  0  0  0  0  0  0
  1 36  1  1  0  0  0
  2 36  1  6  0  0  0
  2  3  1  0  0  0  0
  3 37  1  1  0  0  0
  3  4  1  0  0  0  0
  4 38  1  1  0  0  0
  5 37  1  6  0  0  0
  5  6  1  0  0  0  0
  6  7  1  0  0  0  0
  6 39  1  6  0  0  0
  7 42  1  1  0  0  0
  8  9  1  6  0  0  0
  8  7  1  0  0  0  0
 10 42  1  6  0  0  0
 10 11  1  0  0  0  0
 11 31  1  1  0  0  0
 11 13  1  0  0  0  0
 12 30  1  1  0  0  0
 12  1  1  0  0  0  0
 14 13  1  0  0  0  0
 15 16  1  1  0  0  0
 15 14  1  0  0  0  0
 17 19  1  1  0  0  0
 17 28  1  0  0  0  0
 18 34  1  0  0  0  0
 19 32  1  0  0  0  0
 20 18  1  6  0  0  0
 20 17  1  0  0  0  0
 20 43  1  0  0  0  0
 21 12  1  0  0  0  0
 22 21  1  0  0  0  0
 22 23  1  0  0  0  0
 23 24  1  6  0  0  0
 23 46  1  0  0  0  0
 24 33  1  0  0  0  0
 25 34  1  1  0  0  0
 25  4  1  0  0  0  0
 26 25  1  0  0  0  0
 27 35  1  6  0  0  0
 27 26  1  0  0  0  0
 27  2  1  0  0  0  0
 29 16  1  0  0  0  0
 40  8  1  0  0  0  0
 40  5  1  0  0  0  0
 41  9  1  0  0  0  0
 44 18  2  0  0  0  0
 45 15  1  0  0  0  0
 45 10  1  0  0  0  0
 46  1  1  0  0  0  0
M  END
>  <CHROM.1>
175.76189966,-69.05964627,-54.81479155,91.87381590,166.59756352,61.70618807
100.15868650,-63.27175329,178.66195564,-91.96391460,84.62136954,-60.77766735
111.66386630,10.44203861,-11.43522511,6.06207946,-0.93751877,-0.83761773
3.01952764

>  <Name>
lig.pdb

>  <RI>
0

>  <Rbt.Current_Directory>
/home/afrankz/demos/rdock_decoys_rna/rnas/3wru

>  <Rbt.Executable>
rbdock ($Id: //depot/dev/client3/rdock/2013.1/src/exe/rbdock.cxx#4 $)

>  <Rbt.Library>
libRbt.so (2013.1, Build901 2013/11/27)

>  <Rbt.Parameter_File>
/export/apps/rDock/src/rDock_2013.1_src/data/scripts/dock_solv.prm

>  <Rbt.Receptor>
prm/pocket_docking_5.prm

>  <SCORE>
-1.46947

>  <SCORE.INTER>
-1.42753

>  <SCORE.INTER.CONST>
1

>  <SCORE.INTER.POLAR>
0

>  <SCORE.INTER.ROT>
13

>  <SCORE.INTER.SOLV>
21.3125

>  <SCORE.INTER.VDW>
-20.3225

>  <SCORE.INTER.norm>
-0.0310332

>  <SCORE.INTRA>
-0.041943

>  <SCORE.INTRA.DIHEDRAL>
-4.08579

>  <SCORE.INTRA.DIHEDRAL.0>
19.7146

>  <SCORE.INTRA.POLAR>
0

>  <SCORE.INTRA.POLAR.0>
0

>  <SCORE.INTRA.REPUL>
0

>  <SCORE.INTRA.REPUL.0>
0

>  <SCORE.INTRA.SOLV>
2.59156

>  <SCORE.INTRA.SOLV.lig_0>
-116.697

>  <SCORE.INTRA.VDW>
0.705174

>  <SCORE.INTRA.VDW.0>
-7.06424

>  <SCORE.INTRA.norm>
-0.000911804

>  <SCORE.RESTR>
0

>  <SCORE.RESTR.CAVITY>
0

>  <SCORE.RESTR.norm>
0

>  <SCORE.SYSTEM>
0

>  <SCORE.SYSTEM.CONST>
0

>  <SCORE.SYSTEM.DIHEDRAL>
0

>  <SCORE.SYSTEM.SOLV>
0

>  <SCORE.SYSTEM.norm>
0

>  <SCORE.heavy>
46

>  <SCORE.norm>
-0.031945

>  <RMSD>
7.168

$$$$
lig.pdb
 OpenBabel03061811583D
libRbt.so/2013.1/901 2013/11/27
 46 49  0  0  0  0  0  0  0  0999 V2000
   10.6230  -15.5195   10.6207 C   0  0  1  0  0  0  0  0  0  0  0  0
   12.2860  -16.2311    8.8499 C   0  0  1  0  0  0  0  0  0  0  0  0
   12.4933  -14.8193    8.2226 C   0  0  1  0  0  0  0  0  0  0  0  0
   13.9536  -14.7623    7.5391 C   0  0  2  0  0  0  0  0  0  0  0  0
   11.4121  -13.8960    6.1210 C   0  0  2  0  0  0  0  0  0  0  0  0
   11.5711  -14.7292    4.8175 C   0  0  1  0  0  0  0  0  0  0  0  0
   10.9134  -13.7573    3.8680 C   0  0  1  0  0  0  0  0  0  0  0  0
    9.6107  -13.3056    4.6015 C   0  0  1  0  0  0  0  0  0  0  0  0
    8.3702  -14.2604    4.4954 C   0  0  0  0  0  0  0  0  0  0  0  0
   11.3459  -11.3290    3.8791 C   0  0  1  0  0  0  0  0  0  0  0  0
   10.2864  -10.8861    2.9146 C   0  0  1  0  0  0  0  0  0  0  0  0
    9.2951  -16.0420   11.2183 C   0  0  1  0  0  0  0  0  0  0  0  0
    9.8522   -9.4246    3.2885 C   0  0  0  0  0  0  0  0  0  0  0  0
   10.9058   -8.4522    3.2330 C   0  0  0  0  0  0  0  0  0  0  0  0
   11.9343   -8.8281    4.1796 C   0  0  2  0  0  0  0  0  0  0  0  0
   13.1298   -7.7961    4.1573 C   0  0  0  0  0  0  0  0  0  0  0  0
   18.2806  -13.6018    5.8928 C   0  0  2  0  0  0  0  0  0  0  0  0
   16.9743  -13.5881    7.8540 C   0  0  0  0  0  0  0  0  0  0  0  0
   19.5240  -13.4613    5.3062 C   0  0  0  0  0  0  0  0  0  0  0  0
   18.4440  -13.7679    7.2289 C   0  0  1  0  0  0  0  0  0  0  0  0
    8.0852  -15.8292   10.1992 C   0  0  0  0  0  0  0  0  0  0  0  0
    7.9827  -14.2645    9.8624 C   0  0  0  0  0  0  0  0  0  0  0  0
    9.3751  -13.8067    9.2239 C   0  0  1  0  0  0  0  0  0  0  0  0
    9.3816  -12.3132    8.8764 C   0  0  0  0  0  0  0  0  0  0  0  0
   15.0412  -14.9688    8.6816 C   0  0  1  0  0  0  0  0  0  0  0  0
   14.7920  -16.4552    9.2769 C   0  0  0  0  0  0  0  0  0  0  0  0
   13.3567  -16.5419    9.9251 C   0  0  2  0  0  0  0  0  0  0  0  0
   17.5726  -14.6960    5.2675 F   0  0  0  0  0  0  0  0  0  0  0  0
   12.7450   -6.4034    4.7339 N   0  0  0  0  0  0  0  0  0  0  0  0
    9.4837  -17.4945   11.5842 N   0  0  0  0  0  0  0  0  0  0  0  0
   10.7147  -10.8168    1.5860 N   0  0  0  0  0  0  0  0  0  0  0  0
   20.5929  -12.5755    5.5790 N   0  0  0  0  0  0  0  0  0  0  0  0
   10.6917  -11.7902    8.9098 N   0  0  0  0  0  0  0  0  0  0  0  0
   16.3940  -14.9101    8.0993 N   0  0  0  0  0  0  0  0  0  0  0  0
   13.1100  -17.8984   10.4621 N   0  0  0  0  0  0  0  0  0  0  0  0
   11.0228  -16.3062    9.4981 O   0  0  0  0  0  0  0  0  0  0  0  0
   11.4052  -14.6345    7.2053 O   0  0  0  0  0  0  0  0  0  0  0  0
   14.1121  -13.5078    6.9939 O   0  0  0  0  0  0  0  0  0  0  0  0
   12.9334  -14.9218    4.5847 O   0  0  0  0  0  0  0  0  0  0  0  0
   10.2019  -13.0903    5.8938 O   0  0  0  0  0  0  0  0  0  0  0  0
    7.3881  -13.7965    5.4432 O   0  0  0  0  0  0  0  0  0  0  0  0
   11.8493  -12.5867    3.6269 O   0  0  0  0  0  0  0  0  0  0  0  0
   18.9647  -15.0694    7.5771 O   0  0  0  0  0  0  0  0  0  0  0  0
   16.4395  -12.4940    8.0978 O   0  0  0  0  0  0  0  0  0  0  0  0
   12.4311  -10.2245    3.8884 O   0  0  0  0  0  0  0  0  0  0  0  0
   10.5051  -14.0818   10.2025 O   0  0  0  0  0  0  0  0  0  0  0  0
  1 36  1  6  0  0  0
  2 36  1  1  0  0  0
  2  3  1  0  0  0  0
  3 37  1  6  0  0  0
  3  4  1  0  0  0  0
  4 38  1  1  0  0  0
  5 37  1  1  0  0  0
  5  6  1  0  0  0  0
  6  7  1  0  0  0  0
  6 39  1  6  0  0  0
  7 42  1  1  0  0  0
  8  9  1  1  0  0  0
  8  7  1  0  0  0  0
 10 42  1  6  0  0  0
 10 11  1  0  0  0  0
 11 31  1  6  0  0  0
 11 13  1  0  0  0  0
 12 30  1  6  0  0  0
 12  1  1  0  0  0  0
 14 13  1  0  0  0  0
 15 16  1  6  0  0  0
 15 14  1  0  0  0  0
 17 19  1  6  0  0  0
 17 28  1  0  0  0  0
 18 34  1  0  0  0  0
 19 32  1  0  0  0  0
 20 18  1  1  0  0  0
 20 17  1  0  0  0  0
 20 43  1  0  0  0  0
 21 12  1  0  0  0  0
 22 21  1  0  0  0  0
 22 23  1  0  0  0  0
 23 24  1  1  0  0  0
 23 46  1  0  0  0  0
 24 33  1  0  0  0  0
 25 34  1  6  0  0  0
 25  4  1  0  0  0  0
 26 25  1  0  0  0  0
 27 35  1  6  0  0  0
 27 26  1  0  0  0  0
 27  2  1  0  0  0  0
 29 16  1  0  0  0  0
 40  8  1  0  0  0  0
 40  5  1  0  0  0  0
 41  9  1  0  0  0  0
 44 18  2  0  0  0  0
 45 15  1  0  0  0  0
 45 10  1  0  0  0  0
 46  1  1  0  0  0  0
M  END
>  <CHROM.1>
-169.69401439,-62.97430027,-152.57025778,104.77287052,-125.02124448,168.82568419
-69.15283263,69.06801960,-53.97491676,99.01784557,167.58638279,152.96217669
81.42242599,12.58710673,-13.48147714,6.79266485,-2.76462676,0.06787151,-0.80993564

>  <Name>
lig.pdb

>  <RI>
0

>  <Rbt.Current_Directory>
/home/afrankz/demos/rdock_decoys_rna/rnas/3wru

>  <Rbt.Executable>
rbdock ($Id: //depot/dev/client3/rdock/2013.1/src/exe/rbdock.cxx#4 $)

>  <Rbt.Library>
libRbt.so (2013.1, Build901 2013/11/27)

>  <Rbt.Parameter_File>
/export/apps/rDock/src/rDock_2013.1_src/data/scripts/dock_solv.prm

>  <Rbt.Receptor>
prm/pocket_docking_4.prm

>  <SCORE>
11.3458

>  <SCORE.INTER>
5.71792

>  <SCORE.INTER.CONST>
1

>  <SCORE.INTER.POLAR>
0

>  <SCORE.INTER.ROT>
13

>  <SCORE.INTER.SOLV>
20.2025

>  <SCORE.INTER.VDW>
-15.1889

>  <SCORE.INTER.norm>
0.124303

>  <SCORE.INTRA>
5.62788

>  <SCORE.INTRA.DIHEDRAL>
3.54048

>  <SCORE.INTRA.DIHEDRAL.0>
19.7146

>  <SCORE.INTRA.POLAR>
0

>  <SCORE.INTRA.POLAR.0>
0

>  <SCORE.INTRA.REPUL>
0

>  <SCORE.INTRA.REPUL.0>
0

>  <SCORE.INTRA.SOLV>
3.06946

>  <SCORE.INTRA.SOLV.lig_0>
-116.697

>  <SCORE.INTRA.VDW>
2.32292

>  <SCORE.INTRA.VDW.0>
-7.06424

>  <SCORE.INTRA.norm>
0.122345

>  <SCORE.RESTR>
0

>  <SCORE.RESTR.CAVITY>
0

>  <SCORE.RESTR.norm>
0

>  <SCORE.SYSTEM>
0

>  <SCORE.SYSTEM.CONST>
0

>  <SCORE.SYSTEM.DIHEDRAL>
0

>  <SCORE.SYSTEM.SOLV>
0

>  <SCORE.SYSTEM.norm>
0

>  <SCORE.heavy>
46

>  <SCORE.norm>
0.246648

>  <RMSD>
7.190

$$$$
lig.pdb
 OpenBabel03061811583D
libRbt.so/2013.1/901 2013/11/27
 46 49  0  0  0  0  0  0  0  0999 V2000
    9.3360  -14.4498    9.7481 C   0  0  1  0  0  0  0  0  0  0  0  0
   11.7909  -14.6928    9.1802 C   0  0  1  0  0  0  0  0  0  0  0  0
   12.1032  -13.2494    8.6814 C   0  0  1  0  0  0  0  0  0  0  0  0
   13.3704  -13.3057    7.6845 C   0  0  2  0  0  0  0  0  0  0  0  0
   10.5131  -12.9481    6.7272 C   0  0  2  0  0  0  0  0  0  0  0  0
   10.4478  -14.4506    6.3313 C   0  0  1  0  0  0  0  0  0  0  0  0
    9.4543  -14.3250    5.2017 C   0  0  1  0  0  0  0  0  0  0  0  0
    8.3289  -13.3996    5.7639 C   0  0  1  0  0  0  0  0  0  0  0  0
    7.2349  -14.0786    6.6605 C   0  0  0  0  0  0  0  0  0  0  0  0
    9.9280  -12.3517    3.7998 C   0  0  1  0  0  0  0  0  0  0  0  0
    9.9554  -11.9345    2.3597 C   0  0  1  0  0  0  0  0  0  0  0  0
    8.4291  -14.5135   10.9997 C   0  0  1  0  0  0  0  0  0  0  0  0
    9.7571  -10.3789    2.2879 C   0  0  0  0  0  0  0  0  0  0  0  0
   10.7623   -9.6133    2.9677 C   0  0  0  0  0  0  0  0  0  0  0  0
   10.7419   -9.9638    4.3718 C   0  0  2  0  0  0  0  0  0  0  0  0
   11.8375   -9.1567    5.1737 C   0  0  0  0  0  0  0  0  0  0  0  0
   17.2334  -12.9859    5.1249 C   0  0  2  0  0  0  0  0  0  0  0  0
   16.4914  -12.6277    7.3326 C   0  0  0  0  0  0  0  0  0  0  0  0
   18.2633  -13.2031    4.2292 C   0  0  0  0  0  0  0  0  0  0  0  0
   17.7491  -12.9278    6.3779 C   0  0  1  0  0  0  0  0  0  0  0  0
    8.3900  -15.9902   11.6045 C   0  0  0  0  0  0  0  0  0  0  0  0
    7.8592  -16.9851   10.4640 C   0  0  0  0  0  0  0  0  0  0  0  0
    8.8596  -16.8865    9.2209 C   0  0  1  0  0  0  0  0  0  0  0  0
    8.4282  -17.7979    8.0657 C   0  0  0  0  0  0  0  0  0  0  0  0
   14.6238  -13.8340    8.5094 C   0  0  1  0  0  0  0  0  0  0  0  0
   14.2514  -15.3396    8.9790 C   0  0  0  0  0  0  0  0  0  0  0  0
   12.9954  -15.3108    9.9327 C   0  0  2  0  0  0  0  0  0  0  0  0
   16.2333  -14.0182    4.9703 F   0  0  0  0  0  0  0  0  0  0  0  0
   11.7535   -7.6202    4.9445 N   0  0  0  0  0  0  0  0  0  0  0  0
    8.9353  -13.5014   11.9990 N   0  0  0  0  0  0  0  0  0  0  0  0
   11.1703  -12.1831    1.7147 N   0  0  0  0  0  0  0  0  0  0  0  0
   19.4932  -12.5310    4.0363 N   0  0  0  0  0  0  0  0  0  0  0  0
    7.1310  -17.4698    7.6178 N   0  0  0  0  0  0  0  0  0  0  0  0
   15.8096  -13.8878    7.6356 N   0  0  0  0  0  0  0  0  0  0  0  0
   12.6357  -16.6811   10.3597 N   0  0  0  0  0  0  0  0  0  0  0  0
   10.7024  -14.6778   10.0948 O   0  0  0  0  0  0  0  0  0  0  0  0
   10.8723  -12.7607    7.9750 O   0  0  0  0  0  0  0  0  0  0  0  0
   13.6258  -12.0212    7.2590 O   0  0  0  0  0  0  0  0  0  0  0  0
   11.7220  -14.8529    5.9290 O   0  0  0  0  0  0  0  0  0  0  0  0
    9.1911  -12.4162    6.3602 O   0  0  0  0  0  0  0  0  0  0  0  0
    6.5535  -13.0291    7.3763 O   0  0  0  0  0  0  0  0  0  0  0  0
   10.1415  -13.6979    4.0022 O   0  0  0  0  0  0  0  0  0  0  0  0
   18.3855  -14.1589    6.7848 O   0  0  0  0  0  0  0  0  0  0  0  0
   16.1739  -11.5016    7.7493 O   0  0  0  0  0  0  0  0  0  0  0  0
   10.9434  -11.4508    4.5450 O   0  0  0  0  0  0  0  0  0  0  0  0
    8.9120  -15.4542    8.7150 O   0  0  0  0  0  0  0  0  0  0  0  0
  1 36  1  1  0  0  0
  2 36  1  1  0  0  0
  2  3  1  0  0  0  0
  3 37  1  6  0  0  0
  3  4  1  0  0  0  0
  4 38  1  1  0  0  0
  5 37  1  1  0  0  0
  5  6  1  0  0  0  0
  6  7  1  0  0  0  0
  6 39  1  6  0  0  0
  7 42  1  6  0  0  0
  8  9  1  1  0  0  0
  8  7  1  0  0  0  0
 10 42  1  6  0  0  0
 10 11  1  0  0  0  0
 11 31  1  1  0  0  0
 11 13  1  0  0  0  0
 12 30  1  1  0  0  0
 12  1  1  0  0  0  0
 14 13  1  0  0  0  0
 15 16  1  1  0  0  0
 15 14  1  0  0  0  0
 17 19  1  6  0  0  0
 17 28  1  0  0  0  0
 18 34  1  0  0  0  0
 19 32  1  0  0  0  0
 20 18  1  1  0  0  0
 20 17  1  0  0  0  0
 20 43  1  0  0  0  0
 21 12  1  0  0  0  0
 22 21  1  0  0  0  0
 22 23  1  0  0  0  0
 23 24  1  6  0  0  0
 23 46  1  0  0  0  0
 24 33  1  0  0  0  0
 25 34  1  6  0  0  0
 25  4  1  0  0  0  0
 26 25  1  0  0  0  0
 27 35  1  6  0  0  0
 27 26  1  0  0  0  0
 27  2  1  0  0  0  0
 29 16  1  0  0  0  0
 40  8  1  0  0  0  0
 40  5  1  0  0  0  0
 41  9  1  0  0  0  0
 44 18  2  0  0  0  0
 45 15  1  0  0  0  0
 45 10  1  0  0  0  0
 46  1  1  0  0  0  0
M  END
>  <CHROM.1>
179.70054532,72.02987336,-85.17630253,55.61656133,-99.94596845,163.39843311
-148.91933984,52.53278087,-51.89554874,83.24219414,178.22896338,58.82080923
77.23757731,11.74819377,-13.48774334,6.89210597,-2.60114737,-0.01887200,-0.93392726

>  <Name>
lig.pdb

>  <RI>
0

>  <Rbt.Current_Directory>
/home/afrankz/demos/rdock_decoys_rna/rnas/3wru

>  <Rbt.Executable>
rbdock ($Id: //depot/dev/client3/rdock/2013.1/src/exe/rbdock.cxx#4 $)

>  <Rbt.Library>
libRbt.so (2013.1, Build901 2013/11/27)

>  <Rbt.Parameter_File>
/export/apps/rDock/src/rDock_2013.1_src/data/scripts/dock_solv.prm

>  <Rbt.Receptor>
prm/pocket_docking_3.prm

>  <SCORE>
4.09432

>  <SCORE.INTER>
2.6202

>  <SCORE.INTER.CONST>
1

>  <SCORE.INTER.POLAR>
0

>  <SCORE.INTER.ROT>
13

>  <SCORE.INTER.SOLV>
22.2537

>  <SCORE.INTER.VDW>
-17.9378

>  <SCORE.INTER.norm>
0.0569608

>  <SCORE.INTRA>
1.46273

>  <SCORE.INTRA.DIHEDRAL>
-3.96493

>  <SCORE.INTRA.DIHEDRAL.0>
19.7146

>  <SCORE.INTRA.POLAR>
0

>  <SCORE.INTRA.POLAR.0>
0

>  <SCORE.INTRA.REPUL>
0

>  <SCORE.INTRA.REPUL.0>
0

>  <SCORE.INTRA.SOLV>
1.86781

>  <SCORE.INTRA.SOLV.lig_0>
-116.697

>  <SCORE.INTRA.VDW>
2.51129

>  <SCORE.INTRA.VDW.0>
-7.06424

>  <SCORE.INTRA.norm>
0.0317984

>  <SCORE.RESTR>
0.011394

>  <SCORE.RESTR.CAVITY>
0.011394

>  <SCORE.RESTR.norm>
0.000247696

>  <SCORE.SYSTEM>
0

>  <SCORE.SYSTEM.CONST>
0

>  <SCORE.SYSTEM.DIHEDRAL>
0

>  <SCORE.SYSTEM.SOLV>
0

>  <SCORE.SYSTEM.norm>
0

>  <SCORE.heavy>
46

>  <SCORE.norm>
0.0890069

>  <RMSD>
7.200

$$$$
lig.pdb
 OpenBabel03061811583D
libRbt.so/2013.1/901 2013/11/27
 46 49  0  0  0  0  0  0  0  0999 V2000
   13.0453  -16.3786    8.0373 C   0  0  1  0  0  0  0  0  0  0  0  0
   11.4541  -14.7963    6.8658 C   0  0  1  0  0  0  0  0  0  0  0  0
   11.9554  -13.5177    7.6030 C   0  0  1  0  0  0  0  0  0  0  0  0
   11.6514  -12.2308    6.6787 C   0  0  2  0  0  0  0  0  0  0  0  0
    9.9171  -13.3201    9.1011 C   0  0  2  0  0  0  0  0  0  0  0  0
    9.3445  -11.9837    8.5488 C   0  0  1  0  0  0  0  0  0  0  0  0
    7.9185  -12.4361    8.3471 C   0  0  1  0  0  0  0  0  0  0  0  0
    8.0386  -13.8265    7.6460 C   0  0  1  0  0  0  0  0  0  0  0  0
    8.2641  -13.8203    6.0933 C   0  0  0  0  0  0  0  0  0  0  0  0
    6.1649  -13.4139    9.7798 C   0  0  1  0  0  0  0  0  0  0  0  0
    5.1666  -13.0545   10.8395 C   0  0  1  0  0  0  0  0  0  0  0  0
   13.0185  -17.8312    8.5686 C   0  0  1  0  0  0  0  0  0  0  0  0
    4.0399  -14.1475   10.8534 C   0  0  0  0  0  0  0  0  0  0  0  0
    4.4967  -15.4774   11.1385 C   0  0  0  0  0  0  0  0  0  0  0  0
    5.4386  -15.8740   10.1135 C   0  0  2  0  0  0  0  0  0  0  0  0
    5.9855  -17.3318   10.3795 C   0  0  0  0  0  0  0  0  0  0  0  0
   11.3611   -8.5506    3.9850 C   0  0  2  0  0  0  0  0  0  0  0  0
   10.8472  -10.8406    4.1973 C   0  0  0  0  0  0  0  0  0  0  0  0
   11.5961   -7.4615    3.1672 C   0  0  0  0  0  0  0  0  0  0  0  0
   10.8283   -9.5502    3.2392 C   0  0  1  0  0  0  0  0  0  0  0  0
   12.1880  -17.9289    9.9283 C   0  0  0  0  0  0  0  0  0  0  0  0
   12.8610  -16.9421   10.9987 C   0  0  0  0  0  0  0  0  0  0  0  0
   12.8251  -15.4625   10.3941 C   0  0  1  0  0  0  0  0  0  0  0  0
   13.4610  -14.4407   11.3443 C   0  0  0  0  0  0  0  0  0  0  0  0
   12.4769  -12.3877    5.3279 C   0  0  1  0  0  0  0  0  0  0  0  0
   11.8977  -13.7134    4.5979 C   0  0  0  0  0  0  0  0  0  0  0  0
   12.1585  -14.9816    5.4989 C   0  0  2  0  0  0  0  0  0  0  0  0
   10.5153   -8.1528    5.0877 F   0  0  0  0  0  0  0  0  0  0  0  0
    7.0140  -17.8023    9.3114 N   0  0  0  0  0  0  0  0  0  0  0  0
   12.4478  -18.7168    7.4872 N   0  0  0  0  0  0  0  0  0  0  0  0
    5.6875  -13.0430   12.1364 N   0  0  0  0  0  0  0  0  0  0  0  0
   12.1951   -6.2069    3.4286 N   0  0  0  0  0  0  0  0  0  0  0  0
   12.7432  -14.3598   12.5565 N   0  0  0  0  0  0  0  0  0  0  0  0
   12.2368  -11.2223    4.4580 N   0  0  0  0  0  0  0  0  0  0  0  0
   11.6232  -16.1989    4.8502 N   0  0  0  0  0  0  0  0  0  0  0  0
   11.7417  -15.9577    7.6339 O   0  0  0  0  0  0  0  0  0  0  0  0
   11.2076  -13.4471    8.9025 O   0  0  0  0  0  0  0  0  0  0  0  0
   12.1030  -11.1168    7.3504 O   0  0  0  0  0  0  0  0  0  0  0  0
    9.4992  -11.0030    9.5293 O   0  0  0  0  0  0  0  0  0  0  0  0
    9.0749  -14.3591    8.4876 O   0  0  0  0  0  0  0  0  0  0  0  0
    8.2308  -15.1911    5.6485 O   0  0  0  0  0  0  0  0  0  0  0  0
    7.2375  -12.5526    9.6987 O   0  0  0  0  0  0  0  0  0  0  0  0
    9.4744   -9.2792    2.8153 O   0  0  0  0  0  0  0  0  0  0  0  0
    9.8343  -11.4008    4.6475 O   0  0  0  0  0  0  0  0  0  0  0  0
    6.5772  -14.8845   10.0351 O   0  0  0  0  0  0  0  0  0  0  0  0
   13.5753  -15.4283    9.0727 O   0  0  0  0  0  0  0  0  0  0  0  0
  1 36  1  1  0  0  0
  2 36  1  1  0  0  0
  2  3  1  0  0  0  0
  3 37  1  1  0  0  0
  3  4  1  0  0  0  0
  4 38  1  1  0  0  0
  5 37  1  6  0  0  0
  5  6  1  0  0  0  0
  6  7  1  0  0  0  0
  6 39  1  1  0  0  0
  7 42  1  1  0  0  0
  8  9  1  6  0  0  0
  8  7  1  0  0  0  0
 10 42  1  1  0  0  0
 10 11  1  0  0  0  0
 11 31  1  1  0  0  0
 11 13  1  0  0  0  0
 12 30  1  6  0  0  0
 12  1  1  0  0  0  0
 14 13  1  0  0  0  0
 15 16  1  1  0  0  0
 15 14  1  0  0  0  0
 17 19  1  6  0  0  0
 17 28  1  0  0  0  0
 18 34  1  0  0  0  0
 19 32  1  0  0  0  0
 20 18  1  1  0  0  0
 20 17  1  0  0  0  0
 20 43  1  0  0  0  0
 21 12  1  0  0  0  0
 22 21  1  0  0  0  0
 22 23  1  0  0  0  0
 23 24  1  1  0  0  0
 23 46  1  0  0  0  0
 24 33  1  0  0  0  0
 25 34  1  6  0  0  0
 25  4  1  0  0  0  0
 26 25  1  0  0  0  0
 27 35  1  6  0  0  0
 27 26  1  0  0  0  0
 27  2  1  0  0  0  0
 29 16  1  0  0  0  0
 40  8  1  0  0  0  0
 40  5  1  0  0  0  0
 41  9  1  0  0  0  0
 44 18  2  0  0  0  0
 45 15  1  0  0  0  0
 45 10  1  0  0  0  0
 46  1  1  0  0  0  0
M  END
>  <CHROM.1>
-166.91001895,-59.55234955,-62.45621811,-62.75054095,-155.40873663,-175.22060995
-152.88162105,-179.46183129,-176.35858005,-66.55858010,169.78786803,-62.89020799
-50.94242303,10.02305854,-13.47750520,7.73626612,-1.93870219,0.36461918,-0.64000768

>  <Name>
lig.pdb

>  <RI>
0

>  <Rbt.Current_Directory>
/home/afrankz/demos/rdock_decoys_rna/rnas/3wru

>  <Rbt.Executable>
rbdock ($Id: //depot/dev/client3/rdock/2013.1/src/exe/rbdock.cxx#4 $)

>  <Rbt.Library>
libRbt.so (2013.1, Build901 2013/11/27)

>  <Rbt.Parameter_File>
/export/apps/rDock/src/rDock_2013.1_src/data/scripts/dock_solv.prm

>  <Rbt.Receptor>
prm/pocket_docking_6.prm

>  <SCORE>
-6.76964

>  <SCORE.INTER>
-1.7681

>  <SCORE.INTER.CONST>
1

>  <SCORE.INTER.POLAR>
0

>  <SCORE.INTER.ROT>
13

>  <SCORE.INTER.SOLV>
15.3461

>  <SCORE.INTER.VDW>
-18.5608

>  <SCORE.INTER.norm>
-0.038437

>  <SCORE.INTRA>
-5.00154

>  <SCORE.INTRA.DIHEDRAL>
-11.5849

>  <SCORE.INTRA.DIHEDRAL.0>
19.7146

>  <SCORE.INTRA.POLAR>
0

>  <SCORE.INTRA.POLAR.0>
0

>  <SCORE.INTRA.REPUL>
0

>  <SCORE.INTRA.REPUL.0>
0

>  <SCORE.INTRA.SOLV>
0.802225

>  <SCORE.INTRA.SOLV.lig_0>
-116.697

>  <SCORE.INTRA.VDW>
0.389806

>  <SCORE.INTRA.VDW.0>
-7.06424

>  <SCORE.INTRA.norm>
-0.108729

>  <SCORE.RESTR>
0

>  <SCORE.RESTR.CAVITY>
0

>  <SCORE.RESTR.norm>
0

>  <SCORE.SYSTEM>
0

>  <SCORE.SYSTEM.CONST>
0

>  <SCORE.SYSTEM.DIHEDRAL>
0

>  <SCORE.SYSTEM.SOLV>
0

>  <SCORE.SYSTEM.norm>
0

>  <SCORE.heavy>
46

>  <SCORE.norm>
-0.147166

>  <RMSD>
7.207

$$$$
lig.pdb
 OpenBabel03061811583D
libRbt.so/2013.1/901 2013/11/27
 46 49  0  0  0  0  0  0  0  0999 V2000
   15.6908  -16.2074    7.1269 C   0  0  1  0  0  0  0  0  0  0  0  0
   13.4786  -15.2743    6.3247 C   0  0  1  0  0  0  0  0  0  0  0  0
   13.4893  -14.0072    7.2324 C   0  0  1  0  0  0  0  0  0  0  0  0
   12.6017  -12.8568    6.5312 C   0  0  2  0  0  0  0  0  0  0  0  0
   11.6600  -14.6898    8.8529 C   0  0  2  0  0  0  0  0  0  0  0  0
   11.1162  -15.9446    8.1123 C   0  0  1  0  0  0  0  0  0  0  0  0
   10.0378  -16.3181    9.1004 C   0  0  1  0  0  0  0  0  0  0  0  0
   10.7270  -16.2147   10.4981 C   0  0  1  0  0  0  0  0  0  0  0  0
   11.5850  -17.4451   10.9579 C   0  0  0  0  0  0  0  0  0  0  0  0
    8.1283  -15.4147    7.8270 C   0  0  1  0  0  0  0  0  0  0  0  0
    7.0651  -14.3626    7.7198 C   0  0  1  0  0  0  0  0  0  0  0  0
   16.2513  -17.5473    7.6596 C   0  0  1  0  0  0  0  0  0  0  0  0
    6.2511  -14.6098    6.4004 C   0  0  0  0  0  0  0  0  0  0  0  0
    5.5930  -15.8829    6.3303 C   0  0  0  0  0  0  0  0  0  0  0  0
    6.5937  -16.9266    6.3951 C   0  0  2  0  0  0  0  0  0  0  0  0
    5.9263  -18.3568    6.3314 C   0  0  0  0  0  0  0  0  0  0  0  0
   11.5942   -7.9623    4.8406 C   0  0  2  0  0  0  0  0  0  0  0  0
   12.6792  -10.0512    4.9513 C   0  0  0  0  0  0  0  0  0  0  0  0
   11.2938   -6.8944    4.0163 C   0  0  0  0  0  0  0  0  0  0  0  0
   11.7502   -9.0728    4.0778 C   0  0  1  0  0  0  0  0  0  0  0  0
   15.6783  -17.8705    9.1139 C   0  0  0  0  0  0  0  0  0  0  0  0
   16.0725  -16.6593   10.0885 C   0  0  0  0  0  0  0  0  0  0  0  0
   15.4356  -15.3201    9.4912 C   0  0  1  0  0  0  0  0  0  0  0  0
   15.7687  -14.0951   10.3513 C   0  0  0  0  0  0  0  0  0  0  0  0
   13.2835  -12.4855    5.1427 C   0  0  1  0  0  0  0  0  0  0  0  0
   13.2217  -13.8283    4.2377 C   0  0  0  0  0  0  0  0  0  0  0  0
   14.0602  -14.9767    4.9204 C   0  0  2  0  0  0  0  0  0  0  0  0
   10.5627   -8.1031    5.8435 F   0  0  0  0  0  0  0  0  0  0  0  0
    6.9640  -19.5102    6.2179 N   0  0  0  0  0  0  0  0  0  0  0  0
   15.9141  -18.6280    6.6608 N   0  0  0  0  0  0  0  0  0  0  0  0
    6.1205  -14.3964    8.7495 N   0  0  0  0  0  0  0  0  0  0  0  0
   12.0528   -6.2409    3.0172 N   0  0  0  0  0  0  0  0  0  0  0  0
   15.0665  -14.1281   11.5748 N   0  0  0  0  0  0  0  0  0  0  0  0
   12.5085  -11.4250    4.4739 N   0  0  0  0  0  0  0  0  0  0  0  0
   14.0024  -16.2139    4.1108 N   0  0  0  0  0  0  0  0  0  0  0  0
   14.2852  -16.2986    6.8918 O   0  0  0  0  0  0  0  0  0  0  0  0
   12.9081  -14.4176    8.5541 O   0  0  0  0  0  0  0  0  0  0  0  0
   12.6274  -11.7504    7.3506 O   0  0  0  0  0  0  0  0  0  0  0  0
   10.6342  -15.5425    6.8660 O   0  0  0  0  0  0  0  0  0  0  0  0
   11.3918  -14.9601   10.2742 O   0  0  0  0  0  0  0  0  0  0  0  0
   12.1310  -17.1283   12.2540 O   0  0  0  0  0  0  0  0  0  0  0  0
    8.8864  -15.3367    8.9750 O   0  0  0  0  0  0  0  0  0  0  0  0
   10.5005   -9.7307    3.7753 O   0  0  0  0  0  0  0  0  0  0  0  0
   13.4278   -9.6801    5.8702 O   0  0  0  0  0  0  0  0  0  0  0  0
    7.4233  -16.7818    7.6492 O   0  0  0  0  0  0  0  0  0  0  0  0
   15.9617  -15.0829    8.0851 O   0  0  0  0  0  0  0  0  0  0  0  0
  1 36  1  1  0  0  0
  2 36  1  1  0  0  0
  2  3  1  0  0  0  0
  3 37  1  1  0  0  0
  3  4  1  0  0  0  0
  4 38  1  1  0  0  0
  5 37  1  1  0  0  0
  5  6  1  0  0  0  0
  6  7  1  0  0  0  0
  6 39  1  6  0  0  0
  7 42  1  1  0  0  0
  8  9  1  6  0  0  0
  8  7  1  0  0  0  0
 10 42  1  1  0  0  0
 10 11  1  0  0  0  0
 11 31  1  1  0  0  0
 11 13  1  0  0  0  0
 12 30  1  6  0  0  0
 12  1  1  0  0  0  0
 14 13  1  0  0  0  0
 15 16  1  1  0  0  0
 15 14  1  0  0  0  0
 17 19  1  6  0  0  0
 17 28  1  0  0  0  0
 18 34  1  0  0  0  0
 19 32  1  0  0  0  0
 20 18  1  1  0  0  0
 20 17  1  0  0  0  0
 20 43  1  0  0  0  0
 21 12  1  0  0  0  0
 22 21  1  0  0  0  0
 22 23  1  0  0  0  0
 23 24  1  1  0  0  0
 23 46  1  0  0  0  0
 24 33  1  0  0  0  0
 25 34  1  6  0  0  0
 25  4  1  0  0  0  0
 26 25  1  0  0  0  0
 27 35  1  6  0  0  0
 27 26  1  0  0  0  0
 27  2  1  0  0  0  0
 29 16  1  0  0  0  0
 40  8  1  0  0  0  0
 40  5  1  0  0  0  0
 41  9  1  0  0  0  0
 44 18  2  0  0  0  0
 45 15  1  0  0  0  0
 45 10  1  0  0  0  0
 46  1  1  0  0  0  0
M  END
>  <CHROM.1>
-175.88141520,-62.19851684,-72.66382077,64.56370196,70.21036168,179.42352325
-176.15070060,172.79264867,-65.55132272,159.21383187,156.20583722,-71.17341289
77.98520004,11.73380536,-14.23515600,7.23329062,-1.58561425,-0.13599340,-0.49295069

>  <Name>
lig.pdb

>  <RI>
0

>  <Rbt.Current_Directory>
/home/afrankz/demos/rdock_decoys_rna/rnas/3wru

>  <Rbt.Executable>
rbdock ($Id: //depot/dev/client3/rdock/2013.1/src/exe/rbdock.cxx#4 $)

>  <Rbt.Library>
libRbt.so (2013.1, Build901 2013/11/27)

>  <Rbt.Parameter_File>
/export/apps/rDock/src/rDock_2013.1_src/data/scripts/dock_solv.prm

>  <Rbt.Receptor>
prm/pocket_docking_6.prm

>  <SCORE>
-6.84468

>  <SCORE.INTER>
-1.11646

>  <SCORE.INTER.CONST>
1

>  <SCORE.INTER.POLAR>
0

>  <SCORE.INTER.ROT>
13

>  <SCORE.INTER.SOLV>
20.7797

>  <SCORE.INTER.VDW>
-19.9375

>  <SCORE.INTER.norm>
-0.0242709

>  <SCORE.INTRA>
-5.72822

>  <SCORE.INTRA.DIHEDRAL>
-14.0854

>  <SCORE.INTRA.DIHEDRAL.0>
19.7146

>  <SCORE.INTRA.POLAR>
0

>  <SCORE.INTRA.POLAR.0>
0

>  <SCORE.INTRA.REPUL>
0

>  <SCORE.INTRA.REPUL.0>
0

>  <SCORE.INTRA.SOLV>
-0.740681

>  <SCORE.INTRA.SOLV.lig_0>
-116.697

>  <SCORE.INTRA.VDW>
1.68484

>  <SCORE.INTRA.VDW.0>
-7.06424

>  <SCORE.INTRA.norm>
-0.124527

>  <SCORE.RESTR>
0

>  <SCORE.RESTR.CAVITY>
0

>  <SCORE.RESTR.norm>
0

>  <SCORE.SYSTEM>
0

>  <SCORE.SYSTEM.CONST>
0

>  <SCORE.SYSTEM.DIHEDRAL>
0

>  <SCORE.SYSTEM.SOLV>
0

>  <SCORE.SYSTEM.norm>
0

>  <SCORE.heavy>
46

>  <SCORE.norm>
-0.148797

>  <RMSD>
7.209

$$$$
lig.pdb
 OpenBabel03061811583D
libRbt.so/2013.1/901 2013/11/27
 46 49  0  0  0  0  0  0  0  0999 V2000
   14.6174  -13.5158    9.4759 C   0  0  1  0  0  0  0  0  0  0  0  0
   13.0455  -13.3928    7.4954 C   0  0  1  0  0  0  0  0  0  0  0  0
   11.8850  -12.7125    8.2829 C   0  0  1  0  0  0  0  0  0  0  0  0
   10.9644  -11.8886    7.2452 C   0  0  2  0  0  0  0  0  0  0  0  0
   10.6751  -14.9379    8.4309 C   0  0  2  0  0  0  0  0  0  0  0  0
    9.8867  -15.8104    9.4487 C   0  0  1  0  0  0  0  0  0  0  0  0
    9.0485  -16.5804    8.4569 C   0  0  1  0  0  0  0  0  0  0  0  0
    8.5198  -15.4999    7.4609 C   0  0  1  0  0  0  0  0  0  0  0  0
    7.2562  -14.6833    7.9062 C   0  0  0  0  0  0  0  0  0  0  0  0
   10.3927  -18.6475    8.5205 C   0  0  1  0  0  0  0  0  0  0  0  0
   11.2018  -19.6540    7.7582 C   0  0  1  0  0  0  0  0  0  0  0  0
   15.6514  -14.5109   10.0535 C   0  0  1  0  0  0  0  0  0  0  0  0
   11.6171  -20.8060    8.7405 C   0  0  0  0  0  0  0  0  0  0  0  0
   10.5193  -21.5120    9.3364 C   0  0  0  0  0  0  0  0  0  0  0  0
    9.7328  -20.5768   10.1122 C   0  0  2  0  0  0  0  0  0  0  0  0
    8.4997  -21.2967   10.7877 C   0  0  0  0  0  0  0  0  0  0  0  0
   10.9373   -8.5089    2.8540 C   0  0  2  0  0  0  0  0  0  0  0  0
   11.6399   -8.7401    5.0914 C   0  0  0  0  0  0  0  0  0  0  0  0
    9.9238   -8.2043    1.9651 C   0  0  0  0  0  0  0  0  0  0  0  0
   10.5895   -8.0572    4.0846 C   0  0  1  0  0  0  0  0  0  0  0  0
   14.9267  -15.7568   10.7394 C   0  0  0  0  0  0  0  0  0  0  0  0
   13.9618  -15.2020   11.8941 C   0  0  0  0  0  0  0  0  0  0  0  0
   12.9071  -14.2085   11.2186 C   0  0  1  0  0  0  0  0  0  0  0  0
   11.9413  -13.6121   12.2496 C   0  0  0  0  0  0  0  0  0  0  0  0
   11.8601  -10.7501    6.5877 C   0  0  1  0  0  0  0  0  0  0  0  0
   13.0295  -11.5151    5.7672 C   0  0  0  0  0  0  0  0  0  0  0  0
   13.9253  -12.3513    6.7603 C   0  0  2  0  0  0  0  0  0  0  0  0
   12.1825   -7.9516    2.3761 F   0  0  0  0  0  0  0  0  0  0  0  0
    7.6475  -20.3443   11.6747 N   0  0  0  0  0  0  0  0  0  0  0  0
   16.5736  -14.9327    8.9350 N   0  0  0  0  0  0  0  0  0  0  0  0
   10.5047  -20.2831    6.7230 N   0  0  0  0  0  0  0  0  0  0  0  0
    9.4145   -6.9633    1.5159 N   0  0  0  0  0  0  0  0  0  0  0  0
   11.2029  -14.6246   12.8982 N   0  0  0  0  0  0  0  0  0  0  0  0
   11.0506   -9.9633    5.6400 N   0  0  0  0  0  0  0  0  0  0  0  0
   14.9906  -13.0660    6.0230 N   0  0  0  0  0  0  0  0  0  0  0  0
   13.9032  -14.0968    8.3843 O   0  0  0  0  0  0  0  0  0  0  0  0
   11.1103  -13.8131    8.9473 O   0  0  0  0  0  0  0  0  0  0  0  0
    9.9491  -11.2980    7.9639 O   0  0  0  0  0  0  0  0  0  0  0  0
   10.8011  -16.5943   10.1536 O   0  0  0  0  0  0  0  0  0  0  0  0
    9.7624  -14.7993    7.2851 O   0  0  0  0  0  0  0  0  0  0  0  0
    7.6118  -13.9582    9.1003 O   0  0  0  0  0  0  0  0  0  0  0  0
    9.9231  -17.6030    7.7542 O   0  0  0  0  0  0  0  0  0  0  0  0
   10.6677   -6.6197    4.2019 O   0  0  0  0  0  0  0  0  0  0  0  0
   12.7724   -8.2946    5.3393 O   0  0  0  0  0  0  0  0  0  0  0  0
    9.2696  -19.4319    9.2425 O   0  0  0  0  0  0  0  0  0  0  0  0
   13.6412  -13.0713   10.5272 O   0  0  0  0  0  0  0  0  0  0  0  0
  1 36  1  6  0  0  0
  2 36  1  1  0  0  0
  2  3  1  0  0  0  0
  3 37  1  6  0  0  0
  3  4  1  0  0  0  0
  4 38  1  1  0  0  0
  5 37  1  1  0  0  0
  5  6  1  0  0  0  0
  6  7  1  0  0  0  0
  6 39  1  6  0  0  0
  7 42  1  6  0  0  0
  8  9  1  1  0  0  0
  8  7  1  0  0  0  0
 10 42  1  6  0  0  0
 10 11  1  0  0  0  0
 11 31  1  6  0  0  0
 11 13  1  0  0  0  0
 12 30  1  6  0  0  0
 12  1  1  0  0  0  0
 14 13  1  0  0  0  0
 15 16  1  6  0  0  0
 15 14  1  0  0  0  0
 17 19  1  6  0  0  0
 17 28  1  0  0  0  0
 18 34  1  0  0  0  0
 19 32  1  0  0  0  0
 20 18  1  1  0  0  0
 20 17  1  0  0  0  0
 20 43  1  0  0  0  0
 21 12  1  0  0  0  0
 22 21  1  0  0  0  0
 22 23  1  0  0  0  0
 23 24  1  1  0  0  0
 23 46  1  0  0  0  0
 24 33  1  0  0  0  0
 25 34  1  6  0  0  0
 25  4  1  0  0  0  0
 26 25  1  0  0  0  0
 27 35  1  6  0  0  0
 27 26  1  0  0  0  0
 27  2  1  0  0  0  0
 29 16  1  0  0  0  0
 40  8  1  0  0  0  0
 40  5  1  0  0  0  0
 41  9  1  0  0  0  0
 44 18  2  0  0  0  0
 45 15  1  0  0  0  0
 45 10  1  0  0  0  0
 46  1  1  0  0  0  0
M  END
>  <CHROM.1>
-169.15000003,-59.03535783,-47.35739326,-179.04684816,68.05991484,62.09464466
177.55684106,178.01671621,64.14832944,-95.04229624,167.38638209,-60.29137141
170.61595735,11.33521964,-14.09391941,7.87298617,-1.47302198,0.53486927,2.58539389

>  <Name>
lig.pdb

>  <RI>
0

>  <Rbt.Current_Directory>
/home/afrankz/demos/rdock_decoys_rna/rnas/3wru

>  <Rbt.Executable>
rbdock ($Id: //depot/dev/client3/rdock/2013.1/src/exe/rbdock.cxx#4 $)

>  <Rbt.Library>
libRbt.so (2013.1, Build901 2013/11/27)

>  <Rbt.Parameter_File>
/export/apps/rDock/src/rDock_2013.1_src/data/scripts/dock_solv.prm

>  <Rbt.Receptor>
prm/pocket_docking_6.prm

>  <SCORE>
-7.92834

>  <SCORE.INTER>
-2.12831

>  <SCORE.INTER.CONST>
1

>  <SCORE.INTER.POLAR>
0

>  <SCORE.INTER.ROT>
13

>  <SCORE.INTER.SOLV>
17.1688

>  <SCORE.INTER.VDW>
-19.4085

>  <SCORE.INTER.norm>
-0.0462676

>  <SCORE.INTRA>
-5.80003

>  <SCORE.INTRA.DIHEDRAL>
-15.2558

>  <SCORE.INTRA.DIHEDRAL.0>
19.7146

>  <SCORE.INTRA.POLAR>
0

>  <SCORE.INTRA.POLAR.0>
0

>  <SCORE.INTRA.REPUL>
0

>  <SCORE.INTRA.REPUL.0>
0

>  <SCORE.INTRA.SOLV>
1.49245

>  <SCORE.INTRA.SOLV.lig_0>
-116.697

>  <SCORE.INTRA.VDW>
1.08167

>  <SCORE.INTRA.VDW.0>
-7.06424

>  <SCORE.INTRA.norm>
-0.126088

>  <SCORE.RESTR>
0

>  <SCORE.RESTR.CAVITY>
0

>  <SCORE.RESTR.norm>
0

>  <SCORE.SYSTEM>
0

>  <SCORE.SYSTEM.CONST>
0

>  <SCORE.SYSTEM.DIHEDRAL>
0

>  <SCORE.SYSTEM.SOLV>
0

>  <SCORE.SYSTEM.norm>
0

>  <SCORE.heavy>
46

>  <SCORE.norm>
-0.172355

>  <RMSD>
7.220

$$$$
lig.pdb
 OpenBabel03061811583D
libRbt.so/2013.1/901 2013/11/27
 46 49  0  0  0  0  0  0  0  0999 V2000
    9.9347  -14.1453   11.1734 C   0  0  1  0  0  0  0  0  0  0  0  0
   12.3864  -14.6898   10.8559 C   0  0  1  0  0  0  0  0  0  0  0  0
   13.0101  -13.2857   10.5930 C   0  0  1  0  0  0  0  0  0  0  0  0
   14.3618  -13.4693    9.7315 C   0  0  2  0  0  0  0  0  0  0  0  0
   11.3111  -12.8299    8.7644 C   0  0  2  0  0  0  0  0  0  0  0  0
   11.9446  -12.2861    7.4524 C   0  0  1  0  0  0  0  0  0  0  0  0
   11.3847  -13.3210    6.5066 C   0  0  1  0  0  0  0  0  0  0  0  0
   11.6199  -14.6862    7.2277 C   0  0  1  0  0  0  0  0  0  0  0  0
   13.0473  -15.3230    7.0915 C   0  0  0  0  0  0  0  0  0  0  0  0
    9.5647  -12.3027    5.1897 C   0  0  1  0  0  0  0  0  0  0  0  0
    9.7380  -13.0184    3.8833 C   0  0  1  0  0  0  0  0  0  0  0  0
    9.0329  -13.6872   12.3439 C   0  0  1  0  0  0  0  0  0  0  0  0
    9.3694  -12.0296    2.7211 C   0  0  0  0  0  0  0  0  0  0  0  0
   10.1758  -10.8443    2.6624 C   0  0  0  0  0  0  0  0  0  0  0  0
   10.0065  -10.1065    3.8961 C   0  0  2  0  0  0  0  0  0  0  0  0
   10.8804   -8.7908    3.8945 C   0  0  0  0  0  0  0  0  0  0  0  0
   18.3735  -14.1095    7.7129 C   0  0  2  0  0  0  0  0  0  0  0  0
   16.6164  -15.3580    8.6651 C   0  0  0  0  0  0  0  0  0  0  0  0
   19.6946  -14.0299    7.3146 C   0  0  0  0  0  0  0  0  0  0  0  0
   18.0843  -15.4003    8.0121 C   0  0  1  0  0  0  0  0  0  0  0  0
    8.6566  -14.9149   13.2920 C   0  0  0  0  0  0  0  0  0  0  0  0
    7.9171  -16.0263   12.4031 C   0  0  0  0  0  0  0  0  0  0  0  0
    8.9178  -16.4699   11.2379 C   0  0  1  0  0  0  0  0  0  0  0  0
    8.2940  -17.5283   10.3201 C   0  0  0  0  0  0  0  0  0  0  0  0
   15.3881  -14.3201   10.5996 C   0  0  1  0  0  0  0  0  0  0  0  0
   14.6982  -15.7699   10.8191 C   0  0  0  0  0  0  0  0  0  0  0  0
   13.3580  -15.6103   11.6354 C   0  0  2  0  0  0  0  0  0  0  0  0
   17.5238  -13.5625    6.6794 F   0  0  0  0  0  0  0  0  0  0  0  0
   10.3263   -7.6911    2.9438 N   0  0  0  0  0  0  0  0  0  0  0  0
    9.7529  -12.5901   13.0905 N   0  0  0  0  0  0  0  0  0  0  0  0
   11.0498  -13.4240    3.6224 N   0  0  0  0  0  0  0  0  0  0  0  0
   20.8915  -14.4230    7.9583 N   0  0  0  0  0  0  0  0  0  0  0  0
    9.2624  -18.0885    9.4603 N   0  0  0  0  0  0  0  0  0  0  0  0
   16.6453  -14.4999    9.8515 N   0  0  0  0  0  0  0  0  0  0  0  0
   12.7100  -16.9257   11.8328 N   0  0  0  0  0  0  0  0  0  0  0  0
   11.2121  -14.5712   11.6487 O   0  0  0  0  0  0  0  0  0  0  0  0
   11.9839  -12.4915    9.8386 O   0  0  0  0  0  0  0  0  0  0  0  0
   14.8926  -12.2177    9.5134 O   0  0  0  0  0  0  0  0  0  0  0  0
   11.4623  -10.9946    7.2361 O   0  0  0  0  0  0  0  0  0  0  0  0
   11.1732  -14.2762    8.5309 O   0  0  0  0  0  0  0  0  0  0  0  0
   12.9688  -16.6681    7.6042 O   0  0  0  0  0  0  0  0  0  0  0  0
    9.9058  -13.0526    6.2942 O   0  0  0  0  0  0  0  0  0  0  0  0
   18.0758  -16.2610    6.8521 O   0  0  0  0  0  0  0  0  0  0  0  0
   15.6244  -15.9523    8.2119 O   0  0  0  0  0  0  0  0  0  0  0  0
   10.3564  -10.9763    5.0805 O   0  0  0  0  0  0  0  0  0  0  0  0
    9.2966  -15.2616   10.3972 O   0  0  0  0  0  0  0  0  0  0  0  0
  1 36  1  1  0  0  0
  2 36  1  1  0  0  0
  2  3  1  0  0  0  0
  3 37  1  6  0  0  0
  3  4  1  0  0  0  0
  4 38  1  1  0  0  0
  5 37  1  1  0  0  0
  5  6  1  0  0  0  0
  6  7  1  0  0  0  0
  6 39  1  6  0  0  0
  7 42  1  1  0  0  0
  8  9  1  1  0  0  0
  8  7  1  0  0  0  0
 10 42  1  1  0  0  0
 10 11  1  0  0  0  0
 11 31  1  6  0  0  0
 11 13  1  0  0  0  0
 12 30  1  1  0  0  0
 12  1  1  0  0  0  0
 14 13  1  0  0  0  0
 15 16  1  6  0  0  0
 15 14  1  0  0  0  0
 17 19  1  6  0  0  0
 17 28  1  0  0  0  0
 18 34  1  0  0  0  0
 19 32  1  0  0  0  0
 20 18  1  6  0  0  0
 20 17  1  0  0  0  0
 20 43  1  0  0  0  0
 21 12  1  0  0  0  0
 22 21  1  0  0  0  0
 22 23  1  0  0  0  0
 23 24  1  6  0  0  0
 23 46  1  0  0  0  0
 24 33  1  0  0  0  0
 25 34  1  6  0  0  0
 25  4  1  0  0  0  0
 26 25  1  0  0  0  0
 27 35  1  6  0  0  0
 27 26  1  0  0  0  0
 27  2  1  0  0  0  0
 29 16  1  0  0  0  0
 40  8  1  0  0  0  0
 40  5  1  0  0  0  0
 41  9  1  0  0  0  0
 44 18  2  0  0  0  0
 45 15  1  0  0  0  0
 45 10  1  0  0  0  0
 46  1  1  0  0  0  0
M  END
>  <CHROM.1>
-161.16633004,77.23600645,-50.06413066,-96.84313731,94.99943148,-169.34799531
71.44038699,72.38640210,-55.94251210,-59.16508020,171.84606398,-168.96754214
-68.94150164,12.48455480,-13.87227996,8.29557876,2.56175205,0.13793650,-1.02426829

>  <Name>
lig.pdb

>  <RI>
0

>  <Rbt.Current_Directory>
/home/afrankz/demos/rdock_decoys_rna/rnas/3wru

>  <Rbt.Executable>
rbdock ($Id: //depot/dev/client3/rdock/2013.1/src/exe/rbdock.cxx#4 $)

>  <Rbt.Library>
libRbt.so (2013.1, Build901 2013/11/27)

>  <Rbt.Parameter_File>
/export/apps/rDock/src/rDock_2013.1_src/data/scripts/dock_solv.prm

>  <Rbt.Receptor>
prm/pocket_docking_4.prm

>  <SCORE>
0.835531

>  <SCORE.INTER>
-1.41256

>  <SCORE.INTER.CONST>
1

>  <SCORE.INTER.POLAR>
0

>  <SCORE.INTER.ROT>
13

>  <SCORE.INTER.SOLV>
14.9569

>  <SCORE.INTER.VDW>
-18.194

>  <SCORE.INTER.norm>
-0.0307078

>  <SCORE.INTRA>
2.24809

>  <SCORE.INTRA.DIHEDRAL>
-3.61143

>  <SCORE.INTRA.DIHEDRAL.0>
19.7146

>  <SCORE.INTRA.POLAR>
0

>  <SCORE.INTRA.POLAR.0>
0

>  <SCORE.INTRA.REPUL>
0.148891

>  <SCORE.INTRA.REPUL.0>
0

>  <SCORE.INTRA.SOLV>
1.8877

>  <SCORE.INTRA.SOLV.lig_0>
-116.697

>  <SCORE.INTRA.VDW>
2.3655

>  <SCORE.INTRA.VDW.0>
-7.06424

>  <SCORE.INTRA.norm>
0.0488715

>  <SCORE.RESTR>
0

>  <SCORE.RESTR.CAVITY>
0

>  <SCORE.RESTR.norm>
0

>  <SCORE.SYSTEM>
0

>  <SCORE.SYSTEM.CONST>
0

>  <SCORE.SYSTEM.DIHEDRAL>
0

>  <SCORE.SYSTEM.SOLV>
0

>  <SCORE.SYSTEM.norm>
0

>  <SCORE.heavy>
46

>  <SCORE.norm>
0.0181637

>  <RMSD>
7.224

$$$$
lig.pdb
 OpenBabel03061811583D
libRbt.so/2013.1/901 2013/11/27
 46 49  0  0  0  0  0  0  0  0999 V2000
   11.0425  -12.5692    9.0503 C   0  0  1  0  0  0  0  0  0  0  0  0
   13.0695  -14.0298    8.6428 C   0  0  1  0  0  0  0  0  0  0  0  0
   13.9833  -12.7682    8.6988 C   0  0  1  0  0  0  0  0  0  0  0  0
   15.4147  -13.1328    8.0500 C   0  0  2  0  0  0  0  0  0  0  0  0
   13.1297  -11.5944    6.6176 C   0  0  2  0  0  0  0  0  0  0  0  0
   13.2707  -10.1355    6.0975 C   0  0  1  0  0  0  0  0  0  0  0  0
   13.6824  -10.4584    4.6815 C   0  0  1  0  0  0  0  0  0  0  0  0
   14.7727  -11.5669    4.8281 C   0  0  1  0  0  0  0  0  0  0  0  0
   16.2315  -11.0879    5.1510 C   0  0  0  0  0  0  0  0  0  0  0  0
   11.4284  -10.0833    3.7528 C   0  0  1  0  0  0  0  0  0  0  0  0
   10.4284  -10.4995    2.7157 C   0  0  1  0  0  0  0  0  0  0  0  0
   10.0001  -12.3933   10.1798 C   0  0  1  0  0  0  0  0  0  0  0  0
    9.3350   -9.3790    2.6003 C   0  0  0  0  0  0  0  0  0  0  0  0
    9.8336   -8.0909    2.2119 C   0  0  0  0  0  0  0  0  0  0  0  0
   10.7786   -7.6389    3.2108 C   0  0  2  0  0  0  0  0  0  0  0  0
   11.3709   -6.2245    2.8318 C   0  0  0  0  0  0  0  0  0  0  0  0
   20.6810  -15.1966    9.2525 C   0  0  2  0  0  0  0  0  0  0  0  0
   18.3300  -15.3566    9.2485 C   0  0  0  0  0  0  0  0  0  0  0  0
   21.8906  -15.6654    8.7757 C   0  0  0  0  0  0  0  0  0  0  0  0
   19.6898  -15.6390    8.4395 C   0  0  1  0  0  0  0  0  0  0  0  0
    8.8878  -13.5363   10.1162 C   0  0  0  0  0  0  0  0  0  0  0  0
    8.1849  -13.4722    8.6760 C   0  0  0  0  0  0  0  0  0  0  0  0
    9.3153  -13.6911    7.5669 C   0  0  1  0  0  0  0  0  0  0  0  0
    8.7413  -13.6344    6.1461 C   0  0  0  0  0  0  0  0  0  0  0  0
   16.0807  -14.2749    8.9349 C   0  0  1  0  0  0  0  0  0  0  0  0
   15.1028  -15.5619    8.8189 C   0  0  0  0  0  0  0  0  0  0  0  0
   13.6864  -15.2179    9.4218 C   0  0  2  0  0  0  0  0  0  0  0  0
   20.7289  -13.7556    9.3567 F   0  0  0  0  0  0  0  0  0  0  0  0
   12.4863   -5.7488    3.8064 N   0  0  0  0  0  0  0  0  0  0  0  0
   10.7338  -12.3846   11.4993 N   0  0  0  0  0  0  0  0  0  0  0  0
   10.9592  -10.6328    1.4296 N   0  0  0  0  0  0  0  0  0  0  0  0
   23.2048  -15.5542    9.2875 N   0  0  0  0  0  0  0  0  0  0  0  0
    7.7025  -14.5749    5.9806 N   0  0  0  0  0  0  0  0  0  0  0  0
   17.4004  -14.6289    8.3820 N   0  0  0  0  0  0  0  0  0  0  0  0
   12.7782  -16.3807    9.3112 N   0  0  0  0  0  0  0  0  0  0  0  0
   11.8098  -13.7580    9.2434 O   0  0  0  0  0  0  0  0  0  0  0  0
   13.2854  -11.6941    7.9164 O   0  0  0  0  0  0  0  0  0  0  0  0
   16.2020  -12.0048    8.1118 O   0  0  0  0  0  0  0  0  0  0  0  0
   12.0270   -9.5114    6.2024 O   0  0  0  0  0  0  0  0  0  0  0  0
   14.0817  -12.3658    5.8028 O   0  0  0  0  0  0  0  0  0  0  0  0
   17.1205  -12.1807    4.8453 O   0  0  0  0  0  0  0  0  0  0  0  0
   12.4741  -10.9658    3.9155 O   0  0  0  0  0  0  0  0  0  0  0  0
   19.6516  -14.9519    7.1696 O   0  0  0  0  0  0  0  0  0  0  0  0
   18.1149  -15.7197   10.4166 O   0  0  0  0  0  0  0  0  0  0  0  0
   11.8865   -8.6513    3.3820 O   0  0  0  0  0  0  0  0  0  0  0  0
   10.3831  -12.6179    7.7017 O   0  0  0  0  0  0  0  0  0  0  0  0
  1 36  1  1  0  0  0
  2 36  1  1  0  0  0
  2  3  1  0  0  0  0
  3 37  1  6  0  0  0
  3  4  1  0  0  0  0
  4 38  1  1  0  0  0
  5 37  1  1  0  0  0
  5  6  1  0  0  0  0
  6  7  1  0  0  0  0
  6 39  1  6  0  0  0
  7 42  1  6  0  0  0
  8  9  1  1  0  0  0
  8  7  1  0  0  0  0
 10 42  1  6  0  0  0
 10 11  1  0  0  0  0
 11 31  1  6  0  0  0
 11 13  1  0  0  0  0
 12 30  1  1  0  0  0
 12  1  1  0  0  0  0
 14 13  1  0  0  0  0
 15 16  1  6  0  0  0
 15 14  1  0  0  0  0
 17 19  1  6  0  0  0
 17 28  1  0  0  0  0
 18 34  1  0  0  0  0
 19 32  1  0  0  0  0
 20 18  1  1  0  0  0
 20 17  1  0  0  0  0
 20 43  1  0  0  0  0
 21 12  1  0  0  0  0
 22 21  1  0  0  0  0
 22 23  1  0  0  0  0
 23 24  1  6  0  0  0
 23 46  1  0  0  0  0
 24 33  1  0  0  0  0
 25 34  1  6  0  0  0
 25  4  1  0  0  0  0
 26 25  1  0  0  0  0
 27 35  1  6  0  0  0
 27 26  1  0  0  0  0
 27  2  1  0  0  0  0
 29 16  1  0  0  0  0
 40  8  1  0  0  0  0
 40  5  1  0  0  0  0
 41  9  1  0  0  0  0
 44 18  2  0  0  0  0
 45 15  1  0  0  0  0
 45 10  1  0  0  0  0
 46  1  1  0  0  0  0
M  END
>  <CHROM.1>
-160.96363025,43.35667897,-72.57677864,-141.07258709,63.19749793,-162.91606647
165.35910396,-174.86231530,-176.16603178,128.79523717,166.79839574,-56.16252619
162.44995445,13.78784300,-12.40746227,6.92659826,2.49246952,0.07912399,-0.83337450

>  <Name>
lig.pdb

>  <RI>
0

>  <Rbt.Current_Directory>
/home/afrankz/demos/rdock_decoys_rna/rnas/3wru

>  <Rbt.Executable>
rbdock ($Id: //depot/dev/client3/rdock/2013.1/src/exe/rbdock.cxx#4 $)

>  <Rbt.Library>
libRbt.so (2013.1, Build901 2013/11/27)

>  <Rbt.Parameter_File>
/export/apps/rDock/src/rDock_2013.1_src/data/scripts/dock_solv.prm

>  <Rbt.Receptor>
prm/pocket_docking_2.prm

>  <SCORE>
10.8531

>  <SCORE.INTER>
6.99942

>  <SCORE.INTER.CONST>
1

>  <SCORE.INTER.POLAR>
0

>  <SCORE.INTER.ROT>
13

>  <SCORE.INTER.SOLV>
26.8589

>  <SCORE.INTER.VDW>
-16.5534

>  <SCORE.INTER.norm>
0.152161

>  <SCORE.INTRA>
0.00241627

>  <SCORE.INTRA.DIHEDRAL>
-5.21606

>  <SCORE.INTRA.DIHEDRAL.0>
19.7146

>  <SCORE.INTRA.POLAR>
0

>  <SCORE.INTRA.POLAR.0>
0

>  <SCORE.INTRA.REPUL>
0

>  <SCORE.INTRA.REPUL.0>
0

>  <SCORE.INTRA.SOLV>
-2.63578

>  <SCORE.INTRA.SOLV.lig_0>
-116.697

>  <SCORE.INTRA.VDW>
3.92834

>  <SCORE.INTRA.VDW.0>
-7.06424

>  <SCORE.INTRA.norm>
5.25276e-05

>  <SCORE.RESTR>
3.85128

>  <SCORE.RESTR.CAVITY>
3.85128

>  <SCORE.RESTR.norm>
0.0837234

>  <SCORE.SYSTEM>
0

>  <SCORE.SYSTEM.CONST>
0

>  <SCORE.SYSTEM.DIHEDRAL>
0

>  <SCORE.SYSTEM.SOLV>
0

>  <SCORE.SYSTEM.norm>
0

>  <SCORE.heavy>
46

>  <SCORE.norm>
0.235937

>  <RMSD>
7.264

$$$$
lig.pdb
 OpenBabel03061811583D
libRbt.so/2013.1/901 2013/11/27
 46 49  0  0  0  0  0  0  0  0999 V2000
   17.1106  -14.2088    6.5591 C   0  0  1  0  0  0  0  0  0  0  0  0
   15.2074  -12.5546    6.3373 C   0  0  1  0  0  0  0  0  0  0  0  0
   14.3083  -11.7264    7.3045 C   0  0  1  0  0  0  0  0  0  0  0  0
   13.1303  -11.0286    6.4512 C   0  0  2  0  0  0  0  0  0  0  0  0
   12.6100  -13.3295    8.2963 C   0  0  2  0  0  0  0  0  0  0  0  0
   12.5207  -14.4490    9.3722 C   0  0  1  0  0  0  0  0  0  0  0  0
   11.0178  -14.4851    9.5104 C   0  0  1  0  0  0  0  0  0  0  0  0
   10.5917  -12.9856    9.6042 C   0  0  1  0  0  0  0  0  0  0  0  0
   10.7120  -12.3012   11.0110 C   0  0  0  0  0  0  0  0  0  0  0  0
    9.1208  -15.5981    8.3940 C   0  0  1  0  0  0  0  0  0  0  0  0
    8.4967  -15.9957    7.0897 C   0  0  1  0  0  0  0  0  0  0  0  0
   16.3806  -15.5701    6.6448 C   0  0  1  0  0  0  0  0  0  0  0  0
    7.0089  -16.4187    7.3581 C   0  0  0  0  0  0  0  0  0  0  0  0
    6.1845  -15.3894    7.9234 C   0  0  0  0  0  0  0  0  0  0  0  0
    6.7373  -15.0035    9.2042 C   0  0  2  0  0  0  0  0  0  0  0  0
    5.8743  -13.8624    9.8736 C   0  0  0  0  0  0  0  0  0  0  0  0
   12.3144   -7.2796    1.8074 C   0  0  2  0  0  0  0  0  0  0  0  0
   13.1472   -8.2029    3.8091 C   0  0  0  0  0  0  0  0  0  0  0  0
   11.2713   -7.3482    0.9032 C   0  0  0  0  0  0  0  0  0  0  0  0
   11.8567   -7.6439    3.0310 C   0  0  1  0  0  0  0  0  0  0  0  0
   16.1399  -15.9967    8.1640 C   0  0  0  0  0  0  0  0  0  0  0  0
   17.5648  -16.0662    8.8969 C   0  0  0  0  0  0  0  0  0  0  0  0
   18.2420  -14.6217    8.7933 C   0  0  1  0  0  0  0  0  0  0  0  0
   19.6232  -14.5884    9.4586 C   0  0  0  0  0  0  0  0  0  0  0  0
   13.8006  -10.0298    5.4101 C   0  0  1  0  0  0  0  0  0  0  0  0
   14.6995  -10.9468    4.4216 C   0  0  0  0  0  0  0  0  0  0  0  0
   15.8414  -11.6625    5.2413 C   0  0  2  0  0  0  0  0  0  0  0  0
   12.8844   -5.9514    1.7871 F   0  0  0  0  0  0  0  0  0  0  0  0
    6.4704  -13.3552   11.2181 N   0  0  0  0  0  0  0  0  0  0  0  0
   15.0884  -15.4600    5.8719 N   0  0  0  0  0  0  0  0  0  0  0  0
    8.4244  -14.9624    6.1512 N   0  0  0  0  0  0  0  0  0  0  0  0
   10.0832   -6.5893    0.7857 N   0  0  0  0  0  0  0  0  0  0  0  0
   20.2457  -13.3357    9.2730 N   0  0  0  0  0  0  0  0  0  0  0  0
   12.7546   -9.3596    4.6169 N   0  0  0  0  0  0  0  0  0  0  0  0
   16.6632  -12.5140    4.3530 N   0  0  0  0  0  0  0  0  0  0  0  0
   16.2828  -13.1533    7.0489 O   0  0  0  0  0  0  0  0  0  0  0  0
   13.7559  -12.6910    8.3131 O   0  0  0  0  0  0  0  0  0  0  0  0
   12.3521  -10.3042    7.3263 O   0  0  0  0  0  0  0  0  0  0  0  0
   13.0732  -15.6139    8.8386 O   0  0  0  0  0  0  0  0  0  0  0  0
   11.4175  -12.5004    8.5325 O   0  0  0  0  0  0  0  0  0  0  0  0
   10.2631  -10.9390   10.8663 O   0  0  0  0  0  0  0  0  0  0  0  0
   10.4216  -15.1564    8.2864 O   0  0  0  0  0  0  0  0  0  0  0  0
   11.2821   -6.5439    3.7699 O   0  0  0  0  0  0  0  0  0  0  0  0
   14.2901   -7.7261    3.7149 O   0  0  0  0  0  0  0  0  0  0  0  0
    8.1728  -14.5611    9.0449 O   0  0  0  0  0  0  0  0  0  0  0  0
   18.3976  -14.2299    7.3330 O   0  0  0  0  0  0  0  0  0  0  0  0
  1 36  1  1  0  0  0
  2 36  1  1  0  0  0
  2  3  1  0  0  0  0
  3 37  1  1  0  0  0
  3  4  1  0  0  0  0
  4 38  1  1  0  0  0
  5 37  1  1  0  0  0
  5  6  1  0  0  0  0
  6  7  1  0  0  0  0
  6 39  1  6  0  0  0
  7 42  1  6  0  0  0
  8  9  1  1  0  0  0
  8  7  1  0  0  0  0
 10 42  1  6  0  0  0
 10 11  1  0  0  0  0
 11 31  1  6  0  0  0
 11 13  1  0  0  0  0
 12 30  1  6  0  0  0
 12  1  1  0  0  0  0
 14 13  1  0  0  0  0
 15 16  1  6  0  0  0
 15 14  1  0  0  0  0
 17 19  1  6  0  0  0
 17 28  1  0  0  0  0
 18 34  1  0  0  0  0
 19 32  1  0  0  0  0
 20 18  1  1  0  0  0
 20 17  1  0  0  0  0
 20 43  1  0  0  0  0
 21 12  1  0  0  0  0
 22 21  1  0  0  0  0
 22 23  1  0  0  0  0
 23 24  1  6  0  0  0
 23 46  1  0  0  0  0
 24 33  1  0  0  0  0
 25 34  1  6  0  0  0
 25  4  1  0  0  0  0
 26 25  1  0  0  0  0
 27 35  1  6  0  0  0
 27 26  1  0  0  0  0
 27  2  1  0  0  0  0
 29 16  1  0  0  0  0
 40  8  1  0  0  0  0
 40  5  1  0  0  0  0
 41  9  1  0  0  0  0
 44 18  2  0  0  0  0
 45 15  1  0  0  0  0
 45 10  1  0  0  0  0
 46  1  1  0  0  0  0
M  END
>  <CHROM.1>
-77.44766600,164.81506980,-94.39098572,168.57281804,163.04660661,-179.65708119
168.27372498,-176.81443757,66.98488287,-141.62323722,154.01467752,175.73276246
167.25633032,12.68696888,-12.42602707,6.90271395,-1.12694825,-0.07699961
2.44505505

>  <Name>
lig.pdb

>  <RI>
0

>  <Rbt.Current_Directory>
/home/afrankz/demos/rdock_decoys_rna/rnas/3wru

>  <Rbt.Executable>
rbdock ($Id: //depot/dev/client3/rdock/2013.1/src/exe/rbdock.cxx#4 $)

>  <Rbt.Library>
libRbt.so (2013.1, Build901 2013/11/27)

>  <Rbt.Parameter_File>
/export/apps/rDock/src/rDock_2013.1_src/data/scripts/dock_solv.prm

>  <Rbt.Receptor>
prm/pocket_docking_5.prm

>  <SCORE>
1.23158

>  <SCORE.INTER>
1.62359

>  <SCORE.INTER.CONST>
1

>  <SCORE.INTER.POLAR>
0

>  <SCORE.INTER.ROT>
13

>  <SCORE.INTER.SOLV>
18.4876

>  <SCORE.INTER.VDW>
-17.3468

>  <SCORE.INTER.norm>
0.0352955

>  <SCORE.INTRA>
-0.392015

>  <SCORE.INTRA.DIHEDRAL>
-5.78094

>  <SCORE.INTRA.DIHEDRAL.0>
19.7146

>  <SCORE.INTRA.POLAR>
0

>  <SCORE.INTRA.POLAR.0>
0

>  <SCORE.INTRA.REPUL>
0

>  <SCORE.INTRA.REPUL.0>
0

>  <SCORE.INTRA.SOLV>
2.40076

>  <SCORE.INTRA.SOLV.lig_0>
-116.697

>  <SCORE.INTRA.VDW>
1.29807

>  <SCORE.INTRA.VDW.0>
-7.06424

>  <SCORE.INTRA.norm>
-0.00852207

>  <SCORE.RESTR>
0

>  <SCORE.RESTR.CAVITY>
0

>  <SCORE.RESTR.norm>
0

>  <SCORE.SYSTEM>
0

>  <SCORE.SYSTEM.CONST>
0

>  <SCORE.SYSTEM.DIHEDRAL>
0

>  <SCORE.SYSTEM.SOLV>
0

>  <SCORE.SYSTEM.norm>
0

>  <SCORE.heavy>
46

>  <SCORE.norm>
0.0267735

>  <RMSD>
7.275

$$$$
lig.pdb
 OpenBabel03061811583D
libRbt.so/2013.1/901 2013/11/27
 46 49  0  0  0  0  0  0  0  0999 V2000
   13.5896  -15.3248    7.5769 C   0  0  1  0  0  0  0  0  0  0  0  0
   13.4016  -12.9770    6.6491 C   0  0  1  0  0  0  0  0  0  0  0  0
   12.0042  -12.6496    7.2572 C   0  0  1  0  0  0  0  0  0  0  0  0
   11.3212  -11.4735    6.3894 C   0  0  2  0  0  0  0  0  0  0  0  0
    9.9963  -14.1461    7.6655 C   0  0  2  0  0  0  0  0  0  0  0  0
    8.9292  -14.3279    6.5489 C   0  0  1  0  0  0  0  0  0  0  0  0
    7.9482  -15.1655    7.3331 C   0  0  1  0  0  0  0  0  0  0  0  0
    8.8268  -16.2411    8.0473 C   0  0  1  0  0  0  0  0  0  0  0  0
    9.2354  -17.4980    7.2017 C   0  0  0  0  0  0  0  0  0  0  0  0
    6.1910  -14.8565    9.0362 C   0  0  1  0  0  0  0  0  0  0  0  0
    5.4980  -13.9240    9.9844 C   0  0  1  0  0  0  0  0  0  0  0  0
   14.4820  -16.1010    8.5740 C   0  0  1  0  0  0  0  0  0  0  0  0
    4.3857  -14.7263   10.7481 C   0  0  0  0  0  0  0  0  0  0  0  0
    4.8685  -15.8332   11.5230 C   0  0  0  0  0  0  0  0  0  0  0  0
    5.5146  -16.7751   10.6339 C   0  0  2  0  0  0  0  0  0  0  0  0
    6.0769  -18.0157   11.4337 C   0  0  0  0  0  0  0  0  0  0  0  0
   11.0658   -7.9836    2.4195 C   0  0  2  0  0  0  0  0  0  0  0  0
   11.2800   -9.3299    4.3416 C   0  0  0  0  0  0  0  0  0  0  0  0
   10.0836   -8.5435    1.6245 C   0  0  0  0  0  0  0  0  0  0  0  0
   10.6445   -7.9962    3.7085 C   0  0  1  0  0  0  0  0  0  0  0  0
   15.9503  -16.3122    7.9846 C   0  0  0  0  0  0  0  0  0  0  0  0
   15.8238  -17.1043    6.5958 C   0  0  0  0  0  0  0  0  0  0  0  0
   14.9166  -16.2300    5.6118 C   0  0  1  0  0  0  0  0  0  0  0  0
   14.7249  -16.9129    4.2523 C   0  0  0  0  0  0  0  0  0  0  0  0
   12.2366  -10.1778    6.5081 C   0  0  1  0  0  0  0  0  0  0  0  0
   13.6605  -10.5701    5.8415 C   0  0  0  0  0  0  0  0  0  0  0  0
   14.3333  -11.7398    6.6582 C   0  0  2  0  0  0  0  0  0  0  0  0
   11.3789   -6.6571    1.9378 F   0  0  0  0  0  0  0  0  0  0  0  0
    4.9571  -18.9207   12.0229 N   0  0  0  0  0  0  0  0  0  0  0  0
   14.4955  -15.3442    9.8803 N   0  0  0  0  0  0  0  0  0  0  0  0
    6.3270  -13.4003   10.9805 N   0  0  0  0  0  0  0  0  0  0  0  0
   10.0252   -8.7704    0.2293 N   0  0  0  0  0  0  0  0  0  0  0  0
   15.9626  -17.1079    3.6034 N   0  0  0  0  0  0  0  0  0  0  0  0
   11.6391   -9.0723    5.7378 N   0  0  0  0  0  0  0  0  0  0  0  0
   15.6296  -12.1175    6.0530 N   0  0  0  0  0  0  0  0  0  0  0  0
   14.0525  -13.9838    7.4134 O   0  0  0  0  0  0  0  0  0  0  0  0
   11.1986  -13.9145    7.1944 O   0  0  0  0  0  0  0  0  0  0  0  0
   10.0911  -11.2029    6.9458 O   0  0  0  0  0  0  0  0  0  0  0  0
    8.4478  -13.0670    6.1943 O   0  0  0  0  0  0  0  0  0  0  0  0
    9.8620  -15.3518    8.4984 O   0  0  0  0  0  0  0  0  0  0  0  0
    8.0189  -18.1385    6.7681 O   0  0  0  0  0  0  0  0  0  0  0  0
    7.2288  -14.2813    8.3355 O   0  0  0  0  0  0  0  0  0  0  0  0
   11.0862   -6.8437    4.4587 O   0  0  0  0  0  0  0  0  0  0  0  0
   11.4211  -10.4029    3.7324 O   0  0  0  0  0  0  0  0  0  0  0  0
    6.6199  -16.0947    9.8612 O   0  0  0  0  0  0  0  0  0  0  0  0
   13.5501  -16.0029    6.2374 O   0  0  0  0  0  0  0  0  0  0  0  0
  1 36  1  6  0  0  0
  2 36  1  1  0  0  0
  2  3  1  0  0  0  0
  3 37  1  6  0  0  0
  3  4  1  0  0  0  0
  4 38  1  1  0  0  0
  5 37  1  6  0  0  0
  5  6  1  0  0  0  0
  6  7  1  0  0  0  0
  6 39  1  1  0  0  0
  7 42  1  1  0  0  0
  8  9  1  6  0  0  0
  8  7  1  0  0  0  0
 10 42  1  1  0  0  0
 10 11  1  0  0  0  0
 11 31  1  1  0  0  0
 11 13  1  0  0  0  0
 12 30  1  1  0  0  0
 12  1  1  0  0  0  0
 14 13  1  0  0  0  0
 15 16  1  1  0  0  0
 15 14  1  0  0  0  0
 17 19  1  6  0  0  0
 17 28  1  0  0  0  0
 18 34  1  0  0  0  0
 19 32  1  0  0  0  0
 20 18  1  1  0  0  0
 20 17  1  0  0  0  0
 20 43  1  0  0  0  0
 21 12  1  0  0  0  0
 22 21  1  0  0  0  0
 22 23  1  0  0  0  0
 23 24  1  6  0  0  0
 23 46  1  0  0  0  0
 24 33  1  0  0  0  0
 25 34  1  6  0  0  0
 25  4  1  0  0  0  0
 26 25  1  0  0  0  0
 27 35  1  6  0  0  0
 27 26  1  0  0  0  0
 27  2  1  0  0  0  0
 29 16  1  0  0  0  0
 40  8  1  0  0  0  0
 40  5  1  0  0  0  0
 41  9  1  0  0  0  0
 44 18  2  0  0  0  0
 45 15  1  0  0  0  0
 45 10  1  0  0  0  0
 46  1  1  0  0  0  0
M  END
>  <CHROM.1>
-174.96557387,63.58953467,175.22931571,110.53357628,173.10617092,-58.81103115
-178.51328665,68.38468578,-179.73784613,144.55869221,95.51507312,-60.64017636
-51.94793831,10.61709591,-13.52140490,6.88212140,-0.97787768,-0.31674883
2.59818243

>  <Name>
lig.pdb

>  <RI>
0

>  <Rbt.Current_Directory>
/home/afrankz/demos/rdock_decoys_rna/rnas/3wru

>  <Rbt.Executable>
rbdock ($Id: //depot/dev/client3/rdock/2013.1/src/exe/rbdock.cxx#4 $)

>  <Rbt.Library>
libRbt.so (2013.1, Build901 2013/11/27)

>  <Rbt.Parameter_File>
/export/apps/rDock/src/rDock_2013.1_src/data/scripts/dock_solv.prm

>  <Rbt.Receptor>
prm/pocket_docking_6.prm

>  <SCORE>
-1.42086

>  <SCORE.INTER>
0.837969

>  <SCORE.INTER.CONST>
1

>  <SCORE.INTER.POLAR>
0

>  <SCORE.INTER.ROT>
13

>  <SCORE.INTER.SOLV>
16.0492

>  <SCORE.INTER.VDW>
-17.0577

>  <SCORE.INTER.norm>
0.0182167

>  <SCORE.INTRA>
-2.25883

>  <SCORE.INTRA.DIHEDRAL>
-7.01097

>  <SCORE.INTRA.DIHEDRAL.0>
19.7146

>  <SCORE.INTRA.POLAR>
0

>  <SCORE.INTRA.POLAR.0>
0

>  <SCORE.INTRA.REPUL>
0

>  <SCORE.INTRA.REPUL.0>
0

>  <SCORE.INTRA.SOLV>
-2.72954

>  <SCORE.INTRA.SOLV.lig_0>
-116.697

>  <SCORE.INTRA.VDW>
2.61143

>  <SCORE.INTRA.VDW.0>
-7.06424

>  <SCORE.INTRA.norm>
-0.0491049

>  <SCORE.RESTR>
0

>  <SCORE.RESTR.CAVITY>
0

>  <SCORE.RESTR.norm>
0

>  <SCORE.SYSTEM>
0

>  <SCORE.SYSTEM.CONST>
0

>  <SCORE.SYSTEM.DIHEDRAL>
0

>  <SCORE.SYSTEM.SOLV>
0

>  <SCORE.SYSTEM.norm>
0

>  <SCORE.heavy>
46

>  <SCORE.norm>
-0.0308882

>  <RMSD>
7.275

$$$$
lig.pdb
 OpenBabel03061811583D
libRbt.so/2013.1/901 2013/11/27
 46 49  0  0  0  0  0  0  0  0999 V2000
   15.1126  -14.2633    6.1572 C   0  0  1  0  0  0  0  0  0  0  0  0
   13.8822  -12.1772    5.4207 C   0  0  1  0  0  0  0  0  0  0  0  0
   12.6208  -11.3957    5.8982 C   0  0  1  0  0  0  0  0  0  0  0  0
   12.2384  -10.2934    4.7839 C   0  0  2  0  0  0  0  0  0  0  0  0
   11.3544  -13.2802    7.0308 C   0  0  2  0  0  0  0  0  0  0  0  0
   11.1107  -12.6179    8.4168 C   0  0  1  0  0  0  0  0  0  0  0  0
   10.3558  -13.7555    9.0609 C   0  0  1  0  0  0  0  0  0  0  0  0
    9.3194  -14.2050    7.9826 C   0  0  1  0  0  0  0  0  0  0  0  0
    7.9937  -13.3718    7.8829 C   0  0  0  0  0  0  0  0  0  0  0  0
   12.0500  -14.7357   10.5618 C   0  0  1  0  0  0  0  0  0  0  0  0
   12.7851  -15.9748   10.9780 C   0  0  1  0  0  0  0  0  0  0  0  0
   14.2816  -15.4772    5.6785 C   0  0  1  0  0  0  0  0  0  0  0  0
   13.5090  -15.6900   12.3415 C   0  0  0  0  0  0  0  0  0  0  0  0
   12.6351  -15.3352   13.4228 C   0  0  0  0  0  0  0  0  0  0  0  0
   11.9321  -14.1197   13.0713 C   0  0  2  0  0  0  0  0  0  0  0  0
   10.9443  -13.6827   14.2237 C   0  0  0  0  0  0  0  0  0  0  0  0
   10.7453   -5.6985    2.9305 C   0  0  2  0  0  0  0  0  0  0  0  0
   12.2006   -7.1740    4.0520 C   0  0  0  0  0  0  0  0  0  0  0  0
   10.6137   -4.5667    2.1483 C   0  0  0  0  0  0  0  0  0  0  0  0
   12.0140   -6.1638    2.8159 C   0  0  1  0  0  0  0  0  0  0  0  0
   13.3166  -16.0033    6.8359 C   0  0  0  0  0  0  0  0  0  0  0  0
   14.2196  -16.3938    8.1026 C   0  0  0  0  0  0  0  0  0  0  0  0
   15.0218  -15.0874    8.5561 C   0  0  1  0  0  0  0  0  0  0  0  0
   15.9292  -15.3628    9.7612 C   0  0  0  0  0  0  0  0  0  0  0  0
   13.4498   -9.2688    4.6677 C   0  0  1  0  0  0  0  0  0  0  0  0
   14.7197  -10.1304    4.1472 C   0  0  0  0  0  0  0  0  0  0  0  0
   15.0930  -11.2347    5.2098 C   0  0  2  0  0  0  0  0  0  0  0  0
    9.7474   -6.6707    2.5447 F   0  0  0  0  0  0  0  0  0  0  0  0
   10.1198  -12.4113   13.8716 N   0  0  0  0  0  0  0  0  0  0  0  0
   13.5182  -15.0661    4.4426 N   0  0  0  0  0  0  0  0  0  0  0  0
   11.9594  -17.0762   11.2199 N   0  0  0  0  0  0  0  0  0  0  0  0
   10.6446   -4.3900    0.7451 N   0  0  0  0  0  0  0  0  0  0  0  0
   16.6642  -14.2119   10.1165 N   0  0  0  0  0  0  0  0  0  0  0  0
   13.1341   -8.2343    3.6664 N   0  0  0  0  0  0  0  0  0  0  0  0
   16.2440  -12.0382    4.7419 N   0  0  0  0  0  0  0  0  0  0  0  0
   14.2741  -13.1327    6.3979 O   0  0  0  0  0  0  0  0  0  0  0  0
   11.5243  -12.4068    6.0668 O   0  0  0  0  0  0  0  0  0  0  0  0
   11.1240   -9.6178    5.2285 O   0  0  0  0  0  0  0  0  0  0  0  0
   12.3508  -12.3532    8.9993 O   0  0  0  0  0  0  0  0  0  0  0  0
   10.2186  -14.2002    6.8613 O   0  0  0  0  0  0  0  0  0  0  0  0
    8.3423  -12.0682    7.3759 O   0  0  0  0  0  0  0  0  0  0  0  0
   11.3285  -14.8718    9.3957 O   0  0  0  0  0  0  0  0  0  0  0  0
   12.2489   -6.8651    1.5752 O   0  0  0  0  0  0  0  0  0  0  0  0
   11.6453   -7.0493    5.1560 O   0  0  0  0  0  0  0  0  0  0  0  0
   11.1854  -14.3021   11.7710 O   0  0  0  0  0  0  0  0  0  0  0  0
   15.8809  -14.5863    7.4067 O   0  0  0  0  0  0  0  0  0  0  0  0
  1 36  1  1  0  0  0
  2 36  1  1  0  0  0
  2  3  1  0  0  0  0
  3 37  1  6  0  0  0
  3  4  1  0  0  0  0
  4 38  1  1  0  0  0
  5 37  1  6  0  0  0
  5  6  1  0  0  0  0
  6  7  1  0  0  0  0
  6 39  1  1  0  0  0
  7 42  1  6  0  0  0
  8  9  1  6  0  0  0
  8  7  1  0  0  0  0
 10 42  1  6  0  0  0
 10 11  1  0  0  0  0
 11 31  1  1  0  0  0
 11 13  1  0  0  0  0
 12 30  1  6  0  0  0
 12  1  1  0  0  0  0
 14 13  1  0  0  0  0
 15 16  1  1  0  0  0
 15 14  1  0  0  0  0
 17 19  1  6  0  0  0
 17 28  1  0  0  0  0
 18 34  1  0  0  0  0
 19 32  1  0  0  0  0
 20 18  1  1  0  0  0
 20 17  1  0  0  0  0
 20 43  1  0  0  0  0
 21 12  1  0  0  0  0
 22 21  1  0  0  0  0
 22 23  1  0  0  0  0
 23 24  1  1  0  0  0
 23 46  1  0  0  0  0
 24 33  1  0  0  0  0
 25 34  1  6  0  0  0
 25  4  1  0  0  0  0
 26 25  1  0  0  0  0
 27 35  1  6  0  0  0
 27 26  1  0  0  0  0
 27  2  1  0  0  0  0
 29 16  1  0  0  0  0
 40  8  1  0  0  0  0
 40  5  1  0  0  0  0
 41  9  1  0  0  0  0
 44 18  2  0  0  0  0
 45 15  1  0  0  0  0
 45 10  1  0  0  0  0
 46  1  1  0  0  0  0
M  END
>  <CHROM.1>
-86.96536055,160.72970212,75.74581539,63.76700595,81.65353238,68.45886564
168.57950692,-177.65930719,67.25011234,148.98186411,163.68097954,177.89099319
76.38872651,12.38316689,-12.11449953,7.13849260,-1.46627922,0.58661373,-0.83254811

>  <Name>
lig.pdb

>  <RI>
0

>  <Rbt.Current_Directory>
/home/afrankz/demos/rdock_decoys_rna/rnas/3wru

>  <Rbt.Executable>
rbdock ($Id: //depot/dev/client3/rdock/2013.1/src/exe/rbdock.cxx#4 $)

>  <Rbt.Library>
libRbt.so (2013.1, Build901 2013/11/27)

>  <Rbt.Parameter_File>
/export/apps/rDock/src/rDock_2013.1_src/data/scripts/dock_solv.prm

>  <Rbt.Receptor>
prm/pocket_docking_6.prm

>  <SCORE>
-2.85449

>  <SCORE.INTER>
-0.172306

>  <SCORE.INTER.CONST>
1

>  <SCORE.INTER.POLAR>
0

>  <SCORE.INTER.ROT>
13

>  <SCORE.INTER.SOLV>
21.6499

>  <SCORE.INTER.VDW>
-19.5982

>  <SCORE.INTER.norm>
-0.00374578

>  <SCORE.INTRA>
-2.68218

>  <SCORE.INTRA.DIHEDRAL>
-7.71908

>  <SCORE.INTRA.DIHEDRAL.0>
19.7146

>  <SCORE.INTRA.POLAR>
0

>  <SCORE.INTRA.POLAR.0>
0

>  <SCORE.INTRA.REPUL>
0

>  <SCORE.INTRA.REPUL.0>
0

>  <SCORE.INTRA.SOLV>
4.02492

>  <SCORE.INTRA.SOLV.lig_0>
-116.697

>  <SCORE.INTRA.VDW>
-0.835097

>  <SCORE.INTRA.VDW.0>
-7.06424

>  <SCORE.INTRA.norm>
-0.0583083

>  <SCORE.RESTR>
0

>  <SCORE.RESTR.CAVITY>
0

>  <SCORE.RESTR.norm>
0

>  <SCORE.SYSTEM>
0

>  <SCORE.SYSTEM.CONST>
0

>  <SCORE.SYSTEM.DIHEDRAL>
0

>  <SCORE.SYSTEM.SOLV>
0

>  <SCORE.SYSTEM.norm>
0

>  <SCORE.heavy>
46

>  <SCORE.norm>
-0.062054

>  <RMSD>
7.332

$$$$
lig.pdb
 OpenBabel03061811583D
libRbt.so/2013.1/901 2013/11/27
 46 49  0  0  0  0  0  0  0  0999 V2000
   18.4955  -12.5847    7.1441 C   0  0  1  0  0  0  0  0  0  0  0  0
   16.1017  -12.3066    6.3692 C   0  0  1  0  0  0  0  0  0  0  0  0
   14.6691  -12.4569    6.9649 C   0  0  1  0  0  0  0  0  0  0  0  0
   13.5903  -12.0569    5.8340 C   0  0  2  0  0  0  0  0  0  0  0  0
   13.6118  -14.4338    8.1532 C   0  0  2  0  0  0  0  0  0  0  0  0
   13.7980  -14.0744    9.6548 C   0  0  1  0  0  0  0  0  0  0  0  0
   12.3651  -14.2598   10.0921 C   0  0  1  0  0  0  0  0  0  0  0  0
   11.5191  -13.5342    8.9980 C   0  0  1  0  0  0  0  0  0  0  0  0
   11.3676  -11.9786    9.1350 C   0  0  0  0  0  0  0  0  0  0  0  0
   10.7175  -16.0953   10.0997 C   0  0  1  0  0  0  0  0  0  0  0  0
    9.8584  -15.3814   11.1003 C   0  0  1  0  0  0  0  0  0  0  0  0
   18.8976  -13.4814    5.9494 C   0  0  1  0  0  0  0  0  0  0  0  0
    8.3901  -15.9214   10.9713 C   0  0  0  0  0  0  0  0  0  0  0  0
    8.2434  -17.3274   11.2168 C   0  0  0  0  0  0  0  0  0  0  0  0
    9.0329  -18.0529   10.2445 C   0  0  2  0  0  0  0  0  0  0  0  0
    8.9184  -19.6120   10.4708 C   0  0  0  0  0  0  0  0  0  0  0  0
   11.1659   -7.1959    3.1689 C   0  0  2  0  0  0  0  0  0  0  0  0
   12.2789   -8.7697    4.5244 C   0  0  0  0  0  0  0  0  0  0  0  0
   10.4368   -6.9127    2.0295 C   0  0  0  0  0  0  0  0  0  0  0  0
   11.2517   -8.5421    3.3094 C   0  0  1  0  0  0  0  0  0  0  0  0
   18.6265  -15.0210    6.2716 C   0  0  0  0  0  0  0  0  0  0  0  0
   19.4598  -15.4126    7.5849 C   0  0  0  0  0  0  0  0  0  0  0  0
   18.9697  -14.4681    8.7781 C   0  0  1  0  0  0  0  0  0  0  0  0
   19.7208  -14.7586   10.0830 C   0  0  0  0  0  0  0  0  0  0  0  0
   13.8181  -10.5291    5.4535 C   0  0  1  0  0  0  0  0  0  0  0  0
   15.3072  -10.4401    4.8207 C   0  0  0  0  0  0  0  0  0  0  0  0
   16.3775  -10.8558    5.9023 C   0  0  2  0  0  0  0  0  0  0  0  0
   10.5565   -6.5444    4.3064 F   0  0  0  0  0  0  0  0  0  0  0  0
    9.0741  -20.0254   11.9625 N   0  0  0  0  0  0  0  0  0  0  0  0
   18.1380  -13.0113    4.7322 N   0  0  0  0  0  0  0  0  0  0  0  0
   10.2208  -15.6082   12.4310 N   0  0  0  0  0  0  0  0  0  0  0  0
    9.1052   -7.2254    1.6686 N   0  0  0  0  0  0  0  0  0  0  0  0
   21.1047  -14.5263    9.9343 N   0  0  0  0  0  0  0  0  0  0  0  0
   12.8407  -10.1187    4.4294 N   0  0  0  0  0  0  0  0  0  0  0  0
   17.7423  -10.7914    5.3343 N   0  0  0  0  0  0  0  0  0  0  0  0
   17.0829  -12.6127    7.3515 O   0  0  0  0  0  0  0  0  0  0  0  0
   14.5217  -13.8922    7.3786 O   0  0  0  0  0  0  0  0  0  0  0  0
   12.3357  -12.1972    6.3839 O   0  0  0  0  0  0  0  0  0  0  0  0
   14.6893  -14.9894   10.2165 O   0  0  0  0  0  0  0  0  0  0  0  0
   12.2204  -14.0573    7.8576 O   0  0  0  0  0  0  0  0  0  0  0  0
   10.9869  -11.7021   10.4977 O   0  0  0  0  0  0  0  0  0  0  0  0
   12.0490  -15.7435   10.1453 O   0  0  0  0  0  0  0  0  0  0  0  0
    9.9840   -9.1596    3.6224 O   0  0  0  0  0  0  0  0  0  0  0  0
   12.5517   -7.9190    5.3873 O   0  0  0  0  0  0  0  0  0  0  0  0
   10.4761  -17.6110   10.3047 O   0  0  0  0  0  0  0  0  0  0  0  0
   19.1908  -13.0114    8.4052 O   0  0  0  0  0  0  0  0  0  0  0  0
  1 36  1  1  0  0  0
  2 36  1  1  0  0  0
  2  3  1  0  0  0  0
  3 37  1  6  0  0  0
  3  4  1  0  0  0  0
  4 38  1  1  0  0  0
  5 37  1  6  0  0  0
  5  6  1  0  0  0  0
  6  7  1  0  0  0  0
  6 39  1  1  0  0  0
  7 42  1  6  0  0  0
  8  9  1  1  0  0  0
  8  7  1  0  0  0  0
 10 42  1  1  0  0  0
 10 11  1  0  0  0  0
 11 31  1  1  0  0  0
 11 13  1  0  0  0  0
 12 30  1  6  0  0  0
 12  1  1  0  0  0  0
 14 13  1  0  0  0  0
 15 16  1  1  0  0  0
 15 14  1  0  0  0  0
 17 19  1  6  0  0  0
 17 28  1  0  0  0  0
 18 34  1  0  0  0  0
 19 32  1  0  0  0  0
 20 18  1  1  0  0  0
 20 17  1  0  0  0  0
 20 43  1  0  0  0  0
 21 12  1  0  0  0  0
 22 21  1  0  0  0  0
 22 23  1  0  0  0  0
 23 24  1  1  0  0  0
 23 46  1  0  0  0  0
 24 33  1  0  0  0  0
 25 34  1  6  0  0  0
 25  4  1  0  0  0  0
 26 25  1  0  0  0  0
 27 35  1  6  0  0  0
 27 26  1  0  0  0  0
 27  2  1  0  0  0  0
 29 16  1  0  0  0  0
 40  8  1  0  0  0  0
 40  5  1  0  0  0  0
 41  9  1  0  0  0  0
 44 18  2  0  0  0  0
 45 15  1  0  0  0  0
 45 10  1  0  0  0  0
 46  1  1  0  0  0  0
M  END
>  <CHROM.1>
-55.06138050,179.59950122,165.33342140,-72.85469018,-159.72580674,-48.45172125
-51.52294103,-45.92017600,60.77387940,-158.15121707,172.21867535,61.26724796
142.04705164,13.48511492,-12.94764839,7.53660732,-1.38990475,-0.06472823
2.45713400

>  <Name>
lig.pdb

>  <RI>
0

>  <Rbt.Current_Directory>
/home/afrankz/demos/rdock_decoys_rna/rnas/3wru

>  <Rbt.Executable>
rbdock ($Id: //depot/dev/client3/rdock/2013.1/src/exe/rbdock.cxx#4 $)

>  <Rbt.Library>
libRbt.so (2013.1, Build901 2013/11/27)

>  <Rbt.Parameter_File>
/export/apps/rDock/src/rDock_2013.1_src/data/scripts/dock_solv.prm

>  <Rbt.Receptor>
prm/pocket_docking_2.prm

>  <SCORE>
21.4037

>  <SCORE.INTER>
11.1027

>  <SCORE.INTER.CONST>
1

>  <SCORE.INTER.POLAR>
0

>  <SCORE.INTER.ROT>
13

>  <SCORE.INTER.SOLV>
26.7829

>  <SCORE.INTER.VDW>
-13.7925

>  <SCORE.INTER.norm>
0.241362

>  <SCORE.INTRA>
5.63156

>  <SCORE.INTRA.DIHEDRAL>
-11.9714

>  <SCORE.INTRA.DIHEDRAL.0>
19.7146

>  <SCORE.INTRA.POLAR>
0

>  <SCORE.INTRA.POLAR.0>
0

>  <SCORE.INTRA.REPUL>
0

>  <SCORE.INTRA.REPUL.0>
0

>  <SCORE.INTRA.SOLV>
7.01657

>  <SCORE.INTRA.SOLV.lig_0>
-116.697

>  <SCORE.INTRA.VDW>
8.10899

>  <SCORE.INTRA.VDW.0>
-7.06424

>  <SCORE.INTRA.norm>
0.122425

>  <SCORE.RESTR>
4.66946

>  <SCORE.RESTR.CAVITY>
4.66946

>  <SCORE.RESTR.norm>
0.10151

>  <SCORE.SYSTEM>
0

>  <SCORE.SYSTEM.CONST>
0

>  <SCORE.SYSTEM.DIHEDRAL>
0

>  <SCORE.SYSTEM.SOLV>
0

>  <SCORE.SYSTEM.norm>
0

>  <SCORE.heavy>
46

>  <SCORE.norm>
0.465298

>  <RMSD>
7.340

$$$$
lig.pdb
 OpenBabel03061811583D
libRbt.so/2013.1/901 2013/11/27
 46 49  0  0  0  0  0  0  0  0999 V2000
   11.3340  -17.1633   12.0804 C   0  0  1  0  0  0  0  0  0  0  0  0
   12.2680  -16.4547    9.8369 C   0  0  1  0  0  0  0  0  0  0  0  0
   12.6137  -14.9739   10.1797 C   0  0  1  0  0  0  0  0  0  0  0  0
   13.8322  -14.4923    9.2383 C   0  0  2  0  0  0  0  0  0  0  0  0
   11.0728  -13.4340    8.8788 C   0  0  2  0  0  0  0  0  0  0  0  0
   10.7525  -14.2767    7.6116 C   0  0  1  0  0  0  0  0  0  0  0  0
    9.8823  -13.2660    6.9043 C   0  0  1  0  0  0  0  0  0  0  0  0
    8.9157  -12.7325    8.0089 C   0  0  1  0  0  0  0  0  0  0  0  0
    7.6529  -13.6073    8.3283 C   0  0  0  0  0  0  0  0  0  0  0  0
   10.1985  -11.3512    5.3820 C   0  0  1  0  0  0  0  0  0  0  0  0
   10.0816  -11.9993    4.0347 C   0  0  1  0  0  0  0  0  0  0  0  0
   10.0154  -17.7356   12.6522 C   0  0  1  0  0  0  0  0  0  0  0  0
    9.4858  -10.9521    3.0284 C   0  0  0  0  0  0  0  0  0  0  0  0
   10.2750   -9.7659    2.8585 C   0  0  0  0  0  0  0  0  0  0  0  0
   10.3805   -9.0922    4.1352 C   0  0  2  0  0  0  0  0  0  0  0  0
   11.2492   -7.7787    4.0129 C   0  0  0  0  0  0  0  0  0  0  0  0
   19.1886  -12.8605    8.8630 C   0  0  2  0  0  0  0  0  0  0  0  0
   17.1539  -13.9702    9.2890 C   0  0  0  0  0  0  0  0  0  0  0  0
   20.3473  -13.5651    9.1296 C   0  0  0  0  0  0  0  0  0  0  0  0
   18.3181  -13.6780    8.2202 C   0  0  1  0  0  0  0  0  0  0  0  0
    8.8414  -16.6570   12.5751 C   0  0  0  0  0  0  0  0  0  0  0  0
    9.3011  -15.3563   13.3932 C   0  0  0  0  0  0  0  0  0  0  0  0
   10.6472  -14.8072   12.7279 C   0  0  1  0  0  0  0  0  0  0  0  0
   11.1768  -13.5634   13.4516 C   0  0  0  0  0  0  0  0  0  0  0  0
   15.0996  -15.3941    9.5721 C   0  0  1  0  0  0  0  0  0  0  0  0
   14.6900  -16.9107    9.1746 C   0  0  0  0  0  0  0  0  0  0  0  0
   13.4797  -17.3922   10.0642 C   0  0  2  0  0  0  0  0  0  0  0  0
   19.5102  -11.6694    8.1097 F   0  0  0  0  0  0  0  0  0  0  0  0
   12.6739   -8.0396    3.4452 N   0  0  0  0  0  0  0  0  0  0  0  0
    9.6817  -18.9968   11.8922 N   0  0  0  0  0  0  0  0  0  0  0  0
   11.3032  -12.3920    3.4805 N   0  0  0  0  0  0  0  0  0  0  0  0
   21.6012  -13.1478    9.6347 N   0  0  0  0  0  0  0  0  0  0  0  0
   10.2890  -12.4761   13.3077 N   0  0  0  0  0  0  0  0  0  0  0  0
   16.2423  -14.9764    8.7402 N   0  0  0  0  0  0  0  0  0  0  0  0
   13.0862  -18.7722    9.7033 N   0  0  0  0  0  0  0  0  0  0  0  0
   11.2226  -16.9280   10.6763 O   0  0  0  0  0  0  0  0  0  0  0  0
   11.3726  -14.1698    9.9228 O   0  0  0  0  0  0  0  0  0  0  0  0
   14.1183  -13.1844    9.5602 O   0  0  0  0  0  0  0  0  0  0  0  0
   11.9526  -14.5549    6.9562 O   0  0  0  0  0  0  0  0  0  0  0  0
    9.9043  -12.5539    9.0368 O   0  0  0  0  0  0  0  0  0  0  0  0
    8.1139  -14.9471    8.5935 O   0  0  0  0  0  0  0  0  0  0  0  0
   10.7580  -12.1570    6.3498 O   0  0  0  0  0  0  0  0  0  0  0  0
   17.7507  -13.0791    7.0346 O   0  0  0  0  0  0  0  0  0  0  0  0
   17.0672  -13.4302   10.4041 O   0  0  0  0  0  0  0  0  0  0  0  0
   10.9642  -10.0216    5.1730 O   0  0  0  0  0  0  0  0  0  0  0  0
   11.7181  -15.8850   12.7689 O   0  0  0  0  0  0  0  0  0  0  0  0
  1 36  1  6  0  0  0
  2 36  1  1  0  0  0
  2  3  1  0  0  0  0
  3 37  1  6  0  0  0
  3  4  1  0  0  0  0
  4 38  1  1  0  0  0
  5 37  1  1  0  0  0
  5  6  1  0  0  0  0
  6  7  1  0  0  0  0
  6 39  1  6  0  0  0
  7 42  1  1  0  0  0
  8  9  1  1  0  0  0
  8  7  1  0  0  0  0
 10 42  1  1  0  0  0
 10 11  1  0  0  0  0
 11 31  1  6  0  0  0
 11 13  1  0  0  0  0
 12 30  1  6  0  0  0
 12  1  1  0  0  0  0
 14 13  1  0  0  0  0
 15 16  1  6  0  0  0
 15 14  1  0  0  0  0
 17 19  1  6  0  0  0
 17 28  1  0  0  0  0
 18 34  1  0  0  0  0
 19 32  1  0  0  0  0
 20 18  1  1  0  0  0
 20 17  1  0  0  0  0
 20 43  1  0  0  0  0
 21 12  1  0  0  0  0
 22 21  1  0  0  0  0
 22 23  1  0  0  0  0
 23 24  1  1  0  0  0
 23 46  1  0  0  0  0
 24 33  1  0  0  0  0
 25 34  1  6  0  0  0
 25  4  1  0  0  0  0
 26 25  1  0  0  0  0
 27 35  1  6  0  0  0
 27 26  1  0  0  0  0
 27  2  1  0  0  0  0
 29 16  1  0  0  0  0
 40  8  1  0  0  0  0
 40  5  1  0  0  0  0
 41  9  1  0  0  0  0
 44 18  2  0  0  0  0
 45 15  1  0  0  0  0
 45 10  1  0  0  0  0
 46  1  1  0  0  0  0
M  END
>  <CHROM.1>
-177.43915731,-68.59695773,-99.78546816,71.69206268,163.03731475,52.35925026
-74.56966227,-56.47789592,171.84744959,-173.32630457,109.34289098,-65.65731348
91.88133788,12.59342852,-13.76639600,8.65706356,1.38576568,0.04500522,2.26259468

>  <Name>
lig.pdb

>  <RI>
0

>  <Rbt.Current_Directory>
/home/afrankz/demos/rdock_decoys_rna/rnas/3wru

>  <Rbt.Executable>
rbdock ($Id: //depot/dev/client3/rdock/2013.1/src/exe/rbdock.cxx#4 $)

>  <Rbt.Library>
libRbt.so (2013.1, Build901 2013/11/27)

>  <Rbt.Parameter_File>
/export/apps/rDock/src/rDock_2013.1_src/data/scripts/dock_solv.prm

>  <Rbt.Receptor>
prm/pocket_docking_6.prm

>  <SCORE>
-5.54652

>  <SCORE.INTER>
-5.07197

>  <SCORE.INTER.CONST>
1

>  <SCORE.INTER.POLAR>
0

>  <SCORE.INTER.ROT>
13

>  <SCORE.INTER.SOLV>
19.5013

>  <SCORE.INTER.VDW>
-22.1484

>  <SCORE.INTER.norm>
-0.11026

>  <SCORE.INTRA>
-0.474556

>  <SCORE.INTRA.DIHEDRAL>
-4.40063

>  <SCORE.INTRA.DIHEDRAL.0>
19.7146

>  <SCORE.INTRA.POLAR>
0

>  <SCORE.INTRA.POLAR.0>
0

>  <SCORE.INTRA.REPUL>
0.0883734

>  <SCORE.INTRA.REPUL.0>
0

>  <SCORE.INTRA.SOLV>
-0.413668

>  <SCORE.INTRA.SOLV.lig_0>
-116.697

>  <SCORE.INTRA.VDW>
1.49073

>  <SCORE.INTRA.VDW.0>
-7.06424

>  <SCORE.INTRA.norm>
-0.0103164

>  <SCORE.RESTR>
0

>  <SCORE.RESTR.CAVITY>
0

>  <SCORE.RESTR.norm>
0

>  <SCORE.SYSTEM>
0

>  <SCORE.SYSTEM.CONST>
0

>  <SCORE.SYSTEM.DIHEDRAL>
0

>  <SCORE.SYSTEM.SOLV>
0

>  <SCORE.SYSTEM.norm>
0

>  <SCORE.heavy>
46

>  <SCORE.norm>
-0.120577

>  <RMSD>
7.366

$$$$
lig.pdb
 OpenBabel03061811583D
libRbt.so/2013.1/901 2013/11/27
 46 49  0  0  0  0  0  0  0  0999 V2000
    8.1223  -11.7102   10.5823 C   0  0  1  0  0  0  0  0  0  0  0  0
    9.2703  -12.3346    8.4143 C   0  0  1  0  0  0  0  0  0  0  0  0
    8.0585  -12.5700    7.4626 C   0  0  1  0  0  0  0  0  0  0  0  0
    8.5061  -13.5845    6.2906 C   0  0  2  0  0  0  0  0  0  0  0  0
    6.9658  -14.2527    9.0159 C   0  0  2  0  0  0  0  0  0  0  0  0
    5.5400  -14.7339    9.4086 C   0  0  1  0  0  0  0  0  0  0  0  0
    5.8576  -16.1985    9.5902 C   0  0  1  0  0  0  0  0  0  0  0  0
    6.7214  -16.5747    8.3446 C   0  0  1  0  0  0  0  0  0  0  0  0
    5.9488  -16.8990    7.0181 C   0  0  0  0  0  0  0  0  0  0  0  0
    6.6864  -17.6599   11.3961 C   0  0  1  0  0  0  0  0  0  0  0  0
    5.3441  -18.2531   11.7049 C   0  0  1  0  0  0  0  0  0  0  0  0
    7.7181  -10.4164   11.3280 C   0  0  1  0  0  0  0  0  0  0  0  0
    5.5608  -19.6752   12.3332 C   0  0  0  0  0  0  0  0  0  0  0  0
    6.3162  -19.6842   13.5530 C   0  0  0  0  0  0  0  0  0  0  0  0
    7.6347  -19.1498   13.2861 C   0  0  2  0  0  0  0  0  0  0  0  0
    8.5131  -19.1257   14.5986 C   0  0  0  0  0  0  0  0  0  0  0  0
   12.0519  -15.1700    2.8532 C   0  0  2  0  0  0  0  0  0  0  0  0
   10.8400  -13.1884    3.2499 C   0  0  0  0  0  0  0  0  0  0  0  0
   12.1747  -16.3450    2.1359 C   0  0  0  0  0  0  0  0  0  0  0  0
   11.2088  -14.3396    2.1907 C   0  0  1  0  0  0  0  0  0  0  0  0
    8.9923   -9.7070   11.9768 C   0  0  0  0  0  0  0  0  0  0  0  0
    9.6904  -10.7480   12.9774 C   0  0  0  0  0  0  0  0  0  0  0  0
   10.1050  -12.0402   12.1322 C   0  0  1  0  0  0  0  0  0  0  0  0
   10.7738  -13.1064   13.0081 C   0  0  0  0  0  0  0  0  0  0  0  0
    9.6716  -12.8925    5.4578 C   0  0  1  0  0  0  0  0  0  0  0  0
   10.9060  -12.6959    6.4890 C   0  0  0  0  0  0  0  0  0  0  0  0
   10.4803  -11.7291    7.6604 C   0  0  2  0  0  0  0  0  0  0  0  0
   13.3612  -14.5963    3.0679 F   0  0  0  0  0  0  0  0  0  0  0  0
    8.6801  -20.5298   15.2473 N   0  0  0  0  0  0  0  0  0  0  0  0
    6.9998   -9.5162   10.3518 N   0  0  0  0  0  0  0  0  0  0  0  0
    4.6066  -17.5379   12.6525 N   0  0  0  0  0  0  0  0  0  0  0  0
   12.9408  -17.5104    2.3727 N   0  0  0  0  0  0  0  0  0  0  0  0
    9.8719  -13.6136   13.9675 N   0  0  0  0  0  0  0  0  0  0  0  0
   10.1015  -13.7838    4.3655 N   0  0  0  0  0  0  0  0  0  0  0  0
   11.5944  -11.5501    8.6174 N   0  0  0  0  0  0  0  0  0  0  0  0
    8.9250  -11.4120    9.4395 O   0  0  0  0  0  0  0  0  0  0  0  0
    6.9580  -13.1531    8.3004 O   0  0  0  0  0  0  0  0  0  0  0  0
    7.4208  -13.7755    5.4650 O   0  0  0  0  0  0  0  0  0  0  0  0
    5.1659  -14.0808   10.5837 O   0  0  0  0  0  0  0  0  0  0  0  0
    7.5822  -15.4241    8.3733 O   0  0  0  0  0  0  0  0  0  0  0  0
    6.9340  -17.1922    6.0074 O   0  0  0  0  0  0  0  0  0  0  0  0
    6.6347  -16.3828   10.8811 O   0  0  0  0  0  0  0  0  0  0  0  0
   11.8062  -13.7469    1.0167 O   0  0  0  0  0  0  0  0  0  0  0  0
   11.1540  -11.9926    3.1312 O   0  0  0  0  0  0  0  0  0  0  0  0
    7.5297  -17.7656   12.6904 O   0  0  0  0  0  0  0  0  0  0  0  0
    8.8721  -12.6485   11.4841 O   0  0  0  0  0  0  0  0  0  0  0  0
  1 36  1  6  0  0  0
  2 36  1  1  0  0  0
  2  3  1  0  0  0  0
  3 37  1  1  0  0  0
  3  4  1  0  0  0  0
  4 38  1  6  0  0  0
  5 37  1  6  0  0  0
  5  6  1  0  0  0  0
  6  7  1  0  0  0  0
  6 39  1  1  0  0  0
  7 42  1  1  0  0  0
  8  9  1  6  0  0  0
  8  7  1  0  0  0  0
 10 42  1  1  0  0  0
 10 11  1  0  0  0  0
 11 31  1  1  0  0  0
 11 13  1  0  0  0  0
 12 30  1  6  0  0  0
 12  1  1  0  0  0  0
 14 13  1  0  0  0  0
 15 16  1  1  0  0  0
 15 14  1  0  0  0  0
 17 19  1  6  0  0  0
 17 28  1  0  0  0  0
 18 34  1  0  0  0  0
 19 32  1  0  0  0  0
 20 18  1  1  0  0  0
 20 17  1  0  0  0  0
 20 43  1  0  0  0  0
 21 12  1  0  0  0  0
 22 21  1  0  0  0  0
 22 23  1  0  0  0  0
 23 24  1  1  0  0  0
 23 46  1  0  0  0  0
 24 33  1  0  0  0  0
 25 34  1  6  0  0  0
 25  4  1  0  0  0  0
 26 25  1  0  0  0  0
 27 35  1  1  0  0  0
 27 26  1  0  0  0  0
 27  2  1  0  0  0  0
 29 16  1  0  0  0  0
 40  8  1  0  0  0  0
 40  5  1  0  0  0  0
 41  9  1  0  0  0  0
 44 18  2  0  0  0  0
 45 15  1  0  0  0  0
 45 10  1  0  0  0  0
 46  1  1  0  0  0  0
M  END
>  <CHROM.1>
-168.55771047,76.23375221,-58.43387076,-163.51129543,162.45674577,178.99620545
-59.02384087,58.13747895,178.69748997,-64.54423473,166.17518997,64.78536400
161.03313529,8.64763234,-14.58924541,8.69863829,-2.85529857,-1.14918895,-2.52260594

>  <Name>
lig.pdb

>  <RI>
0

>  <Rbt.Current_Directory>
/home/afrankz/demos/rdock_decoys_rna/rnas/3wru

>  <Rbt.Executable>
rbdock ($Id: //depot/dev/client3/rdock/2013.1/src/exe/rbdock.cxx#4 $)

>  <Rbt.Library>
libRbt.so (2013.1, Build901 2013/11/27)

>  <Rbt.Parameter_File>
/export/apps/rDock/src/rDock_2013.1_src/data/scripts/dock_solv.prm

>  <Rbt.Receptor>
prm/pocket_docking_8.prm

>  <SCORE>
-5.34659

>  <SCORE.INTER>
0.632804

>  <SCORE.INTER.CONST>
1

>  <SCORE.INTER.POLAR>
0

>  <SCORE.INTER.ROT>
13

>  <SCORE.INTER.SOLV>
25.9502

>  <SCORE.INTER.VDW>
-20.4949

>  <SCORE.INTER.norm>
0.0137566

>  <SCORE.INTRA>
-5.97939

>  <SCORE.INTRA.DIHEDRAL>
-13.1448

>  <SCORE.INTRA.DIHEDRAL.0>
19.7146

>  <SCORE.INTRA.POLAR>
0

>  <SCORE.INTRA.POLAR.0>
0

>  <SCORE.INTRA.REPUL>
0.00602765

>  <SCORE.INTRA.REPUL.0>
0

>  <SCORE.INTRA.SOLV>
-1.39236

>  <SCORE.INTRA.SOLV.lig_0>
-116.697

>  <SCORE.INTRA.VDW>
1.25904

>  <SCORE.INTRA.VDW.0>
-7.06424

>  <SCORE.INTRA.norm>
-0.129987

>  <SCORE.RESTR>
0

>  <SCORE.RESTR.CAVITY>
0

>  <SCORE.RESTR.norm>
0

>  <SCORE.SYSTEM>
0

>  <SCORE.SYSTEM.CONST>
0

>  <SCORE.SYSTEM.DIHEDRAL>
0

>  <SCORE.SYSTEM.SOLV>
0

>  <SCORE.SYSTEM.norm>
0

>  <SCORE.heavy>
46

>  <SCORE.norm>
-0.11623

>  <RMSD>
7.370

$$$$
lig.pdb
 OpenBabel03061811583D
libRbt.so/2013.1/901 2013/11/27
 46 49  0  0  0  0  0  0  0  0999 V2000
   11.3888  -14.9296    9.3802 C   0  0  1  0  0  0  0  0  0  0  0  0
   12.4559  -14.5360    7.1186 C   0  0  1  0  0  0  0  0  0  0  0  0
   11.9382  -15.8887    6.5425 C   0  0  1  0  0  0  0  0  0  0  0  0
   12.8343  -16.2860    5.2611 C   0  0  2  0  0  0  0  0  0  0  0  0
   11.5930  -18.1253    7.6898 C   0  0  2  0  0  0  0  0  0  0  0  0
   12.0219  -18.8948    8.9715 C   0  0  1  0  0  0  0  0  0  0  0  0
   10.8704  -19.8696    9.0239 C   0  0  1  0  0  0  0  0  0  0  0  0
    9.5999  -18.9970    8.7715 C   0  0  1  0  0  0  0  0  0  0  0  0
    9.0131  -18.2260   10.0056 C   0  0  0  0  0  0  0  0  0  0  0  0
   10.1618  -21.9650    7.9325 C   0  0  1  0  0  0  0  0  0  0  0  0
   10.4067  -22.9735    6.8501 C   0  0  1  0  0  0  0  0  0  0  0  0
   10.5772  -14.1297   10.4265 C   0  0  1  0  0  0  0  0  0  0  0  0
    9.2899  -24.0737    6.9325 C   0  0  0  0  0  0  0  0  0  0  0  0
    7.9520  -23.5855    6.7588 C   0  0  0  0  0  0  0  0  0  0  0  0
    7.6657  -22.6326    7.8100 C   0  0  2  0  0  0  0  0  0  0  0  0
    6.2042  -22.0512    7.6657 C   0  0  0  0  0  0  0  0  0  0  0  0
   13.9325  -14.4457   -0.4573 C   0  0  2  0  0  0  0  0  0  0  0  0
   13.0598  -14.8564    1.6928 C   0  0  0  0  0  0  0  0  0  0  0  0
   14.9840  -14.6014   -1.3405 C   0  0  0  0  0  0  0  0  0  0  0  0
   14.0594  -15.3578    0.5383 C   0  0  1  0  0  0  0  0  0  0  0  0
   11.4439  -12.9339   11.0320 C   0  0  0  0  0  0  0  0  0  0  0  0
   12.7667  -13.5572   11.6909 C   0  0  0  0  0  0  0  0  0  0  0  0
   13.5642  -14.3393   10.5471 C   0  0  1  0  0  0  0  0  0  0  0  0
   14.8470  -14.9855   11.0838 C   0  0  0  0  0  0  0  0  0  0  0  0
   12.6380  -15.1606    4.1539 C   0  0  1  0  0  0  0  0  0  0  0  0
   13.2132  -13.7897    4.7987 C   0  0  0  0  0  0  0  0  0  0  0  0
   12.3686  -13.3978    6.0719 C   0  0  2  0  0  0  0  0  0  0  0  0
   12.6810  -14.5565   -1.1722 F   0  0  0  0  0  0  0  0  0  0  0  0
    5.8086  -21.0981    8.8299 N   0  0  0  0  0  0  0  0  0  0  0  0
    9.3121  -13.6387    9.7648 N   0  0  0  0  0  0  0  0  0  0  0  0
   10.3212  -22.4553    5.5548 N   0  0  0  0  0  0  0  0  0  0  0  0
   16.3809  -14.4609   -1.1667 N   0  0  0  0  0  0  0  0  0  0  0  0
   15.5515  -15.6456   10.0547 N   0  0  0  0  0  0  0  0  0  0  0  0
   13.4321  -15.4935    2.9577 N   0  0  0  0  0  0  0  0  0  0  0  0
   12.8907  -12.1536    6.6791 N   0  0  0  0  0  0  0  0  0  0  0  0
   11.6629  -14.1323    8.2276 O   0  0  0  0  0  0  0  0  0  0  0  0
   12.0709  -16.9046    7.6394 O   0  0  0  0  0  0  0  0  0  0  0  0
   12.3578  -17.4814    4.7713 O   0  0  0  0  0  0  0  0  0  0  0  0
   13.2618  -19.4881    8.7314 O   0  0  0  0  0  0  0  0  0  0  0  0
   10.1257  -18.2340    7.6728 O   0  0  0  0  0  0  0  0  0  0  0  0
    8.6928  -19.2066   11.0126 O   0  0  0  0  0  0  0  0  0  0  0  0
   11.0522  -20.9133    7.9367 O   0  0  0  0  0  0  0  0  0  0  0  0
   13.6978  -16.6950    0.1292 O   0  0  0  0  0  0  0  0  0  0  0  0
   12.1349  -14.0451    1.5227 O   0  0  0  0  0  0  0  0  0  0  0  0
    8.6852  -21.5179    7.8004 O   0  0  0  0  0  0  0  0  0  0  0  0
   12.6825  -15.4281    9.9578 O   0  0  0  0  0  0  0  0  0  0  0  0
  1 36  1  6  0  0  0
  2 36  1  1  0  0  0
  2  3  1  0  0  0  0
  3 37  1  1  0  0  0
  3  4  1  0  0  0  0
  4 38  1  6  0  0  0
  5 37  1  1  0  0  0
  5  6  1  0  0  0  0
  6  7  1  0  0  0  0
  6 39  1  6  0  0  0
  7 42  1  6  0  0  0
  8  9  1  1  0  0  0
  8  7  1  0  0  0  0
 10 42  1  6  0  0  0
 10 11  1  0  0  0  0
 11 31  1  6  0  0  0
 11 13  1  0  0  0  0
 12 30  1  6  0  0  0
 12  1  1  0  0  0  0
 14 13  1  0  0  0  0
 15 16  1  6  0  0  0
 15 14  1  0  0  0  0
 17 19  1  6  0  0  0
 17 28  1  0  0  0  0
 18 34  1  0  0  0  0
 19 32  1  0  0  0  0
 20 18  1  1  0  0  0
 20 17  1  0  0  0  0
 20 43  1  0  0  0  0
 21 12  1  0  0  0  0
 22 21  1  0  0  0  0
 22 23  1  0  0  0  0
 23 24  1  1  0  0  0
 23 46  1  0  0  0  0
 24 33  1  0  0  0  0
 25 34  1  6  0  0  0
 25  4  1  0  0  0  0
 26 25  1  0  0  0  0
 27 35  1  1  0  0  0
 27 26  1  0  0  0  0
 27  2  1  0  0  0  0
 29 16  1  0  0  0  0
 40  8  1  0  0  0  0
 40  5  1  0  0  0  0
 41  9  1  0  0  0  0
 44 18  2  0  0  0  0
 45 15  1  0  0  0  0
 45 10  1  0  0  0  0
 46  1  1  0  0  0  0
M  END
>  <CHROM.1>
175.92724647,53.76729194,169.33193480,176.58498208,173.34864964,-58.34774875
-179.03215590,175.86857672,-62.39342771,-161.52600794,165.16176734,-178.70862973
160.03157507,11.59987741,-17.13684682,6.56320235,-2.68392200,-1.06832071
-1.94569444

>  <Name>
lig.pdb

>  <RI>
0

>  <Rbt.Current_Directory>
/home/afrankz/demos/rdock_decoys_rna/rnas/3wru

>  <Rbt.Executable>
rbdock ($Id: //depot/dev/client3/rdock/2013.1/src/exe/rbdock.cxx#4 $)

>  <Rbt.Library>
libRbt.so (2013.1, Build901 2013/11/27)

>  <Rbt.Parameter_File>
/export/apps/rDock/src/rDock_2013.1_src/data/scripts/dock_solv.prm

>  <Rbt.Receptor>
prm/pocket_docking_8.prm

>  <SCORE>
-1.84554

>  <SCORE.INTER>
6.24052

>  <SCORE.INTER.CONST>
1

>  <SCORE.INTER.POLAR>
0

>  <SCORE.INTER.ROT>
13

>  <SCORE.INTER.SOLV>
11.9206

>  <SCORE.INTER.VDW>
-12.0798

>  <SCORE.INTER.norm>
0.135664

>  <SCORE.INTRA>
-8.08606

>  <SCORE.INTRA.DIHEDRAL>
-16.151

>  <SCORE.INTRA.DIHEDRAL.0>
19.7146

>  <SCORE.INTRA.POLAR>
0

>  <SCORE.INTRA.POLAR.0>
0

>  <SCORE.INTRA.REPUL>
0

>  <SCORE.INTRA.REPUL.0>
0

>  <SCORE.INTRA.SOLV>
-3.20039

>  <SCORE.INTRA.SOLV.lig_0>
-116.697

>  <SCORE.INTRA.VDW>
1.58965

>  <SCORE.INTRA.VDW.0>
-7.06424

>  <SCORE.INTRA.norm>
-0.175784

>  <SCORE.RESTR>
0

>  <SCORE.RESTR.CAVITY>
0

>  <SCORE.RESTR.norm>
0

>  <SCORE.SYSTEM>
0

>  <SCORE.SYSTEM.CONST>
0

>  <SCORE.SYSTEM.DIHEDRAL>
0

>  <SCORE.SYSTEM.SOLV>
0

>  <SCORE.SYSTEM.norm>
0

>  <SCORE.heavy>
46

>  <SCORE.norm>
-0.0401204

>  <RMSD>
7.376

$$$$
lig.pdb
 OpenBabel03061811583D
libRbt.so/2013.1/901 2013/11/27
 46 49  0  0  0  0  0  0  0  0999 V2000
    9.5527  -16.7591   10.2095 C   0  0  1  0  0  0  0  0  0  0  0  0
   12.0080  -16.7246    9.5947 C   0  0  1  0  0  0  0  0  0  0  0  0
   12.3804  -15.2831   10.0566 C   0  0  1  0  0  0  0  0  0  0  0  0
   13.6674  -14.7848    9.2211 C   0  0  2  0  0  0  0  0  0  0  0  0
   10.9815  -13.5853    8.7923 C   0  0  2  0  0  0  0  0  0  0  0  0
   10.8419  -14.2973    7.4167 C   0  0  1  0  0  0  0  0  0  0  0  0
   10.0248  -13.2384    6.7165 C   0  0  1  0  0  0  0  0  0  0  0  0
    8.9172  -12.8468    7.7455 C   0  0  1  0  0  0  0  0  0  0  0  0
    7.6578  -13.7796    7.8206 C   0  0  0  0  0  0  0  0  0  0  0  0
   10.4044  -11.1116    5.5265 C   0  0  1  0  0  0  0  0  0  0  0  0
   10.0861  -11.6345    4.1575 C   0  0  1  0  0  0  0  0  0  0  0  0
    8.5822  -17.6707   10.9972 C   0  0  1  0  0  0  0  0  0  0  0  0
    9.5670  -10.4426    3.2775 C   0  0  0  0  0  0  0  0  0  0  0  0
   10.5022   -9.3672    3.1109 C   0  0  0  0  0  0  0  0  0  0  0  0
   10.8072   -8.8121    4.4124 C   0  0  2  0  0  0  0  0  0  0  0  0
   11.8431   -7.6255    4.2940 C   0  0  0  0  0  0  0  0  0  0  0  0
   18.4054  -15.7878    7.2555 C   0  0  2  0  0  0  0  0  0  0  0  0
   16.0762  -15.4498    7.3707 C   0  0  0  0  0  0  0  0  0  0  0  0
   19.5141  -15.7409    6.4316 C   0  0  0  0  0  0  0  0  0  0  0  0
   17.4762  -14.9178    6.7876 C   0  0  1  0  0  0  0  0  0  0  0  0
    8.5170  -19.1300   10.3537 C   0  0  0  0  0  0  0  0  0  0  0  0
    8.0499  -18.9840    8.8264 C   0  0  0  0  0  0  0  0  0  0  0  0
    9.1132  -18.0575    8.0734 C   0  0  1  0  0  0  0  0  0  0  0  0
    8.7456  -17.8464    6.5997 C   0  0  0  0  0  0  0  0  0  0  0  0
   14.8831  -15.7518    9.5646 C   0  0  1  0  0  0  0  0  0  0  0  0
   14.4491  -17.2231    9.0422 C   0  0  0  0  0  0  0  0  0  0  0  0
   13.1733  -17.7182    9.8266 C   0  0  2  0  0  0  0  0  0  0  0  0
   18.8042  -15.5138    8.6177 F   0  0  0  0  0  0  0  0  0  0  0  0
   13.2335   -8.0795    3.7641 N   0  0  0  0  0  0  0  0  0  0  0  0
    9.0321  -17.7024   12.4380 N   0  0  0  0  0  0  0  0  0  0  0  0
   11.1891  -12.1492    3.4706 N   0  0  0  0  0  0  0  0  0  0  0  0
   20.4894  -14.7359    6.2313 N   0  0  0  0  0  0  0  0  0  0  0  0
    7.4520  -17.2973    6.4730 N   0  0  0  0  0  0  0  0  0  0  0  0
   16.0860  -15.3217    8.8295 N   0  0  0  0  0  0  0  0  0  0  0  0
   12.7577  -19.0563    9.3509 N   0  0  0  0  0  0  0  0  0  0  0  0
   10.9000  -17.2142   10.3391 O   0  0  0  0  0  0  0  0  0  0  0  0
   11.1833  -14.4195    9.7844 O   0  0  0  0  0  0  0  0  0  0  0  0
   13.9759  -13.5121    9.6469 O   0  0  0  0  0  0  0  0  0  0  0  0
   12.1196  -14.4769    6.8852 O   0  0  0  0  0  0  0  0  0  0  0  0
    9.7718  -12.7542    8.8975 O   0  0  0  0  0  0  0  0  0  0  0  0
    7.0341  -13.7654    6.5210 O   0  0  0  0  0  0  0  0  0  0  0  0
   10.9191  -12.0570    6.3867 O   0  0  0  0  0  0  0  0  0  0  0  0
   17.7013  -13.5603    7.2267 O   0  0  0  0  0  0  0  0  0  0  0  0
   15.1409  -15.8822    6.6772 O   0  0  0  0  0  0  0  0  0  0  0  0
   11.3338   -9.8884    5.3323 O   0  0  0  0  0  0  0  0  0  0  0  0
    9.1865  -16.7005    8.7540 O   0  0  0  0  0  0  0  0  0  0  0  0
  1 36  1  6  0  0  0
  2 36  1  1  0  0  0
  2  3  1  0  0  0  0
  3 37  1  6  0  0  0
  3  4  1  0  0  0  0
  4 38  1  1  0  0  0
  5 37  1  1  0  0  0
  5  6  1  0  0  0  0
  6  7  1  0  0  0  0
  6 39  1  6  0  0  0
  7 42  1  1  0  0  0
  8  9  1  1  0  0  0
  8  7  1  0  0  0  0
 10 42  1  1  0  0  0
 10 11  1  0  0  0  0
 11 31  1  6  0  0  0
 11 13  1  0  0  0  0
 12 30  1  1  0  0  0
 12  1  1  0  0  0  0
 14 13  1  0  0  0  0
 15 16  1  6  0  0  0
 15 14  1  0  0  0  0
 17 19  1  6  0  0  0
 17 28  1  0  0  0  0
 18 34  1  0  0  0  0
 19 32  1  0  0  0  0
 20 18  1  1  0  0  0
 20 17  1  0  0  0  0
 20 43  1  0  0  0  0
 21 12  1  0  0  0  0
 22 21  1  0  0  0  0
 22 23  1  0  0  0  0
 23 24  1  6  0  0  0
 23 46  1  0  0  0  0
 24 33  1  0  0  0  0
 25 34  1  6  0  0  0
 25  4  1  0  0  0  0
 26 25  1  0  0  0  0
 27 35  1  6  0  0  0
 27 26  1  0  0  0  0
 27  2  1  0  0  0  0
 29 16  1  0  0  0  0
 40  8  1  0  0  0  0
 40  5  1  0  0  0  0
 41  9  1  0  0  0  0
 44 18  2  0  0  0  0
 45 15  1  0  0  0  0
 45 10  1  0  0  0  0
 46  1  1  0  0  0  0
M  END
>  <CHROM.1>
170.48544817,71.35536072,-101.36154395,67.34652547,168.04276848,-60.49663836
-62.01062872,-64.42003444,69.77557076,65.62036110,157.17902591,56.63794241
-67.04571199,12.08948090,-14.52056538,7.59552684,-2.64247809,0.02510281,-0.60647617

>  <Name>
lig.pdb

>  <RI>
0

>  <Rbt.Current_Directory>
/home/afrankz/demos/rdock_decoys_rna/rnas/3wru

>  <Rbt.Executable>
rbdock ($Id: //depot/dev/client3/rdock/2013.1/src/exe/rbdock.cxx#4 $)

>  <Rbt.Library>
libRbt.so (2013.1, Build901 2013/11/27)

>  <Rbt.Parameter_File>
/export/apps/rDock/src/rDock_2013.1_src/data/scripts/dock_solv.prm

>  <Rbt.Receptor>
prm/pocket_docking_6.prm

>  <SCORE>
-0.363252

>  <SCORE.INTER>
2.14787

>  <SCORE.INTER.CONST>
1

>  <SCORE.INTER.POLAR>
0

>  <SCORE.INTER.ROT>
13

>  <SCORE.INTER.SOLV>
11.4045

>  <SCORE.INTER.VDW>
-14.6362

>  <SCORE.INTER.norm>
0.0466928

>  <SCORE.INTRA>
-2.51112

>  <SCORE.INTRA.DIHEDRAL>
-9.02509

>  <SCORE.INTRA.DIHEDRAL.0>
19.7146

>  <SCORE.INTRA.POLAR>
0

>  <SCORE.INTRA.POLAR.0>
0

>  <SCORE.INTRA.REPUL>
0.000172051

>  <SCORE.INTRA.REPUL.0>
0

>  <SCORE.INTRA.SOLV>
2.38825

>  <SCORE.INTRA.SOLV.lig_0>
-116.697

>  <SCORE.INTRA.VDW>
0.806439

>  <SCORE.INTRA.VDW.0>
-7.06424

>  <SCORE.INTRA.norm>
-0.0545896

>  <SCORE.RESTR>
0

>  <SCORE.RESTR.CAVITY>
0

>  <SCORE.RESTR.norm>
0

>  <SCORE.SYSTEM>
0

>  <SCORE.SYSTEM.CONST>
0

>  <SCORE.SYSTEM.DIHEDRAL>
0

>  <SCORE.SYSTEM.SOLV>
0

>  <SCORE.SYSTEM.norm>
0

>  <SCORE.heavy>
46

>  <SCORE.norm>
-0.00789679

>  <RMSD>
7.379

$$$$
lig.pdb
 OpenBabel03061811583D
libRbt.so/2013.1/901 2013/11/27
 46 49  0  0  0  0  0  0  0  0999 V2000
   17.3991  -14.1069    7.1135 C   0  0  1  0  0  0  0  0  0  0  0  0
   15.3600  -12.7413    6.4932 C   0  0  1  0  0  0  0  0  0  0  0  0
   14.0651  -12.2660    7.2192 C   0  0  1  0  0  0  0  0  0  0  0  0
   13.0548  -11.6423    6.1269 C   0  0  2  0  0  0  0  0  0  0  0  0
   12.2970  -13.6084    8.4479 C   0  0  2  0  0  0  0  0  0  0  0  0
   11.9095  -15.0925    8.7048 C   0  0  1  0  0  0  0  0  0  0  0  0
   10.9499  -14.8621    9.8472 C   0  0  1  0  0  0  0  0  0  0  0  0
   11.6856  -13.8542   10.7863 C   0  0  1  0  0  0  0  0  0  0  0  0
   12.7393  -14.4533   11.7825 C   0  0  0  0  0  0  0  0  0  0  0  0
    8.8596  -15.1169    8.5629 C   0  0  1  0  0  0  0  0  0  0  0  0
    7.5719  -14.4981    8.1073 C   0  0  1  0  0  0  0  0  0  0  0  0
   17.3108  -15.4468    7.8817 C   0  0  1  0  0  0  0  0  0  0  0  0
    6.7444  -15.5839    7.3322 C   0  0  0  0  0  0  0  0  0  0  0  0
    6.4043  -16.7443    8.1043 C   0  0  0  0  0  0  0  0  0  0  0  0
    7.6264  -17.3906    8.5333 C   0  0  2  0  0  0  0  0  0  0  0  0
    7.3150  -18.6746    9.3989 C   0  0  0  0  0  0  0  0  0  0  0  0
   11.3111   -6.6260    3.6412 C   0  0  2  0  0  0  0  0  0  0  0  0
   12.7484   -8.3048    4.4589 C   0  0  0  0  0  0  0  0  0  0  0  0
   10.5494   -6.1092    2.6103 C   0  0  0  0  0  0  0  0  0  0  0  0
   11.7290   -7.8689    3.2952 C   0  0  1  0  0  0  0  0  0  0  0  0
   17.4895  -15.2202    9.4516 C   0  0  0  0  0  0  0  0  0  0  0  0
   18.9082  -14.5138    9.6977 C   0  0  0  0  0  0  0  0  0  0  0  0
   18.9125  -13.1280    8.9006 C   0  0  1  0  0  0  0  0  0  0  0  0
   20.2399  -12.3780    9.0642 C   0  0  0  0  0  0  0  0  0  0  0  0
   13.7577  -10.3741    5.4724 C   0  0  1  0  0  0  0  0  0  0  0  0
   15.0779  -10.9317    4.7160 C   0  0  0  0  0  0  0  0  0  0  0  0
   16.0679  -11.5730    5.7632 C   0  0  2  0  0  0  0  0  0  0  0  0
   10.5433   -6.6060    4.8659 F   0  0  0  0  0  0  0  0  0  0  0  0
    6.6426  -19.8142    8.5807 N   0  0  0  0  0  0  0  0  0  0  0  0
   15.9891  -16.0948    7.5461 N   0  0  0  0  0  0  0  0  0  0  0  0
    6.7414  -14.0727    9.1480 N   0  0  0  0  0  0  0  0  0  0  0  0
    9.4550   -6.6483    1.8940 N   0  0  0  0  0  0  0  0  0  0  0  0
   21.3300  -13.1852    8.6752 N   0  0  0  0  0  0  0  0  0  0  0  0
   12.8596   -9.7650    4.4750 N   0  0  0  0  0  0  0  0  0  0  0  0
   17.2733  -12.0983    5.0847 N   0  0  0  0  0  0  0  0  0  0  0  0
   16.2931  -13.2615    7.4314 O   0  0  0  0  0  0  0  0  0  0  0  0
   13.4740  -13.4749    7.8840 O   0  0  0  0  0  0  0  0  0  0  0  0
   11.9215  -11.2303    6.7919 O   0  0  0  0  0  0  0  0  0  0  0  0
   11.3109  -15.5949    7.5487 O   0  0  0  0  0  0  0  0  0  0  0  0
   12.1439  -12.9590    9.7594 O   0  0  0  0  0  0  0  0  0  0  0  0
   12.0570  -15.4297   12.5943 O   0  0  0  0  0  0  0  0  0  0  0  0
    9.6604  -14.2745    9.3030 O   0  0  0  0  0  0  0  0  0  0  0  0
   10.6497   -8.8250    3.2110 O   0  0  0  0  0  0  0  0  0  0  0  0
   13.3487   -7.5137    5.2048 O   0  0  0  0  0  0  0  0  0  0  0  0
    8.4884  -16.4223    9.3086 O   0  0  0  0  0  0  0  0  0  0  0  0
   18.6799  -13.3850    7.4207 O   0  0  0  0  0  0  0  0  0  0  0  0
  1 36  1  1  0  0  0
  2 36  1  1  0  0  0
  2  3  1  0  0  0  0
  3 37  1  6  0  0  0
  3  4  1  0  0  0  0
  4 38  1  1  0  0  0
  5 37  1  1  0  0  0
  5  6  1  0  0  0  0
  6  7  1  0  0  0  0
  6 39  1  6  0  0  0
  7 42  1  6  0  0  0
  8  9  1  6  0  0  0
  8  7  1  0  0  0  0
 10 42  1  1  0  0  0
 10 11  1  0  0  0  0
 11 31  1  1  0  0  0
 11 13  1  0  0  0  0
 12 30  1  1  0  0  0
 12  1  1  0  0  0  0
 14 13  1  0  0  0  0
 15 16  1  1  0  0  0
 15 14  1  0  0  0  0
 17 19  1  6  0  0  0
 17 28  1  0  0  0  0
 18 34  1  0  0  0  0
 19 32  1  0  0  0  0
 20 18  1  1  0  0  0
 20 17  1  0  0  0  0
 20 43  1  0  0  0  0
 21 12  1  0  0  0  0
 22 21  1  0  0  0  0
 22 23  1  0  0  0  0
 23 24  1  6  0  0  0
 23 46  1  0  0  0  0
 24 33  1  0  0  0  0
 25 34  1  6  0  0  0
 25  4  1  0  0  0  0
 26 25  1  0  0  0  0
 27 35  1  6  0  0  0
 27 26  1  0  0  0  0
 27  2  1  0  0  0  0
 29 16  1  0  0  0  0
 40  8  1  0  0  0  0
 40  5  1  0  0  0  0
 41  9  1  0  0  0  0
 44 18  2  0  0  0  0
 45 15  1  0  0  0  0
 45 10  1  0  0  0  0
 46  1  1  0  0  0  0
M  END
>  <CHROM.1>
-121.68308169,161.64481756,-169.41346018,165.48120068,70.79174896,-57.60698017
177.30639813,67.05726666,50.32620431,158.56299658,173.00811653,55.49359886
136.91129538,12.73121256,-12.87410541,7.36025298,-0.76801988,0.08620553,2.53953553

>  <Name>
lig.pdb

>  <RI>
0

>  <Rbt.Current_Directory>
/home/afrankz/demos/rdock_decoys_rna/rnas/3wru

>  <Rbt.Executable>
rbdock ($Id: //depot/dev/client3/rdock/2013.1/src/exe/rbdock.cxx#4 $)

>  <Rbt.Library>
libRbt.so (2013.1, Build901 2013/11/27)

>  <Rbt.Parameter_File>
/export/apps/rDock/src/rDock_2013.1_src/data/scripts/dock_solv.prm

>  <Rbt.Receptor>
prm/pocket_docking_3.prm

>  <SCORE>
1.98938

>  <SCORE.INTER>
0.448393

>  <SCORE.INTER.CONST>
1

>  <SCORE.INTER.POLAR>
0

>  <SCORE.INTER.ROT>
13

>  <SCORE.INTER.SOLV>
17.604

>  <SCORE.INTER.VDW>
-17.8357

>  <SCORE.INTER.norm>
0.00974766

>  <SCORE.INTRA>
1.2028

>  <SCORE.INTRA.DIHEDRAL>
-5.6947

>  <SCORE.INTRA.DIHEDRAL.0>
19.7146

>  <SCORE.INTRA.POLAR>
0

>  <SCORE.INTRA.POLAR.0>
0

>  <SCORE.INTRA.REPUL>
0

>  <SCORE.INTRA.REPUL.0>
0

>  <SCORE.INTRA.SOLV>
1.03799

>  <SCORE.INTRA.SOLV.lig_0>
-116.697

>  <SCORE.INTRA.VDW>
3.53115

>  <SCORE.INTRA.VDW.0>
-7.06424

>  <SCORE.INTRA.norm>
0.0261478

>  <SCORE.RESTR>
0.338183

>  <SCORE.RESTR.CAVITY>
0.338183

>  <SCORE.RESTR.norm>
0.00735181

>  <SCORE.SYSTEM>
0

>  <SCORE.SYSTEM.CONST>
0

>  <SCORE.SYSTEM.DIHEDRAL>
0

>  <SCORE.SYSTEM.SOLV>
0

>  <SCORE.SYSTEM.norm>
0

>  <SCORE.heavy>
46

>  <SCORE.norm>
0.0432473

>  <RMSD>
7.380

$$$$
lig.pdb
 OpenBabel03061811583D
libRbt.so/2013.1/901 2013/11/27
 46 49  0  0  0  0  0  0  0  0999 V2000
   13.4570  -14.1906    8.0507 C   0  0  1  0  0  0  0  0  0  0  0  0
   13.4827  -12.2193    6.4629 C   0  0  1  0  0  0  0  0  0  0  0  0
   11.9842  -11.8130    6.6009 C   0  0  1  0  0  0  0  0  0  0  0  0
   11.5425  -10.9962    5.2815 C   0  0  2  0  0  0  0  0  0  0  0  0
   10.2079  -13.3523    7.5564 C   0  0  2  0  0  0  0  0  0  0  0  0
    9.1310  -12.2306    7.5883 C   0  0  1  0  0  0  0  0  0  0  0  0
    7.9600  -13.0790    8.0219 C   0  0  1  0  0  0  0  0  0  0  0  0
    8.0370  -14.3522    7.1207 C   0  0  1  0  0  0  0  0  0  0  0  0
    7.4296  -14.2375    5.6786 C   0  0  0  0  0  0  0  0  0  0  0  0
    7.1604  -14.2596   10.0345 C   0  0  1  0  0  0  0  0  0  0  0  0
    5.7884  -13.6581   10.1024 C   0  0  1  0  0  0  0  0  0  0  0  0
   14.0091  -14.5439    9.4520 C   0  0  1  0  0  0  0  0  0  0  0  0
    4.8260  -14.6895   10.7911 C   0  0  0  0  0  0  0  0  0  0  0  0
    5.1936  -15.0529   12.1296 C   0  0  0  0  0  0  0  0  0  0  0  0
    6.5019  -15.6713   12.0996 C   0  0  2  0  0  0  0  0  0  0  0  0
    6.9663  -16.0863   13.5512 C   0  0  0  0  0  0  0  0  0  0  0  0
   10.4035   -6.8939    2.6816 C   0  0  2  0  0  0  0  0  0  0  0  0
   12.2319   -7.4354    4.0660 C   0  0  0  0  0  0  0  0  0  0  0  0
    9.8893   -6.0752    1.6939 C   0  0  0  0  0  0  0  0  0  0  0  0
   11.7561   -6.7952    2.6707 C   0  0  1  0  0  0  0  0  0  0  0  0
   15.5920  -14.7449    9.4104 C   0  0  0  0  0  0  0  0  0  0  0  0
   15.9220  -15.9084    8.3570 C   0  0  0  0  0  0  0  0  0  0  0  0
   15.3498  -15.4596    6.9333 C   0  0  1  0  0  0  0  0  0  0  0  0
   15.6065  -16.5183    5.8540 C   0  0  0  0  0  0  0  0  0  0  0  0
   12.4176   -9.6697    5.2066 C   0  0  1  0  0  0  0  0  0  0  0  0
   13.9551  -10.1538    5.0405 C   0  0  0  0  0  0  0  0  0  0  0  0
   14.3993  -10.9803    6.3084 C   0  0  2  0  0  0  0  0  0  0  0  0
    9.9316   -8.2456    2.4825 F   0  0  0  0  0  0  0  0  0  0  0  0
    6.1021  -17.2241   14.1667 N   0  0  0  0  0  0  0  0  0  0  0  0
   13.5982  -13.4505   10.4085 N   0  0  0  0  0  0  0  0  0  0  0  0
    5.7090  -12.5002   10.8813 N   0  0  0  0  0  0  0  0  0  0  0  0
    8.5604   -5.8463    1.2659 N   0  0  0  0  0  0  0  0  0  0  0  0
   15.1009  -16.1018    4.6043 N   0  0  0  0  0  0  0  0  0  0  0  0
   12.0347   -8.8857    4.0187 N   0  0  0  0  0  0  0  0  0  0  0  0
   15.7984  -11.4400    6.1651 N   0  0  0  0  0  0  0  0  0  0  0  0
   13.9201  -12.9078    7.6274 O   0  0  0  0  0  0  0  0  0  0  0  0
   11.2026  -13.0864    6.7435 O   0  0  0  0  0  0  0  0  0  0  0  0
   10.2181  -10.6490    5.4279 O   0  0  0  0  0  0  0  0  0  0  0  0
    9.5222  -11.2749    8.5268 O   0  0  0  0  0  0  0  0  0  0  0  0
    9.4504  -14.5769    7.2538 O   0  0  0  0  0  0  0  0  0  0  0  0
    8.3197  -13.4118    4.9015 O   0  0  0  0  0  0  0  0  0  0  0  0
    8.1155  -13.4282    9.4910 O   0  0  0  0  0  0  0  0  0  0  0  0
   12.3661   -7.5108    1.5743 O   0  0  0  0  0  0  0  0  0  0  0  0
   12.7039   -6.7884    5.0153 O   0  0  0  0  0  0  0  0  0  0  0  0
    7.5083  -14.7408   11.4646 O   0  0  0  0  0  0  0  0  0  0  0  0
   13.8519  -15.2216    7.0325 O   0  0  0  0  0  0  0  0  0  0  0  0
  1 36  1  6  0  0  0
  2 36  1  1  0  0  0
  2  3  1  0  0  0  0
  3 37  1  6  0  0  0
  3  4  1  0  0  0  0
  4 38  1  1  0  0  0
  5 37  1  6  0  0  0
  5  6  1  0  0  0  0
  6  7  1  0  0  0  0
  6 39  1  1  0  0  0
  7 42  1  1  0  0  0
  8  9  1  6  0  0  0
  8  7  1  0  0  0  0
 10 42  1  1  0  0  0
 10 11  1  0  0  0  0
 11 31  1  1  0  0  0
 11 13  1  0  0  0  0
 12 30  1  1  0  0  0
 12  1  1  0  0  0  0
 14 13  1  0  0  0  0
 15 16  1  1  0  0  0
 15 14  1  0  0  0  0
 17 19  1  6  0  0  0
 17 28  1  0  0  0  0
 18 34  1  0  0  0  0
 19 32  1  0  0  0  0
 20 18  1  1  0  0  0
 20 17  1  0  0  0  0
 20 43  1  0  0  0  0
 21 12  1  0  0  0  0
 22 21  1  0  0  0  0
 22 23  1  0  0  0  0
 23 24  1  6  0  0  0
 23 46  1  0  0  0  0
 24 33  1  0  0  0  0
 25 34  1  6  0  0  0
 25  4  1  0  0  0  0
 26 25  1  0  0  0  0
 27 35  1  6  0  0  0
 27 26  1  0  0  0  0
 27  2  1  0  0  0  0
 29 16  1  0  0  0  0
 40  8  1  0  0  0  0
 40  5  1  0  0  0  0
 41  9  1  0  0  0  0
 44 18  2  0  0  0  0
 45 15  1  0  0  0  0
 45 10  1  0  0  0  0
 46  1  1  0  0  0  0
M  END
>  <CHROM.1>
-172.47990816,66.41654551,137.51060069,46.46901246,-176.84430635,72.21246301
-66.37856074,66.76359493,177.83840873,71.42623950,164.95781523,-179.70454637
152.80591400,10.74996539,-12.33234964,7.08840070,-2.00109226,0.26686715,-0.73127222

>  <Name>
lig.pdb

>  <RI>
0

>  <Rbt.Current_Directory>
/home/afrankz/demos/rdock_decoys_rna/rnas/3wru

>  <Rbt.Executable>
rbdock ($Id: //depot/dev/client3/rdock/2013.1/src/exe/rbdock.cxx#4 $)

>  <Rbt.Library>
libRbt.so (2013.1, Build901 2013/11/27)

>  <Rbt.Parameter_File>
/export/apps/rDock/src/rDock_2013.1_src/data/scripts/dock_solv.prm

>  <Rbt.Receptor>
prm/pocket_docking_5.prm

>  <SCORE>
-3.95277

>  <SCORE.INTER>
0.543799

>  <SCORE.INTER.CONST>
1

>  <SCORE.INTER.POLAR>
0

>  <SCORE.INTER.ROT>
13

>  <SCORE.INTER.SOLV>
18.831

>  <SCORE.INTER.VDW>
-18.1811

>  <SCORE.INTER.norm>
0.0118217

>  <SCORE.INTRA>
-4.49657

>  <SCORE.INTRA.DIHEDRAL>
-9.28525

>  <SCORE.INTRA.DIHEDRAL.0>
19.7146

>  <SCORE.INTRA.POLAR>
0

>  <SCORE.INTRA.POLAR.0>
0

>  <SCORE.INTRA.REPUL>
0

>  <SCORE.INTRA.REPUL.0>
0

>  <SCORE.INTRA.SOLV>
-2.2585

>  <SCORE.INTRA.SOLV.lig_0>
-116.697

>  <SCORE.INTRA.VDW>
1.27531

>  <SCORE.INTRA.VDW.0>
-7.06424

>  <SCORE.INTRA.norm>
-0.0977515

>  <SCORE.RESTR>
0

>  <SCORE.RESTR.CAVITY>
0

>  <SCORE.RESTR.norm>
0

>  <SCORE.SYSTEM>
0

>  <SCORE.SYSTEM.CONST>
0

>  <SCORE.SYSTEM.DIHEDRAL>
0

>  <SCORE.SYSTEM.SOLV>
0

>  <SCORE.SYSTEM.norm>
0

>  <SCORE.heavy>
46

>  <SCORE.norm>
-0.0859298

>  <RMSD>
7.406

$$$$
lig.pdb
 OpenBabel03061811583D
libRbt.so/2013.1/901 2013/11/27
 46 49  0  0  0  0  0  0  0  0999 V2000
   15.6973  -13.8124    6.8375 C   0  0  1  0  0  0  0  0  0  0  0  0
   13.6620  -12.4071    6.2985 C   0  0  1  0  0  0  0  0  0  0  0  0
   12.4485  -11.8304    7.0888 C   0  0  1  0  0  0  0  0  0  0  0  0
   11.3891  -11.2144    6.0394 C   0  0  2  0  0  0  0  0  0  0  0  0
   10.9204  -12.9419    8.7822 C   0  0  2  0  0  0  0  0  0  0  0  0
   10.5733  -14.3500    9.3438 C   0  0  1  0  0  0  0  0  0  0  0  0
   10.0500  -13.9134   10.6908 C   0  0  1  0  0  0  0  0  0  0  0  0
   11.0953  -12.8728   11.2044 C   0  0  1  0  0  0  0  0  0  0  0  0
   12.3891  -13.4440   11.8838 C   0  0  0  0  0  0  0  0  0  0  0  0
    7.6234  -14.1445   10.3140 C   0  0  1  0  0  0  0  0  0  0  0  0
    6.2991  -13.4626   10.1407 C   0  0  1  0  0  0  0  0  0  0  0  0
   16.0046  -14.7986    7.9892 C   0  0  1  0  0  0  0  0  0  0  0  0
    5.1897  -14.5621    9.9835 C   0  0  0  0  0  0  0  0  0  0  0  0
    5.0626  -15.4514   11.1022 C   0  0  0  0  0  0  0  0  0  0  0  0
    6.3145  -16.1560   11.2792 C   0  0  2  0  0  0  0  0  0  0  0  0
    6.2386  -17.1470   12.5068 C   0  0  0  0  0  0  0  0  0  0  0  0
   10.7033   -8.2706    1.4588 C   0  0  2  0  0  0  0  0  0  0  0  0
   11.5527   -8.1665    3.6544 C   0  0  0  0  0  0  0  0  0  0  0  0
    9.6605   -8.0638    0.5757 C   0  0  0  0  0  0  0  0  0  0  0  0
   10.3856   -7.7055    2.6501 C   0  0  1  0  0  0  0  0  0  0  0  0
   16.6068  -14.0331    9.2538 C   0  0  0  0  0  0  0  0  0  0  0  0
   17.9366  -13.2664    8.7891 C   0  0  0  0  0  0  0  0  0  0  0  0
   17.5355  -12.2485    7.6233 C   0  0  1  0  0  0  0  0  0  0  0  0
   18.7493  -11.4712    7.0999 C   0  0  0  0  0  0  0  0  0  0  0  0
   12.0989  -10.0187    5.2665 C   0  0  1  0  0  0  0  0  0  0  0  0
   13.3315  -10.6804    4.4487 C   0  0  0  0  0  0  0  0  0  0  0  0
   14.3664  -11.3153    5.4555 C   0  0  2  0  0  0  0  0  0  0  0  0
   11.9267   -7.7496    0.8920 F   0  0  0  0  0  0  0  0  0  0  0  0
    6.0167  -16.4211   13.8648 N   0  0  0  0  0  0  0  0  0  0  0  0
   14.7332  -15.5407    8.3242 N   0  0  0  0  0  0  0  0  0  0  0  0
    5.9041  -12.6921   11.2379 N   0  0  0  0  0  0  0  0  0  0  0  0
    9.1065   -6.8759    0.0433 N   0  0  0  0  0  0  0  0  0  0  0  0
   18.3611  -10.5064    6.1462 N   0  0  0  0  0  0  0  0  0  0  0  0
   11.1576   -9.4180    4.3044 N   0  0  0  0  0  0  0  0  0  0  0  0
   15.4922  -11.9349    4.7218 N   0  0  0  0  0  0  0  0  0  0  0  0
   14.6377  -12.9241    7.1942 O   0  0  0  0  0  0  0  0  0  0  0  0
   11.8536  -12.9720    7.8606 O   0  0  0  0  0  0  0  0  0  0  0  0
   10.3291  -10.7121    6.7607 O   0  0  0  0  0  0  0  0  0  0  0  0
    9.6088  -14.9257    8.5158 O   0  0  0  0  0  0  0  0  0  0  0  0
   11.2323  -12.1397    9.9757 O   0  0  0  0  0  0  0  0  0  0  0  0
   11.9763  -14.1433   13.0748 O   0  0  0  0  0  0  0  0  0  0  0  0
    8.6806  -13.2832   10.5123 O   0  0  0  0  0  0  0  0  0  0  0  0
   10.3330   -6.2631    2.5952 O   0  0  0  0  0  0  0  0  0  0  0  0
   12.6193   -7.5539    3.8263 O   0  0  0  0  0  0  0  0  0  0  0  0
    7.4490  -15.1746   11.4569 O   0  0  0  0  0  0  0  0  0  0  0  0
   16.9124  -13.0116    6.4659 O   0  0  0  0  0  0  0  0  0  0  0  0
  1 36  1  1  0  0  0
  2 36  1  1  0  0  0
  2  3  1  0  0  0  0
  3 37  1  6  0  0  0
  3  4  1  0  0  0  0
  4 38  1  1  0  0  0
  5 37  1  6  0  0  0
  5  6  1  0  0  0  0
  6  7  1  0  0  0  0
  6 39  1  6  0  0  0
  7 42  1  6  0  0  0
  8  9  1  6  0  0  0
  8  7  1  0  0  0  0
 10 42  1  1  0  0  0
 10 11  1  0  0  0  0
 11 31  1  1  0  0  0
 11 13  1  0  0  0  0
 12 30  1  1  0  0  0
 12  1  1  0  0  0  0
 14 13  1  0  0  0  0
 15 16  1  1  0  0  0
 15 14  1  0  0  0  0
 17 19  1  6  0  0  0
 17 28  1  0  0  0  0
 18 34  1  0  0  0  0
 19 32  1  0  0  0  0
 20 18  1  1  0  0  0
 20 17  1  0  0  0  0
 20 43  1  0  0  0  0
 21 12  1  0  0  0  0
 22 21  1  0  0  0  0
 22 23  1  0  0  0  0
 23 24  1  6  0  0  0
 23 46  1  0  0  0  0
 24 33  1  0  0  0  0
 25 34  1  6  0  0  0
 25  4  1  0  0  0  0
 26 25  1  0  0  0  0
 27 35  1  6  0  0  0
 27 26  1  0  0  0  0
 27  2  1  0  0  0  0
 29 16  1  0  0  0  0
 40  8  1  0  0  0  0
 40  5  1  0  0  0  0
 41  9  1  0  0  0  0
 44 18  2  0  0  0  0
 45 15  1  0  0  0  0
 45 10  1  0  0  0  0
 46  1  1  0  0  0  0
M  END
>  <CHROM.1>
-145.79178194,163.34561757,171.22761941,179.81023850,76.94978980,-63.65693043
-179.83884486,-63.37990984,62.82422442,-90.76962956,172.53609400,-175.45955114
170.22134480,11.56697714,-12.18602282,7.48899120,-1.06933892,-0.07434739
2.23576401

>  <Name>
lig.pdb

>  <RI>
0

>  <Rbt.Current_Directory>
/home/afrankz/demos/rdock_decoys_rna/rnas/3wru

>  <Rbt.Executable>
rbdock ($Id: //depot/dev/client3/rdock/2013.1/src/exe/rbdock.cxx#4 $)

>  <Rbt.Library>
libRbt.so (2013.1, Build901 2013/11/27)

>  <Rbt.Parameter_File>
/export/apps/rDock/src/rDock_2013.1_src/data/scripts/dock_solv.prm

>  <Rbt.Receptor>
prm/pocket_docking_5.prm

>  <SCORE>
-2.86664

>  <SCORE.INTER>
-1.64877

>  <SCORE.INTER.CONST>
1

>  <SCORE.INTER.POLAR>
0

>  <SCORE.INTER.ROT>
13

>  <SCORE.INTER.SOLV>
19.4511

>  <SCORE.INTER.VDW>
-19.8496

>  <SCORE.INTER.norm>
-0.0358428

>  <SCORE.INTRA>
-1.21787

>  <SCORE.INTRA.DIHEDRAL>
-10.0043

>  <SCORE.INTRA.DIHEDRAL.0>
19.7146

>  <SCORE.INTRA.POLAR>
0

>  <SCORE.INTRA.POLAR.0>
0

>  <SCORE.INTRA.REPUL>
0

>  <SCORE.INTRA.REPUL.0>
0

>  <SCORE.INTRA.SOLV>
2.44089

>  <SCORE.INTRA.SOLV.lig_0>
-116.697

>  <SCORE.INTRA.VDW>
2.56381

>  <SCORE.INTRA.VDW.0>
-7.06424

>  <SCORE.INTRA.norm>
-0.0264754

>  <SCORE.RESTR>
0

>  <SCORE.RESTR.CAVITY>
0

>  <SCORE.RESTR.norm>
0

>  <SCORE.SYSTEM>
0

>  <SCORE.SYSTEM.CONST>
0

>  <SCORE.SYSTEM.DIHEDRAL>
0

>  <SCORE.SYSTEM.SOLV>
0

>  <SCORE.SYSTEM.norm>
0

>  <SCORE.heavy>
46

>  <SCORE.norm>
-0.0623183

>  <RMSD>
7.409

$$$$
lig.pdb
 OpenBabel03061811583D
libRbt.so/2013.1/901 2013/11/27
 46 49  0  0  0  0  0  0  0  0999 V2000
    9.4969  -15.7694    9.7960 C   0  0  1  0  0  0  0  0  0  0  0  0
   11.8943  -15.1172   10.2808 C   0  0  1  0  0  0  0  0  0  0  0  0
   12.0563  -14.0770    9.1312 C   0  0  1  0  0  0  0  0  0  0  0  0
   13.6247  -13.9219    8.7865 C   0  0  2  0  0  0  0  0  0  0  0  0
   10.8929  -13.9728    6.8788 C   0  0  2  0  0  0  0  0  0  0  0  0
   10.2673  -14.9148    5.8111 C   0  0  1  0  0  0  0  0  0  0  0  0
    9.4028  -13.8929    5.1131 C   0  0  1  0  0  0  0  0  0  0  0  0
    8.7068  -13.1060    6.2687 C   0  0  1  0  0  0  0  0  0  0  0  0
    7.4312  -13.7616    6.9047 C   0  0  0  0  0  0  0  0  0  0  0  0
   10.9047  -11.9447    4.9325 C   0  0  1  0  0  0  0  0  0  0  0  0
   10.1905  -10.6311    4.8170 C   0  0  1  0  0  0  0  0  0  0  0  0
    8.1164  -15.6848   10.4890 C   0  0  1  0  0  0  0  0  0  0  0  0
   11.0365   -9.5373    5.5602 C   0  0  0  0  0  0  0  0  0  0  0  0
   12.3595   -9.3448    5.0396 C   0  0  0  0  0  0  0  0  0  0  0  0
   13.0933  -10.5859    5.1672 C   0  0  2  0  0  0  0  0  0  0  0  0
   14.5601  -10.4383    4.6000 C   0  0  0  0  0  0  0  0  0  0  0  0
   18.0321  -12.9728    8.1771 C   0  0  2  0  0  0  0  0  0  0  0  0
   16.5525  -14.3679    9.3676 C   0  0  0  0  0  0  0  0  0  0  0  0
   19.2893  -12.4140    8.0454 C   0  0  0  0  0  0  0  0  0  0  0  0
   18.0837  -13.9480    9.1182 C   0  0  1  0  0  0  0  0  0  0  0  0
    8.0487  -16.6581   11.7523 C   0  0  0  0  0  0  0  0  0  0  0  0
    8.3447  -18.1523   11.2503 C   0  0  0  0  0  0  0  0  0  0  0  0
    9.7940  -18.1664   10.5757 C   0  0  1  0  0  0  0  0  0  0  0  0
   10.1665  -19.5577   10.0494 C   0  0  0  0  0  0  0  0  0  0  0  0
   14.3607  -13.3595   10.0798 C   0  0  1  0  0  0  0  0  0  0  0  0
   14.1794  -14.4890   11.2276 C   0  0  0  0  0  0  0  0  0  0  0  0
   12.6491  -14.6779   11.5600 C   0  0  2  0  0  0  0  0  0  0  0  0
   17.5784  -13.4497    6.8901 F   0  0  0  0  0  0  0  0  0  0  0  0
   15.4003  -11.7408    4.7336 N   0  0  0  0  0  0  0  0  0  0  0  0
    7.8667  -14.2441   10.8651 N   0  0  0  0  0  0  0  0  0  0  0  0
   10.0547  -10.1668    3.5057 N   0  0  0  0  0  0  0  0  0  0  0  0
   20.5113  -12.9573    7.5840 N   0  0  0  0  0  0  0  0  0  0  0  0
    9.3050  -19.9521    9.0038 N   0  0  0  0  0  0  0  0  0  0  0  0
   15.7983  -13.1901    9.8020 N   0  0  0  0  0  0  0  0  0  0  0  0
   12.4672  -15.7162   12.5984 N   0  0  0  0  0  0  0  0  0  0  0  0
   10.5253  -15.2512   10.6404 O   0  0  0  0  0  0  0  0  0  0  0  0
   11.2876  -14.6082    7.9565 O   0  0  0  0  0  0  0  0  0  0  0  0
   13.7409  -12.9994    7.7708 O   0  0  0  0  0  0  0  0  0  0  0  0
   11.2977  -15.4263    5.0212 O   0  0  0  0  0  0  0  0  0  0  0  0
    9.8725  -12.9342    7.0918 O   0  0  0  0  0  0  0  0  0  0  0  0
    6.5006  -14.0185    5.8341 O   0  0  0  0  0  0  0  0  0  0  0  0
   10.2843  -12.9847    4.2750 O   0  0  0  0  0  0  0  0  0  0  0  0
   18.8416  -15.1024    8.6948 O   0  0  0  0  0  0  0  0  0  0  0  0
   16.0970  -15.5109    9.1982 O   0  0  0  0  0  0  0  0  0  0  0  0
   12.3607  -11.7040    4.4636 O   0  0  0  0  0  0  0  0  0  0  0  0
    9.8317  -17.1836    9.4169 O   0  0  0  0  0  0  0  0  0  0  0  0
  1 36  1  1  0  0  0
  2 36  1  1  0  0  0
  2  3  1  0  0  0  0
  3 37  1  6  0  0  0
  3  4  1  0  0  0  0
  4 38  1  6  0  0  0
  5 37  1  1  0  0  0
  5  6  1  0  0  0  0
  6  7  1  0  0  0  0
  6 39  1  6  0  0  0
  7 42  1  1  0  0  0
  8  9  1  1  0  0  0
  8  7  1  0  0  0  0
 10 42  1  6  0  0  0
 10 11  1  0  0  0  0
 11 31  1  6  0  0  0
 11 13  1  0  0  0  0
 12 30  1  1  0  0  0
 12  1  1  0  0  0  0
 14 13  1  0  0  0  0
 15 16  1  6  0  0  0
 15 14  1  0  0  0  0
 17 19  1  6  0  0  0
 17 28  1  0  0  0  0
 18 34  1  0  0  0  0
 19 32  1  0  0  0  0
 20 18  1  6  0  0  0
 20 17  1  0  0  0  0
 20 43  1  0  0  0  0
 21 12  1  0  0  0  0
 22 21  1  0  0  0  0
 22 23  1  0  0  0  0
 23 24  1  6  0  0  0
 23 46  1  0  0  0  0
 24 33  1  0  0  0  0
 25 34  1  6  0  0  0
 25  4  1  0  0  0  0
 26 25  1  0  0  0  0
 27 35  1  1  0  0  0
 27 26  1  0  0  0  0
 27  2  1  0  0  0  0
 29 16  1  0  0  0  0
 40  8  1  0  0  0  0
 40  5  1  0  0  0  0
 41  9  1  0  0  0  0
 44 18  2  0  0  0  0
 45 15  1  0  0  0  0
 45 10  1  0  0  0  0
 46  1  1  0  0  0  0
M  END
>  <CHROM.1>
-176.49496734,65.16151238,163.88211579,173.10492610,-82.17724000,-55.16941418
-97.45791835,179.10631576,65.36940196,-58.51373132,171.18671071,64.52014586
-57.70221554,12.26764547,-14.02087193,7.92236813,-2.75568734,-0.15821996
-0.83954906

>  <Name>
lig.pdb

>  <RI>
0

>  <Rbt.Current_Directory>
/home/afrankz/demos/rdock_decoys_rna/rnas/3wru

>  <Rbt.Executable>
rbdock ($Id: //depot/dev/client3/rdock/2013.1/src/exe/rbdock.cxx#4 $)

>  <Rbt.Library>
libRbt.so (2013.1, Build901 2013/11/27)

>  <Rbt.Parameter_File>
/export/apps/rDock/src/rDock_2013.1_src/data/scripts/dock_solv.prm

>  <Rbt.Receptor>
prm/pocket_docking_3.prm

>  <SCORE>
-0.955166

>  <SCORE.INTER>
-0.982328

>  <SCORE.INTER.CONST>
1

>  <SCORE.INTER.POLAR>
0

>  <SCORE.INTER.ROT>
13

>  <SCORE.INTER.SOLV>
17.6178

>  <SCORE.INTER.VDW>
-18.7941

>  <SCORE.INTER.norm>
-0.0213549

>  <SCORE.INTRA>
-0.100469

>  <SCORE.INTRA.DIHEDRAL>
-9.43846

>  <SCORE.INTRA.DIHEDRAL.0>
19.7146

>  <SCORE.INTRA.POLAR>
0

>  <SCORE.INTRA.POLAR.0>
0

>  <SCORE.INTRA.REPUL>
0

>  <SCORE.INTRA.REPUL.0>
0

>  <SCORE.INTRA.SOLV>
1.22433

>  <SCORE.INTRA.SOLV.lig_0>
-116.697

>  <SCORE.INTRA.VDW>
4.0066

>  <SCORE.INTRA.VDW.0>
-7.06424

>  <SCORE.INTRA.norm>
-0.00218411

>  <SCORE.RESTR>
0.12763

>  <SCORE.RESTR.CAVITY>
0.12763

>  <SCORE.RESTR.norm>
0.00277457

>  <SCORE.SYSTEM>
0

>  <SCORE.SYSTEM.CONST>
0

>  <SCORE.SYSTEM.DIHEDRAL>
0

>  <SCORE.SYSTEM.SOLV>
0

>  <SCORE.SYSTEM.norm>
0

>  <SCORE.heavy>
46

>  <SCORE.norm>
-0.0207645

>  <RMSD>
7.411

$$$$
lig.pdb
 OpenBabel03061811583D
libRbt.so/2013.1/901 2013/11/27
 46 49  0  0  0  0  0  0  0  0999 V2000
   10.6282  -17.3376   11.4889 C   0  0  1  0  0  0  0  0  0  0  0  0
   11.7264  -16.6240    9.3226 C   0  0  1  0  0  0  0  0  0  0  0  0
   11.6713  -15.0689    9.4145 C   0  0  1  0  0  0  0  0  0  0  0  0
   12.9183  -14.4544    8.5959 C   0  0  2  0  0  0  0  0  0  0  0  0
   10.0707  -13.5390    8.1753 C   0  0  2  0  0  0  0  0  0  0  0  0
   10.3102  -13.6401    6.6420 C   0  0  1  0  0  0  0  0  0  0  0  0
    9.3337  -12.5737    6.2083 C   0  0  1  0  0  0  0  0  0  0  0  0
    8.0373  -12.8651    7.0291 C   0  0  1  0  0  0  0  0  0  0  0  0
    7.0812  -13.9777    6.4726 C   0  0  0  0  0  0  0  0  0  0  0  0
   10.6478  -10.5903    5.5580 C   0  0  1  0  0  0  0  0  0  0  0  0
   12.1028  -10.9534    5.5642 C   0  0  1  0  0  0  0  0  0  0  0  0
    9.2245  -17.7758   11.9694 C   0  0  1  0  0  0  0  0  0  0  0  0
   12.8248  -10.1361    4.4350 C   0  0  0  0  0  0  0  0  0  0  0  0
   12.7455   -8.7109    4.5810 C   0  0  0  0  0  0  0  0  0  0  0  0
   11.3530   -8.3176    4.5438 C   0  0  2  0  0  0  0  0  0  0  0  0
   11.2008   -6.7542    4.7096 C   0  0  0  0  0  0  0  0  0  0  0  0
   17.7973  -14.6767    6.9968 C   0  0  2  0  0  0  0  0  0  0  0  0
   16.7561  -14.7081    9.1105 C   0  0  0  0  0  0  0  0  0  0  0  0
   18.5915  -14.0239    6.0731 C   0  0  0  0  0  0  0  0  0  0  0  0
   17.8658  -14.0138    8.1780 C   0  0  1  0  0  0  0  0  0  0  0  0
    8.1446  -16.6308   11.7039 C   0  0  0  0  0  0  0  0  0  0  0  0
    8.6216  -15.3046   12.4693 C   0  0  0  0  0  0  0  0  0  0  0  0
   10.0594  -14.8985   11.9003 C   0  0  1  0  0  0  0  0  0  0  0  0
   10.6103  -13.6406   12.5827 C   0  0  0  0  0  0  0  0  0  0  0  0
   14.2590  -14.9513    9.2932 C   0  0  1  0  0  0  0  0  0  0  0  0
   14.2716  -16.5650    9.1457 C   0  0  0  0  0  0  0  0  0  0  0  0
   13.0426  -17.1855    9.9154 C   0  0  2  0  0  0  0  0  0  0  0  0
   18.2095  -16.0586    7.0970 F   0  0  0  0  0  0  0  0  0  0  0  0
   11.7332   -5.9557    3.4852 N   0  0  0  0  0  0  0  0  0  0  0  0
    8.8704  -19.0666   11.2710 N   0  0  0  0  0  0  0  0  0  0  0  0
   12.7705  -10.6216    6.7463 N   0  0  0  0  0  0  0  0  0  0  0  0
   19.9790  -13.7484    6.0604 N   0  0  0  0  0  0  0  0  0  0  0  0
    9.9798  -12.4785   12.0898 N   0  0  0  0  0  0  0  0  0  0  0  0
   15.4259  -14.3995    8.5815 N   0  0  0  0  0  0  0  0  0  0  0  0
   13.0339  -18.6589    9.7788 N   0  0  0  0  0  0  0  0  0  0  0  0
   10.6633  -17.2037   10.0676 O   0  0  0  0  0  0  0  0  0  0  0  0
   10.3616  -14.6469    8.8149 O   0  0  0  0  0  0  0  0  0  0  0  0
   12.8474  -13.0826    8.6925 O   0  0  0  0  0  0  0  0  0  0  0  0
   11.6463  -13.3289    6.3863 O   0  0  0  0  0  0  0  0  0  0  0  0
    8.6773  -13.0823    8.2976 O   0  0  0  0  0  0  0  0  0  0  0  0
    6.1565  -14.3160    7.5255 O   0  0  0  0  0  0  0  0  0  0  0  0
    9.9071  -11.2084    6.5420 O   0  0  0  0  0  0  0  0  0  0  0  0
   19.1618  -14.1138    8.8079 O   0  0  0  0  0  0  0  0  0  0  0  0
   17.0071  -15.4049   10.1076 O   0  0  0  0  0  0  0  0  0  0  0  0
   10.5731   -9.0447    5.6138 O   0  0  0  0  0  0  0  0  0  0  0  0
   11.0404  -16.0385   12.1200 O   0  0  0  0  0  0  0  0  0  0  0  0
  1 36  1  6  0  0  0
  2 36  1  1  0  0  0
  2  3  1  0  0  0  0
  3 37  1  6  0  0  0
  3  4  1  0  0  0  0
  4 38  1  1  0  0  0
  5 37  1  1  0  0  0
  5  6  1  0  0  0  0
  6  7  1  0  0  0  0
  6 39  1  1  0  0  0
  7 42  1  1  0  0  0
  8  9  1  6  0  0  0
  8  7  1  0  0  0  0
 10 42  1  1  0  0  0
 10 11  1  0  0  0  0
 11 31  1  1  0  0  0
 11 13  1  0  0  0  0
 12 30  1  6  0  0  0
 12  1  1  0  0  0  0
 14 13  1  0  0  0  0
 15 16  1  1  0  0  0
 15 14  1  0  0  0  0
 17 19  1  6  0  0  0
 17 28  1  0  0  0  0
 18 34  1  0  0  0  0
 19 32  1  0  0  0  0
 20 18  1  1  0  0  0
 20 17  1  0  0  0  0
 20 43  1  0  0  0  0
 21 12  1  0  0  0  0
 22 21  1  0  0  0  0
 22 23  1  0  0  0  0
 23 24  1  1  0  0  0
 23 46  1  0  0  0  0
 24 33  1  0  0  0  0
 25 34  1  6  0  0  0
 25  4  1  0  0  0  0
 26 25  1  0  0  0  0
 27 35  1  6  0  0  0
 27 26  1  0  0  0  0
 27  2  1  0  0  0  0
 29 16  1  0  0  0  0
 40  8  1  0  0  0  0
 40  5  1  0  0  0  0
 41  9  1  0  0  0  0
 44 18  2  0  0  0  0
 45 15  1  0  0  0  0
 45 10  1  0  0  0  0
 46  1  1  0  0  0  0
M  END
>  <CHROM.1>
169.77991473,-77.30600724,-149.17222819,89.69428869,91.83030710,165.75117867
-87.56485102,68.80291817,60.45204202,-67.98725645,171.84206068,-76.47584025
177.77406239,12.19562385,-13.75383913,8.25872607,1.85033522,-0.14679347,2.47925448

>  <Name>
lig.pdb

>  <RI>
0

>  <Rbt.Current_Directory>
/home/afrankz/demos/rdock_decoys_rna/rnas/3wru

>  <Rbt.Executable>
rbdock ($Id: //depot/dev/client3/rdock/2013.1/src/exe/rbdock.cxx#4 $)

>  <Rbt.Library>
libRbt.so (2013.1, Build901 2013/11/27)

>  <Rbt.Parameter_File>
/export/apps/rDock/src/rDock_2013.1_src/data/scripts/dock_solv.prm

>  <Rbt.Receptor>
prm/pocket_docking_3.prm

>  <SCORE>
7.50837

>  <SCORE.INTER>
1.56835

>  <SCORE.INTER.CONST>
1

>  <SCORE.INTER.POLAR>
0

>  <SCORE.INTER.ROT>
13

>  <SCORE.INTER.SOLV>
14.9306

>  <SCORE.INTER.VDW>
-16.198

>  <SCORE.INTER.norm>
0.0340946

>  <SCORE.INTRA>
4.64802

>  <SCORE.INTRA.DIHEDRAL>
-0.306413

>  <SCORE.INTRA.DIHEDRAL.0>
19.7146

>  <SCORE.INTRA.POLAR>
0

>  <SCORE.INTRA.POLAR.0>
0

>  <SCORE.INTRA.REPUL>
0

>  <SCORE.INTRA.REPUL.0>
0

>  <SCORE.INTRA.SOLV>
2.49307

>  <SCORE.INTRA.SOLV.lig_0>
-116.697

>  <SCORE.INTRA.VDW>
3.55469

>  <SCORE.INTRA.VDW.0>
-7.06424

>  <SCORE.INTRA.norm>
0.101044

>  <SCORE.RESTR>
1.292

>  <SCORE.RESTR.CAVITY>
1.292

>  <SCORE.RESTR.norm>
0.0280869

>  <SCORE.SYSTEM>
0

>  <SCORE.SYSTEM.CONST>
0

>  <SCORE.SYSTEM.DIHEDRAL>
0

>  <SCORE.SYSTEM.SOLV>
0

>  <SCORE.SYSTEM.norm>
0

>  <SCORE.heavy>
46

>  <SCORE.norm>
0.163225

>  <RMSD>
7.422

$$$$
lig.pdb
 OpenBabel03061811583D
libRbt.so/2013.1/901 2013/11/27
 46 49  0  0  0  0  0  0  0  0999 V2000
    9.4741  -17.9293   11.1539 C   0  0  1  0  0  0  0  0  0  0  0  0
   11.1657  -17.0994    9.4634 C   0  0  1  0  0  0  0  0  0  0  0  0
   11.1875  -15.6768   10.1001 C   0  0  1  0  0  0  0  0  0  0  0  0
   12.5728  -14.9505    9.7048 C   0  0  2  0  0  0  0  0  0  0  0  0
    9.8525  -14.4049    8.3571 C   0  0  2  0  0  0  0  0  0  0  0  0
    8.5955  -14.9334    7.6092 C   0  0  1  0  0  0  0  0  0  0  0  0
    8.3778  -13.7455    6.7034 C   0  0  1  0  0  0  0  0  0  0  0  0
    8.5244  -12.5023    7.6372 C   0  0  1  0  0  0  0  0  0  0  0  0
    7.2656  -12.0982    8.4822 C   0  0  0  0  0  0  0  0  0  0  0  0
    9.3572  -12.7481    4.6713 C   0  0  1  0  0  0  0  0  0  0  0  0
    9.7532  -13.1731    3.2887 C   0  0  1  0  0  0  0  0  0  0  0  0
    8.3482  -18.9887   11.2113 C   0  0  1  0  0  0  0  0  0  0  0  0
    9.6711  -11.9242    2.3412 C   0  0  0  0  0  0  0  0  0  0  0  0
   10.5286  -10.8340    2.7087 C   0  0  0  0  0  0  0  0  0  0  0  0
   10.1520  -10.3721    4.0277 C   0  0  2  0  0  0  0  0  0  0  0  0
   11.0703   -9.1739    4.4924 C   0  0  0  0  0  0  0  0  0  0  0  0
   17.6034  -15.1327    8.3026 C   0  0  2  0  0  0  0  0  0  0  0  0
   15.2931  -14.7792    8.6033 C   0  0  0  0  0  0  0  0  0  0  0  0
   17.5743  -15.5073    6.9727 C   0  0  0  0  0  0  0  0  0  0  0  0
   16.7444  -14.0990    8.4843 C   0  0  1  0  0  0  0  0  0  0  0  0
    7.0589  -18.4991   10.4077 C   0  0  0  0  0  0  0  0  0  0  0  0
    6.5691  -17.1107   11.0440 C   0  0  0  0  0  0  0  0  0  0  0  0
    7.7700  -16.0627   10.9214 C   0  0  1  0  0  0  0  0  0  0  0  0
    7.4018  -14.6984   11.5170 C   0  0  0  0  0  0  0  0  0  0  0  0
   13.7682  -15.7969   10.3258 C   0  0  1  0  0  0  0  0  0  0  0  0
   13.7089  -17.2503    9.6116 C   0  0  0  0  0  0  0  0  0  0  0  0
   12.3481  -17.9670    9.9616 C   0  0  2  0  0  0  0  0  0  0  0  0
   18.9609  -14.8163    8.6856 F   0  0  0  0  0  0  0  0  0  0  0  0
   10.8103   -8.7403    5.9637 N   0  0  0  0  0  0  0  0  0  0  0  0
    8.8971  -20.2876   10.6718 N   0  0  0  0  0  0  0  0  0  0  0  0
   11.0699  -13.6305    3.1855 N   0  0  0  0  0  0  0  0  0  0  0  0
   17.9224  -14.8054    5.7948 N   0  0  0  0  0  0  0  0  0  0  0  0
    8.5129  -13.8287   11.5180 N   0  0  0  0  0  0  0  0  0  0  0  0
   15.0552  -15.1578    9.9978 N   0  0  0  0  0  0  0  0  0  0  0  0
   12.2745  -19.2912    9.3055 N   0  0  0  0  0  0  0  0  0  0  0  0
    9.9747  -17.7870    9.8241 O   0  0  0  0  0  0  0  0  0  0  0  0
   10.0044  -14.9375    9.5464 O   0  0  0  0  0  0  0  0  0  0  0  0
   12.5678  -13.6986   10.2783 O   0  0  0  0  0  0  0  0  0  0  0  0
    8.9460  -16.1060    6.9387 O   0  0  0  0  0  0  0  0  0  0  0  0
    9.7042  -12.9412    8.3310 O   0  0  0  0  0  0  0  0  0  0  0  0
    6.7519  -13.3001    9.0900 O   0  0  0  0  0  0  0  0  0  0  0  0
    9.4352  -13.7498    5.6143 O   0  0  0  0  0  0  0  0  0  0  0  0
   17.0231  -13.3359    9.6786 O   0  0  0  0  0  0  0  0  0  0  0  0
   14.5065  -14.9356    7.6549 O   0  0  0  0  0  0  0  0  0  0  0  0
   10.2170  -11.5085    5.0207 O   0  0  0  0  0  0  0  0  0  0  0  0
    8.9938  -16.5950   11.6488 O   0  0  0  0  0  0  0  0  0  0  0  0
  1 36  1  6  0  0  0
  2 36  1  1  0  0  0
  2  3  1  0  0  0  0
  3 37  1  6  0  0  0
  3  4  1  0  0  0  0
  4 38  1  1  0  0  0
  5 37  1  1  0  0  0
  5  6  1  0  0  0  0
  6  7  1  0  0  0  0
  6 39  1  6  0  0  0
  7 42  1  6  0  0  0
  8  9  1  1  0  0  0
  8  7  1  0  0  0  0
 10 42  1  1  0  0  0
 10 11  1  0  0  0  0
 11 31  1  1  0  0  0
 11 13  1  0  0  0  0
 12 30  1  6  0  0  0
 12  1  1  0  0  0  0
 14 13  1  0  0  0  0
 15 16  1  1  0  0  0
 15 14  1  0  0  0  0
 17 19  1  6  0  0  0
 17 28  1  0  0  0  0
 18 34  1  0  0  0  0
 19 32  1  0  0  0  0
 20 18  1  1  0  0  0
 20 17  1  0  0  0  0
 20 43  1  0  0  0  0
 21 12  1  0  0  0  0
 22 21  1  0  0  0  0
 22 23  1  0  0  0  0
 23 24  1  1  0  0  0
 23 46  1  0  0  0  0
 24 33  1  0  0  0  0
 25 34  1  6  0  0  0
 25  4  1  0  0  0  0
 26 25  1  0  0  0  0
 27 35  1  6  0  0  0
 27 26  1  0  0  0  0
 27  2  1  0  0  0  0
 29 16  1  0  0  0  0
 40  8  1  0  0  0  0
 40  5  1  0  0  0  0
 41  9  1  0  0  0  0
 44 18  2  0  0  0  0
 45 15  1  0  0  0  0
 45 10  1  0  0  0  0
 46  1  1  0  0  0  0
M  END
>  <CHROM.1>
-167.32252114,-50.47853353,-75.93844837,124.06868815,178.11045143,47.08759792
-144.32816162,-173.75990210,62.85310527,86.78282087,80.80731740,174.27785565
-49.12353830,11.19891187,-14.69857347,8.20148484,-2.56372972,0.03699442,-0.79779728

>  <Name>
lig.pdb

>  <RI>
0

>  <Rbt.Current_Directory>
/home/afrankz/demos/rdock_decoys_rna/rnas/3wru

>  <Rbt.Executable>
rbdock ($Id: //depot/dev/client3/rdock/2013.1/src/exe/rbdock.cxx#4 $)

>  <Rbt.Library>
libRbt.so (2013.1, Build901 2013/11/27)

>  <Rbt.Parameter_File>
/export/apps/rDock/src/rDock_2013.1_src/data/scripts/dock_solv.prm

>  <Rbt.Receptor>
prm/pocket_docking_3.prm

>  <SCORE>
6.44654

>  <SCORE.INTER>
2.59507

>  <SCORE.INTER.CONST>
1

>  <SCORE.INTER.POLAR>
0

>  <SCORE.INTER.ROT>
13

>  <SCORE.INTER.SOLV>
18.0335

>  <SCORE.INTER.VDW>
-16.5478

>  <SCORE.INTER.norm>
0.0564147

>  <SCORE.INTRA>
2.62804

>  <SCORE.INTRA.DIHEDRAL>
-1.65752

>  <SCORE.INTRA.DIHEDRAL.0>
19.7146

>  <SCORE.INTRA.POLAR>
0

>  <SCORE.INTRA.POLAR.0>
0

>  <SCORE.INTRA.REPUL>
0

>  <SCORE.INTRA.REPUL.0>
0

>  <SCORE.INTRA.SOLV>
5.63771

>  <SCORE.INTRA.SOLV.lig_0>
-116.697

>  <SCORE.INTRA.VDW>
0.637948

>  <SCORE.INTRA.VDW.0>
-7.06424

>  <SCORE.INTRA.norm>
0.0571313

>  <SCORE.RESTR>
1.22342

>  <SCORE.RESTR.CAVITY>
1.22342

>  <SCORE.RESTR.norm>
0.0265961

>  <SCORE.SYSTEM>
0

>  <SCORE.SYSTEM.CONST>
0

>  <SCORE.SYSTEM.DIHEDRAL>
0

>  <SCORE.SYSTEM.SOLV>
0

>  <SCORE.SYSTEM.norm>
0

>  <SCORE.heavy>
46

>  <SCORE.norm>
0.140142

>  <RMSD>
7.442

$$$$
lig.pdb
 OpenBabel03061811583D
libRbt.so/2013.1/901 2013/11/27
 46 49  0  0  0  0  0  0  0  0999 V2000
    7.8298  -13.5604   13.4658 C   0  0  1  0  0  0  0  0  0  0  0  0
   10.1467  -13.9816   12.5370 C   0  0  1  0  0  0  0  0  0  0  0  0
   10.0687  -13.1427   11.2256 C   0  0  1  0  0  0  0  0  0  0  0  0
   11.1280  -13.7367   10.1636 C   0  0  2  0  0  0  0  0  0  0  0  0
    8.0655  -14.3029   10.1869 C   0  0  2  0  0  0  0  0  0  0  0  0
    6.5556  -14.0617    9.9028 C   0  0  1  0  0  0  0  0  0  0  0  0
    6.3881  -15.0739    8.7954 C   0  0  1  0  0  0  0  0  0  0  0  0
    7.6196  -14.8482    7.8617 C   0  0  1  0  0  0  0  0  0  0  0  0
    7.5143  -13.6797    6.8199 C   0  0  0  0  0  0  0  0  0  0  0  0
    6.1173  -17.5114    8.5332 C   0  0  1  0  0  0  0  0  0  0  0  0
    5.9091  -18.8312    9.2142 C   0  0  1  0  0  0  0  0  0  0  0  0
    7.1852  -12.8643   14.6877 C   0  0  1  0  0  0  0  0  0  0  0  0
    5.6646  -19.9254    8.1155 C   0  0  0  0  0  0  0  0  0  0  0  0
    6.7450  -20.0962    7.1869 C   0  0  0  0  0  0  0  0  0  0  0  0
    6.9528  -18.8488    6.4827 C   0  0  2  0  0  0  0  0  0  0  0  0
    8.1406  -18.9725    5.4489 C   0  0  0  0  0  0  0  0  0  0  0  0
   15.7107  -16.0200    9.1427 C   0  0  2  0  0  0  0  0  0  0  0  0
   14.9945  -14.0600   10.2373 C   0  0  0  0  0  0  0  0  0  0  0  0
   16.2403  -16.6135    8.0125 C   0  0  0  0  0  0  0  0  0  0  0  0
   15.8968  -14.6792    9.0601 C   0  0  1  0  0  0  0  0  0  0  0  0
    7.5397  -13.6354   16.0396 C   0  0  0  0  0  0  0  0  0  0  0  0
    7.0214  -15.1472   15.9050 C   0  0  0  0  0  0  0  0  0  0  0  0
    7.7509  -15.8068   14.6446 C   0  0  1  0  0  0  0  0  0  0  0  0
    7.3097  -17.2586   14.4234 C   0  0  0  0  0  0  0  0  0  0  0  0
   12.5864  -13.5736   10.7780 C   0  0  1  0  0  0  0  0  0  0  0  0
   12.6139  -14.4826   12.1192 C   0  0  0  0  0  0  0  0  0  0  0  0
   11.5634  -13.9364   13.1614 C   0  0  2  0  0  0  0  0  0  0  0  0
   16.3101  -16.6046   10.3210 F   0  0  0  0  0  0  0  0  0  0  0  0
    8.4231  -17.6486    4.6822 N   0  0  0  0  0  0  0  0  0  0  0  0
    7.6519  -11.4286   14.7111 N   0  0  0  0  0  0  0  0  0  0  0  0
    7.0138  -19.2793    9.9439 N   0  0  0  0  0  0  0  0  0  0  0  0
   16.1875  -17.9472    7.5436 N   0  0  0  0  0  0  0  0  0  0  0  0
    5.9421  -17.3270   14.0829 N   0  0  0  0  0  0  0  0  0  0  0  0
   13.5882  -14.0938    9.8302 N   0  0  0  0  0  0  0  0  0  0  0  0
   11.5684  -14.7650   14.3873 N   0  0  0  0  0  0  0  0  0  0  0  0
    9.2536  -13.4616   13.5134 O   0  0  0  0  0  0  0  0  0  0  0  0
    8.6607  -13.2622   10.7194 O   0  0  0  0  0  0  0  0  0  0  0  0
   11.0402  -12.9799    9.0166 O   0  0  0  0  0  0  0  0  0  0  0  0
    5.8389  -14.3602   11.0623 O   0  0  0  0  0  0  0  0  0  0  0  0
    8.6115  -14.7561    8.8978 O   0  0  0  0  0  0  0  0  0  0  0  0
    6.3785  -13.9567    5.9765 O   0  0  0  0  0  0  0  0  0  0  0  0
    6.3921  -16.4696    9.3922 O   0  0  0  0  0  0  0  0  0  0  0  0
   17.2745  -14.2873    9.2462 O   0  0  0  0  0  0  0  0  0  0  0  0
   15.4365  -13.6397   11.3193 O   0  0  0  0  0  0  0  0  0  0  0  0
    7.2147  -17.7296    7.4628 O   0  0  0  0  0  0  0  0  0  0  0  0
    7.4351  -15.0076   13.3910 O   0  0  0  0  0  0  0  0  0  0  0  0
  1 36  1  1  0  0  0
  2 36  1  1  0  0  0
  2  3  1  0  0  0  0
  3 37  1  6  0  0  0
  3  4  1  0  0  0  0
  4 38  1  6  0  0  0
  5 37  1  6  0  0  0
  5  6  1  0  0  0  0
  6  7  1  0  0  0  0
  6 39  1  1  0  0  0
  7 42  1  1  0  0  0
  8  9  1  1  0  0  0
  8  7  1  0  0  0  0
 10 42  1  1  0  0  0
 10 11  1  0  0  0  0
 11 31  1  6  0  0  0
 11 13  1  0  0  0  0
 12 30  1  1  0  0  0
 12  1  1  0  0  0  0
 14 13  1  0  0  0  0
 15 16  1  6  0  0  0
 15 14  1  0  0  0  0
 17 19  1  6  0  0  0
 17 28  1  0  0  0  0
 18 34  1  0  0  0  0
 19 32  1  0  0  0  0
 20 18  1  1  0  0  0
 20 17  1  0  0  0  0
 20 43  1  0  0  0  0
 21 12  1  0  0  0  0
 22 21  1  0  0  0  0
 22 23  1  0  0  0  0
 23 24  1  6  0  0  0
 23 46  1  0  0  0  0
 24 33  1  0  0  0  0
 25 34  1  6  0  0  0
 25  4  1  0  0  0  0
 26 25  1  0  0  0  0
 27 35  1  1  0  0  0
 27 26  1  0  0  0  0
 27  2  1  0  0  0  0
 29 16  1  0  0  0  0
 40  8  1  0  0  0  0
 40  5  1  0  0  0  0
 41  9  1  0  0  0  0
 44 18  2  0  0  0  0
 45 15  1  0  0  0  0
 45 10  1  0  0  0  0
 46  1  1  0  0  0  0
M  END
>  <CHROM.1>
-179.25974931,71.48910531,-71.03192855,174.90885108,173.81568024,-59.35595295
-170.28620955,-178.94273360,-172.51359059,-75.90241232,168.51116306,64.97895636
-178.48259638,9.63437416,-15.37931981,10.40871890,3.09745048,-0.16167305
-2.05256933

>  <Name>
lig.pdb

>  <RI>
0

>  <Rbt.Current_Directory>
/home/afrankz/demos/rdock_decoys_rna/rnas/3wru

>  <Rbt.Executable>
rbdock ($Id: //depot/dev/client3/rdock/2013.1/src/exe/rbdock.cxx#4 $)

>  <Rbt.Library>
libRbt.so (2013.1, Build901 2013/11/27)

>  <Rbt.Parameter_File>
/export/apps/rDock/src/rDock_2013.1_src/data/scripts/dock_solv.prm

>  <Rbt.Receptor>
prm/pocket_docking_7.prm

>  <SCORE>
-4.50098

>  <SCORE.INTER>
3.62128

>  <SCORE.INTER.CONST>
1

>  <SCORE.INTER.POLAR>
0

>  <SCORE.INTER.ROT>
13

>  <SCORE.INTER.SOLV>
18.263

>  <SCORE.INTER.VDW>
-15.9401

>  <SCORE.INTER.norm>
0.0787234

>  <SCORE.INTRA>
-8.12226

>  <SCORE.INTRA.DIHEDRAL>
-15.6607

>  <SCORE.INTRA.DIHEDRAL.0>
19.7146

>  <SCORE.INTRA.POLAR>
0

>  <SCORE.INTRA.POLAR.0>
0

>  <SCORE.INTRA.REPUL>
0.0173687

>  <SCORE.INTRA.REPUL.0>
0

>  <SCORE.INTRA.SOLV>
-2.0119

>  <SCORE.INTRA.SOLV.lig_0>
-116.697

>  <SCORE.INTRA.VDW>
0.62721

>  <SCORE.INTRA.VDW.0>
-7.06424

>  <SCORE.INTRA.norm>
-0.176571

>  <SCORE.RESTR>
0

>  <SCORE.RESTR.CAVITY>
0

>  <SCORE.RESTR.norm>
0

>  <SCORE.SYSTEM>
0

>  <SCORE.SYSTEM.CONST>
0

>  <SCORE.SYSTEM.DIHEDRAL>
0

>  <SCORE.SYSTEM.SOLV>
0

>  <SCORE.SYSTEM.norm>
0

>  <SCORE.heavy>
46

>  <SCORE.norm>
-0.0978474

>  <RMSD>
7.457

$$$$
lig.pdb
 OpenBabel03061811583D
libRbt.so/2013.1/901 2013/11/27
 46 49  0  0  0  0  0  0  0  0999 V2000
    8.7747  -15.4352    9.3459 C   0  0  1  0  0  0  0  0  0  0  0  0
   10.7459  -14.9194    7.8437 C   0  0  1  0  0  0  0  0  0  0  0  0
   11.1652  -13.5776    8.5171 C   0  0  1  0  0  0  0  0  0  0  0  0
   12.7429  -13.3437    8.2739 C   0  0  2  0  0  0  0  0  0  0  0  0
   10.2851  -12.1564    6.6083 C   0  0  2  0  0  0  0  0  0  0  0  0
   11.6643  -11.7399    6.0225 C   0  0  1  0  0  0  0  0  0  0  0  0
   11.3789  -12.0556    4.5742 C   0  0  1  0  0  0  0  0  0  0  0  0
   10.6982  -13.4609    4.6008 C   0  0  1  0  0  0  0  0  0  0  0  0
   11.6477  -14.7066    4.6929 C   0  0  0  0  0  0  0  0  0  0  0  0
   11.0256  -10.0119    3.2391 C   0  0  1  0  0  0  0  0  0  0  0  0
   11.5972   -8.8721    4.0284 C   0  0  1  0  0  0  0  0  0  0  0  0
    7.3169  -15.9288    9.1901 C   0  0  1  0  0  0  0  0  0  0  0  0
   12.1647   -7.8065    3.0249 C   0  0  0  0  0  0  0  0  0  0  0  0
   11.1940   -7.2516    2.1258 C   0  0  0  0  0  0  0  0  0  0  0  0
   10.6441   -8.3205    1.3196 C   0  0  2  0  0  0  0  0  0  0  0  0
    9.5586   -7.7702    0.3126 C   0  0  0  0  0  0  0  0  0  0  0  0
   17.5093  -15.0543    7.9396 C   0  0  2  0  0  0  0  0  0  0  0  0
   15.8846  -15.1251    9.6451 C   0  0  0  0  0  0  0  0  0  0  0  0
   18.7094  -14.5547    7.4705 C   0  0  0  0  0  0  0  0  0  0  0  0
   17.4046  -14.7704    9.2617 C   0  0  1  0  0  0  0  0  0  0  0  0
    6.3821  -14.7778    8.5992 C   0  0  0  0  0  0  0  0  0  0  0  0
    6.4550  -13.5164    9.5871 C   0  0  0  0  0  0  0  0  0  0  0  0
    7.9807  -13.0468    9.6733 C   0  0  1  0  0  0  0  0  0  0  0  0
    8.1574  -11.8455   10.6099 C   0  0  0  0  0  0  0  0  0  0  0  0
   13.5322  -14.5293    8.9825 C   0  0  1  0  0  0  0  0  0  0  0  0
   13.0753  -15.8885    8.2276 C   0  0  0  0  0  0  0  0  0  0  0  0
   11.5282  -16.1216    8.4282 C   0  0  2  0  0  0  0  0  0  0  0  0
   17.4313  -16.4695    7.6553 F   0  0  0  0  0  0  0  0  0  0  0  0
    8.4050   -7.0015    1.0186 N   0  0  0  0  0  0  0  0  0  0  0  0
    7.3282  -17.1593    8.3154 N   0  0  0  0  0  0  0  0  0  0  0  0
   10.6592   -8.1866    4.8053 N   0  0  0  0  0  0  0  0  0  0  0  0
   19.2390  -14.4670    6.1616 N   0  0  0  0  0  0  0  0  0  0  0  0
    9.4991  -11.4090   10.6275 N   0  0  0  0  0  0  0  0  0  0  0  0
   14.9826  -14.3455    8.7947 N   0  0  0  0  0  0  0  0  0  0  0  0
   11.0939  -17.3536    7.7332 N   0  0  0  0  0  0  0  0  0  0  0  0
    9.3669  -15.1801    8.0717 O   0  0  0  0  0  0  0  0  0  0  0  0
   10.3460  -12.4969    7.8738 O   0  0  0  0  0  0  0  0  0  0  0  0
   13.0878  -12.1550    8.8774 O   0  0  0  0  0  0  0  0  0  0  0  0
   11.8589  -10.3830    6.2837 O   0  0  0  0  0  0  0  0  0  0  0  0
    9.8000  -13.2009    5.6923 O   0  0  0  0  0  0  0  0  0  0  0  0
   12.4781  -14.7025    3.5145 O   0  0  0  0  0  0  0  0  0  0  0  0
   10.4480  -10.9983    4.0086 O   0  0  0  0  0  0  0  0  0  0  0  0
   18.3064  -15.5476   10.0797 O   0  0  0  0  0  0  0  0  0  0  0  0
   15.5488  -15.9446   10.5159 O   0  0  0  0  0  0  0  0  0  0  0  0
   10.0545   -9.3947    2.2029 O   0  0  0  0  0  0  0  0  0  0  0  0
    8.8429  -14.1900   10.1830 O   0  0  0  0  0  0  0  0  0  0  0  0
  1 36  1  6  0  0  0
  2 36  1  1  0  0  0
  2  3  1  0  0  0  0
  3 37  1  6  0  0  0
  3  4  1  0  0  0  0
  4 38  1  1  0  0  0
  5 37  1  1  0  0  0
  5  6  1  0  0  0  0
  6  7  1  0  0  0  0
  6 39  1  6  0  0  0
  7 42  1  1  0  0  0
  8  9  1  1  0  0  0
  8  7  1  0  0  0  0
 10 42  1  1  0  0  0
 10 11  1  0  0  0  0
 11 31  1  6  0  0  0
 11 13  1  0  0  0  0
 12 30  1  6  0  0  0
 12  1  1  0  0  0  0
 14 13  1  0  0  0  0
 15 16  1  6  0  0  0
 15 14  1  0  0  0  0
 17 19  1  1  0  0  0
 17 28  1  0  0  0  0
 18 34  1  0  0  0  0
 19 32  1  0  0  0  0
 20 18  1  1  0  0  0
 20 17  1  0  0  0  0
 20 43  1  0  0  0  0
 21 12  1  0  0  0  0
 22 21  1  0  0  0  0
 22 23  1  0  0  0  0
 23 24  1  1  0  0  0
 23 46  1  0  0  0  0
 24 33  1  0  0  0  0
 25 34  1  6  0  0  0
 25  4  1  0  0  0  0
 26 25  1  0  0  0  0
 27 35  1  6  0  0  0
 27 26  1  0  0  0  0
 27  2  1  0  0  0  0
 29 16  1  0  0  0  0
 40  8  1  0  0  0  0
 40  5  1  0  0  0  0
 41  9  1  0  0  0  0
 44 18  2  0  0  0  0
 45 15  1  0  0  0  0
 45 10  1  0  0  0  0
 46  1  1  0  0  0  0
M  END
>  <CHROM.1>
-169.60063669,-65.07877902,-58.89767481,-58.52927901,100.89476290,-61.80628898
-84.02776692,-56.25793142,-173.01929955,-57.40727242,169.31891514,-177.41406206
164.74847308,11.73527573,-13.00210721,6.83965084,1.03583877,-0.12211765,2.32597749

>  <Name>
lig.pdb

>  <RI>
0

>  <Rbt.Current_Directory>
/home/afrankz/demos/rdock_decoys_rna/rnas/3wru

>  <Rbt.Executable>
rbdock ($Id: //depot/dev/client3/rdock/2013.1/src/exe/rbdock.cxx#4 $)

>  <Rbt.Library>
libRbt.so (2013.1, Build901 2013/11/27)

>  <Rbt.Parameter_File>
/export/apps/rDock/src/rDock_2013.1_src/data/scripts/dock_solv.prm

>  <Rbt.Receptor>
prm/pocket_docking_4.prm

>  <SCORE>
1.59013

>  <SCORE.INTER>
3.85044

>  <SCORE.INTER.CONST>
1

>  <SCORE.INTER.POLAR>
0

>  <SCORE.INTER.ROT>
13

>  <SCORE.INTER.SOLV>
17.8148

>  <SCORE.INTER.VDW>
-15.638

>  <SCORE.INTER.norm>
0.0837053

>  <SCORE.INTRA>
-2.26032

>  <SCORE.INTRA.DIHEDRAL>
-9.27117

>  <SCORE.INTRA.DIHEDRAL.0>
19.7146

>  <SCORE.INTRA.POLAR>
0

>  <SCORE.INTRA.POLAR.0>
0

>  <SCORE.INTRA.REPUL>
0.00153569

>  <SCORE.INTRA.REPUL.0>
0

>  <SCORE.INTRA.SOLV>
3.2505

>  <SCORE.INTRA.SOLV.lig_0>
-116.697

>  <SCORE.INTRA.VDW>
0.742337

>  <SCORE.INTRA.VDW.0>
-7.06424

>  <SCORE.INTRA.norm>
-0.0491374

>  <SCORE.RESTR>
0

>  <SCORE.RESTR.CAVITY>
0

>  <SCORE.RESTR.norm>
0

>  <SCORE.SYSTEM>
0

>  <SCORE.SYSTEM.CONST>
0

>  <SCORE.SYSTEM.DIHEDRAL>
0

>  <SCORE.SYSTEM.SOLV>
0

>  <SCORE.SYSTEM.norm>
0

>  <SCORE.heavy>
46

>  <SCORE.norm>
0.034568

>  <RMSD>
7.462

$$$$
lig.pdb
 OpenBabel03061811583D
libRbt.so/2013.1/901 2013/11/27
 46 49  0  0  0  0  0  0  0  0999 V2000
   16.1457  -14.6409    8.4230 C   0  0  1  0  0  0  0  0  0  0  0  0
   14.8437  -13.1545    6.8408 C   0  0  1  0  0  0  0  0  0  0  0  0
   13.4792  -13.7674    7.2793 C   0  0  1  0  0  0  0  0  0  0  0  0
   12.3782  -13.4540    6.1425 C   0  0  2  0  0  0  0  0  0  0  0  0
   12.8702  -16.1537    7.8900 C   0  0  2  0  0  0  0  0  0  0  0  0
   13.3962  -17.6051    7.7019 C   0  0  1  0  0  0  0  0  0  0  0  0
   12.6198  -18.2544    8.8219 C   0  0  1  0  0  0  0  0  0  0  0  0
   12.7927  -17.2883   10.0368 C   0  0  1  0  0  0  0  0  0  0  0  0
   14.1174  -17.4234   10.8667 C   0  0  0  0  0  0  0  0  0  0  0  0
   10.3370  -19.0776    9.2632 C   0  0  1  0  0  0  0  0  0  0  0  0
    8.9378  -19.2554    8.7536 C   0  0  1  0  0  0  0  0  0  0  0  0
   17.1131  -14.4737    9.6186 C   0  0  1  0  0  0  0  0  0  0  0  0
    8.1033  -20.0154    9.8447 C   0  0  0  0  0  0  0  0  0  0  0  0
    8.0093  -19.3403   11.1072 C   0  0  0  0  0  0  0  0  0  0  0  0
    9.3422  -19.1817   11.6487 C   0  0  2  0  0  0  0  0  0  0  0  0
    9.3039  -18.4337   13.0394 C   0  0  0  0  0  0  0  0  0  0  0  0
   10.2611  -10.8884    2.5639 C   0  0  2  0  0  0  0  0  0  0  0  0
   11.0248  -10.1364    4.6625 C   0  0  0  0  0  0  0  0  0  0  0  0
    9.4730  -12.0202    2.6525 C   0  0  0  0  0  0  0  0  0  0  0  0
    9.8865  -10.0180    3.5341 C   0  0  1  0  0  0  0  0  0  0  0  0
   18.5416  -13.9542    9.1316 C   0  0  0  0  0  0  0  0  0  0  0  0
   19.1228  -15.0068    8.0702 C   0  0  0  0  0  0  0  0  0  0  0  0
   18.0878  -15.1026    6.8555 C   0  0  1  0  0  0  0  0  0  0  0  0
   18.5510  -16.0997    5.7866 C   0  0  0  0  0  0  0  0  0  0  0  0
   12.2099  -11.8754    6.0407 C   0  0  1  0  0  0  0  0  0  0  0  0
   13.6466  -11.2997    5.5604 C   0  0  0  0  0  0  0  0  0  0  0  0
   14.7454  -11.6212    6.6454 C   0  0  2  0  0  0  0  0  0  0  0  0
   10.1602  -10.3327    1.2332 F   0  0  0  0  0  0  0  0  0  0  0  0
    8.6641  -17.0182   12.9539 N   0  0  0  0  0  0  0  0  0  0  0  0
   16.4735  -13.5348   10.6130 N   0  0  0  0  0  0  0  0  0  0  0  0
    8.2530  -18.0574    8.5313 N   0  0  0  0  0  0  0  0  0  0  0  0
    9.2873  -12.9517    3.7009 N   0  0  0  0  0  0  0  0  0  0  0  0
   17.6591  -16.1225    4.6935 N   0  0  0  0  0  0  0  0  0  0  0  0
   11.1998  -11.5460    5.0191 N   0  0  0  0  0  0  0  0  0  0  0  0
   16.0661  -11.1121    6.2142 N   0  0  0  0  0  0  0  0  0  0  0  0
   15.8316  -13.3762    7.8389 O   0  0  0  0  0  0  0  0  0  0  0  0
   13.6992  -15.2439    7.4360 O   0  0  0  0  0  0  0  0  0  0  0  0
   11.1844  -14.0041    6.5528 O   0  0  0  0  0  0  0  0  0  0  0  0
   13.0320  -18.0408    6.4272 O   0  0  0  0  0  0  0  0  0  0  0  0
   12.5519  -16.0638    9.3238 O   0  0  0  0  0  0  0  0  0  0  0  0
   15.2127  -17.1159    9.9814 O   0  0  0  0  0  0  0  0  0  0  0  0
   11.1632  -18.3762    8.4122 O   0  0  0  0  0  0  0  0  0  0  0  0
    9.8041   -8.6533    3.0680 O   0  0  0  0  0  0  0  0  0  0  0  0
   11.6555   -9.1755    5.1330 O   0  0  0  0  0  0  0  0  0  0  0  0
   10.2222  -18.4405   10.6699 O   0  0  0  0  0  0  0  0  0  0  0  0
   16.7276  -15.5422    7.3719 O   0  0  0  0  0  0  0  0  0  0  0  0
  1 36  1  6  0  0  0
  2 36  1  1  0  0  0
  2  3  1  0  0  0  0
  3 37  1  6  0  0  0
  3  4  1  0  0  0  0
  4 38  1  1  0  0  0
  5 37  1  1  0  0  0
  5  6  1  0  0  0  0
  6  7  1  0  0  0  0
  6 39  1  6  0  0  0
  7 42  1  6  0  0  0
  8  9  1  6  0  0  0
  8  7  1  0  0  0  0
 10 42  1  6  0  0  0
 10 11  1  0  0  0  0
 11 31  1  1  0  0  0
 11 13  1  0  0  0  0
 12 30  1  1  0  0  0
 12  1  1  0  0  0  0
 14 13  1  0  0  0  0
 15 16  1  1  0  0  0
 15 14  1  0  0  0  0
 17 19  1  6  0  0  0
 17 28  1  0  0  0  0
 18 34  1  0  0  0  0
 19 32  1  0  0  0  0
 20 18  1  1  0  0  0
 20 17  1  0  0  0  0
 20 43  1  0  0  0  0
 21 12  1  0  0  0  0
 22 21  1  0  0  0  0
 22 23  1  0  0  0  0
 23 24  1  6  0  0  0
 23 46  1  0  0  0  0
 24 33  1  0  0  0  0
 25 34  1  6  0  0  0
 25  4  1  0  0  0  0
 26 25  1  0  0  0  0
 27 35  1  6  0  0  0
 27 26  1  0  0  0  0
 27  2  1  0  0  0  0
 29 16  1  0  0  0  0
 40  8  1  0  0  0  0
 40  5  1  0  0  0  0
 41  9  1  0  0  0  0
 44 18  2  0  0  0  0
 45 15  1  0  0  0  0
 45 10  1  0  0  0  0
 46  1  1  0  0  0  0
M  END
>  <CHROM.1>
-171.37641742,51.79836343,174.08382398,171.53080214,173.31119054,62.25673592
-175.44691278,-59.12901319,-59.80722451,-52.06138655,103.59920059,-177.13895177
-172.56790624,12.77029050,-14.85185084,7.43688409,-1.70351271,-0.10523848
-0.71124845

>  <Name>
lig.pdb

>  <RI>
0

>  <Rbt.Current_Directory>
/home/afrankz/demos/rdock_decoys_rna/rnas/3wru

>  <Rbt.Executable>
rbdock ($Id: //depot/dev/client3/rdock/2013.1/src/exe/rbdock.cxx#4 $)

>  <Rbt.Library>
libRbt.so (2013.1, Build901 2013/11/27)

>  <Rbt.Parameter_File>
/export/apps/rDock/src/rDock_2013.1_src/data/scripts/dock_solv.prm

>  <Rbt.Receptor>
prm/pocket_docking_5.prm

>  <SCORE>
-2.23331

>  <SCORE.INTER>
1.65254

>  <SCORE.INTER.CONST>
1

>  <SCORE.INTER.POLAR>
0

>  <SCORE.INTER.ROT>
13

>  <SCORE.INTER.SOLV>
21.4966

>  <SCORE.INTER.VDW>
-18.3305

>  <SCORE.INTER.norm>
0.0359247

>  <SCORE.INTRA>
-3.89328

>  <SCORE.INTRA.DIHEDRAL>
-13.1593

>  <SCORE.INTRA.DIHEDRAL.0>
19.7146

>  <SCORE.INTRA.POLAR>
0

>  <SCORE.INTRA.POLAR.0>
0

>  <SCORE.INTRA.REPUL>
0

>  <SCORE.INTRA.REPUL.0>
0

>  <SCORE.INTRA.SOLV>
1.3401

>  <SCORE.INTRA.SOLV.lig_0>
-116.697

>  <SCORE.INTRA.VDW>
2.01634

>  <SCORE.INTRA.VDW.0>
-7.06424

>  <SCORE.INTRA.norm>
-0.0846365

>  <SCORE.RESTR>
0.00743115

>  <SCORE.RESTR.CAVITY>
0.00743115

>  <SCORE.RESTR.norm>
0.000161547

>  <SCORE.SYSTEM>
0

>  <SCORE.SYSTEM.CONST>
0

>  <SCORE.SYSTEM.DIHEDRAL>
0

>  <SCORE.SYSTEM.SOLV>
0

>  <SCORE.SYSTEM.norm>
0

>  <SCORE.heavy>
46

>  <SCORE.norm>
-0.0485502

>  <RMSD>
7.481

$$$$
lig.pdb
 OpenBabel03061811583D
libRbt.so/2013.1/901 2013/11/27
 46 49  0  0  0  0  0  0  0  0999 V2000
   15.0339  -14.3126    8.5556 C   0  0  1  0  0  0  0  0  0  0  0  0
   14.3191  -12.4374    7.0128 C   0  0  1  0  0  0  0  0  0  0  0  0
   12.8919  -12.1637    7.5768 C   0  0  1  0  0  0  0  0  0  0  0  0
   11.9938  -11.4915    6.4173 C   0  0  2  0  0  0  0  0  0  0  0  0
   11.1665  -13.7557    8.5393 C   0  0  2  0  0  0  0  0  0  0  0  0
   10.9629  -15.2685    8.8371 C   0  0  1  0  0  0  0  0  0  0  0  0
    9.9478  -15.1273    9.9456 C   0  0  1  0  0  0  0  0  0  0  0  0
   10.5210  -14.0050   10.8681 C   0  0  1  0  0  0  0  0  0  0  0  0
   11.6118  -14.4335   11.9114 C   0  0  0  0  0  0  0  0  0  0  0  0
    7.5139  -14.8021   10.1783 C   0  0  1  0  0  0  0  0  0  0  0  0
    6.2340  -14.3386    9.5493 C   0  0  1  0  0  0  0  0  0  0  0  0
   15.9300  -14.4867    9.8046 C   0  0  1  0  0  0  0  0  0  0  0  0
    5.0914  -14.4267   10.6222 C   0  0  0  0  0  0  0  0  0  0  0  0
    5.3019  -13.6220   11.7912 C   0  0  0  0  0  0  0  0  0  0  0  0
    6.5138  -14.0649   12.4471 C   0  0  2  0  0  0  0  0  0  0  0  0
    6.8042  -13.2069   13.7411 C   0  0  0  0  0  0  0  0  0  0  0  0
   11.9325   -7.6263    2.3257 C   0  0  2  0  0  0  0  0  0  0  0  0
   12.1877   -8.0605    4.6278 C   0  0  0  0  0  0  0  0  0  0  0  0
   11.0789   -7.5593    1.2409 C   0  0  0  0  0  0  0  0  0  0  0  0
   11.1984   -7.5597    3.4641 C   0  0  1  0  0  0  0  0  0  0  0  0
   17.4762  -14.4107    9.4157 C   0  0  0  0  0  0  0  0  0  0  0  0
   17.7777  -15.5550    8.3331 C   0  0  0  0  0  0  0  0  0  0  0  0
   16.8401  -15.2918    7.0652 C   0  0  1  0  0  0  0  0  0  0  0  0
   17.0465  -16.3472    5.9721 C   0  0  0  0  0  0  0  0  0  0  0  0
   12.6550  -10.0983    6.0265 C   0  0  1  0  0  0  0  0  0  0  0  0
   14.1196  -10.4476    5.4273 C   0  0  0  0  0  0  0  0  0  0  0  0
   15.0059  -11.1331    6.5375 C   0  0  2  0  0  0  0  0  0  0  0  0
   12.9224   -6.5775    2.2268 F   0  0  0  0  0  0  0  0  0  0  0  0
    7.9673  -13.7766   14.6030 N   0  0  0  0  0  0  0  0  0  0  0  0
   15.5428  -13.4307   10.8117 N   0  0  0  0  0  0  0  0  0  0  0  0
    6.2504  -13.0040    9.1344 N   0  0  0  0  0  0  0  0  0  0  0  0
   10.0649   -8.4378    0.7921 N   0  0  0  0  0  0  0  0  0  0  0  0
   16.6708  -17.6290    6.4270 N   0  0  0  0  0  0  0  0  0  0  0  0
   11.8550   -9.4435    4.9759 N   0  0  0  0  0  0  0  0  0  0  0  0
   16.3431  -11.4694    6.0006 N   0  0  0  0  0  0  0  0  0  0  0  0
   15.1532  -12.9940    8.0206 O   0  0  0  0  0  0  0  0  0  0  0  0
   12.3335  -13.4905    8.0018 O   0  0  0  0  0  0  0  0  0  0  0  0
   10.7410  -11.2596    6.9395 O   0  0  0  0  0  0  0  0  0  0  0  0
   10.4679  -15.8788    7.6840 O   0  0  0  0  0  0  0  0  0  0  0  0
   10.8929  -13.0909    9.8231 O   0  0  0  0  0  0  0  0  0  0  0  0
   11.8486  -13.3034   12.7745 O   0  0  0  0  0  0  0  0  0  0  0  0
    8.6112  -14.7263    9.3482 O   0  0  0  0  0  0  0  0  0  0  0  0
   10.7356   -6.2241    3.7608 O   0  0  0  0  0  0  0  0  0  0  0  0
   13.0940   -7.3743    5.1279 O   0  0  0  0  0  0  0  0  0  0  0  0
    7.6821  -13.9995   11.4919 O   0  0  0  0  0  0  0  0  0  0  0  0
   15.3811  -15.3135    7.4909 O   0  0  0  0  0  0  0  0  0  0  0  0
  1 36  1  6  0  0  0
  2 36  1  1  0  0  0
  2  3  1  0  0  0  0
  3 37  1  6  0  0  0
  3  4  1  0  0  0  0
  4 38  1  1  0  0  0
  5 37  1  1  0  0  0
  5  6  1  0  0  0  0
  6  7  1  0  0  0  0
  6 39  1  6  0  0  0
  7 42  1  6  0  0  0
  8  9  1  6  0  0  0
  8  7  1  0  0  0  0
 10 42  1  6  0  0  0
 10 11  1  0  0  0  0
 11 31  1  1  0  0  0
 11 13  1  0  0  0  0
 12 30  1  1  0  0  0
 12  1  1  0  0  0  0
 14 13  1  0  0  0  0
 15 16  1  1  0  0  0
 15 14  1  0  0  0  0
 17 19  1  6  0  0  0
 17 28  1  0  0  0  0
 18 34  1  0  0  0  0
 19 32  1  0  0  0  0
 20 18  1  1  0  0  0
 20 17  1  0  0  0  0
 20 43  1  0  0  0  0
 21 12  1  0  0  0  0
 22 21  1  0  0  0  0
 22 23  1  0  0  0  0
 23 24  1  6  0  0  0
 23 46  1  0  0  0  0
 24 33  1  0  0  0  0
 25 34  1  6  0  0  0
 25  4  1  0  0  0  0
 26 25  1  0  0  0  0
 27 35  1  6  0  0  0
 27 26  1  0  0  0  0
 27  2  1  0  0  0  0
 29 16  1  0  0  0  0
 40  8  1  0  0  0  0
 40  5  1  0  0  0  0
 41  9  1  0  0  0  0
 44 18  2  0  0  0  0
 45 15  1  0  0  0  0
 45 10  1  0  0  0  0
 46  1  1  0  0  0  0
M  END
>  <CHROM.1>
-169.54590586,70.75936480,179.66025335,179.96540355,167.93155101,-171.65663171
177.54637898,171.13035789,-64.61019204,-102.10962088,164.25669367,63.73179419
170.89461160,11.81819902,-12.51342448,7.88220424,-1.07630979,-0.30141694
2.34233063

>  <Name>
lig.pdb

>  <RI>
0

>  <Rbt.Current_Directory>
/home/afrankz/demos/rdock_decoys_rna/rnas/3wru

>  <Rbt.Executable>
rbdock ($Id: //depot/dev/client3/rdock/2013.1/src/exe/rbdock.cxx#4 $)

>  <Rbt.Library>
libRbt.so (2013.1, Build901 2013/11/27)

>  <Rbt.Parameter_File>
/export/apps/rDock/src/rDock_2013.1_src/data/scripts/dock_solv.prm

>  <Rbt.Receptor>
prm/pocket_docking_6.prm

>  <SCORE>
-4.21635

>  <SCORE.INTER>
2.95011

>  <SCORE.INTER.CONST>
1

>  <SCORE.INTER.POLAR>
0

>  <SCORE.INTER.ROT>
13

>  <SCORE.INTER.SOLV>
22.0037

>  <SCORE.INTER.VDW>
-17.6345

>  <SCORE.INTER.norm>
0.0641328

>  <SCORE.INTRA>
-7.16646

>  <SCORE.INTRA.DIHEDRAL>
-14.0689

>  <SCORE.INTRA.DIHEDRAL.0>
19.7146

>  <SCORE.INTRA.POLAR>
0

>  <SCORE.INTRA.POLAR.0>
0

>  <SCORE.INTRA.REPUL>
0

>  <SCORE.INTRA.REPUL.0>
0

>  <SCORE.INTRA.SOLV>
-2.43698

>  <SCORE.INTRA.SOLV.lig_0>
-116.697

>  <SCORE.INTRA.VDW>
1.08647

>  <SCORE.INTRA.VDW.0>
-7.06424

>  <SCORE.INTRA.norm>
-0.155793

>  <SCORE.RESTR>
0

>  <SCORE.RESTR.CAVITY>
0

>  <SCORE.RESTR.norm>
0

>  <SCORE.SYSTEM>
0

>  <SCORE.SYSTEM.CONST>
0

>  <SCORE.SYSTEM.DIHEDRAL>
0

>  <SCORE.SYSTEM.SOLV>
0

>  <SCORE.SYSTEM.norm>
0

>  <SCORE.heavy>
46

>  <SCORE.norm>
-0.0916599

>  <RMSD>
7.505

$$$$
lig.pdb
 OpenBabel03061811583D
libRbt.so/2013.1/901 2013/11/27
 46 49  0  0  0  0  0  0  0  0999 V2000
    9.8067  -14.9290   10.5930 C   0  0  1  0  0  0  0  0  0  0  0  0
   12.2087  -14.2761   10.1327 C   0  0  1  0  0  0  0  0  0  0  0  0
   11.8607  -13.1289    9.1364 C   0  0  1  0  0  0  0  0  0  0  0  0
   13.1430  -12.8464    8.1990 C   0  0  2  0  0  0  0  0  0  0  0  0
   10.4183  -13.3793    7.0640 C   0  0  2  0  0  0  0  0  0  0  0  0
   10.2144  -14.6877    6.2484 C   0  0  1  0  0  0  0  0  0  0  0  0
    9.3454  -14.1170    5.1538 C   0  0  1  0  0  0  0  0  0  0  0  0
    8.2897  -13.2415    5.9010 C   0  0  1  0  0  0  0  0  0  0  0  0
    7.0499  -13.9887    6.5062 C   0  0  0  0  0  0  0  0  0  0  0  0
   10.4814  -11.9917    4.6285 C   0  0  1  0  0  0  0  0  0  0  0  0
    9.7389  -10.9338    3.8679 C   0  0  1  0  0  0  0  0  0  0  0  0
    8.8312  -14.9525   11.7935 C   0  0  1  0  0  0  0  0  0  0  0  0
   10.1962   -9.5278    4.3953 C   0  0  0  0  0  0  0  0  0  0  0  0
   11.5961   -9.2542    4.2401 C   0  0  0  0  0  0  0  0  0  0  0  0
   12.3469  -10.2370    4.9920 C   0  0  2  0  0  0  0  0  0  0  0  0
   13.9010   -9.9921    4.8515 C   0  0  0  0  0  0  0  0  0  0  0  0
   16.8681  -11.6765    5.8595 C   0  0  2  0  0  0  0  0  0  0  0  0
   16.0744  -13.1681    7.5021 C   0  0  0  0  0  0  0  0  0  0  0  0
   17.5914  -10.5138    6.0467 C   0  0  0  0  0  0  0  0  0  0  0  0
   17.3539  -12.6319    6.6905 C   0  0  1  0  0  0  0  0  0  0  0  0
    9.2319  -16.0935   12.8353 C   0  0  0  0  0  0  0  0  0  0  0  0
    9.2234  -17.5005   12.0655 C   0  0  0  0  0  0  0  0  0  0  0  0
   10.2726  -17.4093   10.8627 C   0  0  1  0  0  0  0  0  0  0  0  0
   10.3293  -18.7105   10.0532 C   0  0  0  0  0  0  0  0  0  0  0  0
   14.3366  -12.3577    9.1303 C   0  0  1  0  0  0  0  0  0  0  0  0
   14.6680  -13.5947   10.1233 C   0  0  0  0  0  0  0  0  0  0  0  0
   13.4160  -13.9074   11.0302 C   0  0  2  0  0  0  0  0  0  0  0  0
   16.9185  -12.0575    4.4660 F   0  0  0  0  0  0  0  0  0  0  0  0
   14.2602   -8.9788    3.7271 N   0  0  0  0  0  0  0  0  0  0  0  0
    8.8284  -13.5806   12.4238 N   0  0  0  0  0  0  0  0  0  0  0  0
   10.0073  -10.9202    2.4963 N   0  0  0  0  0  0  0  0  0  0  0  0
   18.9851  -10.2723    6.0712 N   0  0  0  0  0  0  0  0  0  0  0  0
    9.0673  -19.0221    9.5044 N   0  0  0  0  0  0  0  0  0  0  0  0
   15.5272  -12.0751    8.3086 N   0  0  0  0  0  0  0  0  0  0  0  0
   13.6999  -15.0440   11.9342 N   0  0  0  0  0  0  0  0  0  0  0  0
   11.1137  -14.5266   11.0042 O   0  0  0  0  0  0  0  0  0  0  0  0
   10.6857  -13.5992    8.3294 O   0  0  0  0  0  0  0  0  0  0  0  0
   12.8109  -11.8310    7.3302 O   0  0  0  0  0  0  0  0  0  0  0  0
   11.4638  -15.1310    5.8128 O   0  0  0  0  0  0  0  0  0  0  0  0
    9.2043  -12.5912    6.7991 O   0  0  0  0  0  0  0  0  0  0  0  0
    7.3481  -14.2664    7.8890 O   0  0  0  0  0  0  0  0  0  0  0  0
   10.2033  -13.2790    4.2233 O   0  0  0  0  0  0  0  0  0  0  0  0
   17.9781  -13.7284    5.9874 O   0  0  0  0  0  0  0  0  0  0  0  0
   15.6268  -14.3245    7.4310 O   0  0  0  0  0  0  0  0  0  0  0  0
   11.9851  -11.6324    4.5406 O   0  0  0  0  0  0  0  0  0  0  0  0
    9.8874  -16.2737    9.9289 O   0  0  0  0  0  0  0  0  0  0  0  0
  1 36  1  1  0  0  0
  2 36  1  1  0  0  0
  2  3  1  0  0  0  0
  3 37  1  6  0  0  0
  3  4  1  0  0  0  0
  4 38  1  6  0  0  0
  5 37  1  1  0  0  0
  5  6  1  0  0  0  0
  6  7  1  0  0  0  0
  6 39  1  6  0  0  0
  7 42  1  6  0  0  0
  8  9  1  1  0  0  0
  8  7  1  0  0  0  0
 10 42  1  6  0  0  0
 10 11  1  0  0  0  0
 11 31  1  6  0  0  0
 11 13  1  0  0  0  0
 12 30  1  1  0  0  0
 12  1  1  0  0  0  0
 14 13  1  0  0  0  0
 15 16  1  6  0  0  0
 15 14  1  0  0  0  0
 17 19  1  6  0  0  0
 17 28  1  0  0  0  0
 18 34  1  0  0  0  0
 19 32  1  0  0  0  0
 20 18  1  6  0  0  0
 20 17  1  0  0  0  0
 20 43  1  0  0  0  0
 21 12  1  0  0  0  0
 22 21  1  0  0  0  0
 22 23  1  0  0  0  0
 23 24  1  6  0  0  0
 23 46  1  0  0  0  0
 24 33  1  0  0  0  0
 25 34  1  6  0  0  0
 25  4  1  0  0  0  0
 26 25  1  0  0  0  0
 27 35  1  1  0  0  0
 27 26  1  0  0  0  0
 27  2  1  0  0  0  0
 29 16  1  0  0  0  0
 40  8  1  0  0  0  0
 40  5  1  0  0  0  0
 41  9  1  0  0  0  0
 44 18  2  0  0  0  0
 45 15  1  0  0  0  0
 45 10  1  0  0  0  0
 46  1  1  0  0  0  0
M  END
>  <CHROM.1>
-173.54132766,59.93328256,-144.10977283,124.17314662,-81.57889515,95.14555184
-106.85293939,-12.28426992,49.99123128,-63.53347679,126.62023183,59.36690551
-58.98700294,12.07282206,-13.31307888,7.52808643,-2.25522024,-0.16827637
-0.96085252

>  <Name>
lig.pdb

>  <RI>
0

>  <Rbt.Current_Directory>
/home/afrankz/demos/rdock_decoys_rna/rnas/3wru

>  <Rbt.Executable>
rbdock ($Id: //depot/dev/client3/rdock/2013.1/src/exe/rbdock.cxx#4 $)

>  <Rbt.Library>
libRbt.so (2013.1, Build901 2013/11/27)

>  <Rbt.Parameter_File>
/export/apps/rDock/src/rDock_2013.1_src/data/scripts/dock_solv.prm

>  <Rbt.Receptor>
prm/pocket_docking_2.prm

>  <SCORE>
19.4436

>  <SCORE.INTER>
-0.294074

>  <SCORE.INTER.CONST>
1

>  <SCORE.INTER.POLAR>
0

>  <SCORE.INTER.ROT>
13

>  <SCORE.INTER.SOLV>
27.5956

>  <SCORE.INTER.VDW>
-21.6612

>  <SCORE.INTER.norm>
-0.00639292

>  <SCORE.INTRA>
13.1754

>  <SCORE.INTRA.DIHEDRAL>
14.5336

>  <SCORE.INTRA.DIHEDRAL.0>
19.7146

>  <SCORE.INTRA.POLAR>
0

>  <SCORE.INTRA.POLAR.0>
0

>  <SCORE.INTRA.REPUL>
0.0718521

>  <SCORE.INTRA.REPUL.0>
0

>  <SCORE.INTRA.SOLV>
1.96843

>  <SCORE.INTRA.SOLV.lig_0>
-116.697

>  <SCORE.INTRA.VDW>
4.56518

>  <SCORE.INTRA.VDW.0>
-7.06424

>  <SCORE.INTRA.norm>
0.286423

>  <SCORE.RESTR>
6.56221

>  <SCORE.RESTR.CAVITY>
6.56221

>  <SCORE.RESTR.norm>
0.142657

>  <SCORE.SYSTEM>
0

>  <SCORE.SYSTEM.CONST>
0

>  <SCORE.SYSTEM.DIHEDRAL>
0

>  <SCORE.SYSTEM.SOLV>
0

>  <SCORE.SYSTEM.norm>
0

>  <SCORE.heavy>
46

>  <SCORE.norm>
0.422687

>  <RMSD>
7.508

$$$$
lig.pdb
 OpenBabel03061811583D
libRbt.so/2013.1/901 2013/11/27
 46 49  0  0  0  0  0  0  0  0999 V2000
   13.1488  -16.0747    6.1610 C   0  0  1  0  0  0  0  0  0  0  0  0
   11.9882  -14.0125    5.2619 C   0  0  1  0  0  0  0  0  0  0  0  0
   10.6353  -13.2800    5.5122 C   0  0  1  0  0  0  0  0  0  0  0  0
   10.4489  -12.1335    4.3926 C   0  0  2  0  0  0  0  0  0  0  0  0
    9.2479  -15.2636    6.2728 C   0  0  2  0  0  0  0  0  0  0  0  0
    8.7649  -14.7082    7.6428 C   0  0  1  0  0  0  0  0  0  0  0  0
    7.9375  -15.8968    8.0690 C   0  0  1  0  0  0  0  0  0  0  0  0
    7.1031  -16.2737    6.8037 C   0  0  1  0  0  0  0  0  0  0  0  0
    5.7952  -15.4466    6.5450 C   0  0  0  0  0  0  0  0  0  0  0  0
    8.2725  -18.1486    9.0183 C   0  0  1  0  0  0  0  0  0  0  0  0
    7.5966  -17.9145   10.3363 C   0  0  1  0  0  0  0  0  0  0  0  0
   12.7096  -17.1072    5.0960 C   0  0  1  0  0  0  0  0  0  0  0  0
    7.0227  -19.2819   10.8514 C   0  0  0  0  0  0  0  0  0  0  0  0
    8.0060  -20.3062   11.0581 C   0  0  0  0  0  0  0  0  0  0  0  0
    8.6572  -20.5855    9.7959 C   0  0  2  0  0  0  0  0  0  0  0  0
    9.7608  -21.7031    9.9625 C   0  0  0  0  0  0  0  0  0  0  0  0
    9.8530   -8.1838    1.9669 C   0  0  2  0  0  0  0  0  0  0  0  0
   10.8984   -8.7394    4.0044 C   0  0  0  0  0  0  0  0  0  0  0  0
    9.6234   -7.2647    0.9607 C   0  0  0  0  0  0  0  0  0  0  0  0
   10.8514   -7.7227    2.7605 C   0  0  1  0  0  0  0  0  0  0  0  0
   11.3759  -17.8610    5.5441 C   0  0  0  0  0  0  0  0  0  0  0  0
   11.6537  -18.5767    6.9523 C   0  0  0  0  0  0  0  0  0  0  0  0
   12.0712  -17.4474    8.0041 C   0  0  1  0  0  0  0  0  0  0  0  0
   12.3714  -18.0370    9.3874 C   0  0  0  0  0  0  0  0  0  0  0  0
   11.6291  -11.0806    4.5637 C   0  0  1  0  0  0  0  0  0  0  0  0
   13.0013  -11.8909    4.2695 C   0  0  0  0  0  0  0  0  0  0  0  0
   13.1890  -13.0371    5.3367 C   0  0  2  0  0  0  0  0  0  0  0  0
   10.1416   -9.4751    1.3847 F   0  0  0  0  0  0  0  0  0  0  0  0
   10.4635  -22.0715    8.6242 N   0  0  0  0  0  0  0  0  0  0  0  0
   12.5414  -16.3839    3.7814 N   0  0  0  0  0  0  0  0  0  0  0  0
    8.4523  -17.4676   11.3471 N   0  0  0  0  0  0  0  0  0  0  0  0
    8.6896   -7.2541   -0.1020 N   0  0  0  0  0  0  0  0  0  0  0  0
   12.7448  -17.0269   10.2993 N   0  0  0  0  0  0  0  0  0  0  0  0
   11.4878  -10.0059    3.5649 N   0  0  0  0  0  0  0  0  0  0  0  0
   14.4326  -13.7942    5.0729 N   0  0  0  0  0  0  0  0  0  0  0  0
   12.2068  -15.0057    6.2556 O   0  0  0  0  0  0  0  0  0  0  0  0
    9.5569  -14.3196    5.4159 O   0  0  0  0  0  0  0  0  0  0  0  0
    9.2495  -11.5022    4.6353 O   0  0  0  0  0  0  0  0  0  0  0  0
    9.8858  -14.4771    8.4412 O   0  0  0  0  0  0  0  0  0  0  0  0
    8.1750  -16.1780    5.8510 O   0  0  0  0  0  0  0  0  0  0  0  0
    6.1847  -14.0696    6.3704 O   0  0  0  0  0  0  0  0  0  0  0  0
    8.8643  -17.0267    8.4798 O   0  0  0  0  0  0  0  0  0  0  0  0
   12.1356   -7.7034    2.0996 O   0  0  0  0  0  0  0  0  0  0  0  0
   10.5070   -8.4699    5.1519 O   0  0  0  0  0  0  0  0  0  0  0  0
    9.2598  -19.3233    9.2252 O   0  0  0  0  0  0  0  0  0  0  0  0
   13.3085  -16.7161    7.5097 O   0  0  0  0  0  0  0  0  0  0  0  0
  1 36  1  1  0  0  0
  2 36  1  1  0  0  0
  2  3  1  0  0  0  0
  3 37  1  6  0  0  0
  3  4  1  0  0  0  0
  4 38  1  1  0  0  0
  5 37  1  6  0  0  0
  5  6  1  0  0  0  0
  6  7  1  0  0  0  0
  6 39  1  1  0  0  0
  7 42  1  6  0  0  0
  8  9  1  6  0  0  0
  8  7  1  0  0  0  0
 10 42  1  1  0  0  0
 10 11  1  0  0  0  0
 11 31  1  1  0  0  0
 11 13  1  0  0  0  0
 12 30  1  6  0  0  0
 12  1  1  0  0  0  0
 14 13  1  0  0  0  0
 15 16  1  1  0  0  0
 15 14  1  0  0  0  0
 17 19  1  6  0  0  0
 17 28  1  0  0  0  0
 18 34  1  0  0  0  0
 19 32  1  0  0  0  0
 20 18  1  1  0  0  0
 20 17  1  0  0  0  0
 20 43  1  0  0  0  0
 21 12  1  0  0  0  0
 22 21  1  0  0  0  0
 22 23  1  0  0  0  0
 23 24  1  1  0  0  0
 23 46  1  0  0  0  0
 24 33  1  0  0  0  0
 25 34  1  6  0  0  0
 25  4  1  0  0  0  0
 26 25  1  0  0  0  0
 27 35  1  6  0  0  0
 27 26  1  0  0  0  0
 27  2  1  0  0  0  0
 29 16  1  0  0  0  0
 40  8  1  0  0  0  0
 40  5  1  0  0  0  0
 41  9  1  0  0  0  0
 44 18  2  0  0  0  0
 45 15  1  0  0  0  0
 45 10  1  0  0  0  0
 46  1  1  0  0  0  0
M  END
>  <CHROM.1>
-69.60744871,163.48549853,73.75733307,63.01344651,174.05111758,61.10344150
-65.50781136,178.29797547,-178.92200255,73.57745543,172.04594183,179.67400240
100.26397023,10.24545692,-14.66033341,6.27323195,-1.67684723,0.21204714,-0.56743854

>  <Name>
lig.pdb

>  <RI>
0

>  <Rbt.Current_Directory>
/home/afrankz/demos/rdock_decoys_rna/rnas/3wru

>  <Rbt.Executable>
rbdock ($Id: //depot/dev/client3/rdock/2013.1/src/exe/rbdock.cxx#4 $)

>  <Rbt.Library>
libRbt.so (2013.1, Build901 2013/11/27)

>  <Rbt.Parameter_File>
/export/apps/rDock/src/rDock_2013.1_src/data/scripts/dock_solv.prm

>  <Rbt.Receptor>
prm/pocket_docking_7.prm

>  <SCORE>
-4.19864

>  <SCORE.INTER>
2.65402

>  <SCORE.INTER.CONST>
1

>  <SCORE.INTER.POLAR>
0

>  <SCORE.INTER.ROT>
13

>  <SCORE.INTER.SOLV>
15.3462

>  <SCORE.INTER.VDW>
-15.6127

>  <SCORE.INTER.norm>
0.057696

>  <SCORE.INTRA>
-6.85266

>  <SCORE.INTRA.DIHEDRAL>
-14.3855

>  <SCORE.INTRA.DIHEDRAL.0>
19.7146

>  <SCORE.INTRA.POLAR>
0

>  <SCORE.INTRA.POLAR.0>
0

>  <SCORE.INTRA.REPUL>
0

>  <SCORE.INTRA.REPUL.0>
0

>  <SCORE.INTRA.SOLV>
3.24572

>  <SCORE.INTRA.SOLV.lig_0>
-116.697

>  <SCORE.INTRA.VDW>
-1.28275

>  <SCORE.INTRA.VDW.0>
-7.06424

>  <SCORE.INTRA.norm>
-0.148971

>  <SCORE.RESTR>
0

>  <SCORE.RESTR.CAVITY>
0

>  <SCORE.RESTR.norm>
0

>  <SCORE.SYSTEM>
0

>  <SCORE.SYSTEM.CONST>
0

>  <SCORE.SYSTEM.DIHEDRAL>
0

>  <SCORE.SYSTEM.SOLV>
0

>  <SCORE.SYSTEM.norm>
0

>  <SCORE.heavy>
46

>  <SCORE.norm>
-0.0912748

>  <RMSD>
7.529

$$$$
lig.pdb
 OpenBabel03061811583D
libRbt.so/2013.1/901 2013/11/27
 46 49  0  0  0  0  0  0  0  0999 V2000
    9.0064  -16.9033   10.0441 C   0  0  1  0  0  0  0  0  0  0  0  0
   11.3063  -17.1954    9.0278 C   0  0  1  0  0  0  0  0  0  0  0  0
   11.3364  -15.6391    9.1102 C   0  0  1  0  0  0  0  0  0  0  0  0
   12.7897  -15.1206    8.6392 C   0  0  2  0  0  0  0  0  0  0  0  0
   10.0981  -13.9366    7.6938 C   0  0  2  0  0  0  0  0  0  0  0  0
    8.8590  -13.8250    6.7606 C   0  0  1  0  0  0  0  0  0  0  0  0
    8.6194  -12.3420    6.9095 C   0  0  1  0  0  0  0  0  0  0  0  0
    8.7303  -12.0741    8.4441 C   0  0  1  0  0  0  0  0  0  0  0  0
    7.4566  -12.3744    9.3098 C   0  0  0  0  0  0  0  0  0  0  0  0
    9.5853  -11.6100    4.7612 C   0  0  1  0  0  0  0  0  0  0  0  0
   10.5654  -12.5257    4.0905 C   0  0  1  0  0  0  0  0  0  0  0  0
    8.1768  -17.7296   11.0552 C   0  0  1  0  0  0  0  0  0  0  0  0
   10.3755  -12.4064    2.5368 C   0  0  0  0  0  0  0  0  0  0  0  0
   10.5940  -11.0922    2.0041 C   0  0  0  0  0  0  0  0  0  0  0  0
    9.6395  -10.1841    2.6036 C   0  0  2  0  0  0  0  0  0  0  0  0
    9.8376   -8.7140    2.0610 C   0  0  0  0  0  0  0  0  0  0  0  0
   17.0440  -13.5393    8.0408 C   0  0  2  0  0  0  0  0  0  0  0  0
   15.7541  -14.0552    9.9442 C   0  0  0  0  0  0  0  0  0  0  0  0
   18.0999  -12.7888    7.5594 C   0  0  0  0  0  0  0  0  0  0  0  0
   17.2222  -13.7423    9.3699 C   0  0  1  0  0  0  0  0  0  0  0  0
    7.3689  -18.8927   10.3188 C   0  0  0  0  0  0  0  0  0  0  0  0
    6.4188  -18.2215    9.2147 C   0  0  0  0  0  0  0  0  0  0  0  0
    7.3462  -17.4136    8.1933 C   0  0  1  0  0  0  0  0  0  0  0  0
    6.5244  -16.7211    7.0994 C   0  0  0  0  0  0  0  0  0  0  0  0
   13.8716  -15.6981    9.6526 C   0  0  1  0  0  0  0  0  0  0  0  0
   13.8106  -17.3107    9.5053 C   0  0  0  0  0  0  0  0  0  0  0  0
   12.3866  -17.8369    9.9335 C   0  0  2  0  0  0  0  0  0  0  0  0
   16.9426  -14.7690    7.2876 F   0  0  0  0  0  0  0  0  0  0  0  0
   11.2400   -8.1259    2.3891 N   0  0  0  0  0  0  0  0  0  0  0  0
    9.1173  -18.2665   12.1072 N   0  0  0  0  0  0  0  0  0  0  0  0
   11.9046  -12.2021    4.3259 N   0  0  0  0  0  0  0  0  0  0  0  0
   18.3630  -12.2602    6.2738 N   0  0  0  0  0  0  0  0  0  0  0  0
    5.6628  -15.7492    7.6507 N   0  0  0  0  0  0  0  0  0  0  0  0
   15.2161  -15.2354    9.2644 N   0  0  0  0  0  0  0  0  0  0  0  0
   12.3120  -19.3079    9.7920 N   0  0  0  0  0  0  0  0  0  0  0  0
   10.0514  -17.6924    9.4746 O   0  0  0  0  0  0  0  0  0  0  0  0
   10.2544  -15.1372    8.1989 O   0  0  0  0  0  0  0  0  0  0  0  0
   12.7908  -13.7461    8.7213 O   0  0  0  0  0  0  0  0  0  0  0  0
    9.2416  -14.2155    5.4767 O   0  0  0  0  0  0  0  0  0  0  0  0
    9.9154  -12.8543    8.6739 O   0  0  0  0  0  0  0  0  0  0  0  0
    7.8872  -12.4971   10.6801 O   0  0  0  0  0  0  0  0  0  0  0  0
    9.6840  -11.5858    6.1354 O   0  0  0  0  0  0  0  0  0  0  0  0
   18.1036  -14.8494    9.6592 O   0  0  0  0  0  0  0  0  0  0  0  0
   15.1892  -13.3985   10.8343 O   0  0  0  0  0  0  0  0  0  0  0  0
    9.7581  -10.2162    4.1092 O   0  0  0  0  0  0  0  0  0  0  0  0
    8.1408  -16.3579    8.9445 O   0  0  0  0  0  0  0  0  0  0  0  0
  1 36  1  6  0  0  0
  2 36  1  1  0  0  0
  2  3  1  0  0  0  0
  3 37  1  6  0  0  0
  3  4  1  0  0  0  0
  4 38  1  1  0  0  0
  5 37  1  1  0  0  0
  5  6  1  0  0  0  0
  6  7  1  0  0  0  0
  6 39  1  6  0  0  0
  7 42  1  6  0  0  0
  8  9  1  1  0  0  0
  8  7  1  0  0  0  0
 10 42  1  1  0  0  0
 10 11  1  0  0  0  0
 11 31  1  6  0  0  0
 11 13  1  0  0  0  0
 12 30  1  1  0  0  0
 12  1  1  0  0  0  0
 14 13  1  0  0  0  0
 15 16  1  6  0  0  0
 15 14  1  0  0  0  0
 17 19  1  6  0  0  0
 17 28  1  0  0  0  0
 18 34  1  0  0  0  0
 19 32  1  0  0  0  0
 20 18  1  1  0  0  0
 20 17  1  0  0  0  0
 20 43  1  0  0  0  0
 21 12  1  0  0  0  0
 22 21  1  0  0  0  0
 22 23  1  0  0  0  0
 23 24  1  6  0  0  0
 23 46  1  0  0  0  0
 24 33  1  0  0  0  0
 25 34  1  6  0  0  0
 25  4  1  0  0  0  0
 26 25  1  0  0  0  0
 27 35  1  6  0  0  0
 27 26  1  0  0  0  0
 27  2  1  0  0  0  0
 29 16  1  0  0  0  0
 40  8  1  0  0  0  0
 40  5  1  0  0  0  0
 41  9  1  0  0  0  0
 44 18  2  0  0  0  0
 45 15  1  0  0  0  0
 45 10  1  0  0  0  0
 46  1  1  0  0  0  0
M  END
>  <CHROM.1>
-149.79518442,-5.74568345,-162.12511402,178.63779339,72.65233916,161.15379963
-104.06020025,-61.41547009,-176.86598902,59.21130617,157.47803726,63.23052541
96.57221873,11.21586879,-14.29544879,7.69663182,1.97239813,0.12862304,2.37388365

>  <Name>
lig.pdb

>  <RI>
0

>  <Rbt.Current_Directory>
/home/afrankz/demos/rdock_decoys_rna/rnas/3wru

>  <Rbt.Executable>
rbdock ($Id: //depot/dev/client3/rdock/2013.1/src/exe/rbdock.cxx#4 $)

>  <Rbt.Library>
libRbt.so (2013.1, Build901 2013/11/27)

>  <Rbt.Parameter_File>
/export/apps/rDock/src/rDock_2013.1_src/data/scripts/dock_solv.prm

>  <Rbt.Receptor>
prm/pocket_docking_3.prm

>  <SCORE>
4.47256

>  <SCORE.INTER>
-2.50518

>  <SCORE.INTER.CONST>
1

>  <SCORE.INTER.POLAR>
0

>  <SCORE.INTER.ROT>
13

>  <SCORE.INTER.SOLV>
20.7206

>  <SCORE.INTER.VDW>
-20.8437

>  <SCORE.INTER.norm>
-0.0544605

>  <SCORE.INTRA>
5.88896

>  <SCORE.INTRA.DIHEDRAL>
3.69315

>  <SCORE.INTRA.DIHEDRAL.0>
19.7146

>  <SCORE.INTRA.POLAR>
0

>  <SCORE.INTRA.POLAR.0>
0

>  <SCORE.INTRA.REPUL>
0

>  <SCORE.INTRA.REPUL.0>
0

>  <SCORE.INTRA.SOLV>
1.28395

>  <SCORE.INTRA.SOLV.lig_0>
-116.697

>  <SCORE.INTRA.VDW>
3.40041

>  <SCORE.INTRA.VDW.0>
-7.06424

>  <SCORE.INTRA.norm>
0.128021

>  <SCORE.RESTR>
1.08878

>  <SCORE.RESTR.CAVITY>
1.08878

>  <SCORE.RESTR.norm>
0.0236691

>  <SCORE.SYSTEM>
0

>  <SCORE.SYSTEM.CONST>
0

>  <SCORE.SYSTEM.DIHEDRAL>
0

>  <SCORE.SYSTEM.SOLV>
0

>  <SCORE.SYSTEM.norm>
0

>  <SCORE.heavy>
46

>  <SCORE.norm>
0.0972295

>  <RMSD>
7.540

$$$$
lig.pdb
 OpenBabel03061811583D
libRbt.so/2013.1/901 2013/11/27
 46 49  0  0  0  0  0  0  0  0999 V2000
    9.9396  -17.5058    9.3220 C   0  0  1  0  0  0  0  0  0  0  0  0
   12.2743  -16.5292    9.3800 C   0  0  1  0  0  0  0  0  0  0  0  0
   11.8315  -15.1233    8.8729 C   0  0  1  0  0  0  0  0  0  0  0  0
   13.1137  -14.3662    8.2519 C   0  0  2  0  0  0  0  0  0  0  0  0
   10.4167  -14.5728    6.8399 C   0  0  2  0  0  0  0  0  0  0  0  0
    9.0857  -15.0144    6.1674 C   0  0  1  0  0  0  0  0  0  0  0  0
    8.6762  -13.6707    5.6147 C   0  0  1  0  0  0  0  0  0  0  0  0
    8.9064  -12.6704    6.7919 C   0  0  1  0  0  0  0  0  0  0  0  0
    7.7751  -12.5781    7.8750 C   0  0  0  0  0  0  0  0  0  0  0  0
    9.4775  -12.0462    3.9406 C   0  0  1  0  0  0  0  0  0  0  0  0
   10.0134  -11.8766    2.5503 C   0  0  1  0  0  0  0  0  0  0  0  0
    8.9697  -18.2355   10.2812 C   0  0  1  0  0  0  0  0  0  0  0  0
    9.9165  -10.3588    2.1611 C   0  0  0  0  0  0  0  0  0  0  0  0
   10.6594   -9.4724    3.0101 C   0  0  0  0  0  0  0  0  0  0  0  0
   10.1452   -9.5823    4.3586 C   0  0  2  0  0  0  0  0  0  0  0  0
   10.9329   -8.6328    5.3450 C   0  0  0  0  0  0  0  0  0  0  0  0
   18.2432  -13.4642    8.1283 C   0  0  2  0  0  0  0  0  0  0  0  0
   15.9919  -13.9957    7.6785 C   0  0  0  0  0  0  0  0  0  0  0  0
   19.4201  -12.8534    7.7387 C   0  0  0  0  0  0  0  0  0  0  0  0
   17.2501  -13.0737    7.2912 C   0  0  1  0  0  0  0  0  0  0  0  0
    9.5169  -19.6879   10.6541 C   0  0  0  0  0  0  0  0  0  0  0  0
    9.7057  -20.5168    9.2941 C   0  0  0  0  0  0  0  0  0  0  0  0
   10.7394  -19.7192    8.3715 C   0  0  1  0  0  0  0  0  0  0  0  0
   10.9785  -20.4297    7.0338 C   0  0  0  0  0  0  0  0  0  0  0  0
   14.1803  -14.1673    9.4153 C   0  0  1  0  0  0  0  0  0  0  0  0
   14.6187  -15.6555    9.8832 C   0  0  0  0  0  0  0  0  0  0  0  0
   13.3721  -16.4251   10.4677 C   0  0  2  0  0  0  0  0  0  0  0  0
   17.9729  -13.1523    9.5137 F   0  0  0  0  0  0  0  0  0  0  0  0
   12.4696   -8.8746    5.3281 N   0  0  0  0  0  0  0  0  0  0  0  0
    8.7753  -17.3688   11.5020 N   0  0  0  0  0  0  0  0  0  0  0  0
   11.3640  -12.2087    2.4130 N   0  0  0  0  0  0  0  0  0  0  0  0
   20.7572  -13.0433    8.1600 N   0  0  0  0  0  0  0  0  0  0  0  0
   11.9543  -19.7562    6.2688 N   0  0  0  0  0  0  0  0  0  0  0  0
   15.3654  -13.4650    8.8912 N   0  0  0  0  0  0  0  0  0  0  0  0
   13.7549  -17.7913   10.8878 N   0  0  0  0  0  0  0  0  0  0  0  0
   11.1768  -17.2122    9.9720 O   0  0  0  0  0  0  0  0  0  0  0  0
   10.7743  -15.3526    7.8324 O   0  0  0  0  0  0  0  0  0  0  0  0
   12.6973  -13.1294    7.8124 O   0  0  0  0  0  0  0  0  0  0  0  0
    9.3832  -15.9666    5.1917 O   0  0  0  0  0  0  0  0  0  0  0  0
   10.1980  -13.1603    7.1891 O   0  0  0  0  0  0  0  0  0  0  0  0
    8.2568  -11.7192    8.9278 O   0  0  0  0  0  0  0  0  0  0  0  0
    9.5526  -13.3353    4.4216 O   0  0  0  0  0  0  0  0  0  0  0  0
   16.8977  -11.6813    7.4433 O   0  0  0  0  0  0  0  0  0  0  0  0
   15.6168  -14.9869    7.0309 O   0  0  0  0  0  0  0  0  0  0  0  0
   10.2132  -11.0153    4.8316 O   0  0  0  0  0  0  0  0  0  0  0  0
   10.2076  -18.3233    8.0908 O   0  0  0  0  0  0  0  0  0  0  0  0
  1 36  1  1  0  0  0
  2 36  1  1  0  0  0
  2  3  1  0  0  0  0
  3 37  1  6  0  0  0
  3  4  1  0  0  0  0
  4 38  1  1  0  0  0
  5 37  1  1  0  0  0
  5  6  1  0  0  0  0
  6  7  1  0  0  0  0
  6 39  1  6  0  0  0
  7 42  1  6  0  0  0
  8  9  1  1  0  0  0
  8  7  1  0  0  0  0
 10 42  1  1  0  0  0
 10 11  1  0  0  0  0
 11 31  1  1  0  0  0
 11 13  1  0  0  0  0
 12 30  1  1  0  0  0
 12  1  1  0  0  0  0
 14 13  1  0  0  0  0
 15 16  1  1  0  0  0
 15 14  1  0  0  0  0
 17 19  1  6  0  0  0
 17 28  1  0  0  0  0
 18 34  1  0  0  0  0
 19 32  1  0  0  0  0
 20 18  1  1  0  0  0
 20 17  1  0  0  0  0
 20 43  1  0  0  0  0
 21 12  1  0  0  0  0
 22 21  1  0  0  0  0
 22 23  1  0  0  0  0
 23 24  1  6  0  0  0
 23 46  1  0  0  0  0
 24 33  1  0  0  0  0
 25 34  1  6  0  0  0
 25  4  1  0  0  0  0
 26 25  1  0  0  0  0
 27 35  1  6  0  0  0
 27 26  1  0  0  0  0
 27  2  1  0  0  0  0
 29 16  1  0  0  0  0
 40  8  1  0  0  0  0
 40  5  1  0  0  0  0
 41  9  1  0  0  0  0
 44 18  2  0  0  0  0
 45 15  1  0  0  0  0
 45 10  1  0  0  0  0
 46  1  1  0  0  0  0
M  END
>  <CHROM.1>
-178.90664025,57.50444207,-155.45628488,-167.54131150,-168.84790874,173.79306568
-162.19931937,-55.18911036,-171.09200396,78.74148531,171.64438403,-176.35567034
-51.19497593,12.05604043,-14.40844523,7.36437353,1.67269952,0.26060580,2.56773015

>  <Name>
lig.pdb

>  <RI>
0

>  <Rbt.Current_Directory>
/home/afrankz/demos/rdock_decoys_rna/rnas/3wru

>  <Rbt.Executable>
rbdock ($Id: //depot/dev/client3/rdock/2013.1/src/exe/rbdock.cxx#4 $)

>  <Rbt.Library>
libRbt.so (2013.1, Build901 2013/11/27)

>  <Rbt.Parameter_File>
/export/apps/rDock/src/rDock_2013.1_src/data/scripts/dock_solv.prm

>  <Rbt.Receptor>
prm/pocket_docking_8.prm

>  <SCORE>
-7.2913

>  <SCORE.INTER>
-2.85982

>  <SCORE.INTER.CONST>
1

>  <SCORE.INTER.POLAR>
0

>  <SCORE.INTER.ROT>
13

>  <SCORE.INTER.SOLV>
20.9016

>  <SCORE.INTER.VDW>
-21.1404

>  <SCORE.INTER.norm>
-0.06217

>  <SCORE.INTRA>
-4.43148

>  <SCORE.INTRA.DIHEDRAL>
-12.0651

>  <SCORE.INTRA.DIHEDRAL.0>
19.7146

>  <SCORE.INTRA.POLAR>
0

>  <SCORE.INTRA.POLAR.0>
0

>  <SCORE.INTRA.REPUL>
0

>  <SCORE.INTRA.REPUL.0>
0

>  <SCORE.INTRA.SOLV>
-2.35477

>  <SCORE.INTRA.SOLV.lig_0>
-116.697

>  <SCORE.INTRA.VDW>
2.77846

>  <SCORE.INTRA.VDW.0>
-7.06424

>  <SCORE.INTRA.norm>
-0.0963365

>  <SCORE.RESTR>
0

>  <SCORE.RESTR.CAVITY>
0

>  <SCORE.RESTR.norm>
0

>  <SCORE.SYSTEM>
0

>  <SCORE.SYSTEM.CONST>
0

>  <SCORE.SYSTEM.DIHEDRAL>
0

>  <SCORE.SYSTEM.SOLV>
0

>  <SCORE.SYSTEM.norm>
0

>  <SCORE.heavy>
46

>  <SCORE.norm>
-0.158506

>  <RMSD>
7.589

$$$$
lig.pdb
 OpenBabel03061811583D
libRbt.so/2013.1/901 2013/11/27
 46 49  0  0  0  0  0  0  0  0999 V2000
   13.8202  -13.6523    6.0694 C   0  0  1  0  0  0  0  0  0  0  0  0
   12.1900  -15.3507    6.9998 C   0  0  1  0  0  0  0  0  0  0  0  0
   11.2454  -15.3298    5.7600 C   0  0  1  0  0  0  0  0  0  0  0  0
   10.4547  -16.7341    5.6840 C   0  0  2  0  0  0  0  0  0  0  0  0
    9.5532  -13.8998    6.9969 C   0  0  2  0  0  0  0  0  0  0  0  0
    8.8587  -12.5122    6.8924 C   0  0  1  0  0  0  0  0  0  0  0  0
    7.6883  -12.7964    7.8025 C   0  0  1  0  0  0  0  0  0  0  0  0
    7.1690  -14.1997    7.3548 C   0  0  1  0  0  0  0  0  0  0  0  0
    6.2181  -14.2385    6.1073 C   0  0  0  0  0  0  0  0  0  0  0  0
    8.5890  -11.6146    9.7712 C   0  0  1  0  0  0  0  0  0  0  0  0
    9.7611  -11.7271   10.6998 C   0  0  1  0  0  0  0  0  0  0  0  0
   14.6980  -12.5013    6.6153 C   0  0  1  0  0  0  0  0  0  0  0  0
   10.0866  -10.2995   11.2659 C   0  0  0  0  0  0  0  0  0  0  0  0
    9.0197   -9.6891   12.0060 C   0  0  0  0  0  0  0  0  0  0  0  0
    7.8785   -9.5311   11.1297 C   0  0  2  0  0  0  0  0  0  0  0  0
    6.6643   -8.8701   11.8937 C   0  0  0  0  0  0  0  0  0  0  0  0
   10.0678  -21.6915    6.3134 C   0  0  2  0  0  0  0  0  0  0  0  0
   11.6661  -20.3857    5.1761 C   0  0  0  0  0  0  0  0  0  0  0  0
    9.0997  -22.6775    6.2852 C   0  0  0  0  0  0  0  0  0  0  0  0
   10.7149  -21.6802    5.1216 C   0  0  1  0  0  0  0  0  0  0  0  0
   13.8134  -11.2161    6.9523 C   0  0  0  0  0  0  0  0  0  0  0  0
   13.0513  -10.7673    5.6144 C   0  0  0  0  0  0  0  0  0  0  0  0
   12.1457  -11.9924    5.1297 C   0  0  1  0  0  0  0  0  0  0  0  0
   11.3811  -11.6642    3.8416 C   0  0  0  0  0  0  0  0  0  0  0  0
   11.5257  -17.8926    5.4798 C   0  0  1  0  0  0  0  0  0  0  0  0
   12.4594  -17.8809    6.8042 C   0  0  0  0  0  0  0  0  0  0  0  0
   13.2205  -16.5037    6.9141 C   0  0  2  0  0  0  0  0  0  0  0  0
   10.9506  -21.9135    7.4363 F   0  0  0  0  0  0  0  0  0  0  0  0
    5.3663   -8.8071   11.0384 N   0  0  0  0  0  0  0  0  0  0  0  0
   15.4447  -13.0123    7.8238 N   0  0  0  0  0  0  0  0  0  0  0  0
    9.5273  -12.5262   11.8225 N   0  0  0  0  0  0  0  0  0  0  0  0
    8.1117  -23.0462    7.2281 N   0  0  0  0  0  0  0  0  0  0  0  0
   10.4911  -12.7047    3.5007 N   0  0  0  0  0  0  0  0  0  0  0  0
   10.8413  -19.1950    5.3917 N   0  0  0  0  0  0  0  0  0  0  0  0
   14.0681  -16.4737    8.1266 N   0  0  0  0  0  0  0  0  0  0  0  0
   12.9351  -14.1423    7.0771 O   0  0  0  0  0  0  0  0  0  0  0  0
   10.3009  -14.1798    5.9558 O   0  0  0  0  0  0  0  0  0  0  0  0
    9.6293  -16.6907    4.5827 O   0  0  0  0  0  0  0  0  0  0  0  0
    9.7387  -11.5447    7.3791 O   0  0  0  0  0  0  0  0  0  0  0  0
    8.4522  -14.8401    7.2593 O   0  0  0  0  0  0  0  0  0  0  0  0
    5.5909  -15.5363    6.0851 O   0  0  0  0  0  0  0  0  0  0  0  0
    8.1704  -12.8160    9.2417 O   0  0  0  0  0  0  0  0  0  0  0  0
   11.5150  -22.8625    4.9018 O   0  0  0  0  0  0  0  0  0  0  0  0
   12.9029  -20.4131    5.0666 O   0  0  0  0  0  0  0  0  0  0  0  0
    7.4768  -10.8646   10.5448 O   0  0  0  0  0  0  0  0  0  0  0  0
   13.0195  -13.2102    4.8780 O   0  0  0  0  0  0  0  0  0  0  0  0
  1 36  1  1  0  0  0
  2 36  1  6  0  0  0
  2  3  1  0  0  0  0
  3 37  1  1  0  0  0
  3  4  1  0  0  0  0
  4 38  1  6  0  0  0
  5 37  1  6  0  0  0
  5  6  1  0  0  0  0
  6  7  1  0  0  0  0
  6 39  1  1  0  0  0
  7 42  1  1  0  0  0
  8  9  1  6  0  0  0
  8  7  1  0  0  0  0
 10 42  1  1  0  0  0
 10 11  1  0  0  0  0
 11 31  1  1  0  0  0
 11 13  1  0  0  0  0
 12 30  1  1  0  0  0
 12  1  1  0  0  0  0
 14 13  1  0  0  0  0
 15 16  1  1  0  0  0
 15 14  1  0  0  0  0
 17 19  1  6  0  0  0
 17 28  1  0  0  0  0
 18 34  1  0  0  0  0
 19 32  1  0  0  0  0
 20 18  1  1  0  0  0
 20 17  1  0  0  0  0
 20 43  1  0  0  0  0
 21 12  1  0  0  0  0
 22 21  1  0  0  0  0
 22 23  1  0  0  0  0
 23 24  1  6  0  0  0
 23 46  1  0  0  0  0
 24 33  1  0  0  0  0
 25 34  1  1  0  0  0
 25  4  1  0  0  0  0
 26 25  1  0  0  0  0
 27 35  1  1  0  0  0
 27 26  1  0  0  0  0
 27  2  1  0  0  0  0
 29 16  1  0  0  0  0
 40  8  1  0  0  0  0
 40  5  1  0  0  0  0
 41  9  1  0  0  0  0
 44 18  2  0  0  0  0
 45 15  1  0  0  0  0
 45 10  1  0  0  0  0
 46  1  1  0  0  0  0
M  END
>  <CHROM.1>
-166.86397770,-59.12761705,-51.70200072,172.00693393,68.05700845,-165.17733383
-143.15890678,-174.25488184,-175.80048475,-58.56629676,172.38676423,-174.30554318
178.84008087,10.36407411,-14.88039588,7.20931046,-1.79174575,-0.46657479
-2.87637781

>  <Name>
lig.pdb

>  <RI>
0

>  <Rbt.Current_Directory>
/home/afrankz/demos/rdock_decoys_rna/rnas/3wru

>  <Rbt.Executable>
rbdock ($Id: //depot/dev/client3/rdock/2013.1/src/exe/rbdock.cxx#4 $)

>  <Rbt.Library>
libRbt.so (2013.1, Build901 2013/11/27)

>  <Rbt.Parameter_File>
/export/apps/rDock/src/rDock_2013.1_src/data/scripts/dock_solv.prm

>  <Rbt.Receptor>
prm/pocket_docking_8.prm

>  <SCORE>
-2.64577

>  <SCORE.INTER>
0.933842

>  <SCORE.INTER.CONST>
1

>  <SCORE.INTER.POLAR>
0

>  <SCORE.INTER.ROT>
13

>  <SCORE.INTER.SOLV>
14.7657

>  <SCORE.INTER.VDW>
-16.566

>  <SCORE.INTER.norm>
0.0203009

>  <SCORE.INTRA>
-3.57961

>  <SCORE.INTRA.DIHEDRAL>
-10.8331

>  <SCORE.INTRA.DIHEDRAL.0>
19.7146

>  <SCORE.INTRA.POLAR>
0

>  <SCORE.INTRA.POLAR.0>
0

>  <SCORE.INTRA.REPUL>
0

>  <SCORE.INTRA.REPUL.0>
0

>  <SCORE.INTRA.SOLV>
0.959562

>  <SCORE.INTRA.SOLV.lig_0>
-116.697

>  <SCORE.INTRA.VDW>
1.35718

>  <SCORE.INTRA.VDW.0>
-7.06424

>  <SCORE.INTRA.norm>
-0.0778176

>  <SCORE.RESTR>
0

>  <SCORE.RESTR.CAVITY>
0

>  <SCORE.RESTR.norm>
0

>  <SCORE.SYSTEM>
0

>  <SCORE.SYSTEM.CONST>
0

>  <SCORE.SYSTEM.DIHEDRAL>
0

>  <SCORE.SYSTEM.SOLV>
0

>  <SCORE.SYSTEM.norm>
0

>  <SCORE.heavy>
46

>  <SCORE.norm>
-0.0575167

>  <RMSD>
7.594

$$$$
lig.pdb
 OpenBabel03061811583D
libRbt.so/2013.1/901 2013/11/27
 46 49  0  0  0  0  0  0  0  0999 V2000
   10.0295  -18.7778   11.3733 C   0  0  1  0  0  0  0  0  0  0  0  0
   11.5885  -17.3900    9.9410 C   0  0  1  0  0  0  0  0  0  0  0  0
   11.5831  -16.1346   10.8651 C   0  0  1  0  0  0  0  0  0  0  0  0
   12.9539  -15.3148   10.6379 C   0  0  2  0  0  0  0  0  0  0  0  0
   10.1838  -14.6278    9.3788 C   0  0  2  0  0  0  0  0  0  0  0  0
    8.7028  -14.1881    9.1995 C   0  0  1  0  0  0  0  0  0  0  0  0
    8.9481  -12.9837    8.3232 C   0  0  1  0  0  0  0  0  0  0  0  0
   10.1292  -12.2270    9.0100 C   0  0  1  0  0  0  0  0  0  0  0  0
    9.7650  -11.2873   10.2126 C   0  0  0  0  0  0  0  0  0  0  0  0
    9.2825  -12.5063    5.9265 C   0  0  1  0  0  0  0  0  0  0  0  0
    9.4700  -13.0645    4.5473 C   0  0  1  0  0  0  0  0  0  0  0  0
    8.7278  -19.5959   11.2020 C   0  0  1  0  0  0  0  0  0  0  0  0
    9.4571  -11.8752    3.5228 C   0  0  0  0  0  0  0  0  0  0  0  0
   10.4871  -10.8970    3.7251 C   0  0  0  0  0  0  0  0  0  0  0  0
   10.3170  -10.3088    5.0366 C   0  0  2  0  0  0  0  0  0  0  0  0
   11.4318   -9.2266    5.3215 C   0  0  0  0  0  0  0  0  0  0  0  0
   17.2917  -13.6721    8.3849 C   0  0  2  0  0  0  0  0  0  0  0  0
   15.7484  -15.0149    9.5546 C   0  0  0  0  0  0  0  0  0  0  0  0
   18.3978  -12.8437    8.4041 C   0  0  0  0  0  0  0  0  0  0  0  0
   17.1713  -14.2686    9.5969 C   0  0  1  0  0  0  0  0  0  0  0  0
    7.4865  -18.6404   10.8954 C   0  0  0  0  0  0  0  0  0  0  0  0
    7.3484  -17.5947   12.1037 C   0  0  0  0  0  0  0  0  0  0  0  0
    8.7146  -16.7698   12.1987 C   0  0  1  0  0  0  0  0  0  0  0  0
    8.6863  -15.7456   13.3396 C   0  0  0  0  0  0  0  0  0  0  0  0
   14.1657  -16.2508   11.0696 C   0  0  1  0  0  0  0  0  0  0  0  0
   14.1342  -17.5205   10.0632 C   0  0  0  0  0  0  0  0  0  0  0  0
   12.7877  -18.3209   10.2481 C   0  0  2  0  0  0  0  0  0  0  0  0
   17.4145  -14.6164    7.2974 F   0  0  0  0  0  0  0  0  0  0  0  0
   12.8759   -9.7964    5.2200 N   0  0  0  0  0  0  0  0  0  0  0  0
    8.9508  -20.6101   10.1060 N   0  0  0  0  0  0  0  0  0  0  0  0
   10.6950  -13.7084    4.3520 N   0  0  0  0  0  0  0  0  0  0  0  0
   18.9433  -11.9877    7.4187 N   0  0  0  0  0  0  0  0  0  0  0  0
    7.7282  -14.7392   13.0943 N   0  0  0  0  0  0  0  0  0  0  0  0
   15.4400  -15.5324   10.8894 N   0  0  0  0  0  0  0  0  0  0  0  0
   12.7394  -19.4769    9.3258 N   0  0  0  0  0  0  0  0  0  0  0  0
   10.4111  -18.1608   10.1433 O   0  0  0  0  0  0  0  0  0  0  0  0
   10.3857  -15.3172   10.4765 O   0  0  0  0  0  0  0  0  0  0  0  0
   12.9250  -14.2135   11.4639 O   0  0  0  0  0  0  0  0  0  0  0  0
    8.0126  -15.2231    8.5673 O   0  0  0  0  0  0  0  0  0  0  0  0
   10.9519  -13.3780    9.2635 O   0  0  0  0  0  0  0  0  0  0  0  0
    8.7545  -10.3692    9.7501 O   0  0  0  0  0  0  0  0  0  0  0  0
    9.3241  -13.4511    6.9288 O   0  0  0  0  0  0  0  0  0  0  0  0
   18.2168  -15.2298    9.8600 O   0  0  0  0  0  0  0  0  0  0  0  0
   15.0320  -15.1127    8.5447 O   0  0  0  0  0  0  0  0  0  0  0  0
   10.3330  -11.3819    6.0996 O   0  0  0  0  0  0  0  0  0  0  0  0
    9.8758  -17.7226   12.4310 O   0  0  0  0  0  0  0  0  0  0  0  0
  1 36  1  6  0  0  0
  2 36  1  1  0  0  0
  2  3  1  0  0  0  0
  3 37  1  6  0  0  0
  3  4  1  0  0  0  0
  4 38  1  1  0  0  0
  5 37  1  1  0  0  0
  5  6  1  0  0  0  0
  6  7  1  0  0  0  0
  6 39  1  6  0  0  0
  7 42  1  6  0  0  0
  8  9  1  1  0  0  0
  8  7  1  0  0  0  0
 10 42  1  1  0  0  0
 10 11  1  0  0  0  0
 11 31  1  1  0  0  0
 11 13  1  0  0  0  0
 12 30  1  6  0  0  0
 12  1  1  0  0  0  0
 14 13  1  0  0  0  0
 15 16  1  1  0  0  0
 15 14  1  0  0  0  0
 17 19  1  1  0  0  0
 17 28  1  0  0  0  0
 18 34  1  0  0  0  0
 19 32  1  0  0  0  0
 20 18  1  6  0  0  0
 20 17  1  0  0  0  0
 20 43  1  0  0  0  0
 21 12  1  0  0  0  0
 22 21  1  0  0  0  0
 22 23  1  0  0  0  0
 23 24  1  1  0  0  0
 23 46  1  0  0  0  0
 24 33  1  0  0  0  0
 25 34  1  6  0  0  0
 25  4  1  0  0  0  0
 26 25  1  0  0  0  0
 27 35  1  6  0  0  0
 27 26  1  0  0  0  0
 27  2  1  0  0  0  0
 29 16  1  0  0  0  0
 40  8  1  0  0  0  0
 40  5  1  0  0  0  0
 41  9  1  0  0  0  0
 44 18  2  0  0  0  0
 45 15  1  0  0  0  0
 45 10  1  0  0  0  0
 46  1  1  0  0  0  0
M  END
>  <CHROM.1>
-177.03455143,-61.43025367,-70.26257025,166.66335371,165.49304773,-54.26085576
-171.65042329,-57.76634708,-178.66864841,-172.01752302,171.25224890,-65.66704402
-57.07758574,11.63762085,-14.70060751,9.02124548,-2.12589847,0.00656789,-0.70294746

>  <Name>
lig.pdb

>  <RI>
0

>  <Rbt.Current_Directory>
/home/afrankz/demos/rdock_decoys_rna/rnas/3wru

>  <Rbt.Executable>
rbdock ($Id: //depot/dev/client3/rdock/2013.1/src/exe/rbdock.cxx#4 $)

>  <Rbt.Library>
libRbt.so (2013.1, Build901 2013/11/27)

>  <Rbt.Parameter_File>
/export/apps/rDock/src/rDock_2013.1_src/data/scripts/dock_solv.prm

>  <Rbt.Receptor>
prm/pocket_docking_4.prm

>  <SCORE>
-8.13467

>  <SCORE.INTER>
-2.12032

>  <SCORE.INTER.CONST>
1

>  <SCORE.INTER.POLAR>
0

>  <SCORE.INTER.ROT>
13

>  <SCORE.INTER.SOLV>
17.7346

>  <SCORE.INTER.VDW>
-19.5917

>  <SCORE.INTER.norm>
-0.0460939

>  <SCORE.INTRA>
-6.01435

>  <SCORE.INTRA.DIHEDRAL>
-15.3796

>  <SCORE.INTRA.DIHEDRAL.0>
19.7146

>  <SCORE.INTRA.POLAR>
0

>  <SCORE.INTRA.POLAR.0>
0

>  <SCORE.INTRA.REPUL>
0

>  <SCORE.INTRA.REPUL.0>
0

>  <SCORE.INTRA.SOLV>
-0.488237

>  <SCORE.INTRA.SOLV.lig_0>
-116.697

>  <SCORE.INTRA.VDW>
1.91955

>  <SCORE.INTRA.VDW.0>
-7.06424

>  <SCORE.INTRA.norm>
-0.130747

>  <SCORE.RESTR>
0

>  <SCORE.RESTR.CAVITY>
0

>  <SCORE.RESTR.norm>
0

>  <SCORE.SYSTEM>
0

>  <SCORE.SYSTEM.CONST>
0

>  <SCORE.SYSTEM.DIHEDRAL>
0

>  <SCORE.SYSTEM.SOLV>
0

>  <SCORE.SYSTEM.norm>
0

>  <SCORE.heavy>
46

>  <SCORE.norm>
-0.176841

>  <RMSD>
7.607

$$$$
lig.pdb
 OpenBabel03061811583D
libRbt.so/2013.1/901 2013/11/27
 46 49  0  0  0  0  0  0  0  0999 V2000
    6.9467  -12.3463   11.2528 C   0  0  1  0  0  0  0  0  0  0  0  0
    9.2832  -12.7499   10.3664 C   0  0  1  0  0  0  0  0  0  0  0  0
    9.2413  -14.1690    9.7229 C   0  0  1  0  0  0  0  0  0  0  0  0
   10.3009  -14.2212    8.5074 C   0  0  2  0  0  0  0  0  0  0  0  0
    9.6004  -16.4560   10.7614 C   0  0  2  0  0  0  0  0  0  0  0  0
   10.2551  -17.1075   12.0126 C   0  0  1  0  0  0  0  0  0  0  0  0
    9.5375  -18.4344   11.9557 C   0  0  1  0  0  0  0  0  0  0  0  0
    8.0415  -18.0660   11.6998 C   0  0  1  0  0  0  0  0  0  0  0  0
    7.1899  -17.6506   12.9504 C   0  0  0  0  0  0  0  0  0  0  0  0
    9.7061  -20.5764   10.7444 C   0  0  1  0  0  0  0  0  0  0  0  0
   10.3803  -21.3663    9.6625 C   0  0  1  0  0  0  0  0  0  0  0  0
    6.1851  -12.4845   12.5922 C   0  0  1  0  0  0  0  0  0  0  0  0
    9.7850  -22.8188    9.6619 C   0  0  0  0  0  0  0  0  0  0  0  0
    8.3729  -22.8892    9.4174 C   0  0  0  0  0  0  0  0  0  0  0  0
    7.6843  -22.1654   10.4648 C   0  0  2  0  0  0  0  0  0  0  0  0
    6.1206  -22.1998   10.2440 C   0  0  0  0  0  0  0  0  0  0  0  0
   11.4094  -13.8484    3.4619 C   0  0  2  0  0  0  0  0  0  0  0  0
   10.4149  -12.4412    5.0693 C   0  0  0  0  0  0  0  0  0  0  0  0
   12.1859  -13.9724    2.3253 C   0  0  0  0  0  0  0  0  0  0  0  0
   11.5796  -12.6041    3.9737 C   0  0  1  0  0  0  0  0  0  0  0  0
    6.1465  -14.0054   13.0752 C   0  0  0  0  0  0  0  0  0  0  0  0
    5.4450  -14.8783   11.9271 C   0  0  0  0  0  0  0  0  0  0  0  0
    6.3019  -14.7094   10.5880 C   0  0  1  0  0  0  0  0  0  0  0  0
    5.7011  -15.5016    9.4206 C   0  0  0  0  0  0  0  0  0  0  0  0
    9.8480  -13.1598    7.4124 C   0  0  1  0  0  0  0  0  0  0  0  0
    9.9344  -11.7090    8.1291 C   0  0  0  0  0  0  0  0  0  0  0  0
    8.9260  -11.6460    9.3404 C   0  0  2  0  0  0  0  0  0  0  0  0
   11.7498  -14.8977    4.3961 F   0  0  0  0  0  0  0  0  0  0  0  0
    5.3275  -21.4979   11.3836 N   0  0  0  0  0  0  0  0  0  0  0  0
    6.8471  -11.5814   13.6048 N   0  0  0  0  0  0  0  0  0  0  0  0
   10.1595  -20.8750    8.3728 N   0  0  0  0  0  0  0  0  0  0  0  0
   12.3313  -15.0348    1.4025 N   0  0  0  0  0  0  0  0  0  0  0  0
    6.4961  -15.3783    8.2613 N   0  0  0  0  0  0  0  0  0  0  0  0
   10.7853  -13.1851    6.2751 N   0  0  0  0  0  0  0  0  0  0  0  0
    9.0030  -10.3302   10.0128 N   0  0  0  0  0  0  0  0  0  0  0  0
    8.3316  -12.6529   11.4182 O   0  0  0  0  0  0  0  0  0  0  0  0
    9.6012  -15.1449   10.8051 O   0  0  0  0  0  0  0  0  0  0  0  0
   10.2444  -15.4819    7.9566 O   0  0  0  0  0  0  0  0  0  0  0  0
   11.6305  -17.1923   11.7928 O   0  0  0  0  0  0  0  0  0  0  0  0
    8.2743  -17.0877   10.6728 O   0  0  0  0  0  0  0  0  0  0  0  0
    7.8338  -16.5080   13.5488 O   0  0  0  0  0  0  0  0  0  0  0  0
   10.1085  -19.2605   10.8174 O   0  0  0  0  0  0  0  0  0  0  0  0
   12.8673  -12.4229    4.6025 O   0  0  0  0  0  0  0  0  0  0  0  0
    9.3804  -11.7735    4.9064 O   0  0  0  0  0  0  0  0  0  0  0  0
    8.1810  -20.7405   10.5327 O   0  0  0  0  0  0  0  0  0  0  0  0
    6.3627  -13.2417   10.1978 O   0  0  0  0  0  0  0  0  0  0  0  0
  1 36  1  1  0  0  0
  2 36  1  1  0  0  0
  2  3  1  0  0  0  0
  3 37  1  1  0  0  0
  3  4  1  0  0  0  0
  4 38  1  6  0  0  0
  5 37  1  1  0  0  0
  5  6  1  0  0  0  0
  6  7  1  0  0  0  0
  6 39  1  6  0  0  0
  7 42  1  6  0  0  0
  8  9  1  1  0  0  0
  8  7  1  0  0  0  0
 10 42  1  6  0  0  0
 10 11  1  0  0  0  0
 11 31  1  6  0  0  0
 11 13  1  0  0  0  0
 12 30  1  1  0  0  0
 12  1  1  0  0  0  0
 14 13  1  0  0  0  0
 15 16  1  6  0  0  0
 15 14  1  0  0  0  0
 17 19  1  6  0  0  0
 17 28  1  0  0  0  0
 18 34  1  0  0  0  0
 19 32  1  0  0  0  0
 20 18  1  1  0  0  0
 20 17  1  0  0  0  0
 20 43  1  0  0  0  0
 21 12  1  0  0  0  0
 22 21  1  0  0  0  0
 22 23  1  0  0  0  0
 23 24  1  6  0  0  0
 23 46  1  0  0  0  0
 24 33  1  0  0  0  0
 25 34  1  6  0  0  0
 25  4  1  0  0  0  0
 26 25  1  0  0  0  0
 27 35  1  1  0  0  0
 27 26  1  0  0  0  0
 27  2  1  0  0  0  0
 29 16  1  0  0  0  0
 40  8  1  0  0  0  0
 40  5  1  0  0  0  0
 41  9  1  0  0  0  0
 44 18  2  0  0  0  0
 45 15  1  0  0  0  0
 45 10  1  0  0  0  0
 46  1  1  0  0  0  0
M  END
>  <CHROM.1>
173.52071716,-83.96013406,174.45217632,170.68607556,170.70884621,58.60775741
-175.70655441,177.02420123,-177.35498169,76.81432984,167.67921242,-177.93159835
170.00118498,8.98257157,-15.83625815,9.27878076,0.95826226,1.04240163,-0.12829076

>  <Name>
lig.pdb

>  <RI>
0

>  <Rbt.Current_Directory>
/home/afrankz/demos/rdock_decoys_rna/rnas/3wru

>  <Rbt.Executable>
rbdock ($Id: //depot/dev/client3/rdock/2013.1/src/exe/rbdock.cxx#4 $)

>  <Rbt.Library>
libRbt.so (2013.1, Build901 2013/11/27)

>  <Rbt.Parameter_File>
/export/apps/rDock/src/rDock_2013.1_src/data/scripts/dock_solv.prm

>  <Rbt.Receptor>
prm/pocket_docking_6.prm

>  <SCORE>
0.971217

>  <SCORE.INTER>
7.90752

>  <SCORE.INTER.CONST>
1

>  <SCORE.INTER.POLAR>
0

>  <SCORE.INTER.ROT>
13

>  <SCORE.INTER.SOLV>
15.0337

>  <SCORE.INTER.VDW>
-12.0062

>  <SCORE.INTER.norm>
0.171903

>  <SCORE.INTRA>
-6.9363

>  <SCORE.INTRA.DIHEDRAL>
-13.9737

>  <SCORE.INTRA.DIHEDRAL.0>
19.7146

>  <SCORE.INTRA.POLAR>
0

>  <SCORE.INTRA.POLAR.0>
0

>  <SCORE.INTRA.REPUL>
0

>  <SCORE.INTRA.REPUL.0>
0

>  <SCORE.INTRA.SOLV>
1.46951

>  <SCORE.INTRA.SOLV.lig_0>
-116.697

>  <SCORE.INTRA.VDW>
-0.684211

>  <SCORE.INTRA.VDW.0>
-7.06424

>  <SCORE.INTRA.norm>
-0.150789

>  <SCORE.RESTR>
0

>  <SCORE.RESTR.CAVITY>
0

>  <SCORE.RESTR.norm>
0

>  <SCORE.SYSTEM>
0

>  <SCORE.SYSTEM.CONST>
0

>  <SCORE.SYSTEM.DIHEDRAL>
0

>  <SCORE.SYSTEM.SOLV>
0

>  <SCORE.SYSTEM.norm>
0

>  <SCORE.heavy>
46

>  <SCORE.norm>
0.0211134

>  <RMSD>
7.610

$$$$
lig.pdb
 OpenBabel03061811583D
libRbt.so/2013.1/901 2013/11/27
 46 49  0  0  0  0  0  0  0  0999 V2000
   14.4403  -14.5818    8.4000 C   0  0  1  0  0  0  0  0  0  0  0  0
   13.6949  -12.8680    6.6925 C   0  0  1  0  0  0  0  0  0  0  0  0
   12.2790  -13.4100    6.3303 C   0  0  1  0  0  0  0  0  0  0  0  0
   11.8900  -12.9017    4.8494 C   0  0  2  0  0  0  0  0  0  0  0  0
   11.3861  -15.7793    6.4945 C   0  0  2  0  0  0  0  0  0  0  0  0
   11.8638  -17.2498    6.3264 C   0  0  1  0  0  0  0  0  0  0  0  0
   10.7564  -17.9184    7.1046 C   0  0  1  0  0  0  0  0  0  0  0  0
   10.6149  -17.0660    8.4055 C   0  0  1  0  0  0  0  0  0  0  0  0
   11.6252  -17.3715    9.5664 C   0  0  0  0  0  0  0  0  0  0  0  0
    8.4328  -18.6587    6.7355 C   0  0  1  0  0  0  0  0  0  0  0  0
    7.1736  -18.5168    5.9335 C   0  0  1  0  0  0  0  0  0  0  0  0
   14.7209  -14.6500    9.9198 C   0  0  1  0  0  0  0  0  0  0  0  0
    6.0580  -19.3992    6.5979 C   0  0  0  0  0  0  0  0  0  0  0  0
    5.7381  -19.0446    7.9509 C   0  0  0  0  0  0  0  0  0  0  0  0
    6.9243  -19.2038    8.7649 C   0  0  2  0  0  0  0  0  0  0  0  0
    6.6356  -18.8179   10.2692 C   0  0  0  0  0  0  0  0  0  0  0  0
    9.5761   -8.1383    1.9585 C   0  0  2  0  0  0  0  0  0  0  0  0
   10.6911   -9.5631    3.4684 C   0  0  0  0  0  0  0  0  0  0  0  0
   10.3220   -6.9887    2.1377 C   0  0  0  0  0  0  0  0  0  0  0  0
   10.4153   -9.2032    1.9264 C   0  0  1  0  0  0  0  0  0  0  0  0
   16.0079  -13.7875   10.3042 C   0  0  0  0  0  0  0  0  0  0  0  0
   17.2558  -14.3491    9.4678 C   0  0  0  0  0  0  0  0  0  0  0  0
   16.9048  -14.2186    7.9135 C   0  0  1  0  0  0  0  0  0  0  0  0
   18.0386  -14.7444    7.0249 C   0  0  0  0  0  0  0  0  0  0  0  0
   11.8281  -11.3122    4.8739 C   0  0  1  0  0  0  0  0  0  0  0  0
   13.3266  -10.8090    5.2305 C   0  0  0  0  0  0  0  0  0  0  0  0
   13.7391  -11.3201    6.6647 C   0  0  2  0  0  0  0  0  0  0  0  0
    8.7738   -8.0118    0.7627 F   0  0  0  0  0  0  0  0  0  0  0  0
    5.5031  -19.6694   10.9114 N   0  0  0  0  0  0  0  0  0  0  0  0
   13.4834  -14.1829   10.6476 N   0  0  0  0  0  0  0  0  0  0  0  0
    6.6539  -17.2196    5.9086 N   0  0  0  0  0  0  0  0  0  0  0  0
   11.2570   -6.3393    1.2977 N   0  0  0  0  0  0  0  0  0  0  0  0
   17.7813  -14.4778    5.6634 N   0  0  0  0  0  0  0  0  0  0  0  0
   11.4616  -10.8064    3.5389 N   0  0  0  0  0  0  0  0  0  0  0  0
   15.1112  -10.8784    6.9990 N   0  0  0  0  0  0  0  0  0  0  0  0
   14.0561  -13.2630    8.0097 O   0  0  0  0  0  0  0  0  0  0  0  0
   12.3610  -14.9075    6.3911 O   0  0  0  0  0  0  0  0  0  0  0  0
   10.6377  -13.3922    4.5538 O   0  0  0  0  0  0  0  0  0  0  0  0
   11.8698  -17.5551    4.9648 O   0  0  0  0  0  0  0  0  0  0  0  0
   10.6633  -15.7747    7.7761 O   0  0  0  0  0  0  0  0  0  0  0  0
   11.2153  -16.5938   10.7089 O   0  0  0  0  0  0  0  0  0  0  0  0
    9.4819  -17.8899    6.2805 O   0  0  0  0  0  0  0  0  0  0  0  0
    9.8490  -10.3489    1.2535 O   0  0  0  0  0  0  0  0  0  0  0  0
   10.3160   -8.8752    4.4321 O   0  0  0  0  0  0  0  0  0  0  0  0
    8.0574  -18.3729    8.2104 O   0  0  0  0  0  0  0  0  0  0  0  0
   15.6415  -15.0048    7.6036 O   0  0  0  0  0  0  0  0  0  0  0  0
  1 36  1  6  0  0  0
  2 36  1  1  0  0  0
  2  3  1  0  0  0  0
  3 37  1  6  0  0  0
  3  4  1  0  0  0  0
  4 38  1  1  0  0  0
  5 37  1  1  0  0  0
  5  6  1  0  0  0  0
  6  7  1  0  0  0  0
  6 39  1  6  0  0  0
  7 42  1  6  0  0  0
  8  9  1  1  0  0  0
  8  7  1  0  0  0  0
 10 42  1  6  0  0  0
 10 11  1  0  0  0  0
 11 31  1  1  0  0  0
 11 13  1  0  0  0  0
 12 30  1  1  0  0  0
 12  1  1  0  0  0  0
 14 13  1  0  0  0  0
 15 16  1  1  0  0  0
 15 14  1  0  0  0  0
 17 19  1  6  0  0  0
 17 28  1  0  0  0  0
 18 34  1  0  0  0  0
 19 32  1  0  0  0  0
 20 18  1  1  0  0  0
 20 17  1  0  0  0  0
 20 43  1  0  0  0  0
 21 12  1  0  0  0  0
 22 21  1  0  0  0  0
 22 23  1  0  0  0  0
 23 24  1  6  0  0  0
 23 46  1  0  0  0  0
 24 33  1  0  0  0  0
 25 34  1  6  0  0  0
 25  4  1  0  0  0  0
 26 25  1  0  0  0  0
 27 35  1  6  0  0  0
 27 26  1  0  0  0  0
 27  2  1  0  0  0  0
 29 16  1  0  0  0  0
 40  8  1  0  0  0  0
 40  5  1  0  0  0  0
 41  9  1  0  0  0  0
 44 18  2  0  0  0  0
 45 15  1  0  0  0  0
 45 10  1  0  0  0  0
 46  1  1  0  0  0  0
M  END
>  <CHROM.1>
-178.22908604,73.65407970,161.29283641,171.93865059,169.02505366,-173.25578502
176.04052193,58.77318375,67.14285311,173.19600509,82.82305256,-173.04206587
148.54591374,11.41939973,-14.22422839,6.42543102,-1.86110681,-0.34186561
-0.62917484

>  <Name>
lig.pdb

>  <RI>
0

>  <Rbt.Current_Directory>
/home/afrankz/demos/rdock_decoys_rna/rnas/3wru

>  <Rbt.Executable>
rbdock ($Id: //depot/dev/client3/rdock/2013.1/src/exe/rbdock.cxx#4 $)

>  <Rbt.Library>
libRbt.so (2013.1, Build901 2013/11/27)

>  <Rbt.Parameter_File>
/export/apps/rDock/src/rDock_2013.1_src/data/scripts/dock_solv.prm

>  <Rbt.Receptor>
prm/pocket_docking_5.prm

>  <SCORE>
-1.84167

>  <SCORE.INTER>
3.5546

>  <SCORE.INTER.CONST>
1

>  <SCORE.INTER.POLAR>
0

>  <SCORE.INTER.ROT>
13

>  <SCORE.INTER.SOLV>
17.597

>  <SCORE.INTER.VDW>
-15.7626

>  <SCORE.INTER.norm>
0.0772739

>  <SCORE.INTRA>
-5.39627

>  <SCORE.INTRA.DIHEDRAL>
-12.5371

>  <SCORE.INTRA.DIHEDRAL.0>
19.7146

>  <SCORE.INTRA.POLAR>
0

>  <SCORE.INTRA.POLAR.0>
0

>  <SCORE.INTRA.REPUL>
0

>  <SCORE.INTRA.REPUL.0>
0

>  <SCORE.INTRA.SOLV>
-1.534

>  <SCORE.INTRA.SOLV.lig_0>
-116.697

>  <SCORE.INTRA.VDW>
1.63926

>  <SCORE.INTRA.VDW.0>
-7.06424

>  <SCORE.INTRA.norm>
-0.11731

>  <SCORE.RESTR>
0

>  <SCORE.RESTR.CAVITY>
0

>  <SCORE.RESTR.norm>
0

>  <SCORE.SYSTEM>
0

>  <SCORE.SYSTEM.CONST>
0

>  <SCORE.SYSTEM.DIHEDRAL>
0

>  <SCORE.SYSTEM.SOLV>
0

>  <SCORE.SYSTEM.norm>
0

>  <SCORE.heavy>
46

>  <SCORE.norm>
-0.0400362

>  <RMSD>
7.694

$$$$
lig.pdb
 OpenBabel03061811583D
libRbt.so/2013.1/901 2013/11/27
 46 49  0  0  0  0  0  0  0  0999 V2000
   10.4523  -14.3503   12.4782 C   0  0  1  0  0  0  0  0  0  0  0  0
   11.0737  -16.7046   11.7860 C   0  0  1  0  0  0  0  0  0  0  0  0
   10.8745  -16.3368   10.2844 C   0  0  1  0  0  0  0  0  0  0  0  0
   11.6904  -17.3923    9.3770 C   0  0  2  0  0  0  0  0  0  0  0  0
    8.5770  -17.4110   10.2087 C   0  0  2  0  0  0  0  0  0  0  0  0
    9.2270  -18.7953    9.9259 C   0  0  1  0  0  0  0  0  0  0  0  0
    8.3350  -19.6290   10.8138 C   0  0  1  0  0  0  0  0  0  0  0  0
    8.2500  -18.8303   12.1532 C   0  0  1  0  0  0  0  0  0  0  0  0
    9.4372  -19.0115   13.1629 C   0  0  0  0  0  0  0  0  0  0  0  0
    6.0268  -20.4977   10.8477 C   0  0  1  0  0  0  0  0  0  0  0  0
    4.7446  -20.7038   10.0979 C   0  0  1  0  0  0  0  0  0  0  0  0
   10.0344  -13.6472   13.7913 C   0  0  1  0  0  0  0  0  0  0  0  0
    3.7512  -21.4973   11.0187 C   0  0  0  0  0  0  0  0  0  0  0  0
    3.4184  -20.8401   12.2500 C   0  0  0  0  0  0  0  0  0  0  0  0
    4.6303  -20.6553   13.0194 C   0  0  2  0  0  0  0  0  0  0  0  0
    4.3278  -19.9254   14.3871 C   0  0  0  0  0  0  0  0  0  0  0  0
   16.5227  -18.9666    7.5865 C   0  0  2  0  0  0  0  0  0  0  0  0
   14.5244  -17.7181    7.6177 C   0  0  0  0  0  0  0  0  0  0  0  0
   17.2527  -20.0392    7.1105 C   0  0  0  0  0  0  0  0  0  0  0  0
   15.3500  -18.9007    6.9085 C   0  0  1  0  0  0  0  0  0  0  0  0
    8.4929  -13.9058   14.1144 C   0  0  0  0  0  0  0  0  0  0  0  0
    7.6244  -13.3682   12.8778 C   0  0  0  0  0  0  0  0  0  0  0  0
    8.0904  -14.1590   11.5689 C   0  0  1  0  0  0  0  0  0  0  0  0
    7.3220  -13.7046   10.3221 C   0  0  0  0  0  0  0  0  0  0  0  0
   13.2359  -17.2527    9.7274 C   0  0  1  0  0  0  0  0  0  0  0  0
   13.3832  -17.6688   11.2866 C   0  0  0  0  0  0  0  0  0  0  0  0
   12.5682  -16.6657   12.1908 C   0  0  2  0  0  0  0  0  0  0  0  0
   17.3103  -17.7595    7.4763 F   0  0  0  0  0  0  0  0  0  0  0  0
    3.4910  -20.7933   15.3703 N   0  0  0  0  0  0  0  0  0  0  0  0
   10.9387  -14.1385   14.8959 N   0  0  0  0  0  0  0  0  0  0  0  0
    4.0782  -19.5205    9.7673 N   0  0  0  0  0  0  0  0  0  0  0  0
   17.8174  -20.2966    5.8392 N   0  0  0  0  0  0  0  0  0  0  0  0
    5.9393  -13.9490   10.4611 N   0  0  0  0  0  0  0  0  0  0  0  0
   14.0203  -18.1936    8.9078 N   0  0  0  0  0  0  0  0  0  0  0  0
   12.6833  -17.0410   13.6175 N   0  0  0  0  0  0  0  0  0  0  0  0
   10.4006  -15.7703   12.6199 O   0  0  0  0  0  0  0  0  0  0  0  0
    9.3998  -16.4078   10.0142 O   0  0  0  0  0  0  0  0  0  0  0  0
   11.4991  -17.0462    8.0580 O   0  0  0  0  0  0  0  0  0  0  0  0
    9.0953  -19.0706    8.5642 O   0  0  0  0  0  0  0  0  0  0  0  0
    8.0360  -17.5335   11.5716 O   0  0  0  0  0  0  0  0  0  0  0  0
    8.9677  -18.5888   14.4587 O   0  0  0  0  0  0  0  0  0  0  0  0
    6.9713  -19.7659   10.1613 O   0  0  0  0  0  0  0  0  0  0  0  0
   15.5238  -18.5995    5.5066 O   0  0  0  0  0  0  0  0  0  0  0  0
   14.3640  -16.5833    7.1390 O   0  0  0  0  0  0  0  0  0  0  0  0
    5.6491  -19.8808   12.2169 O   0  0  0  0  0  0  0  0  0  0  0  0
    9.5748  -13.9336   11.3327 O   0  0  0  0  0  0  0  0  0  0  0  0
  1 36  1  1  0  0  0
  2 36  1  1  0  0  0
  2  3  1  0  0  0  0
  3 37  1  6  0  0  0
  3  4  1  0  0  0  0
  4 38  1  6  0  0  0
  5 37  1  1  0  0  0
  5  6  1  0  0  0  0
  6  7  1  0  0  0  0
  6 39  1  6  0  0  0
  7 42  1  6  0  0  0
  8  9  1  6  0  0  0
  8  7  1  0  0  0  0
 10 42  1  6  0  0  0
 10 11  1  0  0  0  0
 11 31  1  1  0  0  0
 11 13  1  0  0  0  0
 12 30  1  1  0  0  0
 12  1  1  0  0  0  0
 14 13  1  0  0  0  0
 15 16  1  1  0  0  0
 15 14  1  0  0  0  0
 17 19  1  6  0  0  0
 17 28  1  0  0  0  0
 18 34  1  0  0  0  0
 19 32  1  0  0  0  0
 20 18  1  1  0  0  0
 20 17  1  0  0  0  0
 20 43  1  0  0  0  0
 21 12  1  0  0  0  0
 22 21  1  0  0  0  0
 22 23  1  0  0  0  0
 23 24  1  6  0  0  0
 23 46  1  0  0  0  0
 24 33  1  0  0  0  0
 25 34  1  6  0  0  0
 25  4  1  0  0  0  0
 26 25  1  0  0  0  0
 27 35  1  1  0  0  0
 27 26  1  0  0  0  0
 27  2  1  0  0  0  0
 29 16  1  0  0  0  0
 40  8  1  0  0  0  0
 40  5  1  0  0  0  0
 41  9  1  0  0  0  0
 44 18  2  0  0  0  0
 45 15  1  0  0  0  0
 45 10  1  0  0  0  0
 46  1  1  0  0  0  0
M  END
>  <CHROM.1>
-160.33572864,-46.36456161,-55.49719045,-35.99356258,-179.71396078,-160.72665753
-174.64244790,67.64408301,64.24661804,-74.54433138,175.02882116,-61.38033813
90.76536903,9.93271225,-17.67967666,10.72304950,-2.96300473,-0.41471066,-2.59094661

>  <Name>
lig.pdb

>  <RI>
0

>  <Rbt.Current_Directory>
/home/afrankz/demos/rdock_decoys_rna/rnas/3wru

>  <Rbt.Executable>
rbdock ($Id: //depot/dev/client3/rdock/2013.1/src/exe/rbdock.cxx#4 $)

>  <Rbt.Library>
libRbt.so (2013.1, Build901 2013/11/27)

>  <Rbt.Parameter_File>
/export/apps/rDock/src/rDock_2013.1_src/data/scripts/dock_solv.prm

>  <Rbt.Receptor>
prm/pocket_docking_8.prm

>  <SCORE>
3.5714

>  <SCORE.INTER>
7.55281

>  <SCORE.INTER.CONST>
1

>  <SCORE.INTER.POLAR>
0

>  <SCORE.INTER.ROT>
13

>  <SCORE.INTER.SOLV>
25.953

>  <SCORE.INTER.VDW>
-15.8825

>  <SCORE.INTER.norm>
0.164192

>  <SCORE.INTRA>
-3.98141

>  <SCORE.INTRA.DIHEDRAL>
-10.9083

>  <SCORE.INTRA.DIHEDRAL.0>
19.7146

>  <SCORE.INTRA.POLAR>
0

>  <SCORE.INTRA.POLAR.0>
0

>  <SCORE.INTRA.REPUL>
0

>  <SCORE.INTRA.REPUL.0>
0

>  <SCORE.INTRA.SOLV>
1.8038

>  <SCORE.INTRA.SOLV.lig_0>
-116.697

>  <SCORE.INTRA.VDW>
0.570836

>  <SCORE.INTRA.VDW.0>
-7.06424

>  <SCORE.INTRA.norm>
-0.0865523

>  <SCORE.RESTR>
0

>  <SCORE.RESTR.CAVITY>
0

>  <SCORE.RESTR.norm>
0

>  <SCORE.SYSTEM>
0

>  <SCORE.SYSTEM.CONST>
0

>  <SCORE.SYSTEM.DIHEDRAL>
0

>  <SCORE.SYSTEM.SOLV>
0

>  <SCORE.SYSTEM.norm>
0

>  <SCORE.heavy>
46

>  <SCORE.norm>
0.0776392

>  <RMSD>
7.694

$$$$
lig.pdb
 OpenBabel03061811583D
libRbt.so/2013.1/901 2013/11/27
 46 49  0  0  0  0  0  0  0  0999 V2000
    9.5974  -14.5477   11.6897 C   0  0  1  0  0  0  0  0  0  0  0  0
   12.0977  -14.7482   11.3489 C   0  0  1  0  0  0  0  0  0  0  0  0
   12.2563  -13.4565   10.4909 C   0  0  1  0  0  0  0  0  0  0  0  0
   13.6051  -13.5763    9.6138 C   0  0  2  0  0  0  0  0  0  0  0  0
   10.8779  -12.6921    8.5025 C   0  0  2  0  0  0  0  0  0  0  0  0
   11.0112  -13.5752    7.2293 C   0  0  1  0  0  0  0  0  0  0  0  0
   10.1774  -12.7269    6.2997 C   0  0  1  0  0  0  0  0  0  0  0  0
    8.9020  -12.3681    7.1265 C   0  0  1  0  0  0  0  0  0  0  0  0
    7.7631  -13.4462    7.1764 C   0  0  0  0  0  0  0  0  0  0  0  0
   10.3932  -10.6541    4.9805 C   0  0  1  0  0  0  0  0  0  0  0  0
   10.1308  -11.3126    3.6590 C   0  0  1  0  0  0  0  0  0  0  0  0
    8.5958  -14.4660   12.8658 C   0  0  1  0  0  0  0  0  0  0  0  0
    9.5402  -10.2400    2.6767 C   0  0  0  0  0  0  0  0  0  0  0  0
   10.3988   -9.1183    2.4254 C   0  0  0  0  0  0  0  0  0  0  0  0
   10.6465   -8.4343    3.6767 C   0  0  2  0  0  0  0  0  0  0  0  0
   11.5971   -7.1907    3.4647 C   0  0  0  0  0  0  0  0  0  0  0  0
   18.5148  -15.4679    8.9959 C   0  0  2  0  0  0  0  0  0  0  0  0
   16.2352  -14.8773    8.9080 C   0  0  0  0  0  0  0  0  0  0  0  0
   19.7129  -15.6516    8.3319 C   0  0  0  0  0  0  0  0  0  0  0  0
   17.6698  -14.7781    8.1900 C   0  0  1  0  0  0  0  0  0  0  0  0
    8.5562  -15.8376   13.6812 C   0  0  0  0  0  0  0  0  0  0  0  0
    8.1509  -17.0121   12.6671 C   0  0  0  0  0  0  0  0  0  0  0  0
    9.2438  -17.0540   11.5011 C   0  0  1  0  0  0  0  0  0  0  0  0
    8.9359  -18.1439   10.4673 C   0  0  0  0  0  0  0  0  0  0  0  0
   14.8379  -13.6684   10.6150 C   0  0  1  0  0  0  0  0  0  0  0  0
   14.6310  -15.0363   11.4588 C   0  0  0  0  0  0  0  0  0  0  0  0
   13.3009  -14.9525   12.3025 C   0  0  2  0  0  0  0  0  0  0  0  0
   18.7589  -14.8087   10.2590 F   0  0  0  0  0  0  0  0  0  0  0  0
   11.9184   -6.4355    4.7863 N   0  0  0  0  0  0  0  0  0  0  0  0
    8.9874  -13.2963   13.7363 N   0  0  0  0  0  0  0  0  0  0  0  0
   11.2765  -11.8031    3.0264 N   0  0  0  0  0  0  0  0  0  0  0  0
   20.0363  -16.3963    7.1734 N   0  0  0  0  0  0  0  0  0  0  0  0
    7.7561  -17.8465    9.7525 N   0  0  0  0  0  0  0  0  0  0  0  0
   16.0948  -13.7660    9.8514 N   0  0  0  0  0  0  0  0  0  0  0  0
   13.0922  -16.2008   13.0691 N   0  0  0  0  0  0  0  0  0  0  0  0
   10.9383  -14.6619   12.1673 O   0  0  0  0  0  0  0  0  0  0  0  0
   11.0403  -13.3674    9.6155 O   0  0  0  0  0  0  0  0  0  0  0  0
   13.7224  -12.4254    8.8668 O   0  0  0  0  0  0  0  0  0  0  0  0
   12.3614  -13.6433    6.8834 O   0  0  0  0  0  0  0  0  0  0  0  0
    9.5755  -12.0247    8.3490 O   0  0  0  0  0  0  0  0  0  0  0  0
    6.7440  -12.9541    8.0693 O   0  0  0  0  0  0  0  0  0  0  0  0
   10.9624  -11.4838    5.9220 O   0  0  0  0  0  0  0  0  0  0  0  0
   18.0417  -13.3909    8.0363 O   0  0  0  0  0  0  0  0  0  0  0  0
   15.3880  -15.7549    8.6748 O   0  0  0  0  0  0  0  0  0  0  0  0
   11.2360   -9.3881    4.6890 O   0  0  0  0  0  0  0  0  0  0  0  0
    9.2901  -15.7111   10.7908 O   0  0  0  0  0  0  0  0  0  0  0  0
  1 36  1  1  0  0  0
  2 36  1  1  0  0  0
  2  3  1  0  0  0  0
  3 37  1  6  0  0  0
  3  4  1  0  0  0  0
  4 38  1  6  0  0  0
  5 37  1  1  0  0  0
  5  6  1  0  0  0  0
  6  7  1  0  0  0  0
  6 39  1  6  0  0  0
  7 42  1  1  0  0  0
  8  9  1  1  0  0  0
  8  7  1  0  0  0  0
 10 42  1  1  0  0  0
 10 11  1  0  0  0  0
 11 31  1  6  0  0  0
 11 13  1  0  0  0  0
 12 30  1  1  0  0  0
 12  1  1  0  0  0  0
 14 13  1  0  0  0  0
 15 16  1  6  0  0  0
 15 14  1  0  0  0  0
 17 19  1  6  0  0  0
 17 28  1  0  0  0  0
 18 34  1  0  0  0  0
 19 32  1  0  0  0  0
 20 18  1  1  0  0  0
 20 17  1  0  0  0  0
 20 43  1  0  0  0  0
 21 12  1  0  0  0  0
 22 21  1  0  0  0  0
 22 23  1  0  0  0  0
 23 24  1  6  0  0  0
 23 46  1  0  0  0  0
 24 33  1  0  0  0  0
 25 34  1  6  0  0  0
 25  4  1  0  0  0  0
 26 25  1  0  0  0  0
 27 35  1  6  0  0  0
 27 26  1  0  0  0  0
 27  2  1  0  0  0  0
 29 16  1  0  0  0  0
 40  8  1  0  0  0  0
 40  5  1  0  0  0  0
 41  9  1  0  0  0  0
 44 18  2  0  0  0  0
 45 15  1  0  0  0  0
 45 10  1  0  0  0  0
 46  1  1  0  0  0  0
M  END
>  <CHROM.1>
-179.53256274,62.17831161,-159.73354938,100.37504726,174.38688525,175.53720356
-59.36626682,-178.86272771,-65.92186080,88.63177477,168.71856658,66.74733269
-57.70335425,12.08927492,-13.48301120,8.56650684,1.18612062,-0.10625641,2.23457581

>  <Name>
lig.pdb

>  <RI>
0

>  <Rbt.Current_Directory>
/home/afrankz/demos/rdock_decoys_rna/rnas/3wru

>  <Rbt.Executable>
rbdock ($Id: //depot/dev/client3/rdock/2013.1/src/exe/rbdock.cxx#4 $)

>  <Rbt.Library>
libRbt.so (2013.1, Build901 2013/11/27)

>  <Rbt.Parameter_File>
/export/apps/rDock/src/rDock_2013.1_src/data/scripts/dock_solv.prm

>  <Rbt.Receptor>
prm/pocket_docking_6.prm

>  <SCORE>
-7.75351

>  <SCORE.INTER>
-4.7015

>  <SCORE.INTER.CONST>
1

>  <SCORE.INTER.POLAR>
0

>  <SCORE.INTER.ROT>
13

>  <SCORE.INTER.SOLV>
21.4711

>  <SCORE.INTER.VDW>
-22.558

>  <SCORE.INTER.norm>
-0.102206

>  <SCORE.INTRA>
-3.05201

>  <SCORE.INTRA.DIHEDRAL>
-9.65606

>  <SCORE.INTRA.DIHEDRAL.0>
19.7146

>  <SCORE.INTRA.POLAR>
0

>  <SCORE.INTRA.POLAR.0>
0

>  <SCORE.INTRA.REPUL>
0.00930074

>  <SCORE.INTRA.REPUL.0>
0

>  <SCORE.INTRA.SOLV>
-1.4525

>  <SCORE.INTRA.SOLV.lig_0>
-116.697

>  <SCORE.INTRA.VDW>
2.45577

>  <SCORE.INTRA.VDW.0>
-7.06424

>  <SCORE.INTRA.norm>
-0.0663481

>  <SCORE.RESTR>
0

>  <SCORE.RESTR.CAVITY>
0

>  <SCORE.RESTR.norm>
0

>  <SCORE.SYSTEM>
0

>  <SCORE.SYSTEM.CONST>
0

>  <SCORE.SYSTEM.DIHEDRAL>
0

>  <SCORE.SYSTEM.SOLV>
0

>  <SCORE.SYSTEM.norm>
0

>  <SCORE.heavy>
46

>  <SCORE.norm>
-0.168555

>  <RMSD>
7.716

$$$$
lig.pdb
 OpenBabel03061811583D
libRbt.so/2013.1/901 2013/11/27
 46 49  0  0  0  0  0  0  0  0999 V2000
    9.0009  -15.6176   11.5975 C   0  0  1  0  0  0  0  0  0  0  0  0
   11.4665  -15.8639   11.0800 C   0  0  1  0  0  0  0  0  0  0  0  0
   11.4737  -14.8689    9.8802 C   0  0  1  0  0  0  0  0  0  0  0  0
   12.7423  -15.1971    8.9390 C   0  0  2  0  0  0  0  0  0  0  0  0
    9.8144  -14.5859    7.9816 C   0  0  2  0  0  0  0  0  0  0  0  0
    8.4261  -15.1087    7.5146 C   0  0  1  0  0  0  0  0  0  0  0  0
    8.0640  -13.9564    6.6090 C   0  0  1  0  0  0  0  0  0  0  0  0
    8.4139  -12.6776    7.4345 C   0  0  1  0  0  0  0  0  0  0  0  0
    7.3498  -12.1977    8.4829 C   0  0  0  0  0  0  0  0  0  0  0  0
    9.0474  -12.8761    4.6217 C   0  0  1  0  0  0  0  0  0  0  0  0
    9.6303  -13.0696    3.2536 C   0  0  1  0  0  0  0  0  0  0  0  0
    8.1128  -15.1264   12.7652 C   0  0  1  0  0  0  0  0  0  0  0  0
    9.8015  -11.6613    2.5815 C   0  0  0  0  0  0  0  0  0  0  0  0
   10.6690  -10.7612    3.2856 C   0  0  0  0  0  0  0  0  0  0  0  0
   10.1185  -10.5215    4.6026 C   0  0  2  0  0  0  0  0  0  0  0  0
   11.0383   -9.5412    5.4318 C   0  0  0  0  0  0  0  0  0  0  0  0
   18.0652  -15.8518    8.6658 C   0  0  2  0  0  0  0  0  0  0  0  0
   16.3484  -14.2724    8.9988 C   0  0  0  0  0  0  0  0  0  0  0  0
   18.9548  -16.4748    7.8110 C   0  0  0  0  0  0  0  0  0  0  0  0
   17.5271  -14.7806    8.0316 C   0  0  1  0  0  0  0  0  0  0  0  0
    8.1783  -16.1366   13.9993 C   0  0  0  0  0  0  0  0  0  0  0  0
    7.7036  -17.5815   13.4901 C   0  0  0  0  0  0  0  0  0  0  0  0
    8.6826  -18.0330   12.3096 C   0  0  1  0  0  0  0  0  0  0  0  0
    8.3012  -19.4063   11.7438 C   0  0  0  0  0  0  0  0  0  0  0  0
   14.0638  -14.9632    9.7932 C   0  0  1  0  0  0  0  0  0  0  0  0
   14.0116  -16.0367   11.0060 C   0  0  0  0  0  0  0  0  0  0  0  0
   12.7606  -15.7519   11.9236 C   0  0  2  0  0  0  0  0  0  0  0  0
   18.7407  -15.5030    9.8952 F   0  0  0  0  0  0  0  0  0  0  0  0
   11.2501   -8.1666    4.7347 N   0  0  0  0  0  0  0  0  0  0  0  0
    8.5605  -13.7350   13.1430 N   0  0  0  0  0  0  0  0  0  0  0  0
   10.9066  -13.6392    3.2505 N   0  0  0  0  0  0  0  0  0  0  0  0
   18.7639  -17.1070    6.5599 N   0  0  0  0  0  0  0  0  0  0  0  0
    9.2409  -19.8383   10.7839 N   0  0  0  0  0  0  0  0  0  0  0  0
   15.2500  -15.2403    8.9635 N   0  0  0  0  0  0  0  0  0  0  0  0
   12.6928  -16.7331   13.0291 N   0  0  0  0  0  0  0  0  0  0  0  0
   10.3828  -15.5791   11.9551 O   0  0  0  0  0  0  0  0  0  0  0  0
   10.1804  -15.0690    9.1451 O   0  0  0  0  0  0  0  0  0  0  0  0
   12.7264  -14.3062    7.8892 O   0  0  0  0  0  0  0  0  0  0  0  0
    8.6160  -16.3203    6.8489 O   0  0  0  0  0  0  0  0  0  0  0  0
    9.6952  -13.1210    7.9113 O   0  0  0  0  0  0  0  0  0  0  0  0
    7.2263  -13.2354    9.4760 O   0  0  0  0  0  0  0  0  0  0  0  0
    8.8921  -14.0419    5.3397 O   0  0  0  0  0  0  0  0  0  0  0  0
   18.4770  -13.7131    7.8204 O   0  0  0  0  0  0  0  0  0  0  0  0
   16.3881  -13.2301    9.6730 O   0  0  0  0  0  0  0  0  0  0  0  0
    9.9318  -11.8270    5.3394 O   0  0  0  0  0  0  0  0  0  0  0  0
    8.6343  -17.0139   11.1829 O   0  0  0  0  0  0  0  0  0  0  0  0
  1 36  1  1  0  0  0
  2 36  1  1  0  0  0
  2  3  1  0  0  0  0
  3 37  1  6  0  0  0
  3  4  1  0  0  0  0
  4 38  1  6  0  0  0
  5 37  1  1  0  0  0
  5  6  1  0  0  0  0
  6  7  1  0  0  0  0
  6 39  1  6  0  0  0
  7 42  1  6  0  0  0
  8  9  1  1  0  0  0
  8  7  1  0  0  0  0
 10 42  1  1  0  0  0
 10 11  1  0  0  0  0
 11 31  1  1  0  0  0
 11 13  1  0  0  0  0
 12 30  1  1  0  0  0
 12  1  1  0  0  0  0
 14 13  1  0  0  0  0
 15 16  1  1  0  0  0
 15 14  1  0  0  0  0
 17 19  1  6  0  0  0
 17 28  1  0  0  0  0
 18 34  1  0  0  0  0
 19 32  1  0  0  0  0
 20 18  1  1  0  0  0
 20 17  1  0  0  0  0
 20 43  1  0  0  0  0
 21 12  1  0  0  0  0
 22 21  1  0  0  0  0
 22 23  1  0  0  0  0
 23 24  1  6  0  0  0
 23 46  1  0  0  0  0
 24 33  1  0  0  0  0
 25 34  1  6  0  0  0
 25  4  1  0  0  0  0
 26 25  1  0  0  0  0
 27 35  1  1  0  0  0
 27 26  1  0  0  0  0
 27  2  1  0  0  0  0
 29 16  1  0  0  0  0
 40  8  1  0  0  0  0
 40  5  1  0  0  0  0
 41  9  1  0  0  0  0
 44 18  2  0  0  0  0
 45 15  1  0  0  0  0
 45 10  1  0  0  0  0
 46  1  1  0  0  0  0
M  END
>  <CHROM.1>
-174.82869022,60.79182416,-170.26426177,175.94466694,-158.27176863,63.55521754
-168.31212149,58.06466047,-62.54905880,-70.95489455,171.07764730,-174.99293088
133.72217022,11.47875882,-14.57022916,8.62653065,-3.13013336,0.08016005,-0.96844207

>  <Name>
lig.pdb

>  <RI>
0

>  <Rbt.Current_Directory>
/home/afrankz/demos/rdock_decoys_rna/rnas/3wru

>  <Rbt.Executable>
rbdock ($Id: //depot/dev/client3/rdock/2013.1/src/exe/rbdock.cxx#4 $)

>  <Rbt.Library>
libRbt.so (2013.1, Build901 2013/11/27)

>  <Rbt.Parameter_File>
/export/apps/rDock/src/rDock_2013.1_src/data/scripts/dock_solv.prm

>  <Rbt.Receptor>
prm/pocket_docking_6.prm

>  <SCORE>
-8.29907

>  <SCORE.INTER>
-2.361

>  <SCORE.INTER.CONST>
1

>  <SCORE.INTER.POLAR>
0

>  <SCORE.INTER.ROT>
13

>  <SCORE.INTER.SOLV>
18.4902

>  <SCORE.INTER.VDW>
-20.0041

>  <SCORE.INTER.norm>
-0.051326

>  <SCORE.INTRA>
-5.93807

>  <SCORE.INTRA.DIHEDRAL>
-13.6799

>  <SCORE.INTRA.DIHEDRAL.0>
19.7146

>  <SCORE.INTRA.POLAR>
0

>  <SCORE.INTRA.POLAR.0>
0

>  <SCORE.INTRA.REPUL>
0

>  <SCORE.INTRA.REPUL.0>
0

>  <SCORE.INTRA.SOLV>
-2.31718

>  <SCORE.INTRA.SOLV.lig_0>
-116.697

>  <SCORE.INTRA.VDW>
2.06048

>  <SCORE.INTRA.VDW.0>
-7.06424

>  <SCORE.INTRA.norm>
-0.129089

>  <SCORE.RESTR>
0

>  <SCORE.RESTR.CAVITY>
0

>  <SCORE.RESTR.norm>
0

>  <SCORE.SYSTEM>
0

>  <SCORE.SYSTEM.CONST>
0

>  <SCORE.SYSTEM.DIHEDRAL>
0

>  <SCORE.SYSTEM.SOLV>
0

>  <SCORE.SYSTEM.norm>
0

>  <SCORE.heavy>
46

>  <SCORE.norm>
-0.180415

>  <RMSD>
7.732

$$$$
lig.pdb
 OpenBabel03061811583D
libRbt.so/2013.1/901 2013/11/27
 46 49  0  0  0  0  0  0  0  0999 V2000
   14.2667  -16.5879    9.5141 C   0  0  1  0  0  0  0  0  0  0  0  0
   13.4103  -15.0913    7.6609 C   0  0  1  0  0  0  0  0  0  0  0  0
   14.0901  -13.7397    8.0359 C   0  0  1  0  0  0  0  0  0  0  0  0
   13.2139  -12.5295    7.4273 C   0  0  2  0  0  0  0  0  0  0  0  0
   13.1585  -13.4561   10.3789 C   0  0  2  0  0  0  0  0  0  0  0  0
   11.9446  -14.4056   10.1708 C   0  0  1  0  0  0  0  0  0  0  0  0
   11.3872  -14.3408   11.5723 C   0  0  1  0  0  0  0  0  0  0  0  0
   12.6303  -14.5123   12.5021 C   0  0  1  0  0  0  0  0  0  0  0  0
   13.1262  -15.9785   12.7591 C   0  0  0  0  0  0  0  0  0  0  0  0
    9.4856  -13.0016   12.3934 C   0  0  1  0  0  0  0  0  0  0  0  0
    8.8849  -11.6409   12.5843 C   0  0  1  0  0  0  0  0  0  0  0  0
   15.4032  -17.6181    9.7149 C   0  0  1  0  0  0  0  0  0  0  0  0
    7.5184  -11.8014   13.3402 C   0  0  0  0  0  0  0  0  0  0  0  0
    7.6174  -12.4042   14.6384 C   0  0  0  0  0  0  0  0  0  0  0  0
    8.1620  -13.7371   14.4906 C   0  0  2  0  0  0  0  0  0  0  0  0
    8.3036  -14.4504   15.8928 C   0  0  0  0  0  0  0  0  0  0  0  0
   11.6445   -8.6807    5.1922 C   0  0  2  0  0  0  0  0  0  0  0  0
   13.1672  -10.4168    4.7229 C   0  0  0  0  0  0  0  0  0  0  0  0
   11.1182   -7.4772    4.7624 C   0  0  0  0  0  0  0  0  0  0  0  0
   12.1199   -9.3583    4.1179 C   0  0  1  0  0  0  0  0  0  0  0  0
   15.0703  -18.9909    8.9716 C   0  0  0  0  0  0  0  0  0  0  0  0
   13.6836  -19.5510    9.5508 C   0  0  0  0  0  0  0  0  0  0  0  0
   12.5570  -18.4492    9.2807 C   0  0  1  0  0  0  0  0  0  0  0  0
   11.1877  -18.8889    9.8127 C   0  0  0  0  0  0  0  0  0  0  0  0
   13.2140  -12.6689    5.8426 C   0  0  1  0  0  0  0  0  0  0  0  0
   12.4771  -14.0743    5.5144 C   0  0  0  0  0  0  0  0  0  0  0  0
   13.3028  -15.2709    6.1262 C   0  0  2  0  0  0  0  0  0  0  0  0
   10.6371   -9.4139    5.9251 F   0  0  0  0  0  0  0  0  0  0  0  0
    6.9338  -14.7484   16.5673 N   0  0  0  0  0  0  0  0  0  0  0  0
   16.6898  -17.0005    9.2223 N   0  0  0  0  0  0  0  0  0  0  0  0
    9.6501  -10.7839   13.3802 N   0  0  0  0  0  0  0  0  0  0  0  0
   11.7226   -6.3618    4.1363 N   0  0  0  0  0  0  0  0  0  0  0  0
   10.1814  -17.9712    9.4436 N   0  0  0  0  0  0  0  0  0  0  0  0
   12.4327  -11.5712    5.2449 N   0  0  0  0  0  0  0  0  0  0  0  0
   12.6346  -16.5608    5.8451 N   0  0  0  0  0  0  0  0  0  0  0  0
   14.1775  -16.1851    8.1470 O   0  0  0  0  0  0  0  0  0  0  0  0
   14.1374  -13.6812    9.5350 O   0  0  0  0  0  0  0  0  0  0  0  0
   13.8342  -11.3492    7.7712 O   0  0  0  0  0  0  0  0  0  0  0  0
   11.1133  -13.8467    9.1993 O   0  0  0  0  0  0  0  0  0  0  0  0
   13.4999  -13.6068   11.8023 O   0  0  0  0  0  0  0  0  0  0  0  0
   11.9835  -16.7520   13.1763 O   0  0  0  0  0  0  0  0  0  0  0  0
   10.7197  -12.9934   11.7805 O   0  0  0  0  0  0  0  0  0  0  0  0
   11.0877  -10.0579    3.3889 O   0  0  0  0  0  0  0  0  0  0  0  0
   14.4003  -10.2686    4.7237 O   0  0  0  0  0  0  0  0  0  0  0  0
    9.4956  -13.6842   13.7833 O   0  0  0  0  0  0  0  0  0  0  0  0
   12.9427  -17.1430    9.9553 O   0  0  0  0  0  0  0  0  0  0  0  0
  1 36  1  6  0  0  0
  2 36  1  6  0  0  0
  2  3  1  0  0  0  0
  3 37  1  1  0  0  0
  3  4  1  0  0  0  0
  4 38  1  6  0  0  0
  5 37  1  6  0  0  0
  5  6  1  0  0  0  0
  6  7  1  0  0  0  0
  6 39  1  6  0  0  0
  7 42  1  1  0  0  0
  8  9  1  6  0  0  0
  8  7  1  0  0  0  0
 10 42  1  1  0  0  0
 10 11  1  0  0  0  0
 11 31  1  1  0  0  0
 11 13  1  0  0  0  0
 12 30  1  6  0  0  0
 12  1  1  0  0  0  0
 14 13  1  0  0  0  0
 15 16  1  1  0  0  0
 15 14  1  0  0  0  0
 17 19  1  6  0  0  0
 17 28  1  0  0  0  0
 18 34  1  0  0  0  0
 19 32  1  0  0  0  0
 20 18  1  1  0  0  0
 20 17  1  0  0  0  0
 20 43  1  0  0  0  0
 21 12  1  0  0  0  0
 22 21  1  0  0  0  0
 22 23  1  0  0  0  0
 23 24  1  1  0  0  0
 23 46  1  0  0  0  0
 24 33  1  0  0  0  0
 25 34  1  6  0  0  0
 25  4  1  0  0  0  0
 26 25  1  0  0  0  0
 27 35  1  1  0  0  0
 27 26  1  0  0  0  0
 27  2  1  0  0  0  0
 29 16  1  0  0  0  0
 40  8  1  0  0  0  0
 40  5  1  0  0  0  0
 41  9  1  0  0  0  0
 44 18  2  0  0  0  0
 45 15  1  0  0  0  0
 45 10  1  0  0  0  0
 46  1  1  0  0  0  0
M  END
>  <CHROM.1>
-168.34513670,73.66766741,-74.31581624,53.49205684,134.92767683,-51.12395387
179.36190551,66.66589703,-63.24791380,80.60247819,159.27357494,-173.85411199
98.87025458,11.96092053,-13.73310996,9.34032213,-1.91566567,0.90242378,-0.74053635

>  <Name>
lig.pdb

>  <RI>
0

>  <Rbt.Current_Directory>
/home/afrankz/demos/rdock_decoys_rna/rnas/3wru

>  <Rbt.Executable>
rbdock ($Id: //depot/dev/client3/rdock/2013.1/src/exe/rbdock.cxx#4 $)

>  <Rbt.Library>
libRbt.so (2013.1, Build901 2013/11/27)

>  <Rbt.Parameter_File>
/export/apps/rDock/src/rDock_2013.1_src/data/scripts/dock_solv.prm

>  <Rbt.Receptor>
prm/pocket_docking_7.prm

>  <SCORE>
-6.52109

>  <SCORE.INTER>
-1.88167

>  <SCORE.INTER.CONST>
1

>  <SCORE.INTER.POLAR>
0

>  <SCORE.INTER.ROT>
13

>  <SCORE.INTER.SOLV>
20.6333

>  <SCORE.INTER.VDW>
-20.3989

>  <SCORE.INTER.norm>
-0.040906

>  <SCORE.INTRA>
-4.63942

>  <SCORE.INTRA.DIHEDRAL>
-6.81789

>  <SCORE.INTRA.DIHEDRAL.0>
19.7146

>  <SCORE.INTRA.POLAR>
0

>  <SCORE.INTRA.POLAR.0>
0

>  <SCORE.INTRA.REPUL>
0

>  <SCORE.INTRA.REPUL.0>
0

>  <SCORE.INTRA.SOLV>
-0.569426

>  <SCORE.INTRA.SOLV.lig_0>
-116.697

>  <SCORE.INTRA.VDW>
-0.945757

>  <SCORE.INTRA.VDW.0>
-7.06424

>  <SCORE.INTRA.norm>
-0.100857

>  <SCORE.RESTR>
0

>  <SCORE.RESTR.CAVITY>
0

>  <SCORE.RESTR.norm>
0

>  <SCORE.SYSTEM>
0

>  <SCORE.SYSTEM.CONST>
0

>  <SCORE.SYSTEM.DIHEDRAL>
0

>  <SCORE.SYSTEM.SOLV>
0

>  <SCORE.SYSTEM.norm>
0

>  <SCORE.heavy>
46

>  <SCORE.norm>
-0.141763

>  <RMSD>
7.733

$$$$
lig.pdb
 OpenBabel03061811583D
libRbt.so/2013.1/901 2013/11/27
 46 49  0  0  0  0  0  0  0  0999 V2000
   12.2411  -14.6008    3.8554 C   0  0  1  0  0  0  0  0  0  0  0  0
   11.0946  -12.6068    4.9124 C   0  0  1  0  0  0  0  0  0  0  0  0
   12.3650  -11.7465    5.1875 C   0  0  1  0  0  0  0  0  0  0  0  0
   11.9471  -10.1882    5.1945 C   0  0  2  0  0  0  0  0  0  0  0  0
   12.3652  -12.0101    7.7110 C   0  0  2  0  0  0  0  0  0  0  0  0
   11.1706  -12.9680    7.9829 C   0  0  1  0  0  0  0  0  0  0  0  0
   11.2546  -12.9825    9.4901 C   0  0  1  0  0  0  0  0  0  0  0  0
   12.7723  -13.1797    9.8012 C   0  0  1  0  0  0  0  0  0  0  0  0
   13.3215  -14.6485    9.7490 C   0  0  0  0  0  0  0  0  0  0  0  0
    9.3903  -11.4270    9.9242 C   0  0  1  0  0  0  0  0  0  0  0  0
    8.9253  -10.1763   10.6086 C   0  0  1  0  0  0  0  0  0  0  0  0
   12.4301  -16.1092    4.1425 C   0  0  1  0  0  0  0  0  0  0  0  0
    7.3663  -10.0749   10.4551 C   0  0  0  0  0  0  0  0  0  0  0  0
    6.6339  -11.1668   11.0294 C   0  0  0  0  0  0  0  0  0  0  0  0
    7.0312  -12.3910   10.3674 C   0  0  2  0  0  0  0  0  0  0  0  0
    6.2623  -13.6344   10.9655 C   0  0  0  0  0  0  0  0  0  0  0  0
   10.9773   -5.5582    1.4754 C   0  0  2  0  0  0  0  0  0  0  0  0
   11.0338   -7.7206    2.4101 C   0  0  0  0  0  0  0  0  0  0  0  0
   10.3510   -4.3279    1.4095 C   0  0  0  0  0  0  0  0  0  0  0  0
   10.5778   -6.1919    2.6059 C   0  0  1  0  0  0  0  0  0  0  0  0
   13.2906  -16.3370    5.4674 C   0  0  0  0  0  0  0  0  0  0  0  0
   14.7076  -15.6107    5.2760 C   0  0  0  0  0  0  0  0  0  0  0  0
   14.4328  -14.0576    5.0145 C   0  0  1  0  0  0  0  0  0  0  0  0
   15.7340  -13.2737    4.8055 C   0  0  0  0  0  0  0  0  0  0  0  0
   11.3941   -9.8193    3.7492 C   0  0  1  0  0  0  0  0  0  0  0  0
   10.0669  -10.7232    3.5311 C   0  0  0  0  0  0  0  0  0  0  0  0
   10.4486  -12.2535    3.5498 C   0  0  2  0  0  0  0  0  0  0  0  0
   12.4095   -5.3753    1.4033 F   0  0  0  0  0  0  0  0  0  0  0  0
    6.7192  -14.9884   10.3506 N   0  0  0  0  0  0  0  0  0  0  0  0
   11.0639  -16.7451    4.2335 N   0  0  0  0  0  0  0  0  0  0  0  0
    9.1640  -10.1547   11.9856 N   0  0  0  0  0  0  0  0  0  0  0  0
    8.9820   -3.9722    1.4338 N   0  0  0  0  0  0  0  0  0  0  0  0
   16.5529  -13.3344    5.9530 N   0  0  0  0  0  0  0  0  0  0  0  0
   11.0124   -8.3963    3.7091 N   0  0  0  0  0  0  0  0  0  0  0  0
    9.2437  -13.0920    3.3642 N   0  0  0  0  0  0  0  0  0  0  0  0
   11.4314  -13.9871    4.8588 O   0  0  0  0  0  0  0  0  0  0  0  0
   12.8972  -12.1765    6.5234 O   0  0  0  0  0  0  0  0  0  0  0  0
   13.0842   -9.4509    5.4384 O   0  0  0  0  0  0  0  0  0  0  0  0
   10.0113  -12.3750    7.4813 O   0  0  0  0  0  0  0  0  0  0  0  0
   13.2725  -12.2261    8.8492 O   0  0  0  0  0  0  0  0  0  0  0  0
   13.3237  -15.0578    8.3668 O   0  0  0  0  0  0  0  0  0  0  0  0
   10.7446  -11.6585   10.0297 O   0  0  0  0  0  0  0  0  0  0  0  0
   11.1849   -5.6528    3.8006 O   0  0  0  0  0  0  0  0  0  0  0  0
   11.3368   -8.2330    1.3200 O   0  0  0  0  0  0  0  0  0  0  0  0
    8.5251  -12.5863   10.4766 O   0  0  0  0  0  0  0  0  0  0  0  0
   13.5620  -13.8898    3.7802 O   0  0  0  0  0  0  0  0  0  0  0  0
  1 36  1  1  0  0  0
  2 36  1  6  0  0  0
  2  3  1  0  0  0  0
  3 37  1  1  0  0  0
  3  4  1  0  0  0  0
  4 38  1  6  0  0  0
  5 37  1  6  0  0  0
  5  6  1  0  0  0  0
  6  7  1  0  0  0  0
  6 39  1  1  0  0  0
  7 42  1  1  0  0  0
  8  9  1  6  0  0  0
  8  7  1  0  0  0  0
 10 42  1  1  0  0  0
 10 11  1  0  0  0  0
 11 31  1  1  0  0  0
 11 13  1  0  0  0  0
 12 30  1  1  0  0  0
 12  1  1  0  0  0  0
 14 13  1  0  0  0  0
 15 16  1  1  0  0  0
 15 14  1  0  0  0  0
 17 19  1  1  0  0  0
 17 28  1  0  0  0  0
 18 34  1  0  0  0  0
 19 32  1  0  0  0  0
 20 18  1  6  0  0  0
 20 17  1  0  0  0  0
 20 43  1  0  0  0  0
 21 12  1  0  0  0  0
 22 21  1  0  0  0  0
 22 23  1  0  0  0  0
 23 24  1  6  0  0  0
 23 46  1  0  0  0  0
 24 33  1  0  0  0  0
 25 34  1  1  0  0  0
 25  4  1  0  0  0  0
 26 25  1  0  0  0  0
 27 35  1  1  0  0  0
 27 26  1  0  0  0  0
 27  2  1  0  0  0  0
 29 16  1  0  0  0  0
 40  8  1  0  0  0  0
 40  5  1  0  0  0  0
 41  9  1  0  0  0  0
 44 18  2  0  0  0  0
 45 15  1  0  0  0  0
 45 10  1  0  0  0  0
 46  1  1  0  0  0  0
M  END
>  <CHROM.1>
178.25532443,-66.65517844,-67.91989562,75.04228416,70.61883610,70.20723836
173.52360009,-176.32880389,-56.18604764,163.37558672,165.67050871,-61.83300744
154.27497392,11.20442995,-11.46607078,6.15805251,-1.69604210,0.83442250,-0.70737318

>  <Name>
lig.pdb

>  <RI>
0

>  <Rbt.Current_Directory>
/home/afrankz/demos/rdock_decoys_rna/rnas/3wru

>  <Rbt.Executable>
rbdock ($Id: //depot/dev/client3/rdock/2013.1/src/exe/rbdock.cxx#4 $)

>  <Rbt.Library>
libRbt.so (2013.1, Build901 2013/11/27)

>  <Rbt.Parameter_File>
/export/apps/rDock/src/rDock_2013.1_src/data/scripts/dock_solv.prm

>  <Rbt.Receptor>
prm/pocket_docking_5.prm

>  <SCORE>
-5.23975

>  <SCORE.INTER>
0.106408

>  <SCORE.INTER.CONST>
1

>  <SCORE.INTER.POLAR>
0

>  <SCORE.INTER.ROT>
13

>  <SCORE.INTER.SOLV>
16.6512

>  <SCORE.INTER.VDW>
-17.7461

>  <SCORE.INTER.norm>
0.00231321

>  <SCORE.INTRA>
-5.3541

>  <SCORE.INTRA.DIHEDRAL>
-14.4532

>  <SCORE.INTRA.DIHEDRAL.0>
19.7146

>  <SCORE.INTRA.POLAR>
0

>  <SCORE.INTRA.POLAR.0>
0

>  <SCORE.INTRA.REPUL>
0.0449356

>  <SCORE.INTRA.REPUL.0>
0

>  <SCORE.INTRA.SOLV>
-0.525833

>  <SCORE.INTRA.SOLV.lig_0>
-116.697

>  <SCORE.INTRA.VDW>
1.91073

>  <SCORE.INTRA.VDW.0>
-7.06424

>  <SCORE.INTRA.norm>
-0.116393

>  <SCORE.RESTR>
0.00794142

>  <SCORE.RESTR.CAVITY>
0.00794142

>  <SCORE.RESTR.norm>
0.00017264

>  <SCORE.SYSTEM>
0

>  <SCORE.SYSTEM.CONST>
0

>  <SCORE.SYSTEM.DIHEDRAL>
0

>  <SCORE.SYSTEM.SOLV>
0

>  <SCORE.SYSTEM.norm>
0

>  <SCORE.heavy>
46

>  <SCORE.norm>
-0.113908

>  <RMSD>
7.739

$$$$
lig.pdb
 OpenBabel03061811583D
libRbt.so/2013.1/901 2013/11/27
 46 49  0  0  0  0  0  0  0  0999 V2000
    9.9746   -7.6739    1.0958 C   0  0  1  0  0  0  0  0  0  0  0  0
   11.4612   -6.2759    2.5936 C   0  0  1  0  0  0  0  0  0  0  0  0
   12.2631   -7.3386    3.4043 C   0  0  1  0  0  0  0  0  0  0  0  0
   12.7147   -6.6891    4.8104 C   0  0  2  0  0  0  0  0  0  0  0  0
   11.5086   -9.5531    4.3865 C   0  0  2  0  0  0  0  0  0  0  0  0
   10.2217   -9.9381    5.1703 C   0  0  1  0  0  0  0  0  0  0  0  0
   10.5358  -11.3996    5.3808 C   0  0  1  0  0  0  0  0  0  0  0  0
   11.0351  -11.9027    3.9892 C   0  0  1  0  0  0  0  0  0  0  0  0
    9.9353  -12.2830    2.9367 C   0  0  0  0  0  0  0  0  0  0  0  0
   11.2235  -11.3677    7.7493 C   0  0  1  0  0  0  0  0  0  0  0  0
   11.8866  -12.3086    8.7104 C   0  0  1  0  0  0  0  0  0  0  0  0
    9.8801   -8.0618   -0.3988 C   0  0  1  0  0  0  0  0  0  0  0  0
   11.3025  -12.0495   10.1443 C   0  0  0  0  0  0  0  0  0  0  0  0
    9.8874  -12.2545   10.2624 C   0  0  0  0  0  0  0  0  0  0  0  0
    9.2097  -11.3359    9.3726 C   0  0  2  0  0  0  0  0  0  0  0  0
    7.6431  -11.5214    9.4519 C   0  0  0  0  0  0  0  0  0  0  0  0
   15.0435   -1.9952    7.1904 C   0  0  2  0  0  0  0  0  0  0  0  0
   15.1542   -3.8069    5.6876 C   0  0  0  0  0  0  0  0  0  0  0  0
   13.7249   -1.9759    7.6039 C   0  0  0  0  0  0  0  0  0  0  0  0
   15.4768   -3.2802    7.1715 C   0  0  1  0  0  0  0  0  0  0  0  0
    9.5133   -6.7947   -1.2976 C   0  0  0  0  0  0  0  0  0  0  0  0
    8.1207   -6.1953   -0.7744 C   0  0  0  0  0  0  0  0  0  0  0  0
    8.3050   -5.7917    0.7615 C   0  0  1  0  0  0  0  0  0  0  0  0
    7.0161   -5.2160    1.3604 C   0  0  0  0  0  0  0  0  0  0  0  0
   13.6786   -5.4622    4.4999 C   0  0  1  0  0  0  0  0  0  0  0  0
   12.7868   -4.3854    3.6806 C   0  0  0  0  0  0  0  0  0  0  0  0
   12.3096   -5.0107    2.3134 C   0  0  2  0  0  0  0  0  0  0  0  0
   15.8321   -1.1431    8.0516 F   0  0  0  0  0  0  0  0  0  0  0  0
    7.1099  -12.6265    8.4955 N   0  0  0  0  0  0  0  0  0  0  0  0
   11.1919   -8.6887   -0.8056 N   0  0  0  0  0  0  0  0  0  0  0  0
   11.6420  -13.6598    8.4495 N   0  0  0  0  0  0  0  0  0  0  0  0
   13.0889   -2.5478    8.7308 N   0  0  0  0  0  0  0  0  0  0  0  0
    5.9788   -6.1724    1.3466 N   0  0  0  0  0  0  0  0  0  0  0  0
   14.1259   -4.8470    5.7624 N   0  0  0  0  0  0  0  0  0  0  0  0
   11.4829   -4.0424    1.5595 N   0  0  0  0  0  0  0  0  0  0  0  0
   11.0799   -6.8001    1.3283 O   0  0  0  0  0  0  0  0  0  0  0  0
   11.3445   -8.5075    3.6113 O   0  0  0  0  0  0  0  0  0  0  0  0
   13.4201   -7.6454    5.5060 O   0  0  0  0  0  0  0  0  0  0  0  0
   10.1842   -9.1870    6.3458 O   0  0  0  0  0  0  0  0  0  0  0  0
   11.9045  -10.7946    3.7028 O   0  0  0  0  0  0  0  0  0  0  0  0
   10.6099  -12.8490    1.7954 O   0  0  0  0  0  0  0  0  0  0  0  0
   11.6169  -11.5288    6.4386 O   0  0  0  0  0  0  0  0  0  0  0  0
   16.8917   -3.4034    7.4342 O   0  0  0  0  0  0  0  0  0  0  0  0
   15.6906   -3.3767    4.6533 O   0  0  0  0  0  0  0  0  0  0  0  0
    9.6965  -11.5224    7.9548 O   0  0  0  0  0  0  0  0  0  0  0  0
    8.7116   -7.0133    1.5693 O   0  0  0  0  0  0  0  0  0  0  0  0
  1 36  1  6  0  0  0
  2 36  1  6  0  0  0
  2  3  1  0  0  0  0
  3 37  1  1  0  0  0
  3  4  1  0  0  0  0
  4 38  1  1  0  0  0
  5 37  1  6  0  0  0
  5  6  1  0  0  0  0
  6  7  1  0  0  0  0
  6 39  1  1  0  0  0
  7 42  1  1  0  0  0
  8  9  1  6  0  0  0
  8  7  1  0  0  0  0
 10 42  1  6  0  0  0
 10 11  1  0  0  0  0
 11 31  1  6  0  0  0
 11 13  1  0  0  0  0
 12 30  1  6  0  0  0
 12  1  1  0  0  0  0
 14 13  1  0  0  0  0
 15 16  1  6  0  0  0
 15 14  1  0  0  0  0
 17 19  1  1  0  0  0
 17 28  1  0  0  0  0
 18 34  1  0  0  0  0
 19 32  1  0  0  0  0
 20 18  1  6  0  0  0
 20 17  1  0  0  0  0
 20 43  1  0  0  0  0
 21 12  1  0  0  0  0
 22 21  1  0  0  0  0
 22 23  1  0  0  0  0
 23 24  1  1  0  0  0
 23 46  1  0  0  0  0
 24 33  1  0  0  0  0
 25 34  1  1  0  0  0
 25  4  1  0  0  0  0
 26 25  1  0  0  0  0
 27 35  1  1  0  0  0
 27 26  1  0  0  0  0
 27  2  1  0  0  0  0
 29 16  1  0  0  0  0
 40  8  1  0  0  0  0
 40  5  1  0  0  0  0
 41  9  1  0  0  0  0
 44 18  2  0  0  0  0
 45 15  1  0  0  0  0
 45 10  1  0  0  0  0
 46  1  1  0  0  0  0
M  END
>  <CHROM.1>
-178.87482730,79.72306087,-169.65712165,136.84711908,77.17428989,-173.98237736
140.71705706,-86.44247185,51.54737767,-113.44491197,90.35830127,62.52328111
172.44801324,11.41401118,-7.76564651,4.78517431,0.75262738,-0.94212066,-0.87692017

>  <Name>
lig.pdb

>  <RI>
0

>  <Rbt.Current_Directory>
/home/afrankz/demos/rdock_decoys_rna/rnas/3wru

>  <Rbt.Executable>
rbdock ($Id: //depot/dev/client3/rdock/2013.1/src/exe/rbdock.cxx#4 $)

>  <Rbt.Library>
libRbt.so (2013.1, Build901 2013/11/27)

>  <Rbt.Parameter_File>
/export/apps/rDock/src/rDock_2013.1_src/data/scripts/dock_solv.prm

>  <Rbt.Receptor>
prm/blind_docking_20.prm

>  <SCORE>
11.0662

>  <SCORE.INTER>
3.01795

>  <SCORE.INTER.CONST>
1

>  <SCORE.INTER.POLAR>
0

>  <SCORE.INTER.ROT>
13

>  <SCORE.INTER.SOLV>
45.9669

>  <SCORE.INTER.VDW>
-25.577

>  <SCORE.INTER.norm>
0.0656077

>  <SCORE.INTRA>
3.27346

>  <SCORE.INTRA.DIHEDRAL>
2.62347

>  <SCORE.INTRA.DIHEDRAL.0>
19.7146

>  <SCORE.INTRA.POLAR>
0

>  <SCORE.INTRA.POLAR.0>
0

>  <SCORE.INTRA.REPUL>
0

>  <SCORE.INTRA.REPUL.0>
0

>  <SCORE.INTRA.SOLV>
-0.00986161

>  <SCORE.INTRA.SOLV.lig_0>
-116.697

>  <SCORE.INTRA.VDW>
1.96666

>  <SCORE.INTRA.VDW.0>
-7.06424

>  <SCORE.INTRA.norm>
0.0711622

>  <SCORE.RESTR>
4.77479

>  <SCORE.RESTR.CAVITY>
4.77479

>  <SCORE.RESTR.norm>
0.1038

>  <SCORE.SYSTEM>
0

>  <SCORE.SYSTEM.CONST>
0

>  <SCORE.SYSTEM.DIHEDRAL>
0

>  <SCORE.SYSTEM.SOLV>
0

>  <SCORE.SYSTEM.norm>
0

>  <SCORE.heavy>
46

>  <SCORE.norm>
0.24057

>  <RMSD>
7.765

$$$$
lig.pdb
 OpenBabel03061811583D
libRbt.so/2013.1/901 2013/11/27
 46 49  0  0  0  0  0  0  0  0999 V2000
   10.2012  -16.7990   10.7073 C   0  0  1  0  0  0  0  0  0  0  0  0
   12.6749  -16.8541   10.1725 C   0  0  1  0  0  0  0  0  0  0  0  0
   12.7702  -15.4784    9.4457 C   0  0  1  0  0  0  0  0  0  0  0  0
   14.0509  -15.4954    8.4647 C   0  0  2  0  0  0  0  0  0  0  0  0
   11.1859  -14.3900    7.7895 C   0  0  2  0  0  0  0  0  0  0  0  0
    9.7668  -14.5809    7.1825 C   0  0  1  0  0  0  0  0  0  0  0  0
    9.5143  -13.1456    6.7887 C   0  0  1  0  0  0  0  0  0  0  0  0
    9.9550  -12.3095    8.0321 C   0  0  1  0  0  0  0  0  0  0  0  0
    8.9178  -12.1789    9.2021 C   0  0  0  0  0  0  0  0  0  0  0  0
   10.7563  -11.4990    5.4361 C   0  0  1  0  0  0  0  0  0  0  0  0
    9.9315  -10.6952    4.4756 C   0  0  1  0  0  0  0  0  0  0  0  0
    9.2888  -16.8519   11.9555 C   0  0  1  0  0  0  0  0  0  0  0  0
   10.5395   -9.2508    4.3848 C   0  0  0  0  0  0  0  0  0  0  0  0
   11.8964   -9.1982    3.9216 C   0  0  0  0  0  0  0  0  0  0  0  0
   12.7310   -9.9359    4.8459 C   0  0  2  0  0  0  0  0  0  0  0  0
   14.2408   -9.9215    4.3820 C   0  0  0  0  0  0  0  0  0  0  0  0
   19.3883  -16.1645    8.0792 C   0  0  2  0  0  0  0  0  0  0  0  0
   17.6431  -14.7768    8.8415 C   0  0  0  0  0  0  0  0  0  0  0  0
   20.1403  -16.5895    7.0003 C   0  0  0  0  0  0  0  0  0  0  0  0
   18.8360  -14.9625    7.7805 C   0  0  1  0  0  0  0  0  0  0  0  0
    9.3867  -18.2722   12.6771 C   0  0  0  0  0  0  0  0  0  0  0  0
    8.9708  -19.4024   11.6179 C   0  0  0  0  0  0  0  0  0  0  0  0
    9.9726  -19.3050   10.3758 C   0  0  1  0  0  0  0  0  0  0  0  0
    9.6474  -20.3437    9.2957 C   0  0  0  0  0  0  0  0  0  0  0  0
   15.3539  -15.6828    9.3579 C   0  0  1  0  0  0  0  0  0  0  0  0
   15.2093  -17.1332   10.0661 C   0  0  0  0  0  0  0  0  0  0  0  0
   13.9449  -17.1482   11.0089 C   0  0  2  0  0  0  0  0  0  0  0  0
   20.2182  -16.1294    9.2623 F   0  0  0  0  0  0  0  0  0  0  0  0
   15.1504  -10.8518    5.2348 N   0  0  0  0  0  0  0  0  0  0  0  0
    9.6806  -15.7183   12.8724 N   0  0  0  0  0  0  0  0  0  0  0  0
    9.9399  -11.1836    3.1660 N   0  0  0  0  0  0  0  0  0  0  0  0
   21.2922  -16.0417    6.3885 N   0  0  0  0  0  0  0  0  0  0  0  0
   10.5590  -20.2614    8.2218 N   0  0  0  0  0  0  0  0  0  0  0  0
   16.5513  -15.6904    8.4984 N   0  0  0  0  0  0  0  0  0  0  0  0
   13.7928  -18.4715   11.6532 N   0  0  0  0  0  0  0  0  0  0  0  0
   11.5788  -16.8627   11.0780 O   0  0  0  0  0  0  0  0  0  0  0  0
   11.4932  -15.3071    8.6758 O   0  0  0  0  0  0  0  0  0  0  0  0
   14.1132  -14.2718    7.8363 O   0  0  0  0  0  0  0  0  0  0  0  0
    9.8670  -15.4599    6.1034 O   0  0  0  0  0  0  0  0  0  0  0  0
   11.1882  -13.0038    8.2830 O   0  0  0  0  0  0  0  0  0  0  0  0
    9.5374  -11.3937   10.2402 O   0  0  0  0  0  0  0  0  0  0  0  0
   10.3521  -12.8097    5.5683 O   0  0  0  0  0  0  0  0  0  0  0  0
   19.7688  -13.8663    7.9010 O   0  0  0  0  0  0  0  0  0  0  0  0
   17.6685  -13.9898    9.8021 O   0  0  0  0  0  0  0  0  0  0  0  0
   12.2313  -11.3543    4.9876 O   0  0  0  0  0  0  0  0  0  0  0  0
    9.8909  -17.9194    9.7564 O   0  0  0  0  0  0  0  0  0  0  0  0
  1 36  1  1  0  0  0
  2 36  1  1  0  0  0
  2  3  1  0  0  0  0
  3 37  1  6  0  0  0
  3  4  1  0  0  0  0
  4 38  1  1  0  0  0
  5 37  1  1  0  0  0
  5  6  1  0  0  0  0
  6  7  1  0  0  0  0
  6 39  1  6  0  0  0
  7 42  1  6  0  0  0
  8  9  1  1  0  0  0
  8  7  1  0  0  0  0
 10 42  1  6  0  0  0
 10 11  1  0  0  0  0
 11 31  1  6  0  0  0
 11 13  1  0  0  0  0
 12 30  1  1  0  0  0
 12  1  1  0  0  0  0
 14 13  1  0  0  0  0
 15 16  1  6  0  0  0
 15 14  1  0  0  0  0
 17 19  1  6  0  0  0
 17 28  1  0  0  0  0
 18 34  1  0  0  0  0
 19 32  1  0  0  0  0
 20 18  1  1  0  0  0
 20 17  1  0  0  0  0
 20 43  1  0  0  0  0
 21 12  1  0  0  0  0
 22 21  1  0  0  0  0
 22 23  1  0  0  0  0
 23 24  1  6  0  0  0
 23 46  1  0  0  0  0
 24 33  1  0  0  0  0
 25 34  1  6  0  0  0
 25  4  1  0  0  0  0
 26 25  1  0  0  0  0
 27 35  1  6  0  0  0
 27 26  1  0  0  0  0
 27  2  1  0  0  0  0
 29 16  1  0  0  0  0
 40  8  1  0  0  0  0
 40  5  1  0  0  0  0
 41  9  1  0  0  0  0
 44 18  2  0  0  0  0
 45 15  1  0  0  0  0
 45 10  1  0  0  0  0
 46  1  1  0  0  0  0
M  END
>  <CHROM.1>
179.15408271,66.61916799,-170.81658478,178.34919917,-150.28910919,179.08442142
-100.30309164,-172.48709565,63.20528491,-71.97722887,162.32698621,-178.73734444
127.85941004,12.90739238,-14.75096095,8.23713884,3.09725575,0.07647625,-0.66702084

>  <Name>
lig.pdb

>  <RI>
0

>  <Rbt.Current_Directory>
/home/afrankz/demos/rdock_decoys_rna/rnas/3wru

>  <Rbt.Executable>
rbdock ($Id: //depot/dev/client3/rdock/2013.1/src/exe/rbdock.cxx#4 $)

>  <Rbt.Library>
libRbt.so (2013.1, Build901 2013/11/27)

>  <Rbt.Parameter_File>
/export/apps/rDock/src/rDock_2013.1_src/data/scripts/dock_solv.prm

>  <Rbt.Receptor>
prm/pocket_docking_5.prm

>  <SCORE>
-0.309564

>  <SCORE.INTER>
2.4228

>  <SCORE.INTER.CONST>
1

>  <SCORE.INTER.POLAR>
0

>  <SCORE.INTER.ROT>
13

>  <SCORE.INTER.SOLV>
21.698

>  <SCORE.INTER.VDW>
-17.8841

>  <SCORE.INTER.norm>
0.0526696

>  <SCORE.INTRA>
-2.73417

>  <SCORE.INTRA.DIHEDRAL>
-6.63842

>  <SCORE.INTRA.DIHEDRAL.0>
19.7146

>  <SCORE.INTRA.POLAR>
0

>  <SCORE.INTRA.POLAR.0>
0

>  <SCORE.INTRA.REPUL>
0.0120923

>  <SCORE.INTRA.REPUL.0>
0

>  <SCORE.INTRA.SOLV>
-2.70854

>  <SCORE.INTRA.SOLV.lig_0>
-116.697

>  <SCORE.INTRA.VDW>
1.87885

>  <SCORE.INTRA.VDW.0>
-7.06424

>  <SCORE.INTRA.norm>
-0.0594385

>  <SCORE.RESTR>
0.00180071

>  <SCORE.RESTR.CAVITY>
0.00180071

>  <SCORE.RESTR.norm>
3.91458e-05

>  <SCORE.SYSTEM>
0

>  <SCORE.SYSTEM.CONST>
0

>  <SCORE.SYSTEM.DIHEDRAL>
0

>  <SCORE.SYSTEM.SOLV>
0

>  <SCORE.SYSTEM.norm>
0

>  <SCORE.heavy>
46

>  <SCORE.norm>
-0.00672966

>  <RMSD>
7.765

$$$$
lig.pdb
 OpenBabel03061811583D
libRbt.so/2013.1/901 2013/11/27
 46 49  0  0  0  0  0  0  0  0999 V2000
    9.6180  -15.4259   11.2379 C   0  0  1  0  0  0  0  0  0  0  0  0
   12.1338  -15.1455   11.2322 C   0  0  1  0  0  0  0  0  0  0  0  0
   12.1807  -13.8128   10.4250 C   0  0  1  0  0  0  0  0  0  0  0  0
   13.6320  -13.6731    9.7343 C   0  0  2  0  0  0  0  0  0  0  0  0
   10.8986  -13.1334    8.3435 C   0  0  2  0  0  0  0  0  0  0  0  0
   11.1688  -13.8731    7.0024 C   0  0  1  0  0  0  0  0  0  0  0  0
   10.2851  -13.0281    6.1171 C   0  0  1  0  0  0  0  0  0  0  0  0
    8.9504  -12.8796    6.9143 C   0  0  1  0  0  0  0  0  0  0  0  0
    7.9290  -14.0664    6.8137 C   0  0  0  0  0  0  0  0  0  0  0  0
   10.3615  -10.8495    4.9631 C   0  0  1  0  0  0  0  0  0  0  0  0
   10.2752  -11.4301    3.5831 C   0  0  1  0  0  0  0  0  0  0  0  0
    8.5369  -15.9218   12.2271 C   0  0  1  0  0  0  0  0  0  0  0  0
    9.6416  -10.3560    2.6296 C   0  0  0  0  0  0  0  0  0  0  0  0
   10.3834   -9.1323    2.5263 C   0  0  0  0  0  0  0  0  0  0  0  0
   10.4575   -8.5227    3.8370 C   0  0  2  0  0  0  0  0  0  0  0  0
   11.2736   -7.1712    3.7885 C   0  0  0  0  0  0  0  0  0  0  0  0
   17.8580  -12.9341    8.2135 C   0  0  2  0  0  0  0  0  0  0  0  0
   16.5118  -14.4901    9.3621 C   0  0  0  0  0  0  0  0  0  0  0  0
   19.1129  -12.4782    7.8567 C   0  0  0  0  0  0  0  0  0  0  0  0
   17.9896  -14.1271    8.8448 C   0  0  1  0  0  0  0  0  0  0  0  0
    8.8438  -17.4112   12.7121 C   0  0  0  0  0  0  0  0  0  0  0  0
    8.9098  -18.3563   11.4180 C   0  0  0  0  0  0  0  0  0  0  0  0
   10.0643  -17.8008   10.4617 C   0  0  1  0  0  0  0  0  0  0  0  0
   10.1985  -18.6356    9.1825 C   0  0  0  0  0  0  0  0  0  0  0  0
   14.7230  -13.5990   10.8898 C   0  0  1  0  0  0  0  0  0  0  0  0
   14.6436  -15.0142   11.6752 C   0  0  0  0  0  0  0  0  0  0  0  0
   13.2209  -15.1848   12.3347 C   0  0  2  0  0  0  0  0  0  0  0  0
   17.0175  -13.0030    7.0394 F   0  0  0  0  0  0  0  0  0  0  0  0
   12.7338   -7.3575    3.2854 N   0  0  0  0  0  0  0  0  0  0  0  0
    8.4725  -14.9488   13.3797 N   0  0  0  0  0  0  0  0  0  0  0  0
   11.5134  -11.7445    3.0159 N   0  0  0  0  0  0  0  0  0  0  0  0
   20.2543  -12.1737    8.6352 N   0  0  0  0  0  0  0  0  0  0  0  0
   10.5641  -19.9655    9.4804 N   0  0  0  0  0  0  0  0  0  0  0  0
   16.0661  -13.4571   10.2996 N   0  0  0  0  0  0  0  0  0  0  0  0
   13.1295  -16.4794   13.0453 N   0  0  0  0  0  0  0  0  0  0  0  0
   10.8807  -15.2844   11.8895 O   0  0  0  0  0  0  0  0  0  0  0  0
   11.0904  -13.8921    9.3964 O   0  0  0  0  0  0  0  0  0  0  0  0
   13.6481  -12.4905    9.0292 O   0  0  0  0  0  0  0  0  0  0  0  0
   12.5303  -13.7721    6.7136 O   0  0  0  0  0  0  0  0  0  0  0  0
    9.5401  -12.5886    8.1923 O   0  0  0  0  0  0  0  0  0  0  0  0
    6.7700  -13.7032    7.5901 O   0  0  0  0  0  0  0  0  0  0  0  0
   10.9493  -11.6820    5.8905 O   0  0  0  0  0  0  0  0  0  0  0  0
   18.4720  -15.1758    7.9765 O   0  0  0  0  0  0  0  0  0  0  0  0
   15.8614  -15.4846    9.0006 O   0  0  0  0  0  0  0  0  0  0  0  0
   11.0742   -9.4815    4.8281 O   0  0  0  0  0  0  0  0  0  0  0  0
    9.7629  -16.3627   10.0729 O   0  0  0  0  0  0  0  0  0  0  0  0
  1 36  1  1  0  0  0
  2 36  1  1  0  0  0
  2  3  1  0  0  0  0
  3 37  1  6  0  0  0
  3  4  1  0  0  0  0
  4 38  1  1  0  0  0
  5 37  1  1  0  0  0
  5  6  1  0  0  0  0
  6  7  1  0  0  0  0
  6 39  1  6  0  0  0
  7 42  1  1  0  0  0
  8  9  1  1  0  0  0
  8  7  1  0  0  0  0
 10 42  1  1  0  0  0
 10 11  1  0  0  0  0
 11 31  1  6  0  0  0
 11 13  1  0  0  0  0
 12 30  1  1  0  0  0
 12  1  1  0  0  0  0
 14 13  1  0  0  0  0
 15 16  1  6  0  0  0
 15 14  1  0  0  0  0
 17 19  1  6  0  0  0
 17 28  1  0  0  0  0
 18 34  1  0  0  0  0
 19 32  1  0  0  0  0
 20 18  1  6  0  0  0
 20 17  1  0  0  0  0
 20 43  1  0  0  0  0
 21 12  1  0  0  0  0
 22 21  1  0  0  0  0
 22 23  1  0  0  0  0
 23 24  1  6  0  0  0
 23 46  1  0  0  0  0
 24 33  1  0  0  0  0
 25 34  1  6  0  0  0
 25  4  1  0  0  0  0
 26 25  1  0  0  0  0
 27 35  1  6  0  0  0
 27 26  1  0  0  0  0
 27  2  1  0  0  0  0
 29 16  1  0  0  0  0
 40  8  1  0  0  0  0
 40  5  1  0  0  0  0
 41  9  1  0  0  0  0
 44 18  2  0  0  0  0
 45 15  1  0  0  0  0
 45 10  1  0  0  0  0
 46  1  1  0  0  0  0
M  END
>  <CHROM.1>
164.98274546,64.67937926,-166.21483876,109.93903187,171.81128481,-178.54775528
-59.34356062,-59.47034739,-59.68838395,-61.41228398,173.80245886,-62.42525392
-57.54460793,12.19705877,-13.63425466,8.30436697,1.58124353,0.10064360,2.30568857

>  <Name>
lig.pdb

>  <RI>
0

>  <Rbt.Current_Directory>
/home/afrankz/demos/rdock_decoys_rna/rnas/3wru

>  <Rbt.Executable>
rbdock ($Id: //depot/dev/client3/rdock/2013.1/src/exe/rbdock.cxx#4 $)

>  <Rbt.Library>
libRbt.so (2013.1, Build901 2013/11/27)

>  <Rbt.Parameter_File>
/export/apps/rDock/src/rDock_2013.1_src/data/scripts/dock_solv.prm

>  <Rbt.Receptor>
prm/pocket_docking_4.prm

>  <SCORE>
-8.45174

>  <SCORE.INTER>
-5.76059

>  <SCORE.INTER.CONST>
1

>  <SCORE.INTER.POLAR>
0

>  <SCORE.INTER.ROT>
13

>  <SCORE.INTER.SOLV>
21.2458

>  <SCORE.INTER.VDW>
-23.189

>  <SCORE.INTER.norm>
-0.12523

>  <SCORE.INTRA>
-2.69115

>  <SCORE.INTRA.DIHEDRAL>
-9.40099

>  <SCORE.INTRA.DIHEDRAL.0>
19.7146

>  <SCORE.INTRA.POLAR>
0

>  <SCORE.INTRA.POLAR.0>
0

>  <SCORE.INTRA.REPUL>
0.0143183

>  <SCORE.INTRA.REPUL.0>
0

>  <SCORE.INTRA.SOLV>
-1.27316

>  <SCORE.INTRA.SOLV.lig_0>
-116.697

>  <SCORE.INTRA.VDW>
2.57433

>  <SCORE.INTRA.VDW.0>
-7.06424

>  <SCORE.INTRA.norm>
-0.0585033

>  <SCORE.RESTR>
0

>  <SCORE.RESTR.CAVITY>
0

>  <SCORE.RESTR.norm>
0

>  <SCORE.SYSTEM>
0

>  <SCORE.SYSTEM.CONST>
0

>  <SCORE.SYSTEM.DIHEDRAL>
0

>  <SCORE.SYSTEM.SOLV>
0

>  <SCORE.SYSTEM.norm>
0

>  <SCORE.heavy>
46

>  <SCORE.norm>
-0.183734

>  <RMSD>
7.767

$$$$
lig.pdb
 OpenBabel03061811583D
libRbt.so/2013.1/901 2013/11/27
 46 49  0  0  0  0  0  0  0  0999 V2000
    8.1798  -11.9479   10.1403 C   0  0  1  0  0  0  0  0  0  0  0  0
    9.0477  -12.5130    7.8304 C   0  0  1  0  0  0  0  0  0  0  0  0
    7.7006  -12.9349    7.1693 C   0  0  1  0  0  0  0  0  0  0  0  0
    8.0145  -13.9179    5.9291 C   0  0  2  0  0  0  0  0  0  0  0  0
    7.2127  -14.6933    8.9323 C   0  0  2  0  0  0  0  0  0  0  0  0
    5.9840  -15.3559    9.6178 C   0  0  1  0  0  0  0  0  0  0  0  0
    6.5403  -16.7544    9.7348 C   0  0  1  0  0  0  0  0  0  0  0  0
    7.1722  -17.0484    8.3372 C   0  0  1  0  0  0  0  0  0  0  0  0
    6.1964  -17.5232    7.2039 C   0  0  0  0  0  0  0  0  0  0  0  0
    7.1213  -16.8324   12.1306 C   0  0  1  0  0  0  0  0  0  0  0  0
    8.1970  -16.7576   13.1729 C   0  0  1  0  0  0  0  0  0  0  0  0
    7.8549  -10.6764   10.9595 C   0  0  1  0  0  0  0  0  0  0  0  0
    7.5288  -16.8823   14.5879 C   0  0  0  0  0  0  0  0  0  0  0  0
    6.8127  -18.1059   14.8083 C   0  0  0  0  0  0  0  0  0  0  0  0
    5.7405  -18.1967   13.8403 C   0  0  2  0  0  0  0  0  0  0  0  0
    4.9190  -19.5327   14.0278 C   0  0  0  0  0  0  0  0  0  0  0  0
    8.9699  -16.6623    2.3634 C   0  0  2  0  0  0  0  0  0  0  0  0
    9.9244  -15.1941    3.9402 C   0  0  0  0  0  0  0  0  0  0  0  0
    8.9341  -17.1313    1.0639 C   0  0  0  0  0  0  0  0  0  0  0  0
   10.1217  -15.9702    2.5467 C   0  0  1  0  0  0  0  0  0  0  0  0
    9.1910   -9.9493   11.4430 C   0  0  0  0  0  0  0  0  0  0  0  0
   10.0397  -10.9909   12.3188 C   0  0  0  0  0  0  0  0  0  0  0  0
   10.3614  -12.2588   11.3996 C   0  0  1  0  0  0  0  0  0  0  0  0
   11.1648  -13.3241   12.1553 C   0  0  0  0  0  0  0  0  0  0  0  0
    8.8661  -13.1052    4.8590 C   0  0  1  0  0  0  0  0  0  0  0  0
   10.2577  -12.7164    5.5928 C   0  0  0  0  0  0  0  0  0  0  0  0
    9.9712  -11.7779    6.8277 C   0  0  2  0  0  0  0  0  0  0  0  0
    8.8213  -17.7697    3.2806 F   0  0  0  0  0  0  0  0  0  0  0  0
    3.7481  -19.6768   13.0137 N   0  0  0  0  0  0  0  0  0  0  0  0
    6.9921   -9.7765   10.1080 N   0  0  0  0  0  0  0  0  0  0  0  0
    9.1282  -17.7980   13.1100 N   0  0  0  0  0  0  0  0  0  0  0  0
    9.8429  -17.9315    0.3323 N   0  0  0  0  0  0  0  0  0  0  0  0
   11.4985  -14.4029   11.3092 N   0  0  0  0  0  0  0  0  0  0  0  0
    9.1637  -13.9660    3.7002 N   0  0  0  0  0  0  0  0  0  0  0  0
   11.2327  -11.4246    7.5156 N   0  0  0  0  0  0  0  0  0  0  0  0
    8.8130  -11.6123    8.9052 O   0  0  0  0  0  0  0  0  0  0  0  0
    6.8981  -13.6309    8.2298 O   0  0  0  0  0  0  0  0  0  0  0  0
    6.8112  -14.2751    5.3630 O   0  0  0  0  0  0  0  0  0  0  0  0
    5.7713  -14.7217   10.8425 O   0  0  0  0  0  0  0  0  0  0  0  0
    7.8450  -15.7881    8.1795 O   0  0  0  0  0  0  0  0  0  0  0  0
    5.6065  -18.7653    7.6370 O   0  0  0  0  0  0  0  0  0  0  0  0
    7.5863  -16.7834   10.8344 O   0  0  0  0  0  0  0  0  0  0  0  0
   11.2861  -16.8212    2.6247 O   0  0  0  0  0  0  0  0  0  0  0  0
   10.3439  -15.5962    5.0380 O   0  0  0  0  0  0  0  0  0  0  0  0
    6.2907  -18.1029   12.4366 O   0  0  0  0  0  0  0  0  0  0  0  0
    9.0643  -12.8840   10.9131 O   0  0  0  0  0  0  0  0  0  0  0  0
  1 36  1  6  0  0  0
  2 36  1  1  0  0  0
  2  3  1  0  0  0  0
  3 37  1  1  0  0  0
  3  4  1  0  0  0  0
  4 38  1  6  0  0  0
  5 37  1  6  0  0  0
  5  6  1  0  0  0  0
  6  7  1  0  0  0  0
  6 39  1  1  0  0  0
  7 42  1  1  0  0  0
  8  9  1  6  0  0  0
  8  7  1  0  0  0  0
 10 42  1  6  0  0  0
 10 11  1  0  0  0  0
 11 31  1  6  0  0  0
 11 13  1  0  0  0  0
 12 30  1  6  0  0  0
 12  1  1  0  0  0  0
 14 13  1  0  0  0  0
 15 16  1  6  0  0  0
 15 14  1  0  0  0  0
 17 19  1  6  0  0  0
 17 28  1  0  0  0  0
 18 34  1  0  0  0  0
 19 32  1  0  0  0  0
 20 18  1  1  0  0  0
 20 17  1  0  0  0  0
 20 43  1  0  0  0  0
 21 12  1  0  0  0  0
 22 21  1  0  0  0  0
 22 23  1  0  0  0  0
 23 24  1  1  0  0  0
 23 46  1  0  0  0  0
 24 33  1  0  0  0  0
 25 34  1  6  0  0  0
 25  4  1  0  0  0  0
 26 25  1  0  0  0  0
 27 35  1  1  0  0  0
 27 26  1  0  0  0  0
 27  2  1  0  0  0  0
 29 16  1  0  0  0  0
 40  8  1  0  0  0  0
 40  5  1  0  0  0  0
 41  9  1  0  0  0  0
 44 18  2  0  0  0  0
 45 15  1  0  0  0  0
 45 10  1  0  0  0  0
 46  1  1  0  0  0  0
M  END
>  <CHROM.1>
-169.31298304,68.35279396,-58.05858483,-162.97333001,78.66313766,-61.45439013
-175.74410664,179.74535410,55.68855538,-82.44881608,167.44384295,-176.94621511
-59.84101120,8.22486371,-15.05458797,8.57885496,-2.17107518,-1.13596852,-2.05516024

>  <Name>
lig.pdb

>  <RI>
0

>  <Rbt.Current_Directory>
/home/afrankz/demos/rdock_decoys_rna/rnas/3wru

>  <Rbt.Executable>
rbdock ($Id: //depot/dev/client3/rdock/2013.1/src/exe/rbdock.cxx#4 $)

>  <Rbt.Library>
libRbt.so (2013.1, Build901 2013/11/27)

>  <Rbt.Parameter_File>
/export/apps/rDock/src/rDock_2013.1_src/data/scripts/dock_solv.prm

>  <Rbt.Receptor>
prm/pocket_docking_7.prm

>  <SCORE>
-5.55105

>  <SCORE.INTER>
0.760941

>  <SCORE.INTER.CONST>
1

>  <SCORE.INTER.POLAR>
0

>  <SCORE.INTER.ROT>
13

>  <SCORE.INTER.SOLV>
22.8387

>  <SCORE.INTER.VDW>
-19.3723

>  <SCORE.INTER.norm>
0.0165422

>  <SCORE.INTRA>
-6.312

>  <SCORE.INTRA.DIHEDRAL>
-13.6399

>  <SCORE.INTRA.DIHEDRAL.0>
19.7146

>  <SCORE.INTRA.POLAR>
0

>  <SCORE.INTRA.POLAR.0>
0

>  <SCORE.INTRA.REPUL>
0

>  <SCORE.INTRA.REPUL.0>
0

>  <SCORE.INTRA.SOLV>
-1.24243

>  <SCORE.INTRA.SOLV.lig_0>
-116.697

>  <SCORE.INTRA.VDW>
1.12916

>  <SCORE.INTRA.VDW.0>
-7.06424

>  <SCORE.INTRA.norm>
-0.137217

>  <SCORE.RESTR>
0

>  <SCORE.RESTR.CAVITY>
0

>  <SCORE.RESTR.norm>
0

>  <SCORE.SYSTEM>
0

>  <SCORE.SYSTEM.CONST>
0

>  <SCORE.SYSTEM.DIHEDRAL>
0

>  <SCORE.SYSTEM.SOLV>
0

>  <SCORE.SYSTEM.norm>
0

>  <SCORE.heavy>
46

>  <SCORE.norm>
-0.120675

>  <RMSD>
7.771

$$$$
lig.pdb
 OpenBabel03061811583D
libRbt.so/2013.1/901 2013/11/27
 46 49  0  0  0  0  0  0  0  0999 V2000
    5.5752  -12.4073   11.7622 C   0  0  1  0  0  0  0  0  0  0  0  0
    8.0097  -12.0657   11.1586 C   0  0  1  0  0  0  0  0  0  0  0  0
    7.8801  -12.1350    9.6067 C   0  0  1  0  0  0  0  0  0  0  0  0
    9.3035  -12.5699    8.9842 C   0  0  2  0  0  0  0  0  0  0  0  0
    6.8555  -14.4526    9.4761 C   0  0  2  0  0  0  0  0  0  0  0  0
    5.5113  -15.1516    9.1255 C   0  0  1  0  0  0  0  0  0  0  0  0
    6.0657  -16.5179    8.8017 C   0  0  1  0  0  0  0  0  0  0  0  0
    7.3033  -16.2385    7.8910 C   0  0  1  0  0  0  0  0  0  0  0  0
    7.0202  -15.9845    6.3688 C   0  0  0  0  0  0  0  0  0  0  0  0
    5.4494  -17.6915   10.8818 C   0  0  1  0  0  0  0  0  0  0  0  0
    5.9094  -18.3248   12.1609 C   0  0  1  0  0  0  0  0  0  0  0  0
    4.4384  -11.6241   12.4605 C   0  0  1  0  0  0  0  0  0  0  0  0
    4.6528  -18.8752   12.9241 C   0  0  0  0  0  0  0  0  0  0  0  0
    3.9025  -19.8671   12.2088 C   0  0  0  0  0  0  0  0  0  0  0  0
    3.4104  -19.2801   10.9807 C   0  0  2  0  0  0  0  0  0  0  0  0
    2.5811  -20.3311   10.1425 C   0  0  0  0  0  0  0  0  0  0  0  0
   13.8362  -11.0339    6.0263 C   0  0  2  0  0  0  0  0  0  0  0  0
   11.9599  -11.4023    7.4036 C   0  0  0  0  0  0  0  0  0  0  0  0
   15.1664  -11.2735    5.7381 C   0  0  0  0  0  0  0  0  0  0  0  0
   13.4425  -11.8815    7.0092 C   0  0  1  0  0  0  0  0  0  0  0  0
    4.7487  -11.4265   14.0137 C   0  0  0  0  0  0  0  0  0  0  0  0
    4.9340  -12.8754   14.6761 C   0  0  0  0  0  0  0  0  0  0  0  0
    6.1401  -13.6087   13.9254 C   0  0  1  0  0  0  0  0  0  0  0  0
    6.3894  -15.0156   14.4821 C   0  0  0  0  0  0  0  0  0  0  0  0
   10.3663  -11.4438    9.3495 C   0  0  1  0  0  0  0  0  0  0  0  0
   10.4751  -11.4353   10.9663 C   0  0  0  0  0  0  0  0  0  0  0  0
    9.0845  -11.0404   11.5974 C   0  0  2  0  0  0  0  0  0  0  0  0
   13.0503  -11.1603    4.8196 F   0  0  0  0  0  0  0  0  0  0  0  0
    3.4250  -21.5602    9.6982 N   0  0  0  0  0  0  0  0  0  0  0  0
    4.2642  -10.3078   11.7419 N   0  0  0  0  0  0  0  0  0  0  0  0
    6.7481  -19.4287   11.9838 N   0  0  0  0  0  0  0  0  0  0  0  0
   16.3277  -11.1918    6.5420 N   0  0  0  0  0  0  0  0  0  0  0  0
    5.2406  -15.8243   14.3506 N   0  0  0  0  0  0  0  0  0  0  0  0
   11.6816  -11.7974    8.7860 N   0  0  0  0  0  0  0  0  0  0  0  0
    9.1655  -11.0408   13.0748 N   0  0  0  0  0  0  0  0  0  0  0  0
    6.7828  -11.6455   11.7413 O   0  0  0  0  0  0  0  0  0  0  0  0
    6.8178  -13.1522    9.3069 O   0  0  0  0  0  0  0  0  0  0  0  0
    9.1631  -12.6233    7.6154 O   0  0  0  0  0  0  0  0  0  0  0  0
    4.6938  -15.1203   10.2559 O   0  0  0  0  0  0  0  0  0  0  0  0
    7.8595  -15.1686    8.6732 O   0  0  0  0  0  0  0  0  0  0  0  0
    6.1502  -14.8385    6.2787 O   0  0  0  0  0  0  0  0  0  0  0  0
    6.4699  -17.2092   10.0913 O   0  0  0  0  0  0  0  0  0  0  0  0
   13.4107  -13.2620    6.5858 O   0  0  0  0  0  0  0  0  0  0  0  0
   11.1935  -10.7827    6.6478 O   0  0  0  0  0  0  0  0  0  0  0  0
    4.5571  -18.7334   10.1634 O   0  0  0  0  0  0  0  0  0  0  0  0
    5.8296  -13.7222   12.4419 O   0  0  0  0  0  0  0  0  0  0  0  0
  1 36  1  1  0  0  0
  2 36  1  1  0  0  0
  2  3  1  0  0  0  0
  3 37  1  1  0  0  0
  3  4  1  0  0  0  0
  4 38  1  6  0  0  0
  5 37  1  6  0  0  0
  5  6  1  0  0  0  0
  6  7  1  0  0  0  0
  6 39  1  1  0  0  0
  7 42  1  1  0  0  0
  8  9  1  6  0  0  0
  8  7  1  0  0  0  0
 10 42  1  6  0  0  0
 10 11  1  0  0  0  0
 11 31  1  6  0  0  0
 11 13  1  0  0  0  0
 12 30  1  6  0  0  0
 12  1  1  0  0  0  0
 14 13  1  0  0  0  0
 15 16  1  6  0  0  0
 15 14  1  0  0  0  0
 17 19  1  6  0  0  0
 17 28  1  0  0  0  0
 18 34  1  0  0  0  0
 19 32  1  0  0  0  0
 20 18  1  6  0  0  0
 20 17  1  0  0  0  0
 20 43  1  0  0  0  0
 21 12  1  0  0  0  0
 22 21  1  0  0  0  0
 22 23  1  0  0  0  0
 23 24  1  1  0  0  0
 23 46  1  0  0  0  0
 24 33  1  0  0  0  0
 25 34  1  6  0  0  0
 25  4  1  0  0  0  0
 26 25  1  0  0  0  0
 27 35  1  1  0  0  0
 27 26  1  0  0  0  0
 27  2  1  0  0  0  0
 29 16  1  0  0  0  0
 40  8  1  0  0  0  0
 40  5  1  0  0  0  0
 41  9  1  0  0  0  0
 44 18  2  0  0  0  0
 45 15  1  0  0  0  0
 45 10  1  0  0  0  0
 46  1  1  0  0  0  0
M  END
>  <CHROM.1>
-179.07208757,68.39253464,-69.07961002,176.35221000,74.49463803,59.33776861
-178.17630820,-61.97285195,-60.39806841,-154.39782911,172.84982525,59.32370492
86.10922284,7.70514901,-14.22012097,9.95547486,2.92547328,-0.72677097,-2.54014559

>  <Name>
lig.pdb

>  <RI>
0

>  <Rbt.Current_Directory>
/home/afrankz/demos/rdock_decoys_rna/rnas/3wru

>  <Rbt.Executable>
rbdock ($Id: //depot/dev/client3/rdock/2013.1/src/exe/rbdock.cxx#4 $)

>  <Rbt.Library>
libRbt.so (2013.1, Build901 2013/11/27)

>  <Rbt.Parameter_File>
/export/apps/rDock/src/rDock_2013.1_src/data/scripts/dock_solv.prm

>  <Rbt.Receptor>
prm/pocket_docking_8.prm

>  <SCORE>
-4.44858

>  <SCORE.INTER>
1.25197

>  <SCORE.INTER.CONST>
1

>  <SCORE.INTER.POLAR>
0

>  <SCORE.INTER.ROT>
13

>  <SCORE.INTER.SOLV>
20.8579

>  <SCORE.INTER.VDW>
-18.3847

>  <SCORE.INTER.norm>
0.0272168

>  <SCORE.INTRA>
-5.70055

>  <SCORE.INTRA.DIHEDRAL>
-15.5823

>  <SCORE.INTRA.DIHEDRAL.0>
19.7146

>  <SCORE.INTRA.POLAR>
0

>  <SCORE.INTRA.POLAR.0>
0

>  <SCORE.INTRA.REPUL>
0

>  <SCORE.INTRA.REPUL.0>
0

>  <SCORE.INTRA.SOLV>
2.38633

>  <SCORE.INTRA.SOLV.lig_0>
-116.697

>  <SCORE.INTRA.VDW>
0.89741

>  <SCORE.INTRA.VDW.0>
-7.06424

>  <SCORE.INTRA.norm>
-0.123925

>  <SCORE.RESTR>
0

>  <SCORE.RESTR.CAVITY>
0

>  <SCORE.RESTR.norm>
0

>  <SCORE.SYSTEM>
0

>  <SCORE.SYSTEM.CONST>
0

>  <SCORE.SYSTEM.DIHEDRAL>
0

>  <SCORE.SYSTEM.SOLV>
0

>  <SCORE.SYSTEM.norm>
0

>  <SCORE.heavy>
46

>  <SCORE.norm>
-0.0967082

>  <RMSD>
7.776

$$$$
lig.pdb
 OpenBabel03061811583D
libRbt.so/2013.1/901 2013/11/27
 46 49  0  0  0  0  0  0  0  0999 V2000
    7.2968  -13.9513   11.7981 C   0  0  1  0  0  0  0  0  0  0  0  0
    9.8271  -14.0048   11.8486 C   0  0  1  0  0  0  0  0  0  0  0  0
   10.1041  -13.4200   10.4305 C   0  0  1  0  0  0  0  0  0  0  0  0
   11.5630  -13.9064    9.9426 C   0  0  2  0  0  0  0  0  0  0  0  0
    8.7436  -13.5932    8.2958 C   0  0  2  0  0  0  0  0  0  0  0  0
    9.0911  -14.6973    7.2571 C   0  0  1  0  0  0  0  0  0  0  0  0
    8.1148  -14.2858    6.1818 C   0  0  1  0  0  0  0  0  0  0  0  0
    6.7745  -14.0269    6.9406 C   0  0  1  0  0  0  0  0  0  0  0  0
    5.8931  -15.2823    7.2708 C   0  0  0  0  0  0  0  0  0  0  0  0
    9.7732  -13.1444    4.7569 C   0  0  1  0  0  0  0  0  0  0  0  0
   10.1311  -11.9132    3.9792 C   0  0  1  0  0  0  0  0  0  0  0  0
    6.1435  -13.2240   12.5291 C   0  0  1  0  0  0  0  0  0  0  0  0
   11.4214  -12.2136    3.1370 C   0  0  0  0  0  0  0  0  0  0  0  0
   11.2859  -13.2845    2.1918 C   0  0  0  0  0  0  0  0  0  0  0  0
   10.9744  -14.5014    2.9110 C   0  0  2  0  0  0  0  0  0  0  0  0
   10.8036  -15.7185    1.9189 C   0  0  0  0  0  0  0  0  0  0  0  0
   15.8588  -14.8289    8.6754 C   0  0  2  0  0  0  0  0  0  0  0  0
   14.6327  -12.9714    9.4495 C   0  0  0  0  0  0  0  0  0  0  0  0
   17.0066  -15.2820    8.0530 C   0  0  0  0  0  0  0  0  0  0  0  0
   16.0906  -13.5872    9.1693 C   0  0  1  0  0  0  0  0  0  0  0  0
    6.0395  -13.6983   14.0496 C   0  0  0  0  0  0  0  0  0  0  0  0
    5.8134  -15.2860   14.0651 C   0  0  0  0  0  0  0  0  0  0  0  0
    7.0544  -15.9667   13.3217 C   0  0  1  0  0  0  0  0  0  0  0  0
    6.9247  -17.4939   13.2732 C   0  0  0  0  0  0  0  0  0  0  0  0
   12.6427  -13.3142   10.9496 C   0  0  1  0  0  0  0  0  0  0  0  0
   12.3198  -13.9734   12.3943 C   0  0  0  0  0  0  0  0  0  0  0  0
   10.8843  -13.5338   12.8779 C   0  0  2  0  0  0  0  0  0  0  0  0
   15.4532  -15.7761    9.6892 F   0  0  0  0  0  0  0  0  0  0  0  0
   10.4895  -17.0582    2.6445 N   0  0  0  0  0  0  0  0  0  0  0  0
    6.3756  -11.7369   12.4103 N   0  0  0  0  0  0  0  0  0  0  0  0
    9.1641  -11.5227    3.0486 N   0  0  0  0  0  0  0  0  0  0  0  0
   18.2806  -15.6175    8.5685 N   0  0  0  0  0  0  0  0  0  0  0  0
    5.8052  -17.8840   12.5078 N   0  0  0  0  0  0  0  0  0  0  0  0
   13.9946  -13.7256   10.5305 N   0  0  0  0  0  0  0  0  0  0  0  0
   10.5704  -14.1389   14.1912 N   0  0  0  0  0  0  0  0  0  0  0  0
    8.5641  -13.5636   12.3299 O   0  0  0  0  0  0  0  0  0  0  0  0
    9.0233  -13.9419    9.5292 O   0  0  0  0  0  0  0  0  0  0  0  0
   11.7836  -13.3775    8.6905 O   0  0  0  0  0  0  0  0  0  0  0  0
   10.4315  -14.5530    6.8969 O   0  0  0  0  0  0  0  0  0  0  0  0
    7.3319  -13.2741    8.0307 O   0  0  0  0  0  0  0  0  0  0  0  0
    5.5048  -15.8771    6.0164 O   0  0  0  0  0  0  0  0  0  0  0  0
    8.6222  -13.0254    5.5049 O   0  0  0  0  0  0  0  0  0  0  0  0
   16.8565  -13.6000   10.3938 O   0  0  0  0  0  0  0  0  0  0  0  0
   14.1484  -12.0000    8.8458 O   0  0  0  0  0  0  0  0  0  0  0  0
    9.7282  -14.3148    3.7440 O   0  0  0  0  0  0  0  0  0  0  0  0
    7.1518  -15.4429   11.8982 O   0  0  0  0  0  0  0  0  0  0  0  0
  1 36  1  1  0  0  0
  2 36  1  1  0  0  0
  2  3  1  0  0  0  0
  3 37  1  6  0  0  0
  3  4  1  0  0  0  0
  4 38  1  6  0  0  0
  5 37  1  1  0  0  0
  5  6  1  0  0  0  0
  6  7  1  0  0  0  0
  6 39  1  6  0  0  0
  7 42  1  1  0  0  0
  8  9  1  1  0  0  0
  8  7  1  0  0  0  0
 10 42  1  6  0  0  0
 10 11  1  0  0  0  0
 11 31  1  6  0  0  0
 11 13  1  0  0  0  0
 12 30  1  1  0  0  0
 12  1  1  0  0  0  0
 14 13  1  0  0  0  0
 15 16  1  6  0  0  0
 15 14  1  0  0  0  0
 17 19  1  1  0  0  0
 17 28  1  0  0  0  0
 18 34  1  0  0  0  0
 19 32  1  0  0  0  0
 20 18  1  1  0  0  0
 20 17  1  0  0  0  0
 20 43  1  0  0  0  0
 21 12  1  0  0  0  0
 22 21  1  0  0  0  0
 22 23  1  0  0  0  0
 23 24  1  6  0  0  0
 23 46  1  0  0  0  0
 24 33  1  0  0  0  0
 25 34  1  6  0  0  0
 25  4  1  0  0  0  0
 26 25  1  0  0  0  0
 27 35  1  1  0  0  0
 27 26  1  0  0  0  0
 27  2  1  0  0  0  0
 29 16  1  0  0  0  0
 40  8  1  0  0  0  0
 40  5  1  0  0  0  0
 41  9  1  0  0  0  0
 44 18  2  0  0  0  0
 45 15  1  0  0  0  0
 45 10  1  0  0  0  0
 46  1  1  0  0  0  0
M  END
>  <CHROM.1>
-177.36417556,68.41756147,170.59437023,109.70456815,67.38932544,-62.38498837
172.87290389,179.08432782,66.53782945,66.64345413,162.90801805,63.96470426
80.49400477,10.29126022,-14.17864853,8.75064043,2.19715198,0.04710611,1.62749137

>  <Name>
lig.pdb

>  <RI>
0

>  <Rbt.Current_Directory>
/home/afrankz/demos/rdock_decoys_rna/rnas/3wru

>  <Rbt.Executable>
rbdock ($Id: //depot/dev/client3/rdock/2013.1/src/exe/rbdock.cxx#4 $)

>  <Rbt.Library>
libRbt.so (2013.1, Build901 2013/11/27)

>  <Rbt.Parameter_File>
/export/apps/rDock/src/rDock_2013.1_src/data/scripts/dock_solv.prm

>  <Rbt.Receptor>
prm/pocket_docking_6.prm

>  <SCORE>
-3.00524

>  <SCORE.INTER>
-0.397293

>  <SCORE.INTER.CONST>
1

>  <SCORE.INTER.POLAR>
0

>  <SCORE.INTER.ROT>
13

>  <SCORE.INTER.SOLV>
21.753

>  <SCORE.INTER.VDW>
-19.7825

>  <SCORE.INTER.norm>
-0.00863681

>  <SCORE.INTRA>
-2.61006

>  <SCORE.INTRA.DIHEDRAL>
-9.16957

>  <SCORE.INTRA.DIHEDRAL.0>
19.7146

>  <SCORE.INTRA.POLAR>
0

>  <SCORE.INTRA.POLAR.0>
0

>  <SCORE.INTRA.REPUL>
0

>  <SCORE.INTRA.REPUL.0>
0

>  <SCORE.INTRA.SOLV>
-0.575589

>  <SCORE.INTRA.SOLV.lig_0>
-116.697

>  <SCORE.INTRA.VDW>
2.26252

>  <SCORE.INTRA.VDW.0>
-7.06424

>  <SCORE.INTRA.norm>
-0.0567404

>  <SCORE.RESTR>
0.00211132

>  <SCORE.RESTR.CAVITY>
0.00211132

>  <SCORE.RESTR.norm>
4.58984e-05

>  <SCORE.SYSTEM>
0

>  <SCORE.SYSTEM.CONST>
0

>  <SCORE.SYSTEM.DIHEDRAL>
0

>  <SCORE.SYSTEM.SOLV>
0

>  <SCORE.SYSTEM.norm>
0

>  <SCORE.heavy>
46

>  <SCORE.norm>
-0.0653313

>  <RMSD>
7.783

$$$$
lig.pdb
 OpenBabel03061811583D
libRbt.so/2013.1/901 2013/11/27
 46 49  0  0  0  0  0  0  0  0999 V2000
   15.6334  -14.5335    8.4950 C   0  0  1  0  0  0  0  0  0  0  0  0
   14.8883  -12.9169    6.6952 C   0  0  1  0  0  0  0  0  0  0  0  0
   13.3596  -12.9096    6.9995 C   0  0  1  0  0  0  0  0  0  0  0  0
   12.5646  -12.4798    5.6630 C   0  0  2  0  0  0  0  0  0  0  0  0
   11.8134  -14.7937    7.7048 C   0  0  2  0  0  0  0  0  0  0  0  0
   11.8784  -16.1846    8.3975 C   0  0  1  0  0  0  0  0  0  0  0  0
   10.5484  -16.1248    9.1092 C   0  0  1  0  0  0  0  0  0  0  0  0
   10.5046  -14.7010    9.7495 C   0  0  1  0  0  0  0  0  0  0  0  0
   11.2526  -14.5152   11.1161 C   0  0  0  0  0  0  0  0  0  0  0  0
    9.3128  -15.3470    7.1213 C   0  0  1  0  0  0  0  0  0  0  0  0
    7.8966  -14.9849    6.7863 C   0  0  1  0  0  0  0  0  0  0  0  0
   16.4608  -14.5017    9.8018 C   0  0  1  0  0  0  0  0  0  0  0  0
    7.9142  -13.9243    5.6291 C   0  0  0  0  0  0  0  0  0  0  0  0
    8.5336  -14.3709    4.4144 C   0  0  0  0  0  0  0  0  0  0  0  0
    9.9164  -14.6968    4.6914 C   0  0  2  0  0  0  0  0  0  0  0  0
   10.6509  -15.2054    3.3888 C   0  0  0  0  0  0  0  0  0  0  0  0
   10.3089   -8.0022    2.8185 C   0  0  2  0  0  0  0  0  0  0  0  0
   11.1255   -9.6947    4.2403 C   0  0  0  0  0  0  0  0  0  0  0  0
   11.5062   -7.3627    2.5586 C   0  0  0  0  0  0  0  0  0  0  0  0
   10.5153   -9.3424    2.7957 C   0  0  1  0  0  0  0  0  0  0  0  0
   18.0082  -14.2593    9.4945 C   0  0  0  0  0  0  0  0  0  0  0  0
   18.5166  -15.4319    8.5257 C   0  0  0  0  0  0  0  0  0  0  0  0
   17.6385  -15.3823    7.1907 C   0  0  1  0  0  0  0  0  0  0  0  0
   18.0427  -16.4798    6.1989 C   0  0  0  0  0  0  0  0  0  0  0  0
   13.0074  -11.0005    5.2800 C   0  0  1  0  0  0  0  0  0  0  0  0
   14.5927  -11.0758    4.9529 C   0  0  0  0  0  0  0  0  0  0  0  0
   15.3874  -11.5231    6.2399 C   0  0  2  0  0  0  0  0  0  0  0  0
    9.3118   -7.5654    1.8674 F   0  0  0  0  0  0  0  0  0  0  0  0
   10.8970  -14.0769    2.3466 N   0  0  0  0  0  0  0  0  0  0  0  0
   15.8831  -13.4327   10.6979 N   0  0  0  0  0  0  0  0  0  0  0  0
    7.1330  -16.0501    6.3009 N   0  0  0  0  0  0  0  0  0  0  0  0
   11.8204   -5.9924    2.4011 N   0  0  0  0  0  0  0  0  0  0  0  0
   17.7667  -17.7615    6.7204 N   0  0  0  0  0  0  0  0  0  0  0  0
   12.2918  -10.5634    4.0679 N   0  0  0  0  0  0  0  0  0  0  0  0
   16.8364  -11.6085    5.9525 N   0  0  0  0  0  0  0  0  0  0  0  0
   15.6259  -13.2528    7.8634 O   0  0  0  0  0  0  0  0  0  0  0  0
   12.9977  -14.3019    7.4277 O   0  0  0  0  0  0  0  0  0  0  0  0
   11.2195  -12.4805    5.9575 O   0  0  0  0  0  0  0  0  0  0  0  0
   11.9522  -17.1641    7.4064 O   0  0  0  0  0  0  0  0  0  0  0  0
   10.9811  -13.9774    8.6027 O   0  0  0  0  0  0  0  0  0  0  0  0
   10.6514  -15.4216   12.0621 O   0  0  0  0  0  0  0  0  0  0  0  0
    9.4334  -16.3129    8.0965 O   0  0  0  0  0  0  0  0  0  0  0  0
    9.3025  -10.0975    2.5829 O   0  0  0  0  0  0  0  0  0  0  0  0
   10.6751   -9.2745    5.3188 O   0  0  0  0  0  0  0  0  0  0  0  0
   10.0025  -15.7309    5.7891 O   0  0  0  0  0  0  0  0  0  0  0  0
   16.1685  -15.5572    7.5349 O   0  0  0  0  0  0  0  0  0  0  0  0
  1 36  1  6  0  0  0
  2 36  1  1  0  0  0
  2  3  1  0  0  0  0
  3 37  1  6  0  0  0
  3  4  1  0  0  0  0
  4 38  1  1  0  0  0
  5 37  1  1  0  0  0
  5  6  1  0  0  0  0
  6  7  1  0  0  0  0
  6 39  1  6  0  0  0
  7 42  1  6  0  0  0
  8  9  1  1  0  0  0
  8  7  1  0  0  0  0
 10 42  1  1  0  0  0
 10 11  1  0  0  0  0
 11 31  1  6  0  0  0
 11 13  1  0  0  0  0
 12 30  1  1  0  0  0
 12  1  1  0  0  0  0
 14 13  1  0  0  0  0
 15 16  1  6  0  0  0
 15 14  1  0  0  0  0
 17 19  1  6  0  0  0
 17 28  1  0  0  0  0
 18 34  1  0  0  0  0
 19 32  1  0  0  0  0
 20 18  1  1  0  0  0
 20 17  1  0  0  0  0
 20 43  1  0  0  0  0
 21 12  1  0  0  0  0
 22 21  1  0  0  0  0
 22 23  1  0  0  0  0
 23 24  1  6  0  0  0
 23 46  1  0  0  0  0
 24 33  1  0  0  0  0
 25 34  1  6  0  0  0
 25  4  1  0  0  0  0
 26 25  1  0  0  0  0
 27 35  1  6  0  0  0
 27 26  1  0  0  0  0
 27  2  1  0  0  0  0
 29 16  1  0  0  0  0
 40  8  1  0  0  0  0
 40  5  1  0  0  0  0
 41  9  1  0  0  0  0
 44 18  2  0  0  0  0
 45 15  1  0  0  0  0
 45 10  1  0  0  0  0
 46  1  1  0  0  0  0
M  END
>  <CHROM.1>
-175.60812568,68.59673788,-175.43391587,-167.80237040,-63.52928039,-59.88958206
-140.48028546,70.87228346,176.24327387,-133.18717583,81.06734575,65.17143371
99.94982570,12.40664422,-13.29660526,6.40093519,-0.98795729,-0.16159098,-0.64833119

>  <Name>
lig.pdb

>  <RI>
0

>  <Rbt.Current_Directory>
/home/afrankz/demos/rdock_decoys_rna/rnas/3wru

>  <Rbt.Executable>
rbdock ($Id: //depot/dev/client3/rdock/2013.1/src/exe/rbdock.cxx#4 $)

>  <Rbt.Library>
libRbt.so (2013.1, Build901 2013/11/27)

>  <Rbt.Parameter_File>
/export/apps/rDock/src/rDock_2013.1_src/data/scripts/dock_solv.prm

>  <Rbt.Receptor>
prm/pocket_docking_5.prm

>  <SCORE>
3.00307

>  <SCORE.INTER>
2.39719

>  <SCORE.INTER.CONST>
1

>  <SCORE.INTER.POLAR>
0

>  <SCORE.INTER.ROT>
13

>  <SCORE.INTER.SOLV>
20.5645

>  <SCORE.INTER.VDW>
-17.5234

>  <SCORE.INTER.norm>
0.0521128

>  <SCORE.INTRA>
0.605885

>  <SCORE.INTRA.DIHEDRAL>
-7.90262

>  <SCORE.INTRA.DIHEDRAL.0>
19.7146

>  <SCORE.INTRA.POLAR>
0

>  <SCORE.INTRA.POLAR.0>
0

>  <SCORE.INTRA.REPUL>
0

>  <SCORE.INTRA.REPUL.0>
0

>  <SCORE.INTRA.SOLV>
-0.322962

>  <SCORE.INTRA.SOLV.lig_0>
-116.697

>  <SCORE.INTRA.VDW>
4.71868

>  <SCORE.INTRA.VDW.0>
-7.06424

>  <SCORE.INTRA.norm>
0.0131714

>  <SCORE.RESTR>
0

>  <SCORE.RESTR.CAVITY>
0

>  <SCORE.RESTR.norm>
0

>  <SCORE.SYSTEM>
0

>  <SCORE.SYSTEM.CONST>
0

>  <SCORE.SYSTEM.DIHEDRAL>
0

>  <SCORE.SYSTEM.SOLV>
0

>  <SCORE.SYSTEM.norm>
0

>  <SCORE.heavy>
46

>  <SCORE.norm>
0.0652842

>  <RMSD>
7.813

$$$$
lig.pdb
 OpenBabel03061811583D
libRbt.so/2013.1/901 2013/11/27
 46 49  0  0  0  0  0  0  0  0999 V2000
   11.3195  -11.1437    3.6916 C   0  0  1  0  0  0  0  0  0  0  0  0
    9.8183  -12.5288    5.1869 C   0  0  1  0  0  0  0  0  0  0  0  0
    9.0722  -12.3405    6.5424 C   0  0  1  0  0  0  0  0  0  0  0  0
    8.4232  -13.7512    6.9800 C   0  0  2  0  0  0  0  0  0  0  0  0
   11.1283  -12.5275    8.0173 C   0  0  2  0  0  0  0  0  0  0  0  0
   11.9388  -11.7028    9.0573 C   0  0  1  0  0  0  0  0  0  0  0  0
   12.5458  -12.8602    9.8129 C   0  0  1  0  0  0  0  0  0  0  0  0
   11.3599  -13.8504   10.0418 C   0  0  1  0  0  0  0  0  0  0  0  0
   10.4086  -13.5490   11.2526 C   0  0  0  0  0  0  0  0  0  0  0  0
   14.4548  -14.4062    9.5915 C   0  0  1  0  0  0  0  0  0  0  0  0
   15.6299  -14.8438    8.7689 C   0  0  1  0  0  0  0  0  0  0  0  0
   12.7501  -11.4707    4.1814 C   0  0  1  0  0  0  0  0  0  0  0  0
   16.4306  -15.9238    9.5794 C   0  0  0  0  0  0  0  0  0  0  0  0
   15.6836  -17.1038    9.9083 C   0  0  0  0  0  0  0  0  0  0  0  0
   14.5572  -16.7245   10.7345 C   0  0  2  0  0  0  0  0  0  0  0  0
   13.6886  -17.9854   11.1226 C   0  0  0  0  0  0  0  0  0  0  0  0
    6.0509  -18.1972    5.7438 C   0  0  2  0  0  0  0  0  0  0  0  0
    7.6100  -16.5947    6.4881 C   0  0  0  0  0  0  0  0  0  0  0  0
    5.5331  -19.4712    5.8811 C   0  0  0  0  0  0  0  0  0  0  0  0
    6.7144  -17.8703    6.8806 C   0  0  1  0  0  0  0  0  0  0  0  0
   13.2497  -10.3955    5.2501 C   0  0  0  0  0  0  0  0  0  0  0  0
   13.1985   -8.9463    4.5648 C   0  0  0  0  0  0  0  0  0  0  0  0
   11.6900   -8.6685    4.1141 C   0  0  1  0  0  0  0  0  0  0  0  0
   11.5388   -7.3032    3.4326 C   0  0  0  0  0  0  0  0  0  0  0  0
    7.3581  -14.1683    5.8743 C   0  0  1  0  0  0  0  0  0  0  0  0
    8.1924  -14.3720    4.5001 C   0  0  0  0  0  0  0  0  0  0  0  0
    8.8604  -13.0097    4.0688 C   0  0  2  0  0  0  0  0  0  0  0  0
    4.9850  -17.2747    5.4237 F   0  0  0  0  0  0  0  0  0  0  0  0
   13.0784  -18.7097    9.8883 N   0  0  0  0  0  0  0  0  0  0  0  0
   12.7460  -12.8725    4.7421 N   0  0  0  0  0  0  0  0  0  0  0  0
   15.2862  -15.4641    7.5645 N   0  0  0  0  0  0  0  0  0  0  0  0
    5.6121  -20.4043    6.9415 N   0  0  0  0  0  0  0  0  0  0  0  0
   10.2363   -7.1353    2.9163 N   0  0  0  0  0  0  0  0  0  0  0  0
    6.7304  -15.4496    6.2442 N   0  0  0  0  0  0  0  0  0  0  0  0
    9.6366  -13.1836    2.8212 N   0  0  0  0  0  0  0  0  0  0  0  0
   10.3706  -11.2944    4.7481 O   0  0  0  0  0  0  0  0  0  0  0  0
   10.0952  -11.8764    7.5379 O   0  0  0  0  0  0  0  0  0  0  0  0
    7.7708  -13.5586    8.1773 O   0  0  0  0  0  0  0  0  0  0  0  0
   12.8670  -10.9210    8.3685 O   0  0  0  0  0  0  0  0  0  0  0  0
   10.8185  -13.7872    8.7119 O   0  0  0  0  0  0  0  0  0  0  0  0
    9.4967  -14.6593   11.3697 O   0  0  0  0  0  0  0  0  0  0  0  0
   13.6385  -13.4885    8.9670 O   0  0  0  0  0  0  0  0  0  0  0  0
    5.8318  -17.5276    7.9714 O   0  0  0  0  0  0  0  0  0  0  0  0
    8.8503  -16.5958    6.4231 O   0  0  0  0  0  0  0  0  0  0  0  0
   13.7108  -15.6926   10.0270 O   0  0  0  0  0  0  0  0  0  0  0  0
   11.2356   -9.7474    3.1447 O   0  0  0  0  0  0  0  0  0  0  0  0
  1 36  1  1  0  0  0
  2 36  1  6  0  0  0
  2  3  1  0  0  0  0
  3 37  1  1  0  0  0
  3  4  1  0  0  0  0
  4 38  1  1  0  0  0
  5 37  1  1  0  0  0
  5  6  1  0  0  0  0
  6  7  1  0  0  0  0
  6 39  1  6  0  0  0
  7 42  1  6  0  0  0
  8  9  1  1  0  0  0
  8  7  1  0  0  0  0
 10 42  1  6  0  0  0
 10 11  1  0  0  0  0
 11 31  1  6  0  0  0
 11 13  1  0  0  0  0
 12 30  1  1  0  0  0
 12  1  1  0  0  0  0
 14 13  1  0  0  0  0
 15 16  1  6  0  0  0
 15 14  1  0  0  0  0
 17 19  1  1  0  0  0
 17 28  1  0  0  0  0
 18 34  1  0  0  0  0
 19 32  1  0  0  0  0
 20 18  1  6  0  0  0
 20 17  1  0  0  0  0
 20 43  1  0  0  0  0
 21 12  1  0  0  0  0
 22 21  1  0  0  0  0
 22 23  1  0  0  0  0
 23 24  1  6  0  0  0
 23 46  1  0  0  0  0
 24 33  1  0  0  0  0
 25 34  1  1  0  0  0
 25  4  1  0  0  0  0
 26 25  1  0  0  0  0
 27 35  1  6  0  0  0
 27 26  1  0  0  0  0
 27  2  1  0  0  0  0
 29 16  1  0  0  0  0
 40  8  1  0  0  0  0
 40  5  1  0  0  0  0
 41  9  1  0  0  0  0
 44 18  2  0  0  0  0
 45 15  1  0  0  0  0
 45 10  1  0  0  0  0
 46  1  1  0  0  0  0
M  END
>  <CHROM.1>
-80.25707785,167.59204095,-66.38891896,-178.90267943,168.97672862,-173.34847019
-171.68682278,-61.44029047,-1.07064538,68.83032424,164.50791568,173.75768756
-55.58111359,10.65426810,-13.95744229,7.04190875,0.98186925,-0.47253143,-0.60813386

>  <Name>
lig.pdb

>  <RI>
0

>  <Rbt.Current_Directory>
/home/afrankz/demos/rdock_decoys_rna/rnas/3wru

>  <Rbt.Executable>
rbdock ($Id: //depot/dev/client3/rdock/2013.1/src/exe/rbdock.cxx#4 $)

>  <Rbt.Library>
libRbt.so (2013.1, Build901 2013/11/27)

>  <Rbt.Parameter_File>
/export/apps/rDock/src/rDock_2013.1_src/data/scripts/dock_solv.prm

>  <Rbt.Receptor>
prm/pocket_docking_4.prm

>  <SCORE>
-3.88802

>  <SCORE.INTER>
-2.97239

>  <SCORE.INTER.CONST>
1

>  <SCORE.INTER.POLAR>
0

>  <SCORE.INTER.ROT>
13

>  <SCORE.INTER.SOLV>
26.9227

>  <SCORE.INTER.VDW>
-23.2225

>  <SCORE.INTER.norm>
-0.0646173

>  <SCORE.INTRA>
-0.931512

>  <SCORE.INTRA.DIHEDRAL>
-8.66627

>  <SCORE.INTRA.DIHEDRAL.0>
19.7146

>  <SCORE.INTRA.POLAR>
0

>  <SCORE.INTRA.POLAR.0>
0

>  <SCORE.INTRA.REPUL>
0

>  <SCORE.INTRA.REPUL.0>
0

>  <SCORE.INTRA.SOLV>
3.67514

>  <SCORE.INTRA.SOLV.lig_0>
-116.697

>  <SCORE.INTRA.VDW>
1.56406

>  <SCORE.INTRA.VDW.0>
-7.06424

>  <SCORE.INTRA.norm>
-0.0202503

>  <SCORE.RESTR>
0.0158879

>  <SCORE.RESTR.CAVITY>
0.0158879

>  <SCORE.RESTR.norm>
0.000345389

>  <SCORE.SYSTEM>
0

>  <SCORE.SYSTEM.CONST>
0

>  <SCORE.SYSTEM.DIHEDRAL>
0

>  <SCORE.SYSTEM.SOLV>
0

>  <SCORE.SYSTEM.norm>
0

>  <SCORE.heavy>
46

>  <SCORE.norm>
-0.0845222

>  <RMSD>
7.817

$$$$
lig.pdb
 OpenBabel03061811583D
libRbt.so/2013.1/901 2013/11/27
 46 49  0  0  0  0  0  0  0  0999 V2000
   13.6468  -15.2996    9.8654 C   0  0  1  0  0  0  0  0  0  0  0  0
   12.9439  -14.5930    7.5385 C   0  0  1  0  0  0  0  0  0  0  0  0
   12.6600  -13.0891    7.8342 C   0  0  1  0  0  0  0  0  0  0  0  0
   11.6267  -12.5272    6.7298 C   0  0  2  0  0  0  0  0  0  0  0  0
   10.8708  -13.3593    9.6129 C   0  0  2  0  0  0  0  0  0  0  0  0
   10.7112  -13.3331   11.1596 C   0  0  1  0  0  0  0  0  0  0  0  0
    9.2188  -13.1116   11.2110 C   0  0  1  0  0  0  0  0  0  0  0  0
    8.9494  -11.9803   10.1686 C   0  0  1  0  0  0  0  0  0  0  0  0
    9.1922  -10.5052   10.6449 C   0  0  0  0  0  0  0  0  0  0  0  0
    7.2131  -14.5460   11.2666 C   0  0  1  0  0  0  0  0  0  0  0  0
    6.4938  -15.7211   10.6743 C   0  0  1  0  0  0  0  0  0  0  0  0
   14.9307  -15.7735   10.5867 C   0  0  1  0  0  0  0  0  0  0  0  0
    5.0205  -15.7278   11.2161 C   0  0  0  0  0  0  0  0  0  0  0  0
    4.2557  -14.5581   10.8911 C   0  0  0  0  0  0  0  0  0  0  0  0
    4.9020  -13.4036   11.4780 C   0  0  2  0  0  0  0  0  0  0  0  0
    4.1080  -12.0792   11.1454 C   0  0  0  0  0  0  0  0  0  0  0  0
   10.6153   -9.0506    2.4942 C   0  0  2  0  0  0  0  0  0  0  0  0
   11.5618  -10.7178    3.8643 C   0  0  0  0  0  0  0  0  0  0  0  0
   10.0578   -8.7523    1.2652 C   0  0  0  0  0  0  0  0  0  0  0  0
   10.4808  -10.3804    2.7239 C   0  0  1  0  0  0  0  0  0  0  0  0
   15.3488  -17.2382   10.1095 C   0  0  0  0  0  0  0  0  0  0  0  0
   14.1259  -18.2314   10.4097 C   0  0  0  0  0  0  0  0  0  0  0  0
   12.8494  -17.6957    9.6100 C   0  0  1  0  0  0  0  0  0  0  0  0
   11.6166  -18.5771    9.8436 C   0  0  0  0  0  0  0  0  0  0  0  0
   12.3223  -12.6359    5.3032 C   0  0  1  0  0  0  0  0  0  0  0  0
   12.5697  -14.2160    5.0424 C   0  0  0  0  0  0  0  0  0  0  0  0
   13.5558  -14.7932    6.1298 C   0  0  2  0  0  0  0  0  0  0  0  0
    9.9992   -8.2333    3.5150 F   0  0  0  0  0  0  0  0  0  0  0  0
    4.7406  -10.8108   11.7866 N   0  0  0  0  0  0  0  0  0  0  0  0
   16.0173  -14.7577   10.3281 N   0  0  0  0  0  0  0  0  0  0  0  0
    6.3764  -15.6781    9.2822 N   0  0  0  0  0  0  0  0  0  0  0  0
    9.9948   -7.5423    0.5350 N   0  0  0  0  0  0  0  0  0  0  0  0
   11.7409  -19.8118    9.1719 N   0  0  0  0  0  0  0  0  0  0  0  0
   11.4137  -12.1188    4.2643 N   0  0  0  0  0  0  0  0  0  0  0  0
   13.7813  -16.2392    5.9115 N   0  0  0  0  0  0  0  0  0  0  0  0
   13.8838  -15.1136    8.4695 O   0  0  0  0  0  0  0  0  0  0  0  0
   12.0748  -13.0232    9.2148 O   0  0  0  0  0  0  0  0  0  0  0  0
   11.3931  -11.1999    7.0121 O   0  0  0  0  0  0  0  0  0  0  0  0
   11.1229  -14.5677   11.6631 O   0  0  0  0  0  0  0  0  0  0  0  0
    9.7777  -12.5072    9.1187 O   0  0  0  0  0  0  0  0  0  0  0  0
    8.3078  -10.2613   11.7568 O   0  0  0  0  0  0  0  0  0  0  0  0
    8.5113  -14.3991   10.8286 O   0  0  0  0  0  0  0  0  0  0  0  0
    9.1603  -10.7439    3.1828 O   0  0  0  0  0  0  0  0  0  0  0  0
   12.3928   -9.9099    4.3109 O   0  0  0  0  0  0  0  0  0  0  0  0
    6.3311  -13.3017   10.9994 O   0  0  0  0  0  0  0  0  0  0  0  0
   12.5230  -16.2785   10.0518 O   0  0  0  0  0  0  0  0  0  0  0  0
  1 36  1  6  0  0  0
  2 36  1  1  0  0  0
  2  3  1  0  0  0  0
  3 37  1  1  0  0  0
  3  4  1  0  0  0  0
  4 38  1  1  0  0  0
  5 37  1  1  0  0  0
  5  6  1  0  0  0  0
  6  7  1  0  0  0  0
  6 39  1  1  0  0  0
  7 42  1  6  0  0  0
  8  9  1  1  0  0  0
  8  7  1  0  0  0  0
 10 42  1  6  0  0  0
 10 11  1  0  0  0  0
 11 31  1  6  0  0  0
 11 13  1  0  0  0  0
 12 30  1  6  0  0  0
 12  1  1  0  0  0  0
 14 13  1  0  0  0  0
 15 16  1  6  0  0  0
 15 14  1  0  0  0  0
 17 19  1  6  0  0  0
 17 28  1  0  0  0  0
 18 34  1  0  0  0  0
 19 32  1  0  0  0  0
 20 18  1  1  0  0  0
 20 17  1  0  0  0  0
 20 43  1  0  0  0  0
 21 12  1  0  0  0  0
 22 21  1  0  0  0  0
 22 23  1  0  0  0  0
 23 24  1  1  0  0  0
 23 46  1  0  0  0  0
 24 33  1  0  0  0  0
 25 34  1  6  0  0  0
 25  4  1  0  0  0  0
 26 25  1  0  0  0  0
 27 35  1  6  0  0  0
 27 26  1  0  0  0  0
 27  2  1  0  0  0  0
 29 16  1  0  0  0  0
 40  8  1  0  0  0  0
 40  5  1  0  0  0  0
 41  9  1  0  0  0  0
 44 18  2  0  0  0  0
 45 15  1  0  0  0  0
 45 10  1  0  0  0  0
 46  1  1  0  0  0  0
M  END
>  <CHROM.1>
-175.21955085,67.54543070,-74.26729085,171.86265278,157.41582465,-60.35654906
170.38459585,178.43078281,-176.43521141,175.20521165,160.91828577,-72.55267269
94.55379564,10.44975497,-13.38787854,8.25452251,-1.73494425,0.45513784,-0.87270217

>  <Name>
lig.pdb

>  <RI>
0

>  <Rbt.Current_Directory>
/home/afrankz/demos/rdock_decoys_rna/rnas/3wru

>  <Rbt.Executable>
rbdock ($Id: //depot/dev/client3/rdock/2013.1/src/exe/rbdock.cxx#4 $)

>  <Rbt.Library>
libRbt.so (2013.1, Build901 2013/11/27)

>  <Rbt.Parameter_File>
/export/apps/rDock/src/rDock_2013.1_src/data/scripts/dock_solv.prm

>  <Rbt.Receptor>
prm/pocket_docking_7.prm

>  <SCORE>
-9.02218

>  <SCORE.INTER>
-2.58524

>  <SCORE.INTER.CONST>
1

>  <SCORE.INTER.POLAR>
0

>  <SCORE.INTER.ROT>
13

>  <SCORE.INTER.SOLV>
18.4842

>  <SCORE.INTER.VDW>
-20.1516

>  <SCORE.INTER.norm>
-0.0562009

>  <SCORE.INTRA>
-6.43694

>  <SCORE.INTRA.DIHEDRAL>
-11.9019

>  <SCORE.INTRA.DIHEDRAL.0>
19.7146

>  <SCORE.INTRA.POLAR>
0

>  <SCORE.INTRA.POLAR.0>
0

>  <SCORE.INTRA.REPUL>
0.00982471

>  <SCORE.INTRA.REPUL.0>
0

>  <SCORE.INTRA.SOLV>
-2.36661

>  <SCORE.INTRA.SOLV.lig_0>
-116.697

>  <SCORE.INTRA.VDW>
0.648165

>  <SCORE.INTRA.VDW.0>
-7.06424

>  <SCORE.INTRA.norm>
-0.139934

>  <SCORE.RESTR>
0

>  <SCORE.RESTR.CAVITY>
0

>  <SCORE.RESTR.norm>
0

>  <SCORE.SYSTEM>
0

>  <SCORE.SYSTEM.CONST>
0

>  <SCORE.SYSTEM.DIHEDRAL>
0

>  <SCORE.SYSTEM.SOLV>
0

>  <SCORE.SYSTEM.norm>
0

>  <SCORE.heavy>
46

>  <SCORE.norm>
-0.196134

>  <RMSD>
7.824

$$$$
lig.pdb
 OpenBabel03061811583D
libRbt.so/2013.1/901 2013/11/27
 46 49  0  0  0  0  0  0  0  0999 V2000
   14.7947  -14.7148    8.1760 C   0  0  1  0  0  0  0  0  0  0  0  0
   12.9867  -13.3392    7.0594 C   0  0  1  0  0  0  0  0  0  0  0  0
   11.4977  -13.5547    6.6518 C   0  0  1  0  0  0  0  0  0  0  0  0
   11.0220  -12.3113    5.7404 C   0  0  2  0  0  0  0  0  0  0  0  0
   10.4208  -15.6517    5.7133 C   0  0  2  0  0  0  0  0  0  0  0  0
    9.8038  -16.1529    7.0501 C   0  0  1  0  0  0  0  0  0  0  0  0
    8.4127  -16.4436    6.5409 C   0  0  1  0  0  0  0  0  0  0  0  0
    8.0349  -15.1943    5.6831 C   0  0  1  0  0  0  0  0  0  0  0  0
    7.4976  -13.9396    6.4569 C   0  0  0  0  0  0  0  0  0  0  0  0
    7.3025  -18.0067    4.9892 C   0  0  1  0  0  0  0  0  0  0  0  0
    6.0771  -18.1721    5.8377 C   0  0  1  0  0  0  0  0  0  0  0  0
   15.4870  -15.3185    6.9312 C   0  0  1  0  0  0  0  0  0  0  0  0
    4.8761  -18.5658    4.9066 C   0  0  0  0  0  0  0  0  0  0  0  0
    5.0549  -19.7907    4.1812 C   0  0  0  0  0  0  0  0  0  0  0  0
    6.2117  -19.6561    3.3216 C   0  0  2  0  0  0  0  0  0  0  0  0
    6.4656  -20.9817    2.5011 C   0  0  0  0  0  0  0  0  0  0  0  0
   11.5728   -7.9475    2.8529 C   0  0  2  0  0  0  0  0  0  0  0  0
   11.4322   -9.5042    4.6164 C   0  0  0  0  0  0  0  0  0  0  0  0
   10.9308   -7.0407    2.0309 C   0  0  0  0  0  0  0  0  0  0  0  0
   10.7733   -8.2171    3.9146 C   0  0  1  0  0  0  0  0  0  0  0  0
   14.8686  -16.7441    6.5665 C   0  0  0  0  0  0  0  0  0  0  0  0
   15.0415  -17.7058    7.8383 C   0  0  0  0  0  0  0  0  0  0  0  0
   14.2778  -17.0329    9.0711 C   0  0  1  0  0  0  0  0  0  0  0  0
   14.3959  -17.8762   10.3464 C   0  0  0  0  0  0  0  0  0  0  0  0
   11.1153  -10.9899    6.6214 C   0  0  1  0  0  0  0  0  0  0  0  0
   12.6820  -10.8063    6.9927 C   0  0  0  0  0  0  0  0  0  0  0  0
   13.1762  -12.0273    7.8605 C   0  0  2  0  0  0  0  0  0  0  0  0
   12.8648   -7.4230    3.2342 F   0  0  0  0  0  0  0  0  0  0  0  0
    6.7375  -22.2174    3.4063 N   0  0  0  0  0  0  0  0  0  0  0  0
   15.3553  -14.3324    5.7956 N   0  0  0  0  0  0  0  0  0  0  0  0
    6.1678  -19.2005    6.7799 N   0  0  0  0  0  0  0  0  0  0  0  0
    9.7249   -7.1333    1.2970 N   0  0  0  0  0  0  0  0  0  0  0  0
   13.8105  -19.1479   10.1697 N   0  0  0  0  0  0  0  0  0  0  0  0
   10.6754   -9.8287    5.8274 N   0  0  0  0  0  0  0  0  0  0  0  0
   14.6096  -11.8794    8.1968 N   0  0  0  0  0  0  0  0  0  0  0  0
   13.4303  -14.3976    7.8986 O   0  0  0  0  0  0  0  0  0  0  0  0
   11.4411  -14.8459    5.8887 O   0  0  0  0  0  0  0  0  0  0  0  0
    9.7063  -12.5247    5.3947 O   0  0  0  0  0  0  0  0  0  0  0  0
   10.5096  -17.2845    7.4606 O   0  0  0  0  0  0  0  0  0  0  0  0
    9.2814  -15.0825    4.9764 O   0  0  0  0  0  0  0  0  0  0  0  0
    6.2487  -14.3153    7.0710 O   0  0  0  0  0  0  0  0  0  0  0  0
    8.4447  -17.7063    5.6989 O   0  0  0  0  0  0  0  0  0  0  0  0
   10.7051   -7.1286    4.8616 O   0  0  0  0  0  0  0  0  0  0  0  0
   12.4168  -10.1213    4.1775 O   0  0  0  0  0  0  0  0  0  0  0  0
    7.4311  -19.2920    4.1353 O   0  0  0  0  0  0  0  0  0  0  0  0
   14.8578  -15.6550    9.3455 O   0  0  0  0  0  0  0  0  0  0  0  0
  1 36  1  6  0  0  0
  2 36  1  1  0  0  0
  2  3  1  0  0  0  0
  3 37  1  6  0  0  0
  3  4  1  0  0  0  0
  4 38  1  1  0  0  0
  5 37  1  1  0  0  0
  5  6  1  0  0  0  0
  6  7  1  0  0  0  0
  6 39  1  6  0  0  0
  7 42  1  6  0  0  0
  8  9  1  1  0  0  0
  8  7  1  0  0  0  0
 10 42  1  1  0  0  0
 10 11  1  0  0  0  0
 11 31  1  1  0  0  0
 11 13  1  0  0  0  0
 12 30  1  6  0  0  0
 12  1  1  0  0  0  0
 14 13  1  0  0  0  0
 15 16  1  1  0  0  0
 15 14  1  0  0  0  0
 17 19  1  6  0  0  0
 17 28  1  0  0  0  0
 18 34  1  0  0  0  0
 19 32  1  0  0  0  0
 20 18  1  1  0  0  0
 20 17  1  0  0  0  0
 20 43  1  0  0  0  0
 21 12  1  0  0  0  0
 22 21  1  0  0  0  0
 22 23  1  0  0  0  0
 23 24  1  1  0  0  0
 23 46  1  0  0  0  0
 24 33  1  0  0  0  0
 25 34  1  6  0  0  0
 25  4  1  0  0  0  0
 26 25  1  0  0  0  0
 27 35  1  6  0  0  0
 27 26  1  0  0  0  0
 27  2  1  0  0  0  0
 29 16  1  0  0  0  0
 40  8  1  0  0  0  0
 40  5  1  0  0  0  0
 41  9  1  0  0  0  0
 44 18  2  0  0  0  0
 45 15  1  0  0  0  0
 45 10  1  0  0  0  0
 46  1  1  0  0  0  0
M  END
>  <CHROM.1>
-70.70388649,162.92000942,156.04140791,-57.10858479,-170.45750560,-64.42246797
-58.67331332,-60.66799911,-62.96939562,176.82586804,167.31887974,-61.59542524
-61.18729320,10.66903500,-14.46507437,5.89834125,-1.07261670,0.50381642,2.81947238

>  <Name>
lig.pdb

>  <RI>
0

>  <Rbt.Current_Directory>
/home/afrankz/demos/rdock_decoys_rna/rnas/3wru

>  <Rbt.Executable>
rbdock ($Id: //depot/dev/client3/rdock/2013.1/src/exe/rbdock.cxx#4 $)

>  <Rbt.Library>
libRbt.so (2013.1, Build901 2013/11/27)

>  <Rbt.Parameter_File>
/export/apps/rDock/src/rDock_2013.1_src/data/scripts/dock_solv.prm

>  <Rbt.Receptor>
prm/pocket_docking_7.prm

>  <SCORE>
-1.0675

>  <SCORE.INTER>
0.705559

>  <SCORE.INTER.CONST>
1

>  <SCORE.INTER.POLAR>
0

>  <SCORE.INTER.ROT>
13

>  <SCORE.INTER.SOLV>
21.8873

>  <SCORE.INTER.VDW>
-19.0921

>  <SCORE.INTER.norm>
0.0153382

>  <SCORE.INTRA>
-1.77306

>  <SCORE.INTRA.DIHEDRAL>
-13.168

>  <SCORE.INTRA.DIHEDRAL.0>
19.7146

>  <SCORE.INTRA.POLAR>
0

>  <SCORE.INTRA.POLAR.0>
0

>  <SCORE.INTRA.REPUL>
0

>  <SCORE.INTRA.REPUL.0>
0

>  <SCORE.INTRA.SOLV>
2.89218

>  <SCORE.INTRA.SOLV.lig_0>
-116.697

>  <SCORE.INTRA.VDW>
3.36484

>  <SCORE.INTRA.VDW.0>
-7.06424

>  <SCORE.INTRA.norm>
-0.0385447

>  <SCORE.RESTR>
0

>  <SCORE.RESTR.CAVITY>
0

>  <SCORE.RESTR.norm>
0

>  <SCORE.SYSTEM>
0

>  <SCORE.SYSTEM.CONST>
0

>  <SCORE.SYSTEM.DIHEDRAL>
0

>  <SCORE.SYSTEM.SOLV>
0

>  <SCORE.SYSTEM.norm>
0

>  <SCORE.heavy>
46

>  <SCORE.norm>
-0.0232065

>  <RMSD>
7.840

$$$$
lig.pdb
 OpenBabel03061811583D
libRbt.so/2013.1/901 2013/11/27
 46 49  0  0  0  0  0  0  0  0999 V2000
   13.1596  -13.8088   11.2777 C   0  0  1  0  0  0  0  0  0  0  0  0
   12.3439  -14.3383    8.9406 C   0  0  1  0  0  0  0  0  0  0  0  0
   11.1216  -15.0797    8.3193 C   0  0  1  0  0  0  0  0  0  0  0  0
   11.3765  -15.2692    6.7375 C   0  0  2  0  0  0  0  0  0  0  0  0
   10.0407  -16.8630    9.7647 C   0  0  2  0  0  0  0  0  0  0  0  0
    8.7657  -17.2169    8.9474 C   0  0  1  0  0  0  0  0  0  0  0  0
    8.1865  -18.2373    9.8972 C   0  0  1  0  0  0  0  0  0  0  0  0
    9.3949  -19.1456   10.2892 C   0  0  1  0  0  0  0  0  0  0  0  0
    9.7784  -20.2878    9.2841 C   0  0  0  0  0  0  0  0  0  0  0  0
    6.9275  -18.2962   12.0174 C   0  0  1  0  0  0  0  0  0  0  0  0
    5.6608  -18.8953   11.4831 C   0  0  1  0  0  0  0  0  0  0  0  0
   14.1148  -15.0101   11.4722 C   0  0  1  0  0  0  0  0  0  0  0  0
    4.9629  -19.6966   12.6387 C   0  0  0  0  0  0  0  0  0  0  0  0
    4.6066  -18.9103   13.7847 C   0  0  0  0  0  0  0  0  0  0  0  0
    5.8118  -18.3427   14.3507 C   0  0  2  0  0  0  0  0  0  0  0  0
    5.4812  -17.4555   15.6150 C   0  0  0  0  0  0  0  0  0  0  0  0
   11.7264  -15.1829    2.1956 C   0  0  2  0  0  0  0  0  0  0  0  0
   10.5261  -13.8794    3.7491 C   0  0  0  0  0  0  0  0  0  0  0  0
   10.8579  -16.2556    2.1238 C   0  0  0  0  0  0  0  0  0  0  0  0
   11.0031  -14.0360    2.2222 C   0  0  1  0  0  0  0  0  0  0  0  0
   13.3610  -16.2355   12.1636 C   0  0  0  0  0  0  0  0  0  0  0  0
   12.7787  -15.7357   13.5719 C   0  0  0  0  0  0  0  0  0  0  0  0
   11.7820  -14.5185   13.2878 C   0  0  1  0  0  0  0  0  0  0  0  0
   11.1786  -13.9591   14.5819 C   0  0  0  0  0  0  0  0  0  0  0  0
   11.4765  -13.8252    6.0775 C   0  0  1  0  0  0  0  0  0  0  0  0
   12.7728  -13.1154    6.7421 C   0  0  0  0  0  0  0  0  0  0  0  0
   12.5569  -12.9464    8.2954 C   0  0  2  0  0  0  0  0  0  0  0  0
   12.6577  -15.2409    1.0916 F   0  0  0  0  0  0  0  0  0  0  0  0
    4.9804  -18.2874   16.8305 N   0  0  0  0  0  0  0  0  0  0  0  0
   14.6860  -15.3793   10.1243 N   0  0  0  0  0  0  0  0  0  0  0  0
    4.7164  -17.9551   11.0615 N   0  0  0  0  0  0  0  0  0  0  0  0
   10.0192  -16.7125    1.0801 N   0  0  0  0  0  0  0  0  0  0  0  0
   10.1760  -13.0060   14.3037 N   0  0  0  0  0  0  0  0  0  0  0  0
   11.6967  -13.9541    4.6258 N   0  0  0  0  0  0  0  0  0  0  0  0
   13.7389  -12.3105    8.9183 N   0  0  0  0  0  0  0  0  0  0  0  0
   12.1371  -14.1169   10.3297 O   0  0  0  0  0  0  0  0  0  0  0  0
   11.0175  -16.4033    9.0194 O   0  0  0  0  0  0  0  0  0  0  0  0
   10.2849  -15.9246    6.2130 O   0  0  0  0  0  0  0  0  0  0  0  0
    7.9967  -16.0602    8.8135 O   0  0  0  0  0  0  0  0  0  0  0  0
   10.3416  -18.0891   10.5205 O   0  0  0  0  0  0  0  0  0  0  0  0
    8.6133  -21.1194    9.1135 O   0  0  0  0  0  0  0  0  0  0  0  0
    7.6139  -17.5219   11.1074 O   0  0  0  0  0  0  0  0  0  0  0  0
   11.7689  -12.8757    1.8307 O   0  0  0  0  0  0  0  0  0  0  0  0
    9.3494  -13.7073    4.1072 O   0  0  0  0  0  0  0  0  0  0  0  0
    6.5497  -17.5330   13.3106 O   0  0  0  0  0  0  0  0  0  0  0  0
   12.5254  -13.3999   12.5763 O   0  0  0  0  0  0  0  0  0  0  0  0
  1 36  1  6  0  0  0
  2 36  1  1  0  0  0
  2  3  1  0  0  0  0
  3 37  1  1  0  0  0
  3  4  1  0  0  0  0
  4 38  1  6  0  0  0
  5 37  1  6  0  0  0
  5  6  1  0  0  0  0
  6  7  1  0  0  0  0
  6 39  1  1  0  0  0
  7 42  1  1  0  0  0
  8  9  1  6  0  0  0
  8  7  1  0  0  0  0
 10 42  1  6  0  0  0
 10 11  1  0  0  0  0
 11 31  1  1  0  0  0
 11 13  1  0  0  0  0
 12 30  1  6  0  0  0
 12  1  1  0  0  0  0
 14 13  1  0  0  0  0
 15 16  1  1  0  0  0
 15 14  1  0  0  0  0
 17 19  1  6  0  0  0
 17 28  1  0  0  0  0
 18 34  1  0  0  0  0
 19 32  1  0  0  0  0
 20 18  1  1  0  0  0
 20 17  1  0  0  0  0
 20 43  1  0  0  0  0
 21 12  1  0  0  0  0
 22 21  1  0  0  0  0
 22 23  1  0  0  0  0
 23 24  1  1  0  0  0
 23 46  1  0  0  0  0
 24 33  1  0  0  0  0
 25 34  1  6  0  0  0
 25  4  1  0  0  0  0
 26 25  1  0  0  0  0
 27 35  1  1  0  0  0
 27 26  1  0  0  0  0
 27  2  1  0  0  0  0
 29 16  1  0  0  0  0
 40  8  1  0  0  0  0
 40  5  1  0  0  0  0
 41  9  1  0  0  0  0
 44 18  2  0  0  0  0
 45 15  1  0  0  0  0
 45 10  1  0  0  0  0
 46  1  1  0  0  0  0
M  END
>  <CHROM.1>
-67.23530206,161.90692093,117.41930093,71.08862650,173.89333986,-57.75804015
-65.49188781,68.61194043,70.09302102,53.54828012,80.87127787,-172.41900422
95.97782912,10.06113737,-16.00770813,9.17795773,-1.04314338,0.64900835,1.55510483

>  <Name>
lig.pdb

>  <RI>
0

>  <Rbt.Current_Directory>
/home/afrankz/demos/rdock_decoys_rna/rnas/3wru

>  <Rbt.Executable>
rbdock ($Id: //depot/dev/client3/rdock/2013.1/src/exe/rbdock.cxx#4 $)

>  <Rbt.Library>
libRbt.so (2013.1, Build901 2013/11/27)

>  <Rbt.Parameter_File>
/export/apps/rDock/src/rDock_2013.1_src/data/scripts/dock_solv.prm

>  <Rbt.Receptor>
prm/pocket_docking_7.prm

>  <SCORE>
1.52883

>  <SCORE.INTER>
1.7988

>  <SCORE.INTER.CONST>
1

>  <SCORE.INTER.POLAR>
0

>  <SCORE.INTER.ROT>
13

>  <SCORE.INTER.SOLV>
17.209

>  <SCORE.INTER.VDW>
-16.8038

>  <SCORE.INTER.norm>
0.0391043

>  <SCORE.INTRA>
-0.26997

>  <SCORE.INTRA.DIHEDRAL>
-5.92334

>  <SCORE.INTRA.DIHEDRAL.0>
19.7146

>  <SCORE.INTRA.POLAR>
0

>  <SCORE.INTRA.POLAR.0>
0

>  <SCORE.INTRA.REPUL>
0

>  <SCORE.INTRA.REPUL.0>
0

>  <SCORE.INTRA.SOLV>
1.71092

>  <SCORE.INTRA.SOLV.lig_0>
-116.697

>  <SCORE.INTRA.VDW>
1.83624

>  <SCORE.INTRA.VDW.0>
-7.06424

>  <SCORE.INTRA.norm>
-0.00586891

>  <SCORE.RESTR>
0

>  <SCORE.RESTR.CAVITY>
0

>  <SCORE.RESTR.norm>
0

>  <SCORE.SYSTEM>
0

>  <SCORE.SYSTEM.CONST>
0

>  <SCORE.SYSTEM.DIHEDRAL>
0

>  <SCORE.SYSTEM.SOLV>
0

>  <SCORE.SYSTEM.norm>
0

>  <SCORE.heavy>
46

>  <SCORE.norm>
0.0332354

>  <RMSD>
7.849

$$$$
lig.pdb
 OpenBabel03061811583D
libRbt.so/2013.1/901 2013/11/27
 46 49  0  0  0  0  0  0  0  0999 V2000
    9.1617  -15.7213   10.8297 C   0  0  1  0  0  0  0  0  0  0  0  0
   11.6590  -16.1265   10.7474 C   0  0  1  0  0  0  0  0  0  0  0  0
   12.0505  -14.9806    9.7658 C   0  0  1  0  0  0  0  0  0  0  0  0
   13.4433  -15.3635    9.0472 C   0  0  2  0  0  0  0  0  0  0  0  0
   10.7479  -13.9503    7.8475 C   0  0  2  0  0  0  0  0  0  0  0  0
    9.8697  -14.4478    6.6643 C   0  0  1  0  0  0  0  0  0  0  0  0
    9.3507  -13.1044    6.2115 C   0  0  1  0  0  0  0  0  0  0  0  0
    8.9213  -12.3808    7.5272 C   0  0  1  0  0  0  0  0  0  0  0  0
    7.5076  -12.7406    8.1050 C   0  0  0  0  0  0  0  0  0  0  0  0
   10.1042  -11.2128    4.8196 C   0  0  1  0  0  0  0  0  0  0  0  0
    9.9279  -11.4098    3.3434 C   0  0  1  0  0  0  0  0  0  0  0  0
    8.0830  -15.3734   11.8827 C   0  0  1  0  0  0  0  0  0  0  0  0
    9.5787  -10.0238    2.6943 C   0  0  0  0  0  0  0  0  0  0  0  0
   10.5793   -9.0102    2.8675 C   0  0  0  0  0  0  0  0  0  0  0  0
   10.7523   -8.7665    4.2838 C   0  0  2  0  0  0  0  0  0  0  0  0
   11.8524   -7.6622    4.5388 C   0  0  0  0  0  0  0  0  0  0  0  0
   19.2359  -14.7961    9.4701 C   0  0  2  0  0  0  0  0  0  0  0  0
   16.8799  -14.7547    9.4908 C   0  0  0  0  0  0  0  0  0  0  0  0
   20.4009  -15.4458    9.1086 C   0  0  0  0  0  0  0  0  0  0  0  0
   18.1997  -15.3454    8.7891 C   0  0  1  0  0  0  0  0  0  0  0  0
    7.8998  -16.5637   12.9302 C   0  0  0  0  0  0  0  0  0  0  0  0
    7.4992  -17.8881   12.1191 C   0  0  0  0  0  0  0  0  0  0  0  0
    8.6704  -18.1992   11.0763 C   0  0  1  0  0  0  0  0  0  0  0  0
    8.3734  -19.4487   10.2385 C   0  0  0  0  0  0  0  0  0  0  0  0
   14.5653  -15.4679   10.1702 C   0  0  1  0  0  0  0  0  0  0  0  0
   14.1177  -16.6852   11.1417 C   0  0  0  0  0  0  0  0  0  0  0  0
   12.7418  -16.3440   11.8333 C   0  0  2  0  0  0  0  0  0  0  0  0
   19.3813  -13.3773    9.2344 F   0  0  0  0  0  0  0  0  0  0  0  0
   13.2021   -7.9695    3.8287 N   0  0  0  0  0  0  0  0  0  0  0  0
    8.4802  -14.0802   12.5529 N   0  0  0  0  0  0  0  0  0  0  0  0
   11.0789  -11.8487    2.6830 N   0  0  0  0  0  0  0  0  0  0  0  0
   21.7455  -15.2429    9.4987 N   0  0  0  0  0  0  0  0  0  0  0  0
    9.4479  -19.7470    9.3738 N   0  0  0  0  0  0  0  0  0  0  0  0
   15.8603  -15.8041    9.5520 N   0  0  0  0  0  0  0  0  0  0  0  0
   12.3140  -17.4530   12.7145 N   0  0  0  0  0  0  0  0  0  0  0  0
   10.4543  -15.8054   11.4307 O   0  0  0  0  0  0  0  0  0  0  0  0
   10.9340  -14.8651    8.7692 O   0  0  0  0  0  0  0  0  0  0  0  0
   13.7668  -14.3376    8.1876 O   0  0  0  0  0  0  0  0  0  0  0  0
   10.7003  -15.0805    5.7387 O   0  0  0  0  0  0  0  0  0  0  0  0
   10.0847  -12.7176    8.3011 O   0  0  0  0  0  0  0  0  0  0  0  0
    7.2338  -11.8172    9.1776 O   0  0  0  0  0  0  0  0  0  0  0  0
   10.4638  -12.3541    5.5028 O   0  0  0  0  0  0  0  0  0  0  0  0
   18.1998  -15.0016    7.3862 O   0  0  0  0  0  0  0  0  0  0  0  0
   16.7675  -13.5948    9.9205 O   0  0  0  0  0  0  0  0  0  0  0  0
   11.1099  -10.0488    4.9976 O   0  0  0  0  0  0  0  0  0  0  0  0
    8.8508  -17.0175   10.1376 O   0  0  0  0  0  0  0  0  0  0  0  0
  1 36  1  1  0  0  0
  2 36  1  1  0  0  0
  2  3  1  0  0  0  0
  3 37  1  6  0  0  0
  3  4  1  0  0  0  0
  4 38  1  6  0  0  0
  5 37  1  1  0  0  0
  5  6  1  0  0  0  0
  6  7  1  0  0  0  0
  6 39  1  6  0  0  0
  7 42  1  1  0  0  0
  8  9  1  1  0  0  0
  8  7  1  0  0  0  0
 10 42  1  6  0  0  0
 10 11  1  0  0  0  0
 11 31  1  6  0  0  0
 11 13  1  0  0  0  0
 12 30  1  1  0  0  0
 12  1  1  0  0  0  0
 14 13  1  0  0  0  0
 15 16  1  6  0  0  0
 15 14  1  0  0  0  0
 17 19  1  6  0  0  0
 17 28  1  0  0  0  0
 18 34  1  0  0  0  0
 19 32  1  0  0  0  0
 20 18  1  1  0  0  0
 20 17  1  0  0  0  0
 20 43  1  0  0  0  0
 21 12  1  0  0  0  0
 22 21  1  0  0  0  0
 22 23  1  0  0  0  0
 23 24  1  6  0  0  0
 23 46  1  0  0  0  0
 24 33  1  0  0  0  0
 25 34  1  6  0  0  0
 25  4  1  0  0  0  0
 26 25  1  0  0  0  0
 27 35  1  1  0  0  0
 27 26  1  0  0  0  0
 27  2  1  0  0  0  0
 29 16  1  0  0  0  0
 40  8  1  0  0  0  0
 40  5  1  0  0  0  0
 41  9  1  0  0  0  0
 44 18  2  0  0  0  0
 45 15  1  0  0  0  0
 45 10  1  0  0  0  0
 46  1  1  0  0  0  0
M  END
>  <CHROM.1>
179.01455547,68.27103881,171.72543186,155.96036593,168.90313232,-171.02092228
-98.75681383,-52.96348243,178.39582184,-141.71675628,168.40921799,-176.94058358
107.96287172,12.04593623,-14.13950786,8.39481646,2.36084408,-0.00532683,-0.79743640

>  <Name>
lig.pdb

>  <RI>
0

>  <Rbt.Current_Directory>
/home/afrankz/demos/rdock_decoys_rna/rnas/3wru

>  <Rbt.Executable>
rbdock ($Id: //depot/dev/client3/rdock/2013.1/src/exe/rbdock.cxx#4 $)

>  <Rbt.Library>
libRbt.so (2013.1, Build901 2013/11/27)

>  <Rbt.Parameter_File>
/export/apps/rDock/src/rDock_2013.1_src/data/scripts/dock_solv.prm

>  <Rbt.Receptor>
prm/pocket_docking_4.prm

>  <SCORE>
-6.11875

>  <SCORE.INTER>
-2.64197

>  <SCORE.INTER.CONST>
1

>  <SCORE.INTER.POLAR>
0

>  <SCORE.INTER.ROT>
13

>  <SCORE.INTER.SOLV>
20.6621

>  <SCORE.INTER.VDW>
-20.9154

>  <SCORE.INTER.norm>
-0.0574342

>  <SCORE.INTRA>
-3.47836

>  <SCORE.INTRA.DIHEDRAL>
-6.62215

>  <SCORE.INTRA.DIHEDRAL.0>
19.7146

>  <SCORE.INTRA.POLAR>
0

>  <SCORE.INTRA.POLAR.0>
0

>  <SCORE.INTRA.REPUL>
0

>  <SCORE.INTRA.REPUL.0>
0

>  <SCORE.INTRA.SOLV>
-3.17205

>  <SCORE.INTRA.SOLV.lig_0>
-116.697

>  <SCORE.INTRA.VDW>
1.41874

>  <SCORE.INTRA.VDW.0>
-7.06424

>  <SCORE.INTRA.norm>
-0.0756165

>  <SCORE.RESTR>
0.00157933

>  <SCORE.RESTR.CAVITY>
0.00157933

>  <SCORE.RESTR.norm>
3.43333e-05

>  <SCORE.SYSTEM>
0

>  <SCORE.SYSTEM.CONST>
0

>  <SCORE.SYSTEM.DIHEDRAL>
0

>  <SCORE.SYSTEM.SOLV>
0

>  <SCORE.SYSTEM.norm>
0

>  <SCORE.heavy>
46

>  <SCORE.norm>
-0.133016

>  <RMSD>
7.851

$$$$
lig.pdb
 OpenBabel03061811583D
libRbt.so/2013.1/901 2013/11/27
 46 49  0  0  0  0  0  0  0  0999 V2000
    9.9348   -7.7434    1.2007 C   0  0  1  0  0  0  0  0  0  0  0  0
   11.4974   -6.0990    2.3242 C   0  0  1  0  0  0  0  0  0  0  0  0
   12.3727   -6.9670    3.2783 C   0  0  1  0  0  0  0  0  0  0  0  0
   12.8807   -6.0456    4.5013 C   0  0  2  0  0  0  0  0  0  0  0  0
   11.6509   -8.8441    4.8254 C   0  0  2  0  0  0  0  0  0  0  0  0
   11.0386  -10.2634    4.6544 C   0  0  1  0  0  0  0  0  0  0  0  0
   11.9025  -10.9851    5.6604 C   0  0  1  0  0  0  0  0  0  0  0  0
   13.3540  -10.4907    5.3641 C   0  0  1  0  0  0  0  0  0  0  0  0
   14.1176  -11.1978    4.1899 C   0  0  0  0  0  0  0  0  0  0  0  0
   10.2554  -11.1130    7.4919 C   0  0  1  0  0  0  0  0  0  0  0  0
   10.2407  -11.5198    8.9352 C   0  0  1  0  0  0  0  0  0  0  0  0
    9.6297   -8.2380   -0.2330 C   0  0  1  0  0  0  0  0  0  0  0  0
    8.8333  -12.1318    9.2658 C   0  0  0  0  0  0  0  0  0  0  0  0
    8.4878  -13.2930    8.4971 C   0  0  0  0  0  0  0  0  0  0  0  0
    8.4569  -12.9297    7.0964 C   0  0  2  0  0  0  0  0  0  0  0  0
    8.0897  -14.1743    6.1958 C   0  0  0  0  0  0  0  0  0  0  0  0
   15.0664   -3.3878    7.5000 C   0  0  2  0  0  0  0  0  0  0  0  0
   13.3068   -3.4890    5.9358 C   0  0  0  0  0  0  0  0  0  0  0  0
   16.2813   -2.8066    7.1896 C   0  0  0  0  0  0  0  0  0  0  0  0
   14.0705   -2.5952    7.0318 C   0  0  1  0  0  0  0  0  0  0  0  0
    9.1423   -7.0354   -1.1625 C   0  0  0  0  0  0  0  0  0  0  0  0
    7.8386   -6.3823   -0.4947 C   0  0  0  0  0  0  0  0  0  0  0  0
    8.2385   -5.8701    0.9660 C   0  0  1  0  0  0  0  0  0  0  0  0
    7.0480   -5.2363    1.6958 C   0  0  0  0  0  0  0  0  0  0  0  0
   13.7902   -4.8866    3.9009 C   0  0  1  0  0  0  0  0  0  0  0  0
   12.8243   -4.0082    2.9410 C   0  0  0  0  0  0  0  0  0  0  0  0
   12.2921   -4.8987    1.7528 C   0  0  2  0  0  0  0  0  0  0  0  0
   14.9893   -3.6133    8.9257 F   0  0  0  0  0  0  0  0  0  0  0  0
    8.3099  -13.9156    4.6776 N   0  0  0  0  0  0  0  0  0  0  0  0
   10.8698   -8.9092   -0.7725 N   0  0  0  0  0  0  0  0  0  0  0  0
   11.1638  -12.5184    9.2579 N   0  0  0  0  0  0  0  0  0  0  0  0
   16.7904   -2.2950    5.9729 N   0  0  0  0  0  0  0  0  0  0  0  0
    6.8107   -3.9239    1.2350 N   0  0  0  0  0  0  0  0  0  0  0  0
   14.2872   -4.0272    4.9903 N   0  0  0  0  0  0  0  0  0  0  0  0
   11.3980   -4.1126    0.8742 N   0  0  0  0  0  0  0  0  0  0  0  0
   11.0635   -6.8687    1.2103 O   0  0  0  0  0  0  0  0  0  0  0  0
   11.5011   -8.0886    3.7634 O   0  0  0  0  0  0  0  0  0  0  0  0
   13.6504   -6.8336    5.3276 O   0  0  0  0  0  0  0  0  0  0  0  0
    9.6883  -10.2022    5.0011 O   0  0  0  0  0  0  0  0  0  0  0  0
   13.0416   -9.0936    5.2362 O   0  0  0  0  0  0  0  0  0  0  0  0
   14.0362  -12.6189    4.4181 O   0  0  0  0  0  0  0  0  0  0  0  0
   11.4605  -10.6022    7.0612 O   0  0  0  0  0  0  0  0  0  0  0  0
   13.1414   -2.1881    8.0601 O   0  0  0  0  0  0  0  0  0  0  0  0
   12.0817   -3.6921    5.9194 O   0  0  0  0  0  0  0  0  0  0  0  0
    9.7838  -12.3422    6.6768 O   0  0  0  0  0  0  0  0  0  0  0  0
    8.7524   -7.0345    1.7968 O   0  0  0  0  0  0  0  0  0  0  0  0
  1 36  1  6  0  0  0
  2 36  1  6  0  0  0
  2  3  1  0  0  0  0
  3 37  1  1  0  0  0
  3  4  1  0  0  0  0
  4 38  1  1  0  0  0
  5 37  1  6  0  0  0
  5  6  1  0  0  0  0
  6  7  1  0  0  0  0
  6 39  1  1  0  0  0
  7 42  1  1  0  0  0
  8  9  1  6  0  0  0
  8  7  1  0  0  0  0
 10 42  1  6  0  0  0
 10 11  1  0  0  0  0
 11 31  1  6  0  0  0
 11 13  1  0  0  0  0
 12 30  1  6  0  0  0
 12  1  1  0  0  0  0
 14 13  1  0  0  0  0
 15 16  1  6  0  0  0
 15 14  1  0  0  0  0
 17 19  1  1  0  0  0
 17 28  1  0  0  0  0
 18 34  1  0  0  0  0
 19 32  1  0  0  0  0
 20 18  1  6  0  0  0
 20 17  1  0  0  0  0
 20 43  1  0  0  0  0
 21 12  1  0  0  0  0
 22 21  1  0  0  0  0
 22 23  1  0  0  0  0
 23 24  1  1  0  0  0
 23 46  1  0  0  0  0
 24 33  1  0  0  0  0
 25 34  1  1  0  0  0
 25  4  1  0  0  0  0
 26 25  1  0  0  0  0
 27 35  1  6  0  0  0
 27 26  1  0  0  0  0
 27  2  1  0  0  0  0
 29 16  1  0  0  0  0
 40  8  1  0  0  0  0
 40  5  1  0  0  0  0
 41  9  1  0  0  0  0
 44 18  2  0  0  0  0
 45 15  1  0  0  0  0
 45 10  1  0  0  0  0
 46  1  1  0  0  0  0
M  END
>  <CHROM.1>
170.94489872,82.85020625,-159.58261024,-151.37166230,71.88677632,-51.57263413
141.58116663,-168.84307485,-49.90634342,-51.50952444,116.98283730,-78.23189753
-51.67428601,11.44830212,-7.72186026,4.61226344,0.94412391,-0.89422027,-0.69907269

>  <Name>
lig.pdb

>  <RI>
0

>  <Rbt.Current_Directory>
/home/afrankz/demos/rdock_decoys_rna/rnas/3wru

>  <Rbt.Executable>
rbdock ($Id: //depot/dev/client3/rdock/2013.1/src/exe/rbdock.cxx#4 $)

>  <Rbt.Library>
libRbt.so (2013.1, Build901 2013/11/27)

>  <Rbt.Parameter_File>
/export/apps/rDock/src/rDock_2013.1_src/data/scripts/dock_solv.prm

>  <Rbt.Receptor>
prm/blind_docking_20.prm

>  <SCORE>
9.42814

>  <SCORE.INTER>
-1.00773

>  <SCORE.INTER.CONST>
1

>  <SCORE.INTER.POLAR>
0

>  <SCORE.INTER.ROT>
13

>  <SCORE.INTER.SOLV>
38.4814

>  <SCORE.INTER.VDW>
-25.7656

>  <SCORE.INTER.norm>
-0.0219072

>  <SCORE.INTRA>
5.88318

>  <SCORE.INTRA.DIHEDRAL>
1.85926

>  <SCORE.INTRA.DIHEDRAL.0>
19.7146

>  <SCORE.INTRA.POLAR>
0

>  <SCORE.INTRA.POLAR.0>
0

>  <SCORE.INTRA.REPUL>
0

>  <SCORE.INTRA.REPUL.0>
0

>  <SCORE.INTRA.SOLV>
0.404081

>  <SCORE.INTRA.SOLV.lig_0>
-116.697

>  <SCORE.INTRA.VDW>
4.75151

>  <SCORE.INTRA.VDW.0>
-7.06424

>  <SCORE.INTRA.norm>
0.127895

>  <SCORE.RESTR>
4.55269

>  <SCORE.RESTR.CAVITY>
4.55269

>  <SCORE.RESTR.norm>
0.0989715

>  <SCORE.SYSTEM>
0

>  <SCORE.SYSTEM.CONST>
0

>  <SCORE.SYSTEM.DIHEDRAL>
0

>  <SCORE.SYSTEM.SOLV>
0

>  <SCORE.SYSTEM.norm>
0

>  <SCORE.heavy>
46

>  <SCORE.norm>
0.204959

>  <RMSD>
7.858

$$$$
lig.pdb
 OpenBabel03061811583D
libRbt.so/2013.1/901 2013/11/27
 46 49  0  0  0  0  0  0  0  0999 V2000
   10.0478   -7.5411    1.5821 C   0  0  1  0  0  0  0  0  0  0  0  0
   11.8335   -6.0163    2.5277 C   0  0  1  0  0  0  0  0  0  0  0  0
   12.4657   -6.9194    3.6297 C   0  0  1  0  0  0  0  0  0  0  0  0
   13.1283   -5.9766    4.7588 C   0  0  2  0  0  0  0  0  0  0  0  0
   11.4224   -8.7313    5.0672 C   0  0  2  0  0  0  0  0  0  0  0  0
   11.1265  -10.1245    4.4427 C   0  0  1  0  0  0  0  0  0  0  0  0
   11.8881  -10.9649    5.4390 C   0  0  1  0  0  0  0  0  0  0  0  0
   13.2544  -10.2295    5.6163 C   0  0  1  0  0  0  0  0  0  0  0  0
   14.3539  -10.5056    4.5316 C   0  0  0  0  0  0  0  0  0  0  0  0
    9.8289  -11.5153    6.6801 C   0  0  1  0  0  0  0  0  0  0  0  0
    9.2904  -11.9931    7.9956 C   0  0  1  0  0  0  0  0  0  0  0  0
    9.6507   -8.1285    0.2071 C   0  0  1  0  0  0  0  0  0  0  0  0
    7.8542  -12.5822    7.7614 C   0  0  0  0  0  0  0  0  0  0  0  0
    7.8013  -13.6936    6.8556 C   0  0  0  0  0  0  0  0  0  0  0  0
    8.2816  -13.2601    5.5608 C   0  0  2  0  0  0  0  0  0  0  0  0
    8.2555  -14.4476    4.5197 C   0  0  0  0  0  0  0  0  0  0  0  0
   15.4585   -2.1820    6.5610 C   0  0  2  0  0  0  0  0  0  0  0  0
   16.0399   -3.4135    4.6379 C   0  0  0  0  0  0  0  0  0  0  0  0
   15.3160   -2.9909    7.6725 C   0  0  0  0  0  0  0  0  0  0  0  0
   16.5748   -2.5567    5.8881 C   0  0  1  0  0  0  0  0  0  0  0  0
    9.2893   -6.9691   -0.8287 C   0  0  0  0  0  0  0  0  0  0  0  0
    8.0903   -6.1011   -0.2112 C   0  0  0  0  0  0  0  0  0  0  0  0
    8.5842   -5.5053    1.1878 C   0  0  1  0  0  0  0  0  0  0  0  0
    7.4968   -4.6644    1.8673 C   0  0  0  0  0  0  0  0  0  0  0  0
   14.2895   -5.1305    4.0757 C   0  0  1  0  0  0  0  0  0  0  0  0
   13.5714   -4.1985    2.9614 C   0  0  0  0  0  0  0  0  0  0  0  0
   12.8911   -5.1016    1.8616 C   0  0  2  0  0  0  0  0  0  0  0  0
   15.4819   -0.7964    6.9720 F   0  0  0  0  0  0  0  0  0  0  0  0
    8.5645  -13.9910    3.0649 N   0  0  0  0  0  0  0  0  0  0  0  0
   10.7875   -8.9943   -0.2802 N   0  0  0  0  0  0  0  0  0  0  0  0
   10.0270  -13.0315    8.5725 N   0  0  0  0  0  0  0  0  0  0  0  0
   15.9578   -2.9708    8.9331 N   0  0  0  0  0  0  0  0  0  0  0  0
    8.0424   -3.8605    2.8906 N   0  0  0  0  0  0  0  0  0  0  0  0
   14.9316   -4.2628    5.0794 N   0  0  0  0  0  0  0  0  0  0  0  0
   12.2200   -4.2637    0.8433 N   0  0  0  0  0  0  0  0  0  0  0  0
   11.2735   -6.8139    1.4925 O   0  0  0  0  0  0  0  0  0  0  0  0
   11.3533   -7.7527    4.1962 O   0  0  0  0  0  0  0  0  0  0  0  0
   13.6792   -6.7963    5.7183 O   0  0  0  0  0  0  0  0  0  0  0  0
    9.7461  -10.3280    4.4610 O   0  0  0  0  0  0  0  0  0  0  0  0
   12.7243   -8.8986    5.7323 O   0  0  0  0  0  0  0  0  0  0  0  0
   14.4325   -9.3366    3.6918 O   0  0  0  0  0  0  0  0  0  0  0  0
   11.1120  -11.0167    6.7425 O   0  0  0  0  0  0  0  0  0  0  0  0
   17.3510   -1.4353    5.4124 O   0  0  0  0  0  0  0  0  0  0  0  0
   16.4964   -3.3412    3.4851 O   0  0  0  0  0  0  0  0  0  0  0  0
    9.6747  -12.6888    5.6817 O   0  0  0  0  0  0  0  0  0  0  0  0
    8.9742   -6.6396    2.1212 O   0  0  0  0  0  0  0  0  0  0  0  0
  1 36  1  6  0  0  0
  2 36  1  6  0  0  0
  2  3  1  0  0  0  0
  3 37  1  1  0  0  0
  3  4  1  0  0  0  0
  4 38  1  1  0  0  0
  5 37  1  6  0  0  0
  5  6  1  0  0  0  0
  6  7  1  0  0  0  0
  6 39  1  1  0  0  0
  7 42  1  1  0  0  0
  8  9  1  6  0  0  0
  8  7  1  0  0  0  0
 10 42  1  1  0  0  0
 10 11  1  0  0  0  0
 11 31  1  6  0  0  0
 11 13  1  0  0  0  0
 12 30  1  6  0  0  0
 12  1  1  0  0  0  0
 14 13  1  0  0  0  0
 15 16  1  6  0  0  0
 15 14  1  0  0  0  0
 17 19  1  1  0  0  0
 17 28  1  0  0  0  0
 18 34  1  0  0  0  0
 19 32  1  0  0  0  0
 20 18  1  6  0  0  0
 20 17  1  0  0  0  0
 20 43  1  0  0  0  0
 21 12  1  0  0  0  0
 22 21  1  0  0  0  0
 22 23  1  0  0  0  0
 23 24  1  1  0  0  0
 23 46  1  0  0  0  0
 24 33  1  0  0  0  0
 25 34  1  1  0  0  0
 25  4  1  0  0  0  0
 26 25  1  0  0  0  0
 27 35  1  6  0  0  0
 27 26  1  0  0  0  0
 27  2  1  0  0  0  0
 29 16  1  0  0  0  0
 40  8  1  0  0  0  0
 40  5  1  0  0  0  0
 41  9  1  0  0  0  0
 44 18  2  0  0  0  0
 45 15  1  0  0  0  0
 45 10  1  0  0  0  0
 46  1  1  0  0  0  0
M  END
>  <CHROM.1>
171.90723612,75.36064050,173.88234880,-109.68387070,58.13141329,105.57786554
159.56512892,171.66525616,78.58262638,-40.22354761,102.35978750,-163.99586372
179.38316540,11.79660932,-7.54124505,4.32068882,2.44478123,0.78133892,2.42951487

>  <Name>
lig.pdb

>  <RI>
0

>  <Rbt.Current_Directory>
/home/afrankz/demos/rdock_decoys_rna/rnas/3wru

>  <Rbt.Executable>
rbdock ($Id: //depot/dev/client3/rdock/2013.1/src/exe/rbdock.cxx#4 $)

>  <Rbt.Library>
libRbt.so (2013.1, Build901 2013/11/27)

>  <Rbt.Parameter_File>
/export/apps/rDock/src/rDock_2013.1_src/data/scripts/dock_solv.prm

>  <Rbt.Receptor>
prm/blind_docking_20.prm

>  <SCORE>
12.2173

>  <SCORE.INTER>
2.12876

>  <SCORE.INTER.CONST>
1

>  <SCORE.INTER.POLAR>
0

>  <SCORE.INTER.ROT>
13

>  <SCORE.INTER.SOLV>
45.2385

>  <SCORE.INTER.VDW>
-25.927

>  <SCORE.INTER.norm>
0.0462773

>  <SCORE.INTRA>
6.90139

>  <SCORE.INTRA.DIHEDRAL>
2.34811

>  <SCORE.INTRA.DIHEDRAL.0>
19.7146

>  <SCORE.INTRA.POLAR>
0

>  <SCORE.INTRA.POLAR.0>
0

>  <SCORE.INTRA.REPUL>
0

>  <SCORE.INTRA.REPUL.0>
0

>  <SCORE.INTRA.SOLV>
-0.589623

>  <SCORE.INTRA.SOLV.lig_0>
-116.697

>  <SCORE.INTRA.VDW>
6.02215

>  <SCORE.INTRA.VDW.0>
-7.06424

>  <SCORE.INTRA.norm>
0.15003

>  <SCORE.RESTR>
3.18711

>  <SCORE.RESTR.CAVITY>
3.18711

>  <SCORE.RESTR.norm>
0.0692851

>  <SCORE.SYSTEM>
0

>  <SCORE.SYSTEM.CONST>
0

>  <SCORE.SYSTEM.DIHEDRAL>
0

>  <SCORE.SYSTEM.SOLV>
0

>  <SCORE.SYSTEM.norm>
0

>  <SCORE.heavy>
46

>  <SCORE.norm>
0.265593

>  <RMSD>
7.872

$$$$
lig.pdb
 OpenBabel03061811583D
libRbt.so/2013.1/901 2013/11/27
 46 49  0  0  0  0  0  0  0  0999 V2000
    8.8419  -18.3361    9.1272 C   0  0  1  0  0  0  0  0  0  0  0  0
   10.4743  -16.4476    9.5476 C   0  0  1  0  0  0  0  0  0  0  0  0
   10.4197  -15.0051   10.1360 C   0  0  1  0  0  0  0  0  0  0  0  0
   11.8549  -14.3003    9.9206 C   0  0  2  0  0  0  0  0  0  0  0  0
    9.3168  -13.8868    8.1433 C   0  0  2  0  0  0  0  0  0  0  0  0
    8.7632  -12.4446    7.9633 C   0  0  1  0  0  0  0  0  0  0  0  0
    9.4570  -12.1164    6.6634 C   0  0  1  0  0  0  0  0  0  0  0  0
   10.9301  -12.5930    6.8683 C   0  0  1  0  0  0  0  0  0  0  0  0
   11.8902  -11.6178    7.6357 C   0  0  0  0  0  0  0  0  0  0  0  0
    9.0800  -12.4669    4.2512 C   0  0  1  0  0  0  0  0  0  0  0  0
   10.1850  -13.2458    3.6023 C   0  0  1  0  0  0  0  0  0  0  0  0
    7.8788  -18.0652    7.9473 C   0  0  1  0  0  0  0  0  0  0  0  0
   10.4524  -12.6397    2.1791 C   0  0  0  0  0  0  0  0  0  0  0  0
   10.8515  -11.2615    2.1786 C   0  0  0  0  0  0  0  0  0  0  0  0
    9.7912  -10.4713    2.7670 C   0  0  2  0  0  0  0  0  0  0  0  0
   10.1780   -8.9402    2.8026 C   0  0  0  0  0  0  0  0  0  0  0  0
   17.1310  -14.6257    8.7684 C   0  0  2  0  0  0  0  0  0  0  0  0
   14.8262  -14.4361    9.2210 C   0  0  0  0  0  0  0  0  0  0  0  0
   18.2546  -13.9586    8.3182 C   0  0  0  0  0  0  0  0  0  0  0  0
   16.2641  -13.7209    9.2871 C   0  0  1  0  0  0  0  0  0  0  0  0
    6.4880  -17.4782    8.4660 C   0  0  0  0  0  0  0  0  0  0  0  0
    5.8504  -18.5328    9.4925 C   0  0  0  0  0  0  0  0  0  0  0  0
    6.8855  -18.7374   10.6936 C   0  0  1  0  0  0  0  0  0  0  0  0
    6.3691  -19.7442   11.7285 C   0  0  0  0  0  0  0  0  0  0  0  0
   12.9402  -15.1331   10.7326 C   0  0  1  0  0  0  0  0  0  0  0  0
   12.9684  -16.6086   10.0632 C   0  0  0  0  0  0  0  0  0  0  0  0
   11.5641  -17.3055   10.2369 C   0  0  2  0  0  0  0  0  0  0  0  0
   17.5219  -15.6450    9.7159 F   0  0  0  0  0  0  0  0  0  0  0  0
   10.3603   -8.3236    1.3860 N   0  0  0  0  0  0  0  0  0  0  0  0
    8.5681  -17.1301    6.9831 N   0  0  0  0  0  0  0  0  0  0  0  0
   11.4090  -13.1701    4.2730 N   0  0  0  0  0  0  0  0  0  0  0  0
   19.1551  -13.0904    8.9791 N   0  0  0  0  0  0  0  0  0  0  0  0
    7.3199  -19.9551   12.7496 N   0  0  0  0  0  0  0  0  0  0  0  0
   14.2676  -14.5126   10.5725 N   0  0  0  0  0  0  0  0  0  0  0  0
   11.5711  -18.6499    9.6188 N   0  0  0  0  0  0  0  0  0  0  0  0
    9.2367  -17.1160    9.7553 O   0  0  0  0  0  0  0  0  0  0  0  0
    9.3358  -14.2772    9.3956 O   0  0  0  0  0  0  0  0  0  0  0  0
   11.7811  -13.0304   10.4480 O   0  0  0  0  0  0  0  0  0  0  0  0
    7.3731  -12.5185    7.8659 O   0  0  0  0  0  0  0  0  0  0  0  0
   10.6226  -13.8637    7.4654 O   0  0  0  0  0  0  0  0  0  0  0  0
   12.0739  -10.4536    6.8056 O   0  0  0  0  0  0  0  0  0  0  0  0
    8.7809  -12.8721    5.5338 O   0  0  0  0  0  0  0  0  0  0  0  0
   16.5682  -13.3660   10.6538 O   0  0  0  0  0  0  0  0  0  0  0  0
   14.2849  -14.8384    8.1781 O   0  0  0  0  0  0  0  0  0  0  0  0
    9.4719  -10.9719    4.1560 O   0  0  0  0  0  0  0  0  0  0  0  0
    8.2128  -19.2394   10.1491 O   0  0  0  0  0  0  0  0  0  0  0  0
  1 36  1  1  0  0  0
  2 36  1  1  0  0  0
  2  3  1  0  0  0  0
  3 37  1  6  0  0  0
  3  4  1  0  0  0  0
  4 38  1  1  0  0  0
  5 37  1  1  0  0  0
  5  6  1  0  0  0  0
  6  7  1  0  0  0  0
  6 39  1  6  0  0  0
  7 42  1  6  0  0  0
  8  9  1  1  0  0  0
  8  7  1  0  0  0  0
 10 42  1  1  0  0  0
 10 11  1  0  0  0  0
 11 31  1  1  0  0  0
 11 13  1  0  0  0  0
 12 30  1  6  0  0  0
 12  1  1  0  0  0  0
 14 13  1  0  0  0  0
 15 16  1  1  0  0  0
 15 14  1  0  0  0  0
 17 19  1  1  0  0  0
 17 28  1  0  0  0  0
 18 34  1  0  0  0  0
 19 32  1  0  0  0  0
 20 18  1  1  0  0  0
 20 17  1  0  0  0  0
 20 43  1  0  0  0  0
 21 12  1  0  0  0  0
 22 21  1  0  0  0  0
 22 23  1  0  0  0  0
 23 24  1  1  0  0  0
 23 46  1  0  0  0  0
 24 33  1  0  0  0  0
 25 34  1  6  0  0  0
 25  4  1  0  0  0  0
 26 25  1  0  0  0  0
 27 35  1  6  0  0  0
 27 26  1  0  0  0  0
 27  2  1  0  0  0  0
 29 16  1  0  0  0  0
 40  8  1  0  0  0  0
 40  5  1  0  0  0  0
 41  9  1  0  0  0  0
 44 18  2  0  0  0  0
 45 15  1  0  0  0  0
 45 10  1  0  0  0  0
 46  1  1  0  0  0  0
M  END
>  <CHROM.1>
-100.68361004,167.02974612,-69.26333467,-136.28843293,165.72952157,-66.71670076
94.78947255,63.68999021,56.24891580,121.52527071,157.57110376,177.45330683
-61.61106450,11.07505352,-14.48716857,7.91730603,1.90095807,0.26298962,2.35457691

>  <Name>
lig.pdb

>  <RI>
0

>  <Rbt.Current_Directory>
/home/afrankz/demos/rdock_decoys_rna/rnas/3wru

>  <Rbt.Executable>
rbdock ($Id: //depot/dev/client3/rdock/2013.1/src/exe/rbdock.cxx#4 $)

>  <Rbt.Library>
libRbt.so (2013.1, Build901 2013/11/27)

>  <Rbt.Parameter_File>
/export/apps/rDock/src/rDock_2013.1_src/data/scripts/dock_solv.prm

>  <Rbt.Receptor>
prm/pocket_docking_3.prm

>  <SCORE>
5.8472

>  <SCORE.INTER>
-0.229903

>  <SCORE.INTER.CONST>
1

>  <SCORE.INTER.POLAR>
0

>  <SCORE.INTER.ROT>
13

>  <SCORE.INTER.SOLV>
19.0566

>  <SCORE.INTER.VDW>
-18.7721

>  <SCORE.INTER.norm>
-0.00499788

>  <SCORE.INTRA>
5.99177

>  <SCORE.INTRA.DIHEDRAL>
2.76811

>  <SCORE.INTRA.DIHEDRAL.0>
19.7146

>  <SCORE.INTRA.POLAR>
0

>  <SCORE.INTRA.POLAR.0>
0

>  <SCORE.INTRA.REPUL>
0

>  <SCORE.INTRA.REPUL.0>
0

>  <SCORE.INTRA.SOLV>
5.20969

>  <SCORE.INTRA.SOLV.lig_0>
-116.697

>  <SCORE.INTRA.VDW>
2.00287

>  <SCORE.INTRA.VDW.0>
-7.06424

>  <SCORE.INTRA.norm>
0.130256

>  <SCORE.RESTR>
0.0853377

>  <SCORE.RESTR.CAVITY>
0.0853377

>  <SCORE.RESTR.norm>
0.00185517

>  <SCORE.SYSTEM>
0

>  <SCORE.SYSTEM.CONST>
0

>  <SCORE.SYSTEM.DIHEDRAL>
0

>  <SCORE.SYSTEM.SOLV>
0

>  <SCORE.SYSTEM.norm>
0

>  <SCORE.heavy>
46

>  <SCORE.norm>
0.127113

>  <RMSD>
7.881

$$$$
lig.pdb
 OpenBabel03061811583D
libRbt.so/2013.1/901 2013/11/27
 46 49  0  0  0  0  0  0  0  0999 V2000
   10.2804   -7.6385    1.3862 C   0  0  1  0  0  0  0  0  0  0  0  0
   11.7729   -5.8524    2.3814 C   0  0  1  0  0  0  0  0  0  0  0  0
   12.5199   -6.7368    3.4253 C   0  0  1  0  0  0  0  0  0  0  0  0
   13.0722   -5.7904    4.6094 C   0  0  2  0  0  0  0  0  0  0  0  0
   11.6425   -8.5725    4.9413 C   0  0  2  0  0  0  0  0  0  0  0  0
   11.0908   -9.9898    4.6166 C   0  0  1  0  0  0  0  0  0  0  0  0
   11.9257  -10.7692    5.6037 C   0  0  1  0  0  0  0  0  0  0  0  0
   13.3723  -10.2065    5.4314 C   0  0  1  0  0  0  0  0  0  0  0  0
   14.2212  -10.7850    4.2454 C   0  0  0  0  0  0  0  0  0  0  0  0
   10.7283  -11.5668    7.6072 C   0  0  1  0  0  0  0  0  0  0  0  0
   10.2304  -12.6101    6.6519 C   0  0  1  0  0  0  0  0  0  0  0  0
   10.1354   -8.4035    0.0494 C   0  0  1  0  0  0  0  0  0  0  0  0
    9.4447  -13.6974    7.4673 C   0  0  0  0  0  0  0  0  0  0  0  0
    8.3040  -13.2032    8.1836 C   0  0  0  0  0  0  0  0  0  0  0  0
    8.7510  -12.2161    9.1433 C   0  0  2  0  0  0  0  0  0  0  0  0
    7.5336  -11.6267    9.9591 C   0  0  0  0  0  0  0  0  0  0  0  0
   15.4569   -3.1916    7.5228 C   0  0  2  0  0  0  0  0  0  0  0  0
   13.7036   -3.2621    5.9499 C   0  0  0  0  0  0  0  0  0  0  0  0
   16.4582   -2.4261    8.0898 C   0  0  0  0  0  0  0  0  0  0  0  0
   14.5117   -2.3648    7.0106 C   0  0  1  0  0  0  0  0  0  0  0  0
    9.5917   -7.4436   -1.1042 C   0  0  0  0  0  0  0  0  0  0  0  0
    8.1804   -6.8441   -0.6338 C   0  0  0  0  0  0  0  0  0  0  0  0
    8.4156   -6.0460    0.7314 C   0  0  1  0  0  0  0  0  0  0  0  0
    7.1142   -5.4415    1.2721 C   0  0  0  0  0  0  0  0  0  0  0  0
   14.1157   -4.7689    3.9783 C   0  0  1  0  0  0  0  0  0  0  0  0
   13.2800   -3.8657    2.9239 C   0  0  0  0  0  0  0  0  0  0  0  0
   12.7055   -4.7767    1.7715 C   0  0  2  0  0  0  0  0  0  0  0  0
   14.9335   -4.1094    8.5093 F   0  0  0  0  0  0  0  0  0  0  0  0
    7.9310  -10.4287   10.8687 N   0  0  0  0  0  0  0  0  0  0  0  0
   11.4761   -9.0062   -0.2951 N   0  0  0  0  0  0  0  0  0  0  0  0
    9.3228  -12.1310    5.7031 N   0  0  0  0  0  0  0  0  0  0  0  0
   17.7851   -2.7470    8.4611 N   0  0  0  0  0  0  0  0  0  0  0  0
    7.3783   -4.4723    2.2630 N   0  0  0  0  0  0  0  0  0  0  0  0
   14.6557   -3.8919    5.0326 N   0  0  0  0  0  0  0  0  0  0  0  0
   11.9287   -3.9668    0.8071 N   0  0  0  0  0  0  0  0  0  0  0  0
   11.3056   -6.6482    1.2998 O   0  0  0  0  0  0  0  0  0  0  0  0
   11.5221   -7.7326    3.9408 O   0  0  0  0  0  0  0  0  0  0  0  0
   13.7269   -6.5934    5.5163 O   0  0  0  0  0  0  0  0  0  0  0  0
    9.7228  -10.0005    4.8919 O   0  0  0  0  0  0  0  0  0  0  0  0
   13.0178   -8.8139    5.4058 O   0  0  0  0  0  0  0  0  0  0  0  0
   13.9870  -12.2068    4.2025 O   0  0  0  0  0  0  0  0  0  0  0  0
   11.3975  -10.5233    7.0055 O   0  0  0  0  0  0  0  0  0  0  0  0
   13.6020   -1.8577    8.0114 O   0  0  0  0  0  0  0  0  0  0  0  0
   12.4693   -3.3995    5.9365 O   0  0  0  0  0  0  0  0  0  0  0  0
    9.5091  -11.1112    8.4460 O   0  0  0  0  0  0  0  0  0  0  0  0
    8.9888   -6.9824    1.7825 O   0  0  0  0  0  0  0  0  0  0  0  0
  1 36  1  6  0  0  0
  2 36  1  6  0  0  0
  2  3  1  0  0  0  0
  3 37  1  1  0  0  0
  3  4  1  0  0  0  0
  4 38  1  1  0  0  0
  5 37  1  6  0  0  0
  5  6  1  0  0  0  0
  6  7  1  0  0  0  0
  6 39  1  1  0  0  0
  7 42  1  1  0  0  0
  8  9  1  6  0  0  0
  8  7  1  0  0  0  0
 10 42  1  6  0  0  0
 10 11  1  0  0  0  0
 11 31  1  6  0  0  0
 11 13  1  0  0  0  0
 12 30  1  6  0  0  0
 12  1  1  0  0  0  0
 14 13  1  0  0  0  0
 15 16  1  6  0  0  0
 15 14  1  0  0  0  0
 17 19  1  1  0  0  0
 17 28  1  0  0  0  0
 18 34  1  0  0  0  0
 19 32  1  0  0  0  0
 20 18  1  6  0  0  0
 20 17  1  0  0  0  0
 20 43  1  0  0  0  0
 21 12  1  0  0  0  0
 22 21  1  0  0  0  0
 22 23  1  0  0  0  0
 23 24  1  1  0  0  0
 23 46  1  0  0  0  0
 24 33  1  0  0  0  0
 25 34  1  1  0  0  0
 25  4  1  0  0  0  0
 26 25  1  0  0  0  0
 27 35  1  6  0  0  0
 27 26  1  0  0  0  0
 27  2  1  0  0  0  0
 29 16  1  0  0  0  0
 40  8  1  0  0  0  0
 40  5  1  0  0  0  0
 41  9  1  0  0  0  0
 44 18  2  0  0  0  0
 45 15  1  0  0  0  0
 45 10  1  0  0  0  0
 46  1  1  0  0  0  0
M  END
>  <CHROM.1>
-174.19758732,67.55148121,-171.00540229,-136.85317975,107.98493556,-41.55757126
-19.15410682,-172.31175355,-162.73176762,-51.88855422,160.28523622,-164.91851668
-48.05234504,11.61026322,-7.52838740,4.84742189,2.42799160,0.91100274,2.19928410

>  <Name>
lig.pdb

>  <RI>
0

>  <Rbt.Current_Directory>
/home/afrankz/demos/rdock_decoys_rna/rnas/3wru

>  <Rbt.Executable>
rbdock ($Id: //depot/dev/client3/rdock/2013.1/src/exe/rbdock.cxx#4 $)

>  <Rbt.Library>
libRbt.so (2013.1, Build901 2013/11/27)

>  <Rbt.Parameter_File>
/export/apps/rDock/src/rDock_2013.1_src/data/scripts/dock_solv.prm

>  <Rbt.Receptor>
prm/blind_docking_20.prm

>  <SCORE>
14.5874

>  <SCORE.INTER>
1.9498

>  <SCORE.INTER.CONST>
1

>  <SCORE.INTER.POLAR>
0

>  <SCORE.INTER.ROT>
13

>  <SCORE.INTER.SOLV>
43.6806

>  <SCORE.INTER.VDW>
-25.527

>  <SCORE.INTER.norm>
0.042387

>  <SCORE.INTRA>
9.81236

>  <SCORE.INTRA.DIHEDRAL>
4.36251

>  <SCORE.INTRA.DIHEDRAL.0>
19.7146

>  <SCORE.INTRA.POLAR>
0

>  <SCORE.INTRA.POLAR.0>
0

>  <SCORE.INTRA.REPUL>
0

>  <SCORE.INTRA.REPUL.0>
0

>  <SCORE.INTRA.SOLV>
-0.00956786

>  <SCORE.INTRA.SOLV.lig_0>
-116.697

>  <SCORE.INTRA.VDW>
7.63589

>  <SCORE.INTRA.VDW.0>
-7.06424

>  <SCORE.INTRA.norm>
0.213312

>  <SCORE.RESTR>
2.82526

>  <SCORE.RESTR.CAVITY>
2.82526

>  <SCORE.RESTR.norm>
0.0614186

>  <SCORE.SYSTEM>
0

>  <SCORE.SYSTEM.CONST>
0

>  <SCORE.SYSTEM.DIHEDRAL>
0

>  <SCORE.SYSTEM.SOLV>
0

>  <SCORE.SYSTEM.norm>
0

>  <SCORE.heavy>
46

>  <SCORE.norm>
0.317118

>  <RMSD>
7.902

$$$$
lig.pdb
 OpenBabel03061811583D
libRbt.so/2013.1/901 2013/11/27
 46 49  0  0  0  0  0  0  0  0999 V2000
    7.5907  -18.2432    9.2309 C   0  0  1  0  0  0  0  0  0  0  0  0
   10.1053  -18.4132    8.9946 C   0  0  1  0  0  0  0  0  0  0  0  0
   10.4082  -17.1318    9.8289 C   0  0  1  0  0  0  0  0  0  0  0  0
   11.8781  -16.5925    9.4399 C   0  0  2  0  0  0  0  0  0  0  0  0
    9.2916  -15.3163    8.4523 C   0  0  2  0  0  0  0  0  0  0  0  0
    7.9988  -14.4521    8.4280 C   0  0  1  0  0  0  0  0  0  0  0  0
    8.5354  -13.2982    7.6160 C   0  0  1  0  0  0  0  0  0  0  0  0
    9.9270  -12.9802    8.2495 C   0  0  1  0  0  0  0  0  0  0  0  0
    9.9313  -12.0852    9.5382 C   0  0  0  0  0  0  0  0  0  0  0  0
    8.9587  -12.7417    5.2507 C   0  0  1  0  0  0  0  0  0  0  0  0
    8.9415  -13.2026    3.8237 C   0  0  1  0  0  0  0  0  0  0  0  0
    6.4327  -19.0738    9.8329 C   0  0  1  0  0  0  0  0  0  0  0  0
    9.3414  -11.9940    2.9052 C   0  0  0  0  0  0  0  0  0  0  0  0
   10.6464  -11.4536    3.1578 C   0  0  0  0  0  0  0  0  0  0  0  0
   10.6902  -10.9645    4.5194 C   0  0  2  0  0  0  0  0  0  0  0  0
   12.1107  -10.3638    4.8606 C   0  0  0  0  0  0  0  0  0  0  0  0
   16.2386  -14.8799    9.1062 C   0  0  2  0  0  0  0  0  0  0  0  0
   14.9483  -16.3299   10.4425 C   0  0  0  0  0  0  0  0  0  0  0  0
   17.4771  -14.3529    8.7924 C   0  0  0  0  0  0  0  0  0  0  0  0
   16.4146  -15.9730    9.8895 C   0  0  1  0  0  0  0  0  0  0  0  0
    6.1644  -20.3910    8.9720 C   0  0  0  0  0  0  0  0  0  0  0  0
    5.8266  -19.9469    7.4684 C   0  0  0  0  0  0  0  0  0  0  0  0
    7.0761  -19.1229    6.9064 C   0  0  1  0  0  0  0  0  0  0  0  0
    6.8437  -18.6407    5.4695 C   0  0  0  0  0  0  0  0  0  0  0  0
   12.9356  -17.7124    9.8377 C   0  0  1  0  0  0  0  0  0  0  0  0
   12.5866  -19.0053    8.9253 C   0  0  0  0  0  0  0  0  0  0  0  0
   11.1402  -19.5323    9.2691 C   0  0  2  0  0  0  0  0  0  0  0  0
   15.5127  -15.1650    7.8891 F   0  0  0  0  0  0  0  0  0  0  0  0
   12.2276   -9.8702    6.3313 N   0  0  0  0  0  0  0  0  0  0  0  0
    6.7784  -19.3912   11.2679 N   0  0  0  0  0  0  0  0  0  0  0  0
    9.8679  -14.2088    3.5360 N   0  0  0  0  0  0  0  0  0  0  0  0
   17.8480  -13.2474    7.9913 N   0  0  0  0  0  0  0  0  0  0  0  0
    7.9825  -17.9760    4.9670 N   0  0  0  0  0  0  0  0  0  0  0  0
   14.2969  -17.2522    9.5099 N   0  0  0  0  0  0  0  0  0  0  0  0
   10.8027  -20.7061    8.4339 N   0  0  0  0  0  0  0  0  0  0  0  0
    8.8314  -18.9416    9.3403 O   0  0  0  0  0  0  0  0  0  0  0  0
    9.3472  -16.1288    9.4808 O   0  0  0  0  0  0  0  0  0  0  0  0
   12.1215  -15.4630   10.1891 O   0  0  0  0  0  0  0  0  0  0  0  0
    6.9961  -15.1825    7.7890 O   0  0  0  0  0  0  0  0  0  0  0  0
   10.3864  -14.3380    8.3559 O   0  0  0  0  0  0  0  0  0  0  0  0
    9.1790  -10.8932    9.2362 O   0  0  0  0  0  0  0  0  0  0  0  0
    8.6704  -13.7297    6.1669 O   0  0  0  0  0  0  0  0  0  0  0  0
   16.9512  -17.1041    9.1690 O   0  0  0  0  0  0  0  0  0  0  0  0
   14.4681  -15.8953   11.5022 O   0  0  0  0  0  0  0  0  0  0  0  0
   10.3335  -12.0691    5.4861 O   0  0  0  0  0  0  0  0  0  0  0  0
    7.3329  -17.9123    7.7887 O   0  0  0  0  0  0  0  0  0  0  0  0
  1 36  1  6  0  0  0
  2 36  1  1  0  0  0
  2  3  1  0  0  0  0
  3 37  1  6  0  0  0
  3  4  1  0  0  0  0
  4 38  1  1  0  0  0
  5 37  1  1  0  0  0
  5  6  1  0  0  0  0
  6  7  1  0  0  0  0
  6 39  1  6  0  0  0
  7 42  1  6  0  0  0
  8  9  1  1  0  0  0
  8  7  1  0  0  0  0
 10 42  1  1  0  0  0
 10 11  1  0  0  0  0
 11 31  1  1  0  0  0
 11 13  1  0  0  0  0
 12 30  1  1  0  0  0
 12  1  1  0  0  0  0
 14 13  1  0  0  0  0
 15 16  1  1  0  0  0
 15 14  1  0  0  0  0
 17 19  1  6  0  0  0
 17 28  1  0  0  0  0
 18 34  1  0  0  0  0
 19 32  1  0  0  0  0
 20 18  1  6  0  0  0
 20 17  1  0  0  0  0
 20 43  1  0  0  0  0
 21 12  1  0  0  0  0
 22 21  1  0  0  0  0
 22 23  1  0  0  0  0
 23 24  1  6  0  0  0
 23 46  1  0  0  0  0
 24 33  1  0  0  0  0
 25 34  1  6  0  0  0
 25  4  1  0  0  0  0
 26 25  1  0  0  0  0
 27 35  1  6  0  0  0
 27 26  1  0  0  0  0
 27  2  1  0  0  0  0
 29 16  1  0  0  0  0
 40  8  1  0  0  0  0
 40  5  1  0  0  0  0
 41  9  1  0  0  0  0
 44 18  2  0  0  0  0
 45 15  1  0  0  0  0
 45 10  1  0  0  0  0
 46  1  1  0  0  0  0
M  END
>  <CHROM.1>
-174.11292083,58.96014852,-82.38796082,178.39962672,170.67775682,-52.66820644
-174.07685455,-177.89779713,178.43978598,89.83492642,168.77371743,-176.96496207
79.89283830,10.68615120,-15.62001593,7.91350845,-2.57364753,-0.29888437,-0.53878345

>  <Name>
lig.pdb

>  <RI>
0

>  <Rbt.Current_Directory>
/home/afrankz/demos/rdock_decoys_rna/rnas/3wru

>  <Rbt.Executable>
rbdock ($Id: //depot/dev/client3/rdock/2013.1/src/exe/rbdock.cxx#4 $)

>  <Rbt.Library>
libRbt.so (2013.1, Build901 2013/11/27)

>  <Rbt.Parameter_File>
/export/apps/rDock/src/rDock_2013.1_src/data/scripts/dock_solv.prm

>  <Rbt.Receptor>
prm/pocket_docking_4.prm

>  <SCORE>
-7.45625

>  <SCORE.INTER>
0.0286126

>  <SCORE.INTER.CONST>
1

>  <SCORE.INTER.POLAR>
0

>  <SCORE.INTER.ROT>
13

>  <SCORE.INTER.SOLV>
18.8375

>  <SCORE.INTER.VDW>
-18.5267

>  <SCORE.INTER.norm>
0.000622012

>  <SCORE.INTRA>
-7.48892

>  <SCORE.INTRA.DIHEDRAL>
-13.9604

>  <SCORE.INTRA.DIHEDRAL.0>
19.7146

>  <SCORE.INTRA.POLAR>
0

>  <SCORE.INTRA.POLAR.0>
0

>  <SCORE.INTRA.REPUL>
0

>  <SCORE.INTRA.REPUL.0>
0

>  <SCORE.INTRA.SOLV>
-2.06134

>  <SCORE.INTRA.SOLV.lig_0>
-116.697

>  <SCORE.INTRA.VDW>
0.521938

>  <SCORE.INTRA.VDW.0>
-7.06424

>  <SCORE.INTRA.norm>
-0.162803

>  <SCORE.RESTR>
0.00405996

>  <SCORE.RESTR.CAVITY>
0.00405996

>  <SCORE.RESTR.norm>
8.826e-05

>  <SCORE.SYSTEM>
0

>  <SCORE.SYSTEM.CONST>
0

>  <SCORE.SYSTEM.DIHEDRAL>
0

>  <SCORE.SYSTEM.SOLV>
0

>  <SCORE.SYSTEM.norm>
0

>  <SCORE.heavy>
46

>  <SCORE.norm>
-0.162092

>  <RMSD>
7.914

$$$$
lig.pdb
 OpenBabel03061811583D
libRbt.so/2013.1/901 2013/11/27
 46 49  0  0  0  0  0  0  0  0999 V2000
   16.2871  -16.5137    7.7432 C   0  0  1  0  0  0  0  0  0  0  0  0
   15.0991  -14.7767    6.3364 C   0  0  1  0  0  0  0  0  0  0  0  0
   13.6611  -15.0080    6.8917 C   0  0  1  0  0  0  0  0  0  0  0  0
   12.5917  -14.5008    5.7953 C   0  0  2  0  0  0  0  0  0  0  0  0
   12.5788  -17.1211    7.7868 C   0  0  2  0  0  0  0  0  0  0  0  0
   12.6976  -18.6670    7.6662 C   0  0  1  0  0  0  0  0  0  0  0  0
   11.9633  -19.0315    8.9338 C   0  0  1  0  0  0  0  0  0  0  0  0
   12.5493  -18.0754   10.0208 C   0  0  1  0  0  0  0  0  0  0  0  0
   13.9096  -18.4987   10.6782 C   0  0  0  0  0  0  0  0  0  0  0  0
    9.6289  -19.3807    9.6493 C   0  0  1  0  0  0  0  0  0  0  0  0
    8.1725  -19.2024    9.3393 C   0  0  1  0  0  0  0  0  0  0  0  0
   17.3731  -16.5600    8.8440 C   0  0  1  0  0  0  0  0  0  0  0  0
    7.3339  -19.8621   10.4908 C   0  0  0  0  0  0  0  0  0  0  0  0
    7.5590  -19.3040   11.7933 C   0  0  0  0  0  0  0  0  0  0  0  0
    8.9511  -19.4897   12.1433 C   0  0  2  0  0  0  0  0  0  0  0  0
    9.2630  -18.8848   13.5687 C   0  0  0  0  0  0  0  0  0  0  0  0
   10.6467   -9.3136    3.1608 C   0  0  2  0  0  0  0  0  0  0  0  0
   11.7794  -10.9844    4.3765 C   0  0  0  0  0  0  0  0  0  0  0  0
    9.8905   -8.9603    2.0592 C   0  0  0  0  0  0  0  0  0  0  0  0
   10.6658  -10.6659    3.2622 C   0  0  1  0  0  0  0  0  0  0  0  0
   18.8020  -16.1587    8.2567 C   0  0  0  0  0  0  0  0  0  0  0  0
   19.1555  -17.1704    7.0634 C   0  0  0  0  0  0  0  0  0  0  0  0
   18.0094  -17.0443    5.9560 C   0  0  1  0  0  0  0  0  0  0  0  0
   18.2522  -17.9875    4.7715 C   0  0  0  0  0  0  0  0  0  0  0  0
   12.8037  -12.9381    5.5856 C   0  0  1  0  0  0  0  0  0  0  0  0
   14.2996  -12.7631    4.9876 C   0  0  0  0  0  0  0  0  0  0  0  0
   15.3613  -13.2806    6.0331 C   0  0  2  0  0  0  0  0  0  0  0  0
   10.1171   -8.6637    4.3384 F   0  0  0  0  0  0  0  0  0  0  0  0
    8.4751  -19.5832   14.7140 N   0  0  0  0  0  0  0  0  0  0  0  0
   16.9423  -15.6486    9.9679 N   0  0  0  0  0  0  0  0  0  0  0  0
    7.7558  -17.8690    9.2948 N   0  0  0  0  0  0  0  0  0  0  0  0
   10.1063   -9.1545    0.6746 N   0  0  0  0  0  0  0  0  0  0  0  0
   19.4153  -17.6214    4.0615 N   0  0  0  0  0  0  0  0  0  0  0  0
   11.8342  -12.4310    4.5980 N   0  0  0  0  0  0  0  0  0  0  0  0
   16.7323  -13.1386    5.4952 N   0  0  0  0  0  0  0  0  0  0  0  0
   16.0715  -15.1755    7.2938 O   0  0  0  0  0  0  0  0  0  0  0  0
   13.5277  -16.4813    7.1456 O   0  0  0  0  0  0  0  0  0  0  0  0
   11.3321  -14.7149    6.3087 O   0  0  0  0  0  0  0  0  0  0  0  0
   12.0498  -19.0658    6.4963 O   0  0  0  0  0  0  0  0  0  0  0  0
   12.5120  -16.8722    9.2355 O   0  0  0  0  0  0  0  0  0  0  0  0
   14.9114  -18.4827    9.6417 O   0  0  0  0  0  0  0  0  0  0  0  0
   10.4769  -18.7987    8.7323 O   0  0  0  0  0  0  0  0  0  0  0  0
    9.3962  -11.2200    3.6713 O   0  0  0  0  0  0  0  0  0  0  0  0
   12.4824  -10.1279    4.9375 O   0  0  0  0  0  0  0  0  0  0  0  0
    9.8437  -18.8686   11.0947 O   0  0  0  0  0  0  0  0  0  0  0  0
   16.6601  -17.3765    6.5718 O   0  0  0  0  0  0  0  0  0  0  0  0
  1 36  1  6  0  0  0
  2 36  1  1  0  0  0
  2  3  1  0  0  0  0
  3 37  1  6  0  0  0
  3  4  1  0  0  0  0
  4 38  1  1  0  0  0
  5 37  1  1  0  0  0
  5  6  1  0  0  0  0
  6  7  1  0  0  0  0
  6 39  1  6  0  0  0
  7 42  1  6  0  0  0
  8  9  1  6  0  0  0
  8  7  1  0  0  0  0
 10 42  1  6  0  0  0
 10 11  1  0  0  0  0
 11 31  1  1  0  0  0
 11 13  1  0  0  0  0
 12 30  1  1  0  0  0
 12  1  1  0  0  0  0
 14 13  1  0  0  0  0
 15 16  1  1  0  0  0
 15 14  1  0  0  0  0
 17 19  1  6  0  0  0
 17 28  1  0  0  0  0
 18 34  1  0  0  0  0
 19 32  1  0  0  0  0
 20 18  1  1  0  0  0
 20 17  1  0  0  0  0
 20 43  1  0  0  0  0
 21 12  1  0  0  0  0
 22 21  1  0  0  0  0
 22 23  1  0  0  0  0
 23 24  1  6  0  0  0
 23 46  1  0  0  0  0
 24 33  1  0  0  0  0
 25 34  1  6  0  0  0
 25  4  1  0  0  0  0
 26 25  1  0  0  0  0
 27 35  1  6  0  0  0
 27 26  1  0  0  0  0
 27  2  1  0  0  0  0
 29 16  1  0  0  0  0
 40  8  1  0  0  0  0
 40  5  1  0  0  0  0
 41  9  1  0  0  0  0
 44 18  2  0  0  0  0
 45 15  1  0  0  0  0
 45 10  1  0  0  0  0
 46  1  1  0  0  0  0
M  END
>  <CHROM.1>
-176.87803544,65.76114532,169.14275145,172.00543037,164.38597107,64.42215939
-175.60140389,62.80086024,-66.85497106,177.66372745,169.44031594,-65.71546598
173.64544301,12.80002797,-15.69405604,7.32326263,-1.74545714,0.19320690,-0.68902739

>  <Name>
lig.pdb

>  <RI>
0

>  <Rbt.Current_Directory>
/home/afrankz/demos/rdock_decoys_rna/rnas/3wru

>  <Rbt.Executable>
rbdock ($Id: //depot/dev/client3/rdock/2013.1/src/exe/rbdock.cxx#4 $)

>  <Rbt.Library>
libRbt.so (2013.1, Build901 2013/11/27)

>  <Rbt.Parameter_File>
/export/apps/rDock/src/rDock_2013.1_src/data/scripts/dock_solv.prm

>  <Rbt.Receptor>
prm/pocket_docking_5.prm

>  <SCORE>
-4.17735

>  <SCORE.INTER>
2.91141

>  <SCORE.INTER.CONST>
1

>  <SCORE.INTER.POLAR>
0

>  <SCORE.INTER.ROT>
13

>  <SCORE.INTER.SOLV>
19.8674

>  <SCORE.INTER.VDW>
-16.9482

>  <SCORE.INTER.norm>
0.0632915

>  <SCORE.INTRA>
-7.10106

>  <SCORE.INTRA.DIHEDRAL>
-15.5975

>  <SCORE.INTRA.DIHEDRAL.0>
19.7146

>  <SCORE.INTRA.POLAR>
0

>  <SCORE.INTRA.POLAR.0>
0

>  <SCORE.INTRA.REPUL>
0

>  <SCORE.INTRA.REPUL.0>
0

>  <SCORE.INTRA.SOLV>
-1.80938

>  <SCORE.INTRA.SOLV.lig_0>
-116.697

>  <SCORE.INTRA.VDW>
1.6024

>  <SCORE.INTRA.VDW.0>
-7.06424

>  <SCORE.INTRA.norm>
-0.154371

>  <SCORE.RESTR>
0.012308

>  <SCORE.RESTR.CAVITY>
0.012308

>  <SCORE.RESTR.norm>
0.000267566

>  <SCORE.SYSTEM>
0

>  <SCORE.SYSTEM.CONST>
0

>  <SCORE.SYSTEM.DIHEDRAL>
0

>  <SCORE.SYSTEM.SOLV>
0

>  <SCORE.SYSTEM.norm>
0

>  <SCORE.heavy>
46

>  <SCORE.norm>
-0.0908119

>  <RMSD>
7.915

$$$$
lig.pdb
 OpenBabel03061811583D
libRbt.so/2013.1/901 2013/11/27
 46 49  0  0  0  0  0  0  0  0999 V2000
   10.3079  -17.2622    2.4591 C   0  0  1  0  0  0  0  0  0  0  0  0
    9.7248  -15.0373    3.5163 C   0  0  1  0  0  0  0  0  0  0  0  0
    9.3899  -14.4902    4.9369 C   0  0  1  0  0  0  0  0  0  0  0  0
    9.0432  -12.9188    4.8214 C   0  0  2  0  0  0  0  0  0  0  0  0
    7.5512  -15.1386    6.5607 C   0  0  2  0  0  0  0  0  0  0  0  0
    6.2323  -15.9619    6.5965 C   0  0  1  0  0  0  0  0  0  0  0  0
    6.1165  -16.1042    8.0949 C   0  0  1  0  0  0  0  0  0  0  0  0
    7.5492  -16.5086    8.5670 C   0  0  1  0  0  0  0  0  0  0  0  0
    7.9339  -18.0248    8.4453 C   0  0  0  0  0  0  0  0  0  0  0  0
    5.2694  -14.7884   10.0015 C   0  0  1  0  0  0  0  0  0  0  0  0
    4.9582  -13.4328   10.5622 C   0  0  1  0  0  0  0  0  0  0  0  0
    9.7048  -18.6677    2.6921 C   0  0  1  0  0  0  0  0  0  0  0  0
    4.5504  -13.5988   12.0690 C   0  0  0  0  0  0  0  0  0  0  0  0
    5.5624  -14.1784   12.9048 C   0  0  0  0  0  0  0  0  0  0  0  0
    5.8647  -15.5062   12.4143 C   0  0  2  0  0  0  0  0  0  0  0  0
    6.9833  -16.1939   13.2922 C   0  0  0  0  0  0  0  0  0  0  0  0
   11.2657   -7.8258    2.9840 C   0  0  2  0  0  0  0  0  0  0  0  0
   11.2068   -9.8053    4.2612 C   0  0  0  0  0  0  0  0  0  0  0  0
   10.4880   -8.1787    1.8974 C   0  0  0  0  0  0  0  0  0  0  0  0
   10.6781   -8.2948    4.1127 C   0  0  1  0  0  0  0  0  0  0  0  0
   10.4701  -19.4324    3.8657 C   0  0  0  0  0  0  0  0  0  0  0  0
   12.0208  -19.5354    3.4691 C   0  0  0  0  0  0  0  0  0  0  0  0
   12.5785  -18.0497    3.2752 C   0  0  1  0  0  0  0  0  0  0  0  0
   14.0601  -18.0420    2.8799 C   0  0  0  0  0  0  0  0  0  0  0  0
   10.3384  -12.1660    4.2860 C   0  0  1  0  0  0  0  0  0  0  0  0
   10.6217  -12.7567    2.8038 C   0  0  0  0  0  0  0  0  0  0  0  0
   10.9347  -14.3003    2.8903 C   0  0  2  0  0  0  0  0  0  0  0  0
   11.4560   -6.3929    2.9966 F   0  0  0  0  0  0  0  0  0  0  0  0
    6.5326  -16.4587   14.7574 N   0  0  0  0  0  0  0  0  0  0  0  0
    8.2323  -18.5049    2.9831 N   0  0  0  0  0  0  0  0  0  0  0  0
    6.0438  -12.5524   10.5671 N   0  0  0  0  0  0  0  0  0  0  0  0
   10.1107   -9.4434    1.3877 N   0  0  0  0  0  0  0  0  0  0  0  0
   14.5696  -16.7265    2.8471 N   0  0  0  0  0  0  0  0  0  0  0  0
   10.0672  -10.7213    4.1784 N   0  0  0  0  0  0  0  0  0  0  0  0
   11.1833  -14.8565    1.5418 N   0  0  0  0  0  0  0  0  0  0  0  0
   10.0755  -16.4134    3.5838 O   0  0  0  0  0  0  0  0  0  0  0  0
    8.2119  -15.2754    5.4356 O   0  0  0  0  0  0  0  0  0  0  0  0
    8.7520  -12.4601    6.0867 O   0  0  0  0  0  0  0  0  0  0  0  0
    5.2215  -15.1947    6.0159 O   0  0  0  0  0  0  0  0  0  0  0  0
    8.2723  -15.5517    7.7750 O   0  0  0  0  0  0  0  0  0  0  0  0
    6.9933  -18.7723    9.2420 O   0  0  0  0  0  0  0  0  0  0  0  0
    5.6907  -14.7740    8.6895 O   0  0  0  0  0  0  0  0  0  0  0  0
   11.0323   -7.5377    5.2907 O   0  0  0  0  0  0  0  0  0  0  0  0
   12.3981  -10.1255    4.4062 O   0  0  0  0  0  0  0  0  0  0  0  0
    6.2868  -15.4474   10.9651 O   0  0  0  0  0  0  0  0  0  0  0  0
   11.7839  -17.3390    2.1919 O   0  0  0  0  0  0  0  0  0  0  0  0
  1 36  1  1  0  0  0
  2 36  1  1  0  0  0
  2  3  1  0  0  0  0
  3 37  1  6  0  0  0
  3  4  1  0  0  0  0
  4 38  1  1  0  0  0
  5 37  1  6  0  0  0
  5  6  1  0  0  0  0
  6  7  1  0  0  0  0
  6 39  1  1  0  0  0
  7 42  1  1  0  0  0
  8  9  1  6  0  0  0
  8  7  1  0  0  0  0
 10 42  1  6  0  0  0
 10 11  1  0  0  0  0
 11 31  1  1  0  0  0
 11 13  1  0  0  0  0
 12 30  1  1  0  0  0
 12  1  1  0  0  0  0
 14 13  1  0  0  0  0
 15 16  1  1  0  0  0
 15 14  1  0  0  0  0
 17 19  1  6  0  0  0
 17 28  1  0  0  0  0
 18 34  1  0  0  0  0
 19 32  1  0  0  0  0
 20 18  1  1  0  0  0
 20 17  1  0  0  0  0
 20 43  1  0  0  0  0
 21 12  1  0  0  0  0
 22 21  1  0  0  0  0
 22 23  1  0  0  0  0
 23 24  1  6  0  0  0
 23 46  1  0  0  0  0
 24 33  1  0  0  0  0
 25 34  1  6  0  0  0
 25  4  1  0  0  0  0
 26 25  1  0  0  0  0
 27 35  1  6  0  0  0
 27 26  1  0  0  0  0
 27  2  1  0  0  0  0
 29 16  1  0  0  0  0
 40  8  1  0  0  0  0
 40  5  1  0  0  0  0
 41  9  1  0  0  0  0
 44 18  2  0  0  0  0
 45 15  1  0  0  0  0
 45 10  1  0  0  0  0
 46  1  1  0  0  0  0
M  END
>  <CHROM.1>
-139.97206216,173.31057719,-177.43855186,169.22898572,166.94407241,-59.51889547
175.74341195,64.88189149,-61.56551702,-117.51932676,85.87480945,-173.97881844
154.70273489,9.01417061,-14.31667580,5.99015530,-0.37177851,-0.98828805,-3.14014071

>  <Name>
lig.pdb

>  <RI>
0

>  <Rbt.Current_Directory>
/home/afrankz/demos/rdock_decoys_rna/rnas/3wru

>  <Rbt.Executable>
rbdock ($Id: //depot/dev/client3/rdock/2013.1/src/exe/rbdock.cxx#4 $)

>  <Rbt.Library>
libRbt.so (2013.1, Build901 2013/11/27)

>  <Rbt.Parameter_File>
/export/apps/rDock/src/rDock_2013.1_src/data/scripts/dock_solv.prm

>  <Rbt.Receptor>
prm/pocket_docking_8.prm

>  <SCORE>
-3.77908

>  <SCORE.INTER>
-3.15868

>  <SCORE.INTER.CONST>
1

>  <SCORE.INTER.POLAR>
0

>  <SCORE.INTER.ROT>
13

>  <SCORE.INTER.SOLV>
23.2419

>  <SCORE.INTER.VDW>
-22.1198

>  <SCORE.INTER.norm>
-0.0686669

>  <SCORE.INTRA>
-0.620408

>  <SCORE.INTRA.DIHEDRAL>
-7.49012

>  <SCORE.INTRA.DIHEDRAL.0>
19.7146

>  <SCORE.INTRA.POLAR>
0

>  <SCORE.INTRA.POLAR.0>
0

>  <SCORE.INTRA.REPUL>
0

>  <SCORE.INTRA.REPUL.0>
0

>  <SCORE.INTRA.SOLV>
2.15858

>  <SCORE.INTRA.SOLV.lig_0>
-116.697

>  <SCORE.INTRA.VDW>
2.04536

>  <SCORE.INTRA.VDW.0>
-7.06424

>  <SCORE.INTRA.norm>
-0.0134871

>  <SCORE.RESTR>
0

>  <SCORE.RESTR.CAVITY>
0

>  <SCORE.RESTR.norm>
0

>  <SCORE.SYSTEM>
0

>  <SCORE.SYSTEM.CONST>
0

>  <SCORE.SYSTEM.DIHEDRAL>
0

>  <SCORE.SYSTEM.SOLV>
0

>  <SCORE.SYSTEM.norm>
0

>  <SCORE.heavy>
46

>  <SCORE.norm>
-0.082154

>  <RMSD>
7.974

$$$$
lig.pdb
 OpenBabel03061811583D
libRbt.so/2013.1/901 2013/11/27
 46 49  0  0  0  0  0  0  0  0999 V2000
    9.9605  -15.7444    6.5599 C   0  0  1  0  0  0  0  0  0  0  0  0
   12.0171  -15.3340    5.1423 C   0  0  1  0  0  0  0  0  0  0  0  0
   12.2120  -13.8013    4.9359 C   0  0  1  0  0  0  0  0  0  0  0  0
   13.7892  -13.4906    4.7990 C   0  0  2  0  0  0  0  0  0  0  0  0
   11.0700  -12.2540    3.2807 C   0  0  2  0  0  0  0  0  0  0  0  0
    9.7925  -11.7615    4.0184 C   0  0  1  0  0  0  0  0  0  0  0  0
   10.0049  -10.2783    3.8342 C   0  0  1  0  0  0  0  0  0  0  0  0
   11.5070  -10.0448    4.1924 C   0  0  1  0  0  0  0  0  0  0  0  0
   11.8603   -9.9139    5.7155 C   0  0  0  0  0  0  0  0  0  0  0  0
    9.8157   -8.5758    2.0596 C   0  0  1  0  0  0  0  0  0  0  0  0
    9.5938   -8.2848    0.6053 C   0  0  1  0  0  0  0  0  0  0  0  0
    8.4394  -15.9346    6.3517 C   0  0  1  0  0  0  0  0  0  0  0  0
    9.7960   -6.7461    0.3689 C   0  0  0  0  0  0  0  0  0  0  0  0
   11.1016   -6.2535    0.7029 C   0  0  0  0  0  0  0  0  0  0  0  0
   11.3383   -6.4853    2.1119 C   0  0  2  0  0  0  0  0  0  0  0  0
   12.7693   -5.9704    2.5386 C   0  0  0  0  0  0  0  0  0  0  0  0
   18.3365  -10.9859    6.7745 C   0  0  2  0  0  0  0  0  0  0  0  0
   16.4019  -12.3069    6.5193 C   0  0  0  0  0  0  0  0  0  0  0  0
   19.7109  -10.9173    6.9034 C   0  0  0  0  0  0  0  0  0  0  0  0
   17.9987  -12.2298    6.3530 C   0  0  1  0  0  0  0  0  0  0  0  0
    7.7814  -14.6303    5.7084 C   0  0  0  0  0  0  0  0  0  0  0  0
    8.0733  -13.3896    6.6818 C   0  0  0  0  0  0  0  0  0  0  0  0
    9.6585  -13.2381    6.8237 C   0  0  1  0  0  0  0  0  0  0  0  0
   10.0417  -12.0784    7.7509 C   0  0  0  0  0  0  0  0  0  0  0  0
   14.4942  -13.9072    6.1629 C   0  0  1  0  0  0  0  0  0  0  0  0
   14.2797  -15.5067    6.3101 C   0  0  0  0  0  0  0  0  0  0  0  0
   12.7408  -15.8360    6.4164 C   0  0  2  0  0  0  0  0  0  0  0  0
   17.8824   -9.9420    5.8836 F   0  0  0  0  0  0  0  0  0  0  0  0
   12.8754   -4.4186    2.5698 N   0  0  0  0  0  0  0  0  0  0  0  0
    8.2320  -17.1599    5.4943 N   0  0  0  0  0  0  0  0  0  0  0  0
   10.5035   -8.9135   -0.2495 N   0  0  0  0  0  0  0  0  0  0  0  0
   20.6090  -11.6229    7.7381 N   0  0  0  0  0  0  0  0  0  0  0  0
   11.4353  -12.0425    7.9692 N   0  0  0  0  0  0  0  0  0  0  0  0
   15.9389  -13.6263    6.0841 N   0  0  0  0  0  0  0  0  0  0  0  0
   12.5288  -17.2953    6.5387 N   0  0  0  0  0  0  0  0  0  0  0  0
   10.6390  -15.6418    5.3076 O   0  0  0  0  0  0  0  0  0  0  0  0
   11.4714  -13.4366    3.6823 O   0  0  0  0  0  0  0  0  0  0  0  0
   13.9344  -12.1333    4.6183 O   0  0  0  0  0  0  0  0  0  0  0  0
    8.6778  -12.2664    3.3478 O   0  0  0  0  0  0  0  0  0  0  0  0
   12.0385  -11.1605    3.4585 O   0  0  0  0  0  0  0  0  0  0  0  0
   13.2067   -9.4061    5.8025 O   0  0  0  0  0  0  0  0  0  0  0  0
    9.7144   -9.9095    2.3907 O   0  0  0  0  0  0  0  0  0  0  0  0
   18.3565  -12.4763    4.9755 O   0  0  0  0  0  0  0  0  0  0  0  0
   15.6930  -11.3887    6.9630 O   0  0  0  0  0  0  0  0  0  0  0  0
   11.1821   -7.9523    2.4363 O   0  0  0  0  0  0  0  0  0  0  0  0
   10.2501  -14.5217    7.3828 O   0  0  0  0  0  0  0  0  0  0  0  0
  1 36  1  6  0  0  0
  2 36  1  1  0  0  0
  2  3  1  0  0  0  0
  3 37  1  6  0  0  0
  3  4  1  0  0  0  0
  4 38  1  1  0  0  0
  5 37  1  1  0  0  0
  5  6  1  0  0  0  0
  6  7  1  0  0  0  0
  6 39  1  6  0  0  0
  7 42  1  6  0  0  0
  8  9  1  1  0  0  0
  8  7  1  0  0  0  0
 10 42  1  6  0  0  0
 10 11  1  0  0  0  0
 11 31  1  6  0  0  0
 11 13  1  0  0  0  0
 12 30  1  6  0  0  0
 12  1  1  0  0  0  0
 14 13  1  0  0  0  0
 15 16  1  6  0  0  0
 15 14  1  0  0  0  0
 17 19  1  6  0  0  0
 17 28  1  0  0  0  0
 18 34  1  0  0  0  0
 19 32  1  0  0  0  0
 20 18  1  6  0  0  0
 20 17  1  0  0  0  0
 20 43  1  0  0  0  0
 21 12  1  0  0  0  0
 22 21  1  0  0  0  0
 22 23  1  0  0  0  0
 23 24  1  1  0  0  0
 23 46  1  0  0  0  0
 24 33  1  0  0  0  0
 25 34  1  6  0  0  0
 25  4  1  0  0  0  0
 26 25  1  0  0  0  0
 27 35  1  6  0  0  0
 27 26  1  0  0  0  0
 27  2  1  0  0  0  0
 29 16  1  0  0  0  0
 40  8  1  0  0  0  0
 40  5  1  0  0  0  0
 41  9  1  0  0  0  0
 44 18  2  0  0  0  0
 45 15  1  0  0  0  0
 45 10  1  0  0  0  0
 46  1  1  0  0  0  0
M  END
>  <CHROM.1>
173.57820457,-93.30814071,161.53195279,-77.20330059,177.81315499,-167.09300433
176.69826644,71.67268803,-62.37827973,179.96776622,168.87386686,174.16757166
90.08715689,12.42402524,-11.73987499,4.82344011,0.98727338,0.26758946,2.63490072

>  <Name>
lig.pdb

>  <RI>
0

>  <Rbt.Current_Directory>
/home/afrankz/demos/rdock_decoys_rna/rnas/3wru

>  <Rbt.Executable>
rbdock ($Id: //depot/dev/client3/rdock/2013.1/src/exe/rbdock.cxx#4 $)

>  <Rbt.Library>
libRbt.so (2013.1, Build901 2013/11/27)

>  <Rbt.Parameter_File>
/export/apps/rDock/src/rDock_2013.1_src/data/scripts/dock_solv.prm

>  <Rbt.Receptor>
prm/pocket_docking_5.prm

>  <SCORE>
-10.3819

>  <SCORE.INTER>
-7.9482

>  <SCORE.INTER.CONST>
1

>  <SCORE.INTER.POLAR>
0

>  <SCORE.INTER.ROT>
13

>  <SCORE.INTER.SOLV>
22.9327

>  <SCORE.INTER.VDW>
-25.2097

>  <SCORE.INTER.norm>
-0.172787

>  <SCORE.INTRA>
-2.43372

>  <SCORE.INTRA.DIHEDRAL>
-9.10424

>  <SCORE.INTRA.DIHEDRAL.0>
19.7146

>  <SCORE.INTRA.POLAR>
0

>  <SCORE.INTRA.POLAR.0>
0

>  <SCORE.INTRA.REPUL>
0.00196078

>  <SCORE.INTRA.REPUL.0>
0

>  <SCORE.INTRA.SOLV>
3.12692

>  <SCORE.INTRA.SOLV.lig_0>
-116.697

>  <SCORE.INTRA.VDW>
0.545137

>  <SCORE.INTRA.VDW.0>
-7.06424

>  <SCORE.INTRA.norm>
-0.0529069

>  <SCORE.RESTR>
0

>  <SCORE.RESTR.CAVITY>
0

>  <SCORE.RESTR.norm>
0

>  <SCORE.SYSTEM>
0

>  <SCORE.SYSTEM.CONST>
0

>  <SCORE.SYSTEM.DIHEDRAL>
0

>  <SCORE.SYSTEM.SOLV>
0

>  <SCORE.SYSTEM.norm>
0

>  <SCORE.heavy>
46

>  <SCORE.norm>
-0.225694

>  <RMSD>
7.991

$$$$
lig.pdb
 OpenBabel03061811583D
libRbt.so/2013.1/901 2013/11/27
 46 49  0  0  0  0  0  0  0  0999 V2000
   12.2218  -14.9110    5.8886 C   0  0  1  0  0  0  0  0  0  0  0  0
   12.0729  -17.2355    6.8798 C   0  0  1  0  0  0  0  0  0  0  0  0
   10.5228  -17.3137    7.0243 C   0  0  1  0  0  0  0  0  0  0  0  0
   10.1602  -18.3913    8.1689 C   0  0  2  0  0  0  0  0  0  0  0  0
   10.1536  -15.3233    8.5540 C   0  0  2  0  0  0  0  0  0  0  0  0
    9.7042  -13.8357    8.4927 C   0  0  1  0  0  0  0  0  0  0  0  0
    9.3324  -13.6708    9.9465 C   0  0  1  0  0  0  0  0  0  0  0  0
    8.4959  -14.9444   10.2891 C   0  0  1  0  0  0  0  0  0  0  0  0
    6.9784  -14.9240    9.8909 C   0  0  0  0  0  0  0  0  0  0  0  0
   10.4478  -13.2834   12.1120 C   0  0  1  0  0  0  0  0  0  0  0  0
   11.7096  -13.3870   12.9157 C   0  0  1  0  0  0  0  0  0  0  0  0
   12.5751  -14.2613    4.5298 C   0  0  1  0  0  0  0  0  0  0  0  0
   11.3743  -13.0586   14.4137 C   0  0  0  0  0  0  0  0  0  0  0  0
   10.4149  -13.9359   15.0207 C   0  0  0  0  0  0  0  0  0  0  0  0
    9.1686  -13.8362   14.2913 C   0  0  2  0  0  0  0  0  0  0  0  0
    8.0720  -14.7901   14.9096 C   0  0  0  0  0  0  0  0  0  0  0  0
    8.6347  -22.8661    9.8323 C   0  0  2  0  0  0  0  0  0  0  0  0
   10.2804  -22.2266    8.2717 C   0  0  0  0  0  0  0  0  0  0  0  0
    8.1291  -23.8694   10.6371 C   0  0  0  0  0  0  0  0  0  0  0  0
    9.9272  -23.1521    9.5373 C   0  0  1  0  0  0  0  0  0  0  0  0
   14.1393  -14.3710    4.2316 C   0  0  0  0  0  0  0  0  0  0  0  0
   14.9294  -13.6543    5.4294 C   0  0  0  0  0  0  0  0  0  0  0  0
   14.5379  -14.3965    6.7902 C   0  0  1  0  0  0  0  0  0  0  0  0
   15.2375  -13.7727    8.0038 C   0  0  0  0  0  0  0  0  0  0  0  0
   10.6926  -19.8132    7.6941 C   0  0  1  0  0  0  0  0  0  0  0  0
   12.3036  -19.6771    7.5853 C   0  0  0  0  0  0  0  0  0  0  0  0
   12.6808  -18.6059    6.4907 C   0  0  2  0  0  0  0  0  0  0  0  0
    8.4723  -21.5901   10.4918 F   0  0  0  0  0  0  0  0  0  0  0  0
    6.6920  -14.6741   14.2007 N   0  0  0  0  0  0  0  0  0  0  0  0
   11.7428  -14.9266    3.4602 N   0  0  0  0  0  0  0  0  0  0  0  0
   12.2732  -14.6658   12.9340 N   0  0  0  0  0  0  0  0  0  0  0  0
    8.4254  -24.2384   11.9703 N   0  0  0  0  0  0  0  0  0  0  0  0
   14.7675  -12.4639    8.2430 N   0  0  0  0  0  0  0  0  0  0  0  0
   10.3686  -20.8317    8.7090 N   0  0  0  0  0  0  0  0  0  0  0  0
   14.1499  -18.4617    6.3891 N   0  0  0  0  0  0  0  0  0  0  0  0
   12.4304  -16.3231    5.8497 O   0  0  0  0  0  0  0  0  0  0  0  0
   10.0539  -15.9380    7.3993 O   0  0  0  0  0  0  0  0  0  0  0  0
    8.7883  -18.4420    8.2767 O   0  0  0  0  0  0  0  0  0  0  0  0
   10.7961  -13.0648    8.0916 O   0  0  0  0  0  0  0  0  0  0  0  0
    9.3598  -15.8994    9.6508 O   0  0  0  0  0  0  0  0  0  0  0  0
    6.3792  -13.7839   10.5385 O   0  0  0  0  0  0  0  0  0  0  0  0
   10.5996  -13.5981   10.7791 O   0  0  0  0  0  0  0  0  0  0  0  0
   10.8332  -22.8576   10.6230 O   0  0  0  0  0  0  0  0  0  0  0  0
   10.4618  -22.6478    7.1174 O   0  0  0  0  0  0  0  0  0  0  0  0
    9.3879  -14.1538   12.8309 O   0  0  0  0  0  0  0  0  0  0  0  0
   13.0351  -14.3197    7.0043 O   0  0  0  0  0  0  0  0  0  0  0  0
  1 36  1  6  0  0  0
  2 36  1  6  0  0  0
  2  3  1  0  0  0  0
  3 37  1  1  0  0  0
  3  4  1  0  0  0  0
  4 38  1  6  0  0  0
  5 37  1  6  0  0  0
  5  6  1  0  0  0  0
  6  7  1  0  0  0  0
  6 39  1  1  0  0  0
  7 42  1  1  0  0  0
  8  9  1  6  0  0  0
  8  7  1  0  0  0  0
 10 42  1  6  0  0  0
 10 11  1  0  0  0  0
 11 31  1  1  0  0  0
 11 13  1  0  0  0  0
 12 30  1  6  0  0  0
 12  1  1  0  0  0  0
 14 13  1  0  0  0  0
 15 16  1  1  0  0  0
 15 14  1  0  0  0  0
 17 19  1  1  0  0  0
 17 28  1  0  0  0  0
 18 34  1  0  0  0  0
 19 32  1  0  0  0  0
 20 18  1  6  0  0  0
 20 17  1  0  0  0  0
 20 43  1  0  0  0  0
 21 12  1  0  0  0  0
 22 21  1  0  0  0  0
 22 23  1  0  0  0  0
 23 24  1  1  0  0  0
 23 46  1  0  0  0  0
 24 33  1  0  0  0  0
 25 34  1  1  0  0  0
 25  4  1  0  0  0  0
 26 25  1  0  0  0  0
 27 35  1  1  0  0  0
 27 26  1  0  0  0  0
 27  2  1  0  0  0  0
 29 16  1  0  0  0  0
 40  8  1  0  0  0  0
 40  5  1  0  0  0  0
 41  9  1  0  0  0  0
 44 18  2  0  0  0  0
 45 15  1  0  0  0  0
 45 10  1  0  0  0  0
 46  1  1  0  0  0  0
M  END
>  <CHROM.1>
-173.09509033,66.87492464,-74.66348190,172.76430661,172.28237718,-57.42393276
173.05375321,177.42783636,68.27773207,71.26986151,162.81901392,66.95642108
156.33351921,10.70244576,-16.68026242,9.19682686,-1.10436169,-0.99693067
-2.76660417

>  <Name>
lig.pdb

>  <RI>
0

>  <Rbt.Current_Directory>
/home/afrankz/demos/rdock_decoys_rna/rnas/3wru

>  <Rbt.Executable>
rbdock ($Id: //depot/dev/client3/rdock/2013.1/src/exe/rbdock.cxx#4 $)

>  <Rbt.Library>
libRbt.so (2013.1, Build901 2013/11/27)

>  <Rbt.Parameter_File>
/export/apps/rDock/src/rDock_2013.1_src/data/scripts/dock_solv.prm

>  <Rbt.Receptor>
prm/pocket_docking_7.prm

>  <SCORE>
-0.278999

>  <SCORE.INTER>
6.47761

>  <SCORE.INTER.CONST>
1

>  <SCORE.INTER.POLAR>
0

>  <SCORE.INTER.ROT>
13

>  <SCORE.INTER.SOLV>
12.2161

>  <SCORE.INTER.VDW>
-12.0203

>  <SCORE.INTER.norm>
0.140818

>  <SCORE.INTRA>
-6.75661

>  <SCORE.INTRA.DIHEDRAL>
-14.5166

>  <SCORE.INTRA.DIHEDRAL.0>
19.7146

>  <SCORE.INTRA.POLAR>
0

>  <SCORE.INTRA.POLAR.0>
0

>  <SCORE.INTRA.REPUL>
0

>  <SCORE.INTRA.REPUL.0>
0

>  <SCORE.INTRA.SOLV>
0.239292

>  <SCORE.INTRA.SOLV.lig_0>
-116.697

>  <SCORE.INTRA.VDW>
0.382051

>  <SCORE.INTRA.VDW.0>
-7.06424

>  <SCORE.INTRA.norm>
-0.146883

>  <SCORE.RESTR>
0

>  <SCORE.RESTR.CAVITY>
0

>  <SCORE.RESTR.norm>
0

>  <SCORE.SYSTEM>
0

>  <SCORE.SYSTEM.CONST>
0

>  <SCORE.SYSTEM.DIHEDRAL>
0

>  <SCORE.SYSTEM.SOLV>
0

>  <SCORE.SYSTEM.norm>
0

>  <SCORE.heavy>
46

>  <SCORE.norm>
-0.00606519

>  <RMSD>
8.031

$$$$
lig.pdb
 OpenBabel03061811583D
libRbt.so/2013.1/901 2013/11/27
 46 49  0  0  0  0  0  0  0  0999 V2000
    9.5986   -8.0357    1.1224 C   0  0  1  0  0  0  0  0  0  0  0  0
   10.7498   -6.3844    2.6573 C   0  0  1  0  0  0  0  0  0  0  0  0
   11.9157   -7.1213    3.3834 C   0  0  1  0  0  0  0  0  0  0  0  0
   12.1845   -6.4004    4.8015 C   0  0  2  0  0  0  0  0  0  0  0  0
   11.1874   -9.1774    4.6796 C   0  0  2  0  0  0  0  0  0  0  0  0
   10.7985  -10.6656    4.4506 C   0  0  1  0  0  0  0  0  0  0  0  0
   11.1693  -11.1901    5.8167 C   0  0  1  0  0  0  0  0  0  0  0  0
   12.5704  -10.5674    6.1141 C   0  0  1  0  0  0  0  0  0  0  0  0
   13.8146  -11.2916    5.4901 C   0  0  0  0  0  0  0  0  0  0  0  0
   10.2203  -11.2635    8.0922 C   0  0  1  0  0  0  0  0  0  0  0  0
    9.9732  -12.7412    8.1557 C   0  0  1  0  0  0  0  0  0  0  0  0
    9.7545   -8.5556   -0.3262 C   0  0  1  0  0  0  0  0  0  0  0  0
   10.0491  -13.1947    9.6567 C   0  0  0  0  0  0  0  0  0  0  0  0
    9.0905  -12.5696   10.5222 C   0  0  0  0  0  0  0  0  0  0  0  0
    9.3212  -11.1407   10.5145 C   0  0  2  0  0  0  0  0  0  0  0  0
    8.2864  -10.3944   11.4457 C   0  0  0  0  0  0  0  0  0  0  0  0
   15.0334   -2.9648    7.7128 C   0  0  2  0  0  0  0  0  0  0  0  0
   13.7345   -3.0031    5.7470 C   0  0  0  0  0  0  0  0  0  0  0  0
   15.1372   -2.6775    9.0606 C   0  0  0  0  0  0  0  0  0  0  0  0
   13.8865   -2.4195    7.2368 C   0  0  1  0  0  0  0  0  0  0  0  0
    9.3019   -7.4493   -1.3841 C   0  0  0  0  0  0  0  0  0  0  0  0
    7.7766   -7.0586   -1.0791 C   0  0  0  0  0  0  0  0  0  0  0  0
    7.7009   -6.5042    0.4185 C   0  0  1  0  0  0  0  0  0  0  0  0
    6.2715   -6.1125    0.8119 C   0  0  0  0  0  0  0  0  0  0  0  0
   12.6381   -4.9027    4.5152 C   0  0  1  0  0  0  0  0  0  0  0  0
   11.3827   -4.1841    3.7847 C   0  0  0  0  0  0  0  0  0  0  0  0
   11.0836   -4.8927    2.4076 C   0  0  2  0  0  0  0  0  0  0  0  0
   15.1055   -4.3952    7.5171 F   0  0  0  0  0  0  0  0  0  0  0  0
    8.5272   -8.8591   11.5184 N   0  0  0  0  0  0  0  0  0  0  0  0
   11.1908   -8.9778   -0.5220 N   0  0  0  0  0  0  0  0  0  0  0  0
    8.7046  -13.1290    7.7153 N   0  0  0  0  0  0  0  0  0  0  0  0
   16.1956   -2.8690    9.9796 N   0  0  0  0  0  0  0  0  0  0  0  0
    5.3798   -7.1896    0.6222 N   0  0  0  0  0  0  0  0  0  0  0  0
   12.9072   -4.2108    5.7885 N   0  0  0  0  0  0  0  0  0  0  0  0
    9.9307   -4.2546    1.7345 N   0  0  0  0  0  0  0  0  0  0  0  0
   10.5102   -6.9679    1.3831 O   0  0  0  0  0  0  0  0  0  0  0  0
   11.4786   -8.5454    3.5675 O   0  0  0  0  0  0  0  0  0  0  0  0
   13.2167   -7.0682    5.4217 O   0  0  0  0  0  0  0  0  0  0  0  0
    9.4331  -10.7227    4.1683 O   0  0  0  0  0  0  0  0  0  0  0  0
   12.2651   -9.2317    5.6800 O   0  0  0  0  0  0  0  0  0  0  0  0
   14.0556  -10.6969    4.1992 O   0  0  0  0  0  0  0  0  0  0  0  0
   10.1318  -10.7299    6.8248 O   0  0  0  0  0  0  0  0  0  0  0  0
   12.7250   -2.7742    8.0187 O   0  0  0  0  0  0  0  0  0  0  0  0
   14.2335   -2.4886    4.7326 O   0  0  0  0  0  0  0  0  0  0  0  0
    9.2506  -10.6048    9.1040 O   0  0  0  0  0  0  0  0  0  0  0  0
    8.1963   -7.5665    1.3860 O   0  0  0  0  0  0  0  0  0  0  0  0
  1 36  1  6  0  0  0
  2 36  1  6  0  0  0
  2  3  1  0  0  0  0
  3 37  1  1  0  0  0
  3  4  1  0  0  0  0
  4 38  1  6  0  0  0
  5 37  1  6  0  0  0
  5  6  1  0  0  0  0
  6  7  1  0  0  0  0
  6 39  1  1  0  0  0
  7 42  1  1  0  0  0
  8  9  1  6  0  0  0
  8  7  1  0  0  0  0
 10 42  1  6  0  0  0
 10 11  1  0  0  0  0
 11 31  1  1  0  0  0
 11 13  1  0  0  0  0
 12 30  1  6  0  0  0
 12  1  1  0  0  0  0
 14 13  1  0  0  0  0
 15 16  1  1  0  0  0
 15 14  1  0  0  0  0
 17 19  1  1  0  0  0
 17 28  1  0  0  0  0
 18 34  1  0  0  0  0
 19 32  1  0  0  0  0
 20 18  1  6  0  0  0
 20 17  1  0  0  0  0
 20 43  1  0  0  0  0
 21 12  1  0  0  0  0
 22 21  1  0  0  0  0
 22 23  1  0  0  0  0
 23 24  1  1  0  0  0
 23 46  1  0  0  0  0
 24 33  1  0  0  0  0
 25 34  1  1  0  0  0
 25  4  1  0  0  0  0
 26 25  1  0  0  0  0
 27 35  1  1  0  0  0
 27 26  1  0  0  0  0
 27  2  1  0  0  0  0
 29 16  1  0  0  0  0
 40  8  1  0  0  0  0
 40  5  1  0  0  0  0
 41  9  1  0  0  0  0
 44 18  2  0  0  0  0
 45 15  1  0  0  0  0
 45 10  1  0  0  0  0
 46  1  1  0  0  0  0
M  END
>  <CHROM.1>
-171.35014751,90.52608363,-111.72471693,-178.92195042,171.80245167,90.61863768
-65.15846442,177.67056954,-171.40960865,93.23496121,-171.00653019,55.13910133
160.49429582,11.07671173,-7.69021499,5.12016270,1.64924724,-0.94893030,-0.96820522

>  <Name>
lig.pdb

>  <RI>
0

>  <Rbt.Current_Directory>
/home/afrankz/demos/rdock_decoys_rna/rnas/3wru

>  <Rbt.Executable>
rbdock ($Id: //depot/dev/client3/rdock/2013.1/src/exe/rbdock.cxx#4 $)

>  <Rbt.Library>
libRbt.so (2013.1, Build901 2013/11/27)

>  <Rbt.Parameter_File>
/export/apps/rDock/src/rDock_2013.1_src/data/scripts/dock_solv.prm

>  <Rbt.Receptor>
prm/blind_docking_20.prm

>  <SCORE>
10.6352

>  <SCORE.INTER>
3.70679

>  <SCORE.INTER.CONST>
1

>  <SCORE.INTER.POLAR>
0

>  <SCORE.INTER.ROT>
13

>  <SCORE.INTER.SOLV>
40.9489

>  <SCORE.INTER.VDW>
-23.4451

>  <SCORE.INTER.norm>
0.0805824

>  <SCORE.INTRA>
2.56267

>  <SCORE.INTRA.DIHEDRAL>
-2.79675

>  <SCORE.INTRA.DIHEDRAL.0>
19.7146

>  <SCORE.INTRA.POLAR>
0

>  <SCORE.INTRA.POLAR.0>
0

>  <SCORE.INTRA.REPUL>
0

>  <SCORE.INTRA.REPUL.0>
0

>  <SCORE.INTRA.SOLV>
-0.308829

>  <SCORE.INTRA.SOLV.lig_0>
-116.697

>  <SCORE.INTRA.VDW>
4.11546

>  <SCORE.INTRA.VDW.0>
-7.06424

>  <SCORE.INTRA.norm>
0.0557103

>  <SCORE.RESTR>
4.36569

>  <SCORE.RESTR.CAVITY>
4.36569

>  <SCORE.RESTR.norm>
0.0949063

>  <SCORE.SYSTEM>
0

>  <SCORE.SYSTEM.CONST>
0

>  <SCORE.SYSTEM.DIHEDRAL>
0

>  <SCORE.SYSTEM.SOLV>
0

>  <SCORE.SYSTEM.norm>
0

>  <SCORE.heavy>
46

>  <SCORE.norm>
0.231199

>  <RMSD>
8.035

$$$$
lig.pdb
 OpenBabel03061811583D
libRbt.so/2013.1/901 2013/11/27
 46 49  0  0  0  0  0  0  0  0999 V2000
   12.9507  -15.8444    3.9764 C   0  0  1  0  0  0  0  0  0  0  0  0
   11.8752  -16.2880    6.2245 C   0  0  1  0  0  0  0  0  0  0  0  0
   10.6655  -17.1332    5.7224 C   0  0  1  0  0  0  0  0  0  0  0  0
   10.2019  -18.1311    6.9023 C   0  0  2  0  0  0  0  0  0  0  0  0
    8.9883  -15.2741    6.1331 C   0  0  2  0  0  0  0  0  0  0  0  0
    8.0943  -14.2812    5.3371 C   0  0  1  0  0  0  0  0  0  0  0  0
    7.1516  -13.9077    6.4555 C   0  0  1  0  0  0  0  0  0  0  0  0
    6.7698  -15.2669    7.1233 C   0  0  1  0  0  0  0  0  0  0  0  0
    5.6335  -16.1008    6.4339 C   0  0  0  0  0  0  0  0  0  0  0  0
    7.1388  -12.5239    8.4972 C   0  0  1  0  0  0  0  0  0  0  0  0
    7.9333  -11.7205    9.4832 C   0  0  1  0  0  0  0  0  0  0  0  0
   13.4316  -14.6288    3.1492 C   0  0  1  0  0  0  0  0  0  0  0  0
    6.9866  -11.3047   10.6644 C   0  0  0  0  0  0  0  0  0  0  0  0
    6.4072  -12.4021   11.3846 C   0  0  0  0  0  0  0  0  0  0  0  0
    5.6014  -13.1830   10.4703 C   0  0  2  0  0  0  0  0  0  0  0  0
    4.9423  -14.4154   11.2063 C   0  0  0  0  0  0  0  0  0  0  0  0
    8.9625  -21.5161    9.8080 C   0  0  2  0  0  0  0  0  0  0  0  0
   10.3131  -21.2798    7.8914 C   0  0  0  0  0  0  0  0  0  0  0  0
    8.4335  -22.3487   10.7759 C   0  0  0  0  0  0  0  0  0  0  0  0
   10.0002  -22.1492    9.2066 C   0  0  1  0  0  0  0  0  0  0  0  0
   12.1950  -13.7618    2.6325 C   0  0  0  0  0  0  0  0  0  0  0  0
   11.2491  -14.7124    1.7528 C   0  0  0  0  0  0  0  0  0  0  0  0
   10.7701  -15.9235    2.6800 C   0  0  1  0  0  0  0  0  0  0  0  0
    9.8646  -16.9013    1.9214 C   0  0  0  0  0  0  0  0  0  0  0  0
   11.4089  -19.1188    7.2156 C   0  0  1  0  0  0  0  0  0  0  0  0
   12.6228  -18.1897    7.7534 C   0  0  0  0  0  0  0  0  0  0  0  0
   13.0730  -17.1851    6.6238 C   0  0  2  0  0  0  0  0  0  0  0  0
    9.3376  -20.2555   10.4079 F   0  0  0  0  0  0  0  0  0  0  0  0
    5.9860  -15.4446   11.7278 N   0  0  0  0  0  0  0  0  0  0  0  0
   14.3758  -13.8208    4.0065 N   0  0  0  0  0  0  0  0  0  0  0  0
    8.9837  -12.4233   10.0801 N   0  0  0  0  0  0  0  0  0  0  0  0
    7.8380  -23.6288   10.6857 N   0  0  0  0  0  0  0  0  0  0  0  0
    9.3364  -17.8808    2.7888 N   0  0  0  0  0  0  0  0  0  0  0  0
   11.0206  -20.0587    8.2824 N   0  0  0  0  0  0  0  0  0  0  0  0
   14.1733  -16.3208    7.1054 N   0  0  0  0  0  0  0  0  0  0  0  0
   12.3382  -15.4230    5.1956 O   0  0  0  0  0  0  0  0  0  0  0  0
    9.5774  -16.1619    5.3678 O   0  0  0  0  0  0  0  0  0  0  0  0
    9.1348  -18.8651    6.4347 O   0  0  0  0  0  0  0  0  0  0  0  0
    8.8968  -13.2301    4.8918 O   0  0  0  0  0  0  0  0  0  0  0  0
    8.0957  -15.8199    7.1678 O   0  0  0  0  0  0  0  0  0  0  0  0
    5.5900  -17.3872    7.0830 O   0  0  0  0  0  0  0  0  0  0  0  0
    7.8725  -12.9936    7.4295 O   0  0  0  0  0  0  0  0  0  0  0  0
   11.1798  -22.2155   10.0375 O   0  0  0  0  0  0  0  0  0  0  0  0
   10.0092  -21.6148    6.7347 O   0  0  0  0  0  0  0  0  0  0  0  0
    6.4356  -13.6463    9.2993 O   0  0  0  0  0  0  0  0  0  0  0  0
   11.9795  -16.6848    3.1976 O   0  0  0  0  0  0  0  0  0  0  0  0
  1 36  1  1  0  0  0
  2 36  1  6  0  0  0
  2  3  1  0  0  0  0
  3 37  1  1  0  0  0
  3  4  1  0  0  0  0
  4 38  1  6  0  0  0
  5 37  1  6  0  0  0
  5  6  1  0  0  0  0
  6  7  1  0  0  0  0
  6 39  1  1  0  0  0
  7 42  1  1  0  0  0
  8  9  1  6  0  0  0
  8  7  1  0  0  0  0
 10 42  1  6  0  0  0
 10 11  1  0  0  0  0
 11 31  1  1  0  0  0
 11 13  1  0  0  0  0
 12 30  1  1  0  0  0
 12  1  1  0  0  0  0
 14 13  1  0  0  0  0
 15 16  1  1  0  0  0
 15 14  1  0  0  0  0
 17 19  1  1  0  0  0
 17 28  1  0  0  0  0
 18 34  1  0  0  0  0
 19 32  1  0  0  0  0
 20 18  1  6  0  0  0
 20 17  1  0  0  0  0
 20 43  1  0  0  0  0
 21 12  1  0  0  0  0
 22 21  1  0  0  0  0
 22 23  1  0  0  0  0
 23 24  1  6  0  0  0
 23 46  1  0  0  0  0
 24 33  1  0  0  0  0
 25 34  1  1  0  0  0
 25  4  1  0  0  0  0
 26 25  1  0  0  0  0
 27 35  1  1  0  0  0
 27 26  1  0  0  0  0
 27  2  1  0  0  0  0
 29 16  1  0  0  0  0
 40  8  1  0  0  0  0
 40  5  1  0  0  0  0
 41  9  1  0  0  0  0
 44 18  2  0  0  0  0
 45 15  1  0  0  0  0
 45 10  1  0  0  0  0
 46  1  1  0  0  0  0
M  END
>  <CHROM.1>
-175.30395579,-66.55592489,-58.84894935,169.46936519,178.15795270,171.31663268
175.18415084,-64.53232758,-61.22748497,75.88738312,166.73925295,-173.65818180
85.92572172,9.45517302,-16.53922950,7.08859901,-1.74668573,-0.84570550,2.71310563

>  <Name>
lig.pdb

>  <RI>
0

>  <Rbt.Current_Directory>
/home/afrankz/demos/rdock_decoys_rna/rnas/3wru

>  <Rbt.Executable>
rbdock ($Id: //depot/dev/client3/rdock/2013.1/src/exe/rbdock.cxx#4 $)

>  <Rbt.Library>
libRbt.so (2013.1, Build901 2013/11/27)

>  <Rbt.Parameter_File>
/export/apps/rDock/src/rDock_2013.1_src/data/scripts/dock_solv.prm

>  <Rbt.Receptor>
prm/pocket_docking_8.prm

>  <SCORE>
-6.69731

>  <SCORE.INTER>
0.127247

>  <SCORE.INTER.CONST>
1

>  <SCORE.INTER.POLAR>
0

>  <SCORE.INTER.ROT>
13

>  <SCORE.INTER.SOLV>
16.4578

>  <SCORE.INTER.VDW>
-17.6678

>  <SCORE.INTER.norm>
0.00276624

>  <SCORE.INTRA>
-6.82456

>  <SCORE.INTRA.DIHEDRAL>
-15.8912

>  <SCORE.INTRA.DIHEDRAL.0>
19.7146

>  <SCORE.INTRA.POLAR>
0

>  <SCORE.INTRA.POLAR.0>
0

>  <SCORE.INTRA.REPUL>
0

>  <SCORE.INTRA.REPUL.0>
0

>  <SCORE.INTRA.SOLV>
1.98039

>  <SCORE.INTRA.SOLV.lig_0>
-116.697

>  <SCORE.INTRA.VDW>
0.130853

>  <SCORE.INTRA.VDW.0>
-7.06424

>  <SCORE.INTRA.norm>
-0.14836

>  <SCORE.RESTR>
0

>  <SCORE.RESTR.CAVITY>
0

>  <SCORE.RESTR.norm>
0

>  <SCORE.SYSTEM>
0

>  <SCORE.SYSTEM.CONST>
0

>  <SCORE.SYSTEM.DIHEDRAL>
0

>  <SCORE.SYSTEM.SOLV>
0

>  <SCORE.SYSTEM.norm>
0

>  <SCORE.heavy>
46

>  <SCORE.norm>
-0.145594

>  <RMSD>
8.053

$$$$
lig.pdb
 OpenBabel03061811583D
libRbt.so/2013.1/901 2013/11/27
 46 49  0  0  0  0  0  0  0  0999 V2000
   13.9629  -15.7534    9.0460 C   0  0  1  0  0  0  0  0  0  0  0  0
   16.2451  -15.5900    7.9630 C   0  0  1  0  0  0  0  0  0  0  0  0
   16.6160  -14.1254    8.3468 C   0  0  1  0  0  0  0  0  0  0  0  0
   17.6864  -13.5624    7.2790 C   0  0  2  0  0  0  0  0  0  0  0  0
   14.6093  -13.0001    7.2769 C   0  0  2  0  0  0  0  0  0  0  0  0
   15.2160  -11.8273    6.4552 C   0  0  1  0  0  0  0  0  0  0  0  0
   14.5670  -12.1445    5.1297 C   0  0  1  0  0  0  0  0  0  0  0  0
   14.7620  -13.6837    4.9505 C   0  0  1  0  0  0  0  0  0  0  0  0
   16.1488  -14.1624    4.3945 C   0  0  0  0  0  0  0  0  0  0  0  0
   12.7967  -10.4307    5.2418 C   0  0  1  0  0  0  0  0  0  0  0  0
   11.3314  -10.1238    5.1540 C   0  0  1  0  0  0  0  0  0  0  0  0
   13.5196  -15.8118   10.5270 C   0  0  1  0  0  0  0  0  0  0  0  0
   11.1479   -8.5648    5.1616 C   0  0  0  0  0  0  0  0  0  0  0  0
   11.7877   -7.8794    4.0755 C   0  0  0  0  0  0  0  0  0  0  0  0
   13.2126   -8.1238    4.1480 C   0  0  2  0  0  0  0  0  0  0  0  0
   13.9728   -7.3994    2.9681 C   0  0  0  0  0  0  0  0  0  0  0  0
   22.0482  -12.2152    5.5690 C   0  0  2  0  0  0  0  0  0  0  0  0
   21.4212  -14.1381    6.7782 C   0  0  0  0  0  0  0  0  0  0  0  0
   23.0620  -11.5553    4.9006 C   0  0  0  0  0  0  0  0  0  0  0  0
   22.3344  -13.5405    5.5984 C   0  0  1  0  0  0  0  0  0  0  0  0
   13.5157  -17.3145   11.0652 C   0  0  0  0  0  0  0  0  0  0  0  0
   12.5288  -18.1758   10.1398 C   0  0  0  0  0  0  0  0  0  0  0  0
   13.0664  -18.0923    8.6365 C   0  0  1  0  0  0  0  0  0  0  0  0
   12.1771  -18.8793    7.6663 C   0  0  0  0  0  0  0  0  0  0  0  0
   18.9991  -14.4555    7.3788 C   0  0  1  0  0  0  0  0  0  0  0  0
   18.5578  -15.9539    6.9475 C   0  0  0  0  0  0  0  0  0  0  0  0
   17.4884  -16.5135    7.9630 C   0  0  2  0  0  0  0  0  0  0  0  0
   20.7820  -11.9221    4.9362 F   0  0  0  0  0  0  0  0  0  0  0  0
   13.8457   -5.8498    3.0202 N   0  0  0  0  0  0  0  0  0  0  0  0
   14.4389  -14.9217   11.3283 N   0  0  0  0  0  0  0  0  0  0  0  0
   10.7244  -10.5625    3.9739 N   0  0  0  0  0  0  0  0  0  0  0  0
   23.3139  -11.3811    3.5194 N   0  0  0  0  0  0  0  0  0  0  0  0
   12.2201  -20.2617    7.9463 N   0  0  0  0  0  0  0  0  0  0  0  0
   20.0104  -13.9645    6.4256 N   0  0  0  0  0  0  0  0  0  0  0  0
   17.0664  -17.8774    7.5742 N   0  0  0  0  0  0  0  0  0  0  0  0
   15.3320  -16.1348    8.9068 O   0  0  0  0  0  0  0  0  0  0  0  0
   15.3412  -13.3339    8.3132 O   0  0  0  0  0  0  0  0  0  0  0  0
   17.9976  -12.2704    7.6395 O   0  0  0  0  0  0  0  0  0  0  0  0
   14.7911  -10.6271    7.0263 O   0  0  0  0  0  0  0  0  0  0  0  0
   14.3895  -14.0649    6.2854 O   0  0  0  0  0  0  0  0  0  0  0  0
   16.0858  -15.5961    4.2583 O   0  0  0  0  0  0  0  0  0  0  0  0
   13.0961  -11.7749    5.1947 O   0  0  0  0  0  0  0  0  0  0  0  0
   22.0269  -14.2127    4.3575 O   0  0  0  0  0  0  0  0  0  0  0  0
   21.8606  -14.6724    7.8097 O   0  0  0  0  0  0  0  0  0  0  0  0
   13.4925   -9.6080    4.1297 O   0  0  0  0  0  0  0  0  0  0  0  0
   13.1104  -16.6415    8.1856 O   0  0  0  0  0  0  0  0  0  0  0  0
  1 36  1  1  0  0  0
  2 36  1  1  0  0  0
  2  3  1  0  0  0  0
  3 37  1  6  0  0  0
  3  4  1  0  0  0  0
  4 38  1  1  0  0  0
  5 37  1  1  0  0  0
  5  6  1  0  0  0  0
  6  7  1  0  0  0  0
  6 39  1  1  0  0  0
  7 42  1  1  0  0  0
  8  9  1  1  0  0  0
  8  7  1  0  0  0  0
 10 42  1  6  0  0  0
 10 11  1  0  0  0  0
 11 31  1  6  0  0  0
 11 13  1  0  0  0  0
 12 30  1  1  0  0  0
 12  1  1  0  0  0  0
 14 13  1  0  0  0  0
 15 16  1  6  0  0  0
 15 14  1  0  0  0  0
 17 19  1  6  0  0  0
 17 28  1  0  0  0  0
 18 34  1  0  0  0  0
 19 32  1  0  0  0  0
 20 18  1  1  0  0  0
 20 17  1  0  0  0  0
 20 43  1  0  0  0  0
 21 12  1  0  0  0  0
 22 21  1  0  0  0  0
 22 23  1  0  0  0  0
 23 24  1  6  0  0  0
 23 46  1  0  0  0  0
 24 33  1  0  0  0  0
 25 34  1  6  0  0  0
 25  4  1  0  0  0  0
 26 25  1  0  0  0  0
 27 35  1  6  0  0  0
 27 26  1  0  0  0  0
 27  2  1  0  0  0  0
 29 16  1  0  0  0  0
 40  8  1  0  0  0  0
 40  5  1  0  0  0  0
 41  9  1  0  0  0  0
 44 18  2  0  0  0  0
 45 15  1  0  0  0  0
 45 10  1  0  0  0  0
 46  1  1  0  0  0  0
M  END
>  <CHROM.1>
-145.38895433,71.00675890,-68.95024215,-76.56191163,69.97985656,-177.60184158
173.67175541,63.15030653,81.14404189,63.37927026,161.26472484,-65.30656708
149.69029240,15.95897782,-13.43855129,6.53530423,1.20855298,-0.10668677,2.62032581

>  <Name>
lig.pdb

>  <RI>
0

>  <Rbt.Current_Directory>
/home/afrankz/demos/rdock_decoys_rna/rnas/3wru

>  <Rbt.Executable>
rbdock ($Id: //depot/dev/client3/rdock/2013.1/src/exe/rbdock.cxx#4 $)

>  <Rbt.Library>
libRbt.so (2013.1, Build901 2013/11/27)

>  <Rbt.Parameter_File>
/export/apps/rDock/src/rDock_2013.1_src/data/scripts/dock_solv.prm

>  <Rbt.Receptor>
prm/pocket_docking_7.prm

>  <SCORE>
-0.254687

>  <SCORE.INTER>
2.98836

>  <SCORE.INTER.CONST>
1

>  <SCORE.INTER.POLAR>
0

>  <SCORE.INTER.ROT>
13

>  <SCORE.INTER.SOLV>
19.3885

>  <SCORE.INTER.VDW>
-16.7373

>  <SCORE.INTER.norm>
0.0649644

>  <SCORE.INTRA>
-3.24305

>  <SCORE.INTRA.DIHEDRAL>
-8.06317

>  <SCORE.INTRA.DIHEDRAL.0>
19.7146

>  <SCORE.INTRA.POLAR>
0

>  <SCORE.INTRA.POLAR.0>
0

>  <SCORE.INTRA.REPUL>
0.0314498

>  <SCORE.INTRA.REPUL.0>
0

>  <SCORE.INTRA.SOLV>
0.21425

>  <SCORE.INTRA.SOLV.lig_0>
-116.697

>  <SCORE.INTRA.VDW>
0.524161

>  <SCORE.INTRA.VDW.0>
-7.06424

>  <SCORE.INTRA.norm>
-0.0705011

>  <SCORE.RESTR>
0

>  <SCORE.RESTR.CAVITY>
0

>  <SCORE.RESTR.norm>
0

>  <SCORE.SYSTEM>
0

>  <SCORE.SYSTEM.CONST>
0

>  <SCORE.SYSTEM.DIHEDRAL>
0

>  <SCORE.SYSTEM.SOLV>
0

>  <SCORE.SYSTEM.norm>
0

>  <SCORE.heavy>
46

>  <SCORE.norm>
-0.00553668

>  <RMSD>
8.081

$$$$
lig.pdb
 OpenBabel03061811583D
libRbt.so/2013.1/901 2013/11/27
 46 49  0  0  0  0  0  0  0  0999 V2000
    9.2753  -12.4699    5.1746 C   0  0  1  0  0  0  0  0  0  0  0  0
   10.0645  -14.0702    6.9701 C   0  0  1  0  0  0  0  0  0  0  0  0
   10.6871  -12.9985    7.9154 C   0  0  1  0  0  0  0  0  0  0  0  0
   10.6644  -13.5613    9.4272 C   0  0  2  0  0  0  0  0  0  0  0  0
   13.1071  -13.5960    7.4412 C   0  0  2  0  0  0  0  0  0  0  0  0
   14.4596  -12.9047    7.1074 C   0  0  1  0  0  0  0  0  0  0  0  0
   15.3719  -13.8859    7.8030 C   0  0  1  0  0  0  0  0  0  0  0  0
   14.7029  -14.1337    9.1923 C   0  0  1  0  0  0  0  0  0  0  0  0
   14.9805  -13.0704   10.3122 C   0  0  0  0  0  0  0  0  0  0  0  0
   16.2932  -16.1460    7.4467 C   0  0  1  0  0  0  0  0  0  0  0  0
   17.7456  -15.7755    7.3998 C   0  0  1  0  0  0  0  0  0  0  0  0
    9.0859  -12.5175    3.6400 C   0  0  1  0  0  0  0  0  0  0  0  0
   18.5889  -17.0029    7.8966 C   0  0  0  0  0  0  0  0  0  0  0  0
   18.4326  -18.1952    7.1139 C   0  0  0  0  0  0  0  0  0  0  0  0
   17.0453  -18.6049    7.1646 C   0  0  2  0  0  0  0  0  0  0  0  0
   16.8086  -19.9123    6.3104 C   0  0  0  0  0  0  0  0  0  0  0  0
    8.5050  -13.8639   14.1058 C   0  0  2  0  0  0  0  0  0  0  0  0
    7.7779  -14.2720   11.9017 C   0  0  0  0  0  0  0  0  0  0  0  0
    8.4208  -14.1791   15.4488 C   0  0  0  0  0  0  0  0  0  0  0  0
    7.9443  -14.8670   13.3855 C   0  0  1  0  0  0  0  0  0  0  0  0
   10.4789  -12.3269    2.8844 C   0  0  0  0  0  0  0  0  0  0  0  0
   11.1075  -10.9230    3.3385 C   0  0  0  0  0  0  0  0  0  0  0  0
   11.3008  -10.9609    4.9250 C   0  0  1  0  0  0  0  0  0  0  0  0
   11.8890   -9.6502    5.4611 C   0  0  0  0  0  0  0  0  0  0  0  0
    9.1463  -13.7815    9.8487 C   0  0  1  0  0  0  0  0  0  0  0  0
    8.5625  -14.9174    8.8513 C   0  0  0  0  0  0  0  0  0  0  0  0
    8.6026  -14.3986    7.3623 C   0  0  2  0  0  0  0  0  0  0  0  0
    9.8848  -13.6153   13.7538 F   0  0  0  0  0  0  0  0  0  0  0  0
   17.0445  -19.6978    4.7877 N   0  0  0  0  0  0  0  0  0  0  0  0
    8.4213  -13.8268    3.2888 N   0  0  0  0  0  0  0  0  0  0  0  0
   18.2231  -15.4929    6.1170 N   0  0  0  0  0  0  0  0  0  0  0  0
    7.3057  -14.4198   16.2855 N   0  0  0  0  0  0  0  0  0  0  0  0
   11.0752   -8.5503    5.1162 N   0  0  0  0  0  0  0  0  0  0  0  0
    9.0806  -14.2843   11.2327 N   0  0  0  0  0  0  0  0  0  0  0  0
    8.0838  -15.4310    6.4381 N   0  0  0  0  0  0  0  0  0  0  0  0
   10.0305  -13.5924    5.6315 O   0  0  0  0  0  0  0  0  0  0  0  0
   12.0914  -12.7657    7.4390 O   0  0  0  0  0  0  0  0  0  0  0  0
   11.2180  -12.5982   10.2409 O   0  0  0  0  0  0  0  0  0  0  0  0
   14.6050  -12.8745    5.7199 O   0  0  0  0  0  0  0  0  0  0  0  0
   13.3567  -14.2908    8.7141 O   0  0  0  0  0  0  0  0  0  0  0  0
   14.2316  -13.4683   11.4780 O   0  0  0  0  0  0  0  0  0  0  0  0
   15.4444  -15.1632    6.9859 O   0  0  0  0  0  0  0  0  0  0  0  0
    8.7613  -16.0574   13.3432 O   0  0  0  0  0  0  0  0  0  0  0  0
    6.7042  -13.8837   11.4129 O   0  0  0  0  0  0  0  0  0  0  0  0
   16.1497  -17.4868    6.6854 O   0  0  0  0  0  0  0  0  0  0  0  0
    9.9613  -11.2036    5.6009 O   0  0  0  0  0  0  0  0  0  0  0  0
  1 36  1  6  0  0  0
  2 36  1  6  0  0  0
  2  3  1  0  0  0  0
  3 37  1  6  0  0  0
  3  4  1  0  0  0  0
  4 38  1  1  0  0  0
  5 37  1  1  0  0  0
  5  6  1  0  0  0  0
  6  7  1  0  0  0  0
  6 39  1  6  0  0  0
  7 42  1  6  0  0  0
  8  9  1  1  0  0  0
  8  7  1  0  0  0  0
 10 42  1  6  0  0  0
 10 11  1  0  0  0  0
 11 31  1  6  0  0  0
 11 13  1  0  0  0  0
 12 30  1  1  0  0  0
 12  1  1  0  0  0  0
 14 13  1  0  0  0  0
 15 16  1  6  0  0  0
 15 14  1  0  0  0  0
 17 19  1  1  0  0  0
 17 28  1  0  0  0  0
 18 34  1  0  0  0  0
 19 32  1  0  0  0  0
 20 18  1  6  0  0  0
 20 17  1  0  0  0  0
 20 43  1  0  0  0  0
 21 12  1  0  0  0  0
 22 21  1  0  0  0  0
 22 23  1  0  0  0  0
 23 24  1  1  0  0  0
 23 46  1  0  0  0  0
 24 33  1  0  0  0  0
 25 34  1  1  0  0  0
 25  4  1  0  0  0  0
 26 25  1  0  0  0  0
 27 35  1  6  0  0  0
 27 26  1  0  0  0  0
 27  2  1  0  0  0  0
 29 16  1  0  0  0  0
 40  8  1  0  0  0  0
 40  5  1  0  0  0  0
 41  9  1  0  0  0  0
 44 18  2  0  0  0  0
 45 15  1  0  0  0  0
 45 10  1  0  0  0  0
 46  1  1  0  0  0  0
M  END
>  <CHROM.1>
-160.83014486,-63.82643290,-65.90393455,-169.43982604,176.80807438,177.83832085
-66.17657184,-65.24689618,-60.38908604,77.11268070,167.22306048,57.51486121
166.91546925,12.01426364,-14.15866811,8.22134591,2.68778336,-0.48186029,1.93689012

>  <Name>
lig.pdb

>  <RI>
0

>  <Rbt.Current_Directory>
/home/afrankz/demos/rdock_decoys_rna/rnas/3wru

>  <Rbt.Executable>
rbdock ($Id: //depot/dev/client3/rdock/2013.1/src/exe/rbdock.cxx#4 $)

>  <Rbt.Library>
libRbt.so (2013.1, Build901 2013/11/27)

>  <Rbt.Parameter_File>
/export/apps/rDock/src/rDock_2013.1_src/data/scripts/dock_solv.prm

>  <Rbt.Receptor>
prm/pocket_docking_7.prm

>  <SCORE>
-4.93113

>  <SCORE.INTER>
0.899514

>  <SCORE.INTER.CONST>
1

>  <SCORE.INTER.POLAR>
0

>  <SCORE.INTER.ROT>
13

>  <SCORE.INTER.SOLV>
24.1236

>  <SCORE.INTER.VDW>
-19.7082

>  <SCORE.INTER.norm>
0.0195546

>  <SCORE.INTRA>
-5.83434

>  <SCORE.INTRA.DIHEDRAL>
-14.9027

>  <SCORE.INTRA.DIHEDRAL.0>
19.7146

>  <SCORE.INTRA.POLAR>
0

>  <SCORE.INTRA.POLAR.0>
0

>  <SCORE.INTRA.REPUL>
0

>  <SCORE.INTRA.REPUL.0>
0

>  <SCORE.INTRA.SOLV>
0.9739

>  <SCORE.INTRA.SOLV.lig_0>
-116.697

>  <SCORE.INTRA.VDW>
1.13007

>  <SCORE.INTRA.VDW.0>
-7.06424

>  <SCORE.INTRA.norm>
-0.126834

>  <SCORE.RESTR>
0.00370096

>  <SCORE.RESTR.CAVITY>
0.00370096

>  <SCORE.RESTR.norm>
8.04557e-05

>  <SCORE.SYSTEM>
0

>  <SCORE.SYSTEM.CONST>
0

>  <SCORE.SYSTEM.DIHEDRAL>
0

>  <SCORE.SYSTEM.SOLV>
0

>  <SCORE.SYSTEM.norm>
0

>  <SCORE.heavy>
46

>  <SCORE.norm>
-0.107198

>  <RMSD>
8.086

$$$$
lig.pdb
 OpenBabel03061811583D
libRbt.so/2013.1/901 2013/11/27
 46 49  0  0  0  0  0  0  0  0999 V2000
   11.0811   -5.7925    0.0647 C   0  0  1  0  0  0  0  0  0  0  0  0
   12.2017   -5.9000    2.3320 C   0  0  1  0  0  0  0  0  0  0  0  0
   12.6792   -7.0468    3.2737 C   0  0  1  0  0  0  0  0  0  0  0  0
   13.0100   -6.4250    4.7252 C   0  0  2  0  0  0  0  0  0  0  0  0
   11.2465   -8.8574    4.3258 C   0  0  2  0  0  0  0  0  0  0  0  0
   10.5705  -10.1688    3.8339 C   0  0  1  0  0  0  0  0  0  0  0  0
   10.9489  -11.0483    5.0009 C   0  0  1  0  0  0  0  0  0  0  0  0
   12.4609  -10.7474    5.2508 C   0  0  1  0  0  0  0  0  0  0  0  0
   13.4932  -11.4996    4.3395 C   0  0  0  0  0  0  0  0  0  0  0  0
   10.1661  -11.5116    7.2936 C   0  0  1  0  0  0  0  0  0  0  0  0
    9.4739  -12.8275    7.0979 C   0  0  1  0  0  0  0  0  0  0  0  0
    9.8954   -5.0761    0.7534 C   0  0  1  0  0  0  0  0  0  0  0  0
    9.5793  -13.6487    8.4317 C   0  0  0  0  0  0  0  0  0  0  0  0
    8.9768  -13.0212    9.5726 C   0  0  0  0  0  0  0  0  0  0  0  0
    9.6447  -11.7601    9.8150 C   0  0  2  0  0  0  0  0  0  0  0  0
    9.0165  -11.0156   11.0584 C   0  0  0  0  0  0  0  0  0  0  0  0
   14.9062   -2.0789    7.5492 C   0  0  2  0  0  0  0  0  0  0  0  0
   15.4539   -3.6539    5.8842 C   0  0  0  0  0  0  0  0  0  0  0  0
   14.7011   -1.8511    8.8969 C   0  0  0  0  0  0  0  0  0  0  0  0
   15.6770   -3.1855    7.4054 C   0  0  1  0  0  0  0  0  0  0  0  0
    8.9244   -6.1264    1.4617 C   0  0  0  0  0  0  0  0  0  0  0  0
    8.4006   -7.1549    0.3481 C   0  0  0  0  0  0  0  0  0  0  0  0
    9.6751   -7.8749   -0.2947 C   0  0  1  0  0  0  0  0  0  0  0  0
    9.2769   -8.8753   -1.3865 C   0  0  0  0  0  0  0  0  0  0  0  0
   14.2019   -5.3849    4.5562 C   0  0  1  0  0  0  0  0  0  0  0  0
   13.6405   -4.2101    3.5915 C   0  0  0  0  0  0  0  0  0  0  0  0
   13.2828   -4.8023    2.1740 C   0  0  2  0  0  0  0  0  0  0  0  0
   15.4854   -0.9012    6.9432 F   0  0  0  0  0  0  0  0  0  0  0  0
    7.5732  -10.4982   10.7950 N   0  0  0  0  0  0  0  0  0  0  0  0
   10.4569   -4.0704    1.7295 N   0  0  0  0  0  0  0  0  0  0  0  0
    8.1052  -12.7208    6.8358 N   0  0  0  0  0  0  0  0  0  0  0  0
   15.6112   -1.6883    9.9677 N   0  0  0  0  0  0  0  0  0  0  0  0
    8.7515   -8.2118   -2.5154 N   0  0  0  0  0  0  0  0  0  0  0  0
   14.5450   -4.8019    5.8657 N   0  0  0  0  0  0  0  0  0  0  0  0
   12.7566   -3.7423    1.2857 N   0  0  0  0  0  0  0  0  0  0  0  0
   11.9385   -6.4042    1.0290 O   0  0  0  0  0  0  0  0  0  0  0  0
   11.5571   -8.0410    3.3470 O   0  0  0  0  0  0  0  0  0  0  0  0
   13.4292   -7.4556    5.5365 O   0  0  0  0  0  0  0  0  0  0  0  0
    9.1997   -9.9364    3.7149 O   0  0  0  0  0  0  0  0  0  0  0  0
   12.3743   -9.3161    5.1522 O   0  0  0  0  0  0  0  0  0  0  0  0
   12.7475  -12.1496    3.2910 O   0  0  0  0  0  0  0  0  0  0  0  0
   10.1018  -10.6718    6.2030 O   0  0  0  0  0  0  0  0  0  0  0  0
   17.0800   -2.9306    7.6348 O   0  0  0  0  0  0  0  0  0  0  0  0
   15.9668   -3.1065    4.8943 O   0  0  0  0  0  0  0  0  0  0  0  0
    9.5811  -10.8869    8.5840 O   0  0  0  0  0  0  0  0  0  0  0  0
   10.6007   -6.8348   -0.9042 O   0  0  0  0  0  0  0  0  0  0  0  0
  1 36  1  1  0  0  0
  2 36  1  6  0  0  0
  2  3  1  0  0  0  0
  3 37  1  1  0  0  0
  3  4  1  0  0  0  0
  4 38  1  1  0  0  0
  5 37  1  6  0  0  0
  5  6  1  0  0  0  0
  6  7  1  0  0  0  0
  6 39  1  1  0  0  0
  7 42  1  1  0  0  0
  8  9  1  6  0  0  0
  8  7  1  0  0  0  0
 10 42  1  6  0  0  0
 10 11  1  0  0  0  0
 11 31  1  1  0  0  0
 11 13  1  0  0  0  0
 12 30  1  1  0  0  0
 12  1  1  0  0  0  0
 14 13  1  0  0  0  0
 15 16  1  1  0  0  0
 15 14  1  0  0  0  0
 17 19  1  1  0  0  0
 17 28  1  0  0  0  0
 18 34  1  0  0  0  0
 19 32  1  0  0  0  0
 20 18  1  6  0  0  0
 20 17  1  0  0  0  0
 20 43  1  0  0  0  0
 21 12  1  0  0  0  0
 22 21  1  0  0  0  0
 22 23  1  0  0  0  0
 23 24  1  6  0  0  0
 23 46  1  0  0  0  0
 24 33  1  0  0  0  0
 25 34  1  1  0  0  0
 25  4  1  0  0  0  0
 26 25  1  0  0  0  0
 27 35  1  6  0  0  0
 27 26  1  0  0  0  0
 27  2  1  0  0  0  0
 29 16  1  0  0  0  0
 40  8  1  0  0  0  0
 40  5  1  0  0  0  0
 41  9  1  0  0  0  0
 44 18  2  0  0  0  0
 45 15  1  0  0  0  0
 45 10  1  0  0  0  0
 46  1  1  0  0  0  0
M  END
>  <CHROM.1>
-33.23138028,157.23693355,-151.39836560,-150.22684251,170.08424756,9.94037780
-72.30544404,-69.00855915,55.25535271,-102.88780136,161.44910347,68.22765071
-169.42361510,11.77998784,-7.49265699,4.72269990,0.49709655,-0.96882189,-1.16580141

>  <Name>
lig.pdb

>  <RI>
0

>  <Rbt.Current_Directory>
/home/afrankz/demos/rdock_decoys_rna/rnas/3wru

>  <Rbt.Executable>
rbdock ($Id: //depot/dev/client3/rdock/2013.1/src/exe/rbdock.cxx#4 $)

>  <Rbt.Library>
libRbt.so (2013.1, Build901 2013/11/27)

>  <Rbt.Parameter_File>
/export/apps/rDock/src/rDock_2013.1_src/data/scripts/dock_solv.prm

>  <Rbt.Receptor>
prm/blind_docking_20.prm

>  <SCORE>
20.8428

>  <SCORE.INTER>
2.00685

>  <SCORE.INTER.CONST>
1

>  <SCORE.INTER.POLAR>
0

>  <SCORE.INTER.ROT>
13

>  <SCORE.INTER.SOLV>
33.8199

>  <SCORE.INTER.VDW>
-22.2021

>  <SCORE.INTER.norm>
0.0436273

>  <SCORE.INTRA>
15.1503

>  <SCORE.INTRA.DIHEDRAL>
2.58808

>  <SCORE.INTRA.DIHEDRAL.0>
19.7146

>  <SCORE.INTRA.POLAR>
0

>  <SCORE.INTRA.POLAR.0>
0

>  <SCORE.INTRA.REPUL>
0

>  <SCORE.INTRA.REPUL.0>
0

>  <SCORE.INTRA.SOLV>
6.26429

>  <SCORE.INTRA.SOLV.lig_0>
-116.697

>  <SCORE.INTRA.VDW>
10.7241

>  <SCORE.INTRA.VDW.0>
-7.06424

>  <SCORE.INTRA.norm>
0.329354

>  <SCORE.RESTR>
3.68565

>  <SCORE.RESTR.CAVITY>
3.68565

>  <SCORE.RESTR.norm>
0.0801228

>  <SCORE.SYSTEM>
0

>  <SCORE.SYSTEM.CONST>
0

>  <SCORE.SYSTEM.DIHEDRAL>
0

>  <SCORE.SYSTEM.SOLV>
0

>  <SCORE.SYSTEM.norm>
0

>  <SCORE.heavy>
46

>  <SCORE.norm>
0.453104

>  <RMSD>
8.094

$$$$
lig.pdb
 OpenBabel03061811583D
libRbt.so/2013.1/901 2013/11/27
 46 49  0  0  0  0  0  0  0  0999 V2000
   10.2621   -9.7538    4.4056 C   0  0  1  0  0  0  0  0  0  0  0  0
   11.2207  -11.9481    5.2264 C   0  0  1  0  0  0  0  0  0  0  0  0
   10.9446  -11.5774    6.7151 C   0  0  1  0  0  0  0  0  0  0  0  0
   10.8643  -12.9347    7.5835 C   0  0  2  0  0  0  0  0  0  0  0  0
   13.3685  -10.8646    6.9488 C   0  0  2  0  0  0  0  0  0  0  0  0
   13.9819  -12.0408    7.7606 C   0  0  1  0  0  0  0  0  0  0  0  0
   15.1519  -12.3323    6.8523 C   0  0  1  0  0  0  0  0  0  0  0  0
   14.5464  -12.3326    5.4127 C   0  0  1  0  0  0  0  0  0  0  0  0
   13.8414  -13.6524    4.9406 C   0  0  0  0  0  0  0  0  0  0  0  0
   17.5090  -11.6061    6.8309 C   0  0  1  0  0  0  0  0  0  0  0  0
   17.7670  -12.3452    5.5518 C   0  0  1  0  0  0  0  0  0  0  0  0
    9.5675   -9.6786    3.0253 C   0  0  1  0  0  0  0  0  0  0  0  0
   19.2844  -12.7446    5.5049 C   0  0  0  0  0  0  0  0  0  0  0  0
   19.7151  -13.5950    6.5773 C   0  0  0  0  0  0  0  0  0  0  0  0
   19.5139  -12.8992    7.8305 C   0  0  2  0  0  0  0  0  0  0  0  0
   19.9630  -13.7924    9.0533 C   0  0  0  0  0  0  0  0  0  0  0  0
    9.1680  -16.2626   11.0060 C   0  0  2  0  0  0  0  0  0  0  0  0
    8.7440  -14.9996    9.0623 C   0  0  0  0  0  0  0  0  0  0  0  0
    8.9614  -17.4224   11.7286 C   0  0  0  0  0  0  0  0  0  0  0  0
    8.7475  -16.4607    9.7319 C   0  0  1  0  0  0  0  0  0  0  0  0
   10.5849   -9.1872    1.8978 C   0  0  0  0  0  0  0  0  0  0  0  0
   11.1552   -7.7514    2.3285 C   0  0  0  0  0  0  0  0  0  0  0  0
   11.8815   -7.9151    3.7433 C   0  0  1  0  0  0  0  0  0  0  0  0
   12.4535   -6.5855    4.2499 C   0  0  0  0  0  0  0  0  0  0  0  0
    9.6386  -13.7935    7.0442 C   0  0  1  0  0  0  0  0  0  0  0  0
    9.9925  -14.1673    5.5077 C   0  0  0  0  0  0  0  0  0  0  0  0
   10.1046  -12.8512    4.6455 C   0  0  2  0  0  0  0  0  0  0  0  0
   10.5599  -15.8819   11.0915 F   0  0  0  0  0  0  0  0  0  0  0  0
   21.5043  -13.9875    9.1334 N   0  0  0  0  0  0  0  0  0  0  0  0
    8.9872  -11.0378    2.7164 N   0  0  0  0  0  0  0  0  0  0  0  0
   17.0638  -13.5472    5.4334 N   0  0  0  0  0  0  0  0  0  0  0  0
    9.1847  -17.7283   13.0917 N   0  0  0  0  0  0  0  0  0  0  0  0
   11.5182   -5.5400    4.0978 N   0  0  0  0  0  0  0  0  0  0  0  0
    9.5218  -15.0399    7.8222 N   0  0  0  0  0  0  0  0  0  0  0  0
   10.4400  -13.1766    3.2416 N   0  0  0  0  0  0  0  0  0  0  0  0
   11.2583  -10.7768    4.4215 O   0  0  0  0  0  0  0  0  0  0  0  0
   12.0835  -10.7081    7.1622 O   0  0  0  0  0  0  0  0  0  0  0  0
   10.6198  -12.5810    8.8916 O   0  0  0  0  0  0  0  0  0  0  0  0
   14.3426  -11.5617    9.0206 O   0  0  0  0  0  0  0  0  0  0  0  0
   13.7515  -11.1437    5.5558 O   0  0  0  0  0  0  0  0  0  0  0  0
   12.9480  -14.0634    5.9946 O   0  0  0  0  0  0  0  0  0  0  0  0
   16.1934  -11.2403    7.0165 O   0  0  0  0  0  0  0  0  0  0  0  0
    9.6149  -17.3377    8.9805 O   0  0  0  0  0  0  0  0  0  0  0  0
    8.1560  -14.0102    9.5293 O   0  0  0  0  0  0  0  0  0  0  0  0
   18.0682  -12.4861    7.9757 O   0  0  0  0  0  0  0  0  0  0  0  0
   10.8931   -8.4408    4.7713 O   0  0  0  0  0  0  0  0  0  0  0  0
  1 36  1  6  0  0  0
  2 36  1  6  0  0  0
  2  3  1  0  0  0  0
  3 37  1  1  0  0  0
  3  4  1  0  0  0  0
  4 38  1  1  0  0  0
  5 37  1  6  0  0  0
  5  6  1  0  0  0  0
  6  7  1  0  0  0  0
  6 39  1  1  0  0  0
  7 42  1  6  0  0  0
  8  9  1  1  0  0  0
  8  7  1  0  0  0  0
 10 42  1  1  0  0  0
 10 11  1  0  0  0  0
 11 31  1  1  0  0  0
 11 13  1  0  0  0  0
 12 30  1  6  0  0  0
 12  1  1  0  0  0  0
 14 13  1  0  0  0  0
 15 16  1  1  0  0  0
 15 14  1  0  0  0  0
 17 19  1  1  0  0  0
 17 28  1  0  0  0  0
 18 34  1  0  0  0  0
 19 32  1  0  0  0  0
 20 18  1  6  0  0  0
 20 17  1  0  0  0  0
 20 43  1  0  0  0  0
 21 12  1  0  0  0  0
 22 21  1  0  0  0  0
 22 23  1  0  0  0  0
 23 24  1  1  0  0  0
 23 46  1  0  0  0  0
 24 33  1  0  0  0  0
 25 34  1  1  0  0  0
 25  4  1  0  0  0  0
 26 25  1  0  0  0  0
 27 35  1  6  0  0  0
 27 26  1  0  0  0  0
 27  2  1  0  0  0  0
 29 16  1  0  0  0  0
 40  8  1  0  0  0  0
 40  5  1  0  0  0  0
 41  9  1  0  0  0  0
 44 18  2  0  0  0  0
 45 15  1  0  0  0  0
 45 10  1  0  0  0  0
 46  1  1  0  0  0  0
M  END
>  <CHROM.1>
-115.36683981,-50.59506736,-44.00891976,-71.45609540,149.19685244,48.12728922
50.97438579,69.95285339,-177.75900232,127.06637317,168.79627549,45.52914571
86.53069995,12.72416630,-12.44687918,6.72535340,2.57049819,0.04263127,2.38964974

>  <Name>
lig.pdb

>  <RI>
0

>  <Rbt.Current_Directory>
/home/afrankz/demos/rdock_decoys_rna/rnas/3wru

>  <Rbt.Executable>
rbdock ($Id: //depot/dev/client3/rdock/2013.1/src/exe/rbdock.cxx#4 $)

>  <Rbt.Library>
libRbt.so (2013.1, Build901 2013/11/27)

>  <Rbt.Parameter_File>
/export/apps/rDock/src/rDock_2013.1_src/data/scripts/dock_solv.prm

>  <Rbt.Receptor>
prm/pocket_docking_2.prm

>  <SCORE>
10.9267

>  <SCORE.INTER>
1.91199

>  <SCORE.INTER.CONST>
1

>  <SCORE.INTER.POLAR>
0

>  <SCORE.INTER.ROT>
13

>  <SCORE.INTER.SOLV>
22.7783

>  <SCORE.INTER.VDW>
-18.5848

>  <SCORE.INTER.norm>
0.0415651

>  <SCORE.INTRA>
6.83581

>  <SCORE.INTRA.DIHEDRAL>
-1.25128

>  <SCORE.INTRA.DIHEDRAL.0>
19.7146

>  <SCORE.INTRA.POLAR>
0

>  <SCORE.INTRA.POLAR.0>
0

>  <SCORE.INTRA.REPUL>
0

>  <SCORE.INTRA.REPUL.0>
0

>  <SCORE.INTRA.SOLV>
8.30375

>  <SCORE.INTRA.SOLV.lig_0>
-116.697

>  <SCORE.INTRA.VDW>
3.30957

>  <SCORE.INTRA.VDW.0>
-7.06424

>  <SCORE.INTRA.norm>
0.148605

>  <SCORE.RESTR>
2.17894

>  <SCORE.RESTR.CAVITY>
2.17894

>  <SCORE.RESTR.norm>
0.0473683

>  <SCORE.SYSTEM>
0

>  <SCORE.SYSTEM.CONST>
0

>  <SCORE.SYSTEM.DIHEDRAL>
0

>  <SCORE.SYSTEM.SOLV>
0

>  <SCORE.SYSTEM.norm>
0

>  <SCORE.heavy>
46

>  <SCORE.norm>
0.237538

>  <RMSD>
8.094

$$$$
lig.pdb
 OpenBabel03061811583D
libRbt.so/2013.1/901 2013/11/27
 46 49  0  0  0  0  0  0  0  0999 V2000
    9.2898  -12.4868    4.8781 C   0  0  1  0  0  0  0  0  0  0  0  0
   10.8930  -13.5831    6.5017 C   0  0  1  0  0  0  0  0  0  0  0  0
   11.0165  -12.2970    7.3737 C   0  0  1  0  0  0  0  0  0  0  0  0
   11.4723  -12.7192    8.8626 C   0  0  2  0  0  0  0  0  0  0  0  0
   13.1029  -11.7798    6.0257 C   0  0  2  0  0  0  0  0  0  0  0  0
   14.2313  -10.7098    6.0485 C   0  0  1  0  0  0  0  0  0  0  0  0
   15.3975  -11.6320    5.7868 C   0  0  1  0  0  0  0  0  0  0  0  0
   15.1652  -12.8463    6.7410 C   0  0  1  0  0  0  0  0  0  0  0  0
   15.6255  -12.6750    8.2312 C   0  0  0  0  0  0  0  0  0  0  0  0
   16.3538  -12.9451    3.9308 C   0  0  1  0  0  0  0  0  0  0  0  0
   15.8242  -14.2241    3.3541 C   0  0  1  0  0  0  0  0  0  0  0  0
    8.8575  -12.7093    3.4095 C   0  0  1  0  0  0  0  0  0  0  0  0
   17.0400  -15.1519    3.0003 C   0  0  0  0  0  0  0  0  0  0  0  0
   17.8709  -15.5047    4.1156 C   0  0  0  0  0  0  0  0  0  0  0  0
   18.4304  -14.2942    4.6784 C   0  0  2  0  0  0  0  0  0  0  0  0
   19.3506  -14.6191    5.9204 C   0  0  0  0  0  0  0  0  0  0  0  0
   10.4760  -13.7889   13.7507 C   0  0  2  0  0  0  0  0  0  0  0  0
    9.6650  -14.6228   11.7014 C   0  0  0  0  0  0  0  0  0  0  0  0
    9.2571  -13.3462   14.2286 C   0  0  0  0  0  0  0  0  0  0  0  0
   10.2961  -14.9837   13.1348 C   0  0  1  0  0  0  0  0  0  0  0  0
    9.9417  -12.1195    2.3973 C   0  0  0  0  0  0  0  0  0  0  0  0
   10.1204  -10.5564    2.7090 C   0  0  0  0  0  0  0  0  0  0  0  0
   10.5949  -10.4091    4.2286 C   0  0  1  0  0  0  0  0  0  0  0  0
   10.7829   -8.9410    4.6294 C   0  0  0  0  0  0  0  0  0  0  0  0
   10.3338  -13.6402    9.4845 C   0  0  1  0  0  0  0  0  0  0  0  0
   10.2688  -14.9654    8.5541 C   0  0  0  0  0  0  0  0  0  0  0  0
    9.8527  -14.5715    7.0845 C   0  0  2  0  0  0  0  0  0  0  0  0
   11.4279  -13.8481   14.8370 F   0  0  0  0  0  0  0  0  0  0  0  0
   19.9975  -13.3516    6.5491 N   0  0  0  0  0  0  0  0  0  0  0  0
    8.6315  -14.1879    3.2049 N   0  0  0  0  0  0  0  0  0  0  0  0
   15.0360  -14.9671    4.2375 N   0  0  0  0  0  0  0  0  0  0  0  0
    8.4084  -13.8536   15.2404 N   0  0  0  0  0  0  0  0  0  0  0  0
   11.7507   -8.3131    3.8168 N   0  0  0  0  0  0  0  0  0  0  0  0
   10.7064  -14.0382   10.8539 N   0  0  0  0  0  0  0  0  0  0  0  0
    9.8014  -15.7711    6.2197 N   0  0  0  0  0  0  0  0  0  0  0  0
   10.4531  -13.2538    5.1903 O   0  0  0  0  0  0  0  0  0  0  0  0
   12.0439  -11.4244    6.7136 O   0  0  0  0  0  0  0  0  0  0  0  0
   11.5735  -11.5683    9.6117 O   0  0  0  0  0  0  0  0  0  0  0  0
   13.9866   -9.7939    5.0246 O   0  0  0  0  0  0  0  0  0  0  0  0
   13.7638  -13.0167    6.4712 O   0  0  0  0  0  0  0  0  0  0  0  0
   17.0669  -12.6543    8.2363 O   0  0  0  0  0  0  0  0  0  0  0  0
   15.3775  -12.0585    4.3301 O   0  0  0  0  0  0  0  0  0  0  0  0
   11.5273  -15.7169   12.9533 O   0  0  0  0  0  0  0  0  0  0  0  0
    8.4838  -14.8293   11.3776 O   0  0  0  0  0  0  0  0  0  0  0  0
   17.3280  -13.3380    5.0685 O   0  0  0  0  0  0  0  0  0  0  0  0
    9.5637  -11.0358    5.1527 O   0  0  0  0  0  0  0  0  0  0  0  0
  1 36  1  6  0  0  0
  2 36  1  6  0  0  0
  2  3  1  0  0  0  0
  3 37  1  6  0  0  0
  3  4  1  0  0  0  0
  4 38  1  1  0  0  0
  5 37  1  1  0  0  0
  5  6  1  0  0  0  0
  6  7  1  0  0  0  0
  6 39  1  6  0  0  0
  7 42  1  6  0  0  0
  8  9  1  1  0  0  0
  8  7  1  0  0  0  0
 10 42  1  1  0  0  0
 10 11  1  0  0  0  0
 11 31  1  1  0  0  0
 11 13  1  0  0  0  0
 12 30  1  6  0  0  0
 12  1  1  0  0  0  0
 14 13  1  0  0  0  0
 15 16  1  1  0  0  0
 15 14  1  0  0  0  0
 17 19  1  1  0  0  0
 17 28  1  0  0  0  0
 18 34  1  0  0  0  0
 19 32  1  0  0  0  0
 20 18  1  6  0  0  0
 20 17  1  0  0  0  0
 20 43  1  0  0  0  0
 21 12  1  0  0  0  0
 22 21  1  0  0  0  0
 22 23  1  0  0  0  0
 23 24  1  1  0  0  0
 23 46  1  0  0  0  0
 24 33  1  0  0  0  0
 25 34  1  1  0  0  0
 25  4  1  0  0  0  0
 26 25  1  0  0  0  0
 27 35  1  6  0  0  0
 27 26  1  0  0  0  0
 27  2  1  0  0  0  0
 29 16  1  0  0  0  0
 40  8  1  0  0  0  0
 40  5  1  0  0  0  0
 41  9  1  0  0  0  0
 44 18  2  0  0  0  0
 45 15  1  0  0  0  0
 45 10  1  0  0  0  0
 46  1  1  0  0  0  0
M  END
>  <CHROM.1>
-161.32584981,-53.16751764,-32.07738775,-154.00353366,-177.80002143,-69.91552428
121.77433320,179.02839508,66.42732246,72.93430475,77.78945818,-59.68962820
166.17062457,12.58708345,-13.01499789,7.14311532,0.94666491,0.18241877,-1.29181279

>  <Name>
lig.pdb

>  <RI>
0

>  <Rbt.Current_Directory>
/home/afrankz/demos/rdock_decoys_rna/rnas/3wru

>  <Rbt.Executable>
rbdock ($Id: //depot/dev/client3/rdock/2013.1/src/exe/rbdock.cxx#4 $)

>  <Rbt.Library>
libRbt.so (2013.1, Build901 2013/11/27)

>  <Rbt.Parameter_File>
/export/apps/rDock/src/rDock_2013.1_src/data/scripts/dock_solv.prm

>  <Rbt.Receptor>
prm/pocket_docking_7.prm

>  <SCORE>
0.131901

>  <SCORE.INTER>
-2.12848

>  <SCORE.INTER.CONST>
1

>  <SCORE.INTER.POLAR>
0

>  <SCORE.INTER.ROT>
13

>  <SCORE.INTER.SOLV>
21.1116

>  <SCORE.INTER.VDW>
-20.7228

>  <SCORE.INTER.norm>
-0.0462713

>  <SCORE.INTRA>
2.26038

>  <SCORE.INTRA.DIHEDRAL>
-1.87621

>  <SCORE.INTRA.DIHEDRAL.0>
19.7146

>  <SCORE.INTRA.POLAR>
0

>  <SCORE.INTRA.POLAR.0>
0

>  <SCORE.INTRA.REPUL>
0

>  <SCORE.INTRA.REPUL.0>
0

>  <SCORE.INTRA.SOLV>
4.10891

>  <SCORE.INTRA.SOLV.lig_0>
-116.697

>  <SCORE.INTRA.VDW>
1.14403

>  <SCORE.INTRA.VDW.0>
-7.06424

>  <SCORE.INTRA.norm>
0.0491387

>  <SCORE.RESTR>
0

>  <SCORE.RESTR.CAVITY>
0

>  <SCORE.RESTR.norm>
0

>  <SCORE.SYSTEM>
0

>  <SCORE.SYSTEM.CONST>
0

>  <SCORE.SYSTEM.DIHEDRAL>
0

>  <SCORE.SYSTEM.SOLV>
0

>  <SCORE.SYSTEM.norm>
0

>  <SCORE.heavy>
46

>  <SCORE.norm>
0.00286742

>  <RMSD>
8.149

$$$$
lig.pdb
 OpenBabel03061811583D
libRbt.so/2013.1/901 2013/11/27
 46 49  0  0  0  0  0  0  0  0999 V2000
    9.6077   -7.4758    1.2741 C   0  0  1  0  0  0  0  0  0  0  0  0
   10.9343   -5.9508    2.7979 C   0  0  1  0  0  0  0  0  0  0  0  0
   12.3091   -6.6787    2.8971 C   0  0  1  0  0  0  0  0  0  0  0  0
   13.0180   -6.2659    4.2863 C   0  0  2  0  0  0  0  0  0  0  0  0
   11.8169   -8.9830    3.8382 C   0  0  2  0  0  0  0  0  0  0  0  0
   10.4671   -8.7352    4.5699 C   0  0  1  0  0  0  0  0  0  0  0  0
   10.2683  -10.1282    5.1168 C   0  0  1  0  0  0  0  0  0  0  0  0
   10.5841  -11.0750    3.9156 C   0  0  1  0  0  0  0  0  0  0  0  0
    9.4320  -11.3104    2.8768 C   0  0  0  0  0  0  0  0  0  0  0  0
   10.8870  -11.3241    7.1833 C   0  0  1  0  0  0  0  0  0  0  0  0
   10.4988  -12.6362    6.5697 C   0  0  1  0  0  0  0  0  0  0  0  0
    9.9023   -7.9470   -0.1697 C   0  0  1  0  0  0  0  0  0  0  0  0
   10.0801  -13.6193    7.7197 C   0  0  0  0  0  0  0  0  0  0  0  0
    8.9676  -13.1786    8.5113 C   0  0  0  0  0  0  0  0  0  0  0  0
    9.3191  -11.9282    9.1500 C   0  0  2  0  0  0  0  0  0  0  0  0
    8.1255  -11.3866   10.0314 C   0  0  0  0  0  0  0  0  0  0  0  0
   16.1015   -2.0041    6.8311 C   0  0  2  0  0  0  0  0  0  0  0  0
   14.2248   -2.8543    5.6873 C   0  0  0  0  0  0  0  0  0  0  0  0
   16.8365   -1.8868    7.9956 C   0  0  0  0  0  0  0  0  0  0  0  0
   14.9344   -2.6348    7.1127 C   0  0  1  0  0  0  0  0  0  0  0  0
    9.2850   -6.9362   -1.2397 C   0  0  0  0  0  0  0  0  0  0  0  0
    7.7049   -6.8378   -0.9828 C   0  0  0  0  0  0  0  0  0  0  0  0
    7.4812   -6.3182    0.5125 C   0  0  1  0  0  0  0  0  0  0  0  0
    5.9924   -6.2018    0.8610 C   0  0  0  0  0  0  0  0  0  0  0  0
   13.2812   -4.6972    4.2587 C   0  0  1  0  0  0  0  0  0  0  0  0
   11.8218   -3.9973    4.1797 C   0  0  0  0  0  0  0  0  0  0  0  0
   11.0980   -4.4112    2.8407 C   0  0  2  0  0  0  0  0  0  0  0  0
   16.8888   -2.6879    5.8300 F   0  0  0  0  0  0  0  0  0  0  0  0
    8.4509  -10.0396   10.7384 N   0  0  0  0  0  0  0  0  0  0  0  0
   11.3974   -8.0937   -0.3204 N   0  0  0  0  0  0  0  0  0  0  0  0
    9.3904  -12.5655    5.7211 N   0  0  0  0  0  0  0  0  0  0  0  0
   16.4936   -1.3820    9.2719 N   0  0  0  0  0  0  0  0  0  0  0  0
    5.3478   -7.4527    0.7578 N   0  0  0  0  0  0  0  0  0  0  0  0
   13.9419   -4.2800    5.5084 N   0  0  0  0  0  0  0  0  0  0  0  0
    9.7579   -3.7891    2.7606 N   0  0  0  0  0  0  0  0  0  0  0  0
   10.2965   -6.2593    1.5653 O   0  0  0  0  0  0  0  0  0  0  0  0
   12.0231   -8.1512    2.8449 O   0  0  0  0  0  0  0  0  0  0  0  0
   14.2280   -6.9201    4.3495 O   0  0  0  0  0  0  0  0  0  0  0  0
   10.6719   -7.7615    5.5482 O   0  0  0  0  0  0  0  0  0  0  0  0
   11.7790  -10.4085    3.4754 O   0  0  0  0  0  0  0  0  0  0  0  0
    9.8463  -12.3867    2.0118 O   0  0  0  0  0  0  0  0  0  0  0  0
   11.2310  -10.3525    6.2688 O   0  0  0  0  0  0  0  0  0  0  0  0
   15.1240   -3.9105    7.7630 O   0  0  0  0  0  0  0  0  0  0  0  0
   13.9536   -1.9450    4.8860 O   0  0  0  0  0  0  0  0  0  0  0  0
    9.7232  -10.9050    8.1148 O   0  0  0  0  0  0  0  0  0  0  0  0
    8.1353   -7.2773    1.4937 O   0  0  0  0  0  0  0  0  0  0  0  0
  1 36  1  6  0  0  0
  2 36  1  6  0  0  0
  2  3  1  0  0  0  0
  3 37  1  1  0  0  0
  3  4  1  0  0  0  0
  4 38  1  6  0  0  0
  5 37  1  6  0  0  0
  5  6  1  0  0  0  0
  6  7  1  0  0  0  0
  6 39  1  1  0  0  0
  7 42  1  1  0  0  0
  8  9  1  6  0  0  0
  8  7  1  0  0  0  0
 10 42  1  6  0  0  0
 10 11  1  0  0  0  0
 11 31  1  6  0  0  0
 11 13  1  0  0  0  0
 12 30  1  1  0  0  0
 12  1  1  0  0  0  0
 14 13  1  0  0  0  0
 15 16  1  6  0  0  0
 15 14  1  0  0  0  0
 17 19  1  1  0  0  0
 17 28  1  0  0  0  0
 18 34  1  0  0  0  0
 19 32  1  0  0  0  0
 20 18  1  6  0  0  0
 20 17  1  0  0  0  0
 20 43  1  0  0  0  0
 21 12  1  0  0  0  0
 22 21  1  0  0  0  0
 22 23  1  0  0  0  0
 23 24  1  1  0  0  0
 23 46  1  0  0  0  0
 24 33  1  0  0  0  0
 25 34  1  1  0  0  0
 25  4  1  0  0  0  0
 26 25  1  0  0  0  0
 27 35  1  1  0  0  0
 27 26  1  0  0  0  0
 27  2  1  0  0  0  0
 29 16  1  0  0  0  0
 40  8  1  0  0  0  0
 40  5  1  0  0  0  0
 41  9  1  0  0  0  0
 44 18  2  0  0  0  0
 45 15  1  0  0  0  0
 45 10  1  0  0  0  0
 46  1  1  0  0  0  0
M  END
>  <CHROM.1>
-139.90544543,77.80644229,-91.95743280,69.42685305,156.95773527,-169.57498837
49.44320945,-179.84374428,-51.37628302,123.88979202,-174.48338773,60.47002856
-177.93990247,11.20926865,-7.46453368,4.51284016,2.73093831,0.86876578,2.26697520

>  <Name>
lig.pdb

>  <RI>
0

>  <Rbt.Current_Directory>
/home/afrankz/demos/rdock_decoys_rna/rnas/3wru

>  <Rbt.Executable>
rbdock ($Id: //depot/dev/client3/rdock/2013.1/src/exe/rbdock.cxx#4 $)

>  <Rbt.Library>
libRbt.so (2013.1, Build901 2013/11/27)

>  <Rbt.Parameter_File>
/export/apps/rDock/src/rDock_2013.1_src/data/scripts/dock_solv.prm

>  <Rbt.Receptor>
prm/blind_docking_20.prm

>  <SCORE>
6.6763

>  <SCORE.INTER>
-2.42491

>  <SCORE.INTER.CONST>
1

>  <SCORE.INTER.POLAR>
0

>  <SCORE.INTER.ROT>
13

>  <SCORE.INTER.SOLV>
35.8151

>  <SCORE.INTER.VDW>
-25.8216

>  <SCORE.INTER.norm>
-0.0527154

>  <SCORE.INTRA>
5.25055

>  <SCORE.INTRA.DIHEDRAL>
-2.27136

>  <SCORE.INTRA.DIHEDRAL.0>
19.7146

>  <SCORE.INTRA.POLAR>
0

>  <SCORE.INTRA.POLAR.0>
0

>  <SCORE.INTRA.REPUL>
0

>  <SCORE.INTRA.REPUL.0>
0

>  <SCORE.INTRA.SOLV>
3.57725

>  <SCORE.INTRA.SOLV.lig_0>
-116.697

>  <SCORE.INTRA.VDW>
4.5976

>  <SCORE.INTRA.VDW.0>
-7.06424

>  <SCORE.INTRA.norm>
0.114142

>  <SCORE.RESTR>
3.85066

>  <SCORE.RESTR.CAVITY>
3.85066

>  <SCORE.RESTR.norm>
0.0837099

>  <SCORE.SYSTEM>
0

>  <SCORE.SYSTEM.CONST>
0

>  <SCORE.SYSTEM.DIHEDRAL>
0

>  <SCORE.SYSTEM.SOLV>
0

>  <SCORE.SYSTEM.norm>
0

>  <SCORE.heavy>
46

>  <SCORE.norm>
0.145137

>  <RMSD>
8.158

$$$$
lig.pdb
 OpenBabel03061811583D
libRbt.so/2013.1/901 2013/11/27
 46 49  0  0  0  0  0  0  0  0999 V2000
    9.6264   -7.9575    1.1058 C   0  0  1  0  0  0  0  0  0  0  0  0
   11.0471   -6.5168    2.6271 C   0  0  1  0  0  0  0  0  0  0  0  0
   12.1247   -7.4689    3.2287 C   0  0  1  0  0  0  0  0  0  0  0  0
   12.5949   -6.8863    4.6578 C   0  0  2  0  0  0  0  0  0  0  0  0
   11.1100   -9.4368    4.4679 C   0  0  2  0  0  0  0  0  0  0  0  0
   10.6102  -10.8864    4.2078 C   0  0  1  0  0  0  0  0  0  0  0  0
   10.9028  -11.4557    5.5749 C   0  0  1  0  0  0  0  0  0  0  0  0
   12.3408  -10.9505    5.9158 C   0  0  1  0  0  0  0  0  0  0  0  0
   13.5393  -11.7637    5.3124 C   0  0  0  0  0  0  0  0  0  0  0  0
    9.7776  -11.5930    7.7655 C   0  0  1  0  0  0  0  0  0  0  0  0
    8.8465  -12.7683    7.7401 C   0  0  1  0  0  0  0  0  0  0  0  0
    9.6005   -8.3723   -0.3843 C   0  0  1  0  0  0  0  0  0  0  0  0
    8.7876  -13.3883    9.1811 C   0  0  0  0  0  0  0  0  0  0  0  0
    8.3127  -12.4964   10.1997 C   0  0  0  0  0  0  0  0  0  0  0  0
    9.2093  -11.3628   10.2785 C   0  0  2  0  0  0  0  0  0  0  0  0
    8.7312  -10.3375   11.3808 C   0  0  0  0  0  0  0  0  0  0  0  0
   14.3677   -1.7494    7.2996 C   0  0  2  0  0  0  0  0  0  0  0  0
   14.0891   -3.4833    5.7284 C   0  0  0  0  0  0  0  0  0  0  0  0
   13.9941   -1.4259    8.5903 C   0  0  0  0  0  0  0  0  0  0  0  0
   14.5444   -3.0916    7.2192 C   0  0  1  0  0  0  0  0  0  0  0  0
    9.1309   -7.1589   -1.3089 C   0  0  0  0  0  0  0  0  0  0  0  0
    7.6764   -6.6909   -0.8214 C   0  0  0  0  0  0  0  0  0  0  0  0
    7.7894   -6.2511    0.7115 C   0  0  1  0  0  0  0  0  0  0  0  0
    6.4388   -5.7955    1.2769 C   0  0  0  0  0  0  0  0  0  0  0  0
   13.2622   -5.4627    4.4146 C   0  0  1  0  0  0  0  0  0  0  0  0
   12.0933   -4.5145    3.8141 C   0  0  0  0  0  0  0  0  0  0  0  0
   11.5977   -5.0828    2.4287 C   0  0  2  0  0  0  0  0  0  0  0  0
   15.5486   -0.9989    6.9363 F   0  0  0  0  0  0  0  0  0  0  0  0
    8.6319  -10.9683   12.7994 N   0  0  0  0  0  0  0  0  0  0  0  0
   10.9749   -8.8740   -0.7565 N   0  0  0  0  0  0  0  0  0  0  0  0
    7.5246  -12.4445    7.4218 N   0  0  0  0  0  0  0  0  0  0  0  0
   13.6110   -0.1951    9.1731 N   0  0  0  0  0  0  0  0  0  0  0  0
    5.4435   -6.7725    1.0626 N   0  0  0  0  0  0  0  0  0  0  0  0
   13.7189   -4.8999    5.6980 N   0  0  0  0  0  0  0  0  0  0  0  0
   10.5206   -4.2334    1.8739 N   0  0  0  0  0  0  0  0  0  0  0  0
   10.6368   -6.9773    1.3461 O   0  0  0  0  0  0  0  0  0  0  0  0
   11.4790   -8.8162    3.3726 O   0  0  0  0  0  0  0  0  0  0  0  0
   13.5451   -7.7429    5.1671 O   0  0  0  0  0  0  0  0  0  0  0  0
    9.2523  -10.8308    3.8910 O   0  0  0  0  0  0  0  0  0  0  0  0
   12.1538   -9.5893    5.4937 O   0  0  0  0  0  0  0  0  0  0  0  0
   13.4136  -11.7136    3.8772 O   0  0  0  0  0  0  0  0  0  0  0  0
    9.8795  -10.9269    6.5636 O   0  0  0  0  0  0  0  0  0  0  0  0
   15.9151   -3.4949    7.4307 O   0  0  0  0  0  0  0  0  0  0  0  0
   14.0492   -2.6925    4.7715 O   0  0  0  0  0  0  0  0  0  0  0  0
    9.3188  -10.6851    8.9330 O   0  0  0  0  0  0  0  0  0  0  0  0
    8.2959   -7.4166    1.5452 O   0  0  0  0  0  0  0  0  0  0  0  0
  1 36  1  6  0  0  0
  2 36  1  6  0  0  0
  2  3  1  0  0  0  0
  3 37  1  1  0  0  0
  3  4  1  0  0  0  0
  4 38  1  6  0  0  0
  5 37  1  6  0  0  0
  5  6  1  0  0  0  0
  6  7  1  0  0  0  0
  6 39  1  1  0  0  0
  7 42  1  1  0  0  0
  8  9  1  6  0  0  0
  8  7  1  0  0  0  0
 10 42  1  6  0  0  0
 10 11  1  0  0  0  0
 11 31  1  1  0  0  0
 11 13  1  0  0  0  0
 12 30  1  6  0  0  0
 12  1  1  0  0  0  0
 14 13  1  0  0  0  0
 15 16  1  1  0  0  0
 15 14  1  0  0  0  0
 17 19  1  1  0  0  0
 17 28  1  0  0  0  0
 18 34  1  0  0  0  0
 19 32  1  0  0  0  0
 20 18  1  6  0  0  0
 20 17  1  0  0  0  0
 20 43  1  0  0  0  0
 21 12  1  0  0  0  0
 22 21  1  0  0  0  0
 22 23  1  0  0  0  0
 23 24  1  1  0  0  0
 23 46  1  0  0  0  0
 24 33  1  0  0  0  0
 25 34  1  1  0  0  0
 25  4  1  0  0  0  0
 26 25  1  0  0  0  0
 27 35  1  1  0  0  0
 27 26  1  0  0  0  0
 27  2  1  0  0  0  0
 29 16  1  0  0  0  0
 40  8  1  0  0  0  0
 40  5  1  0  0  0  0
 41  9  1  0  0  0  0
 44 18  2  0  0  0  0
 45 15  1  0  0  0  0
 45 10  1  0  0  0  0
 46  1  1  0  0  0  0
M  END
>  <CHROM.1>
-171.04913294,84.95550433,-108.46833065,-173.98440821,163.84519567,60.36528150
-86.49497760,58.51813156,-175.39716472,-157.11030074,146.58450491,53.07851313
-166.82622500,11.04390765,-7.68002909,4.99649463,0.70738514,-0.98200140,-1.04306906

>  <Name>
lig.pdb

>  <RI>
0

>  <Rbt.Current_Directory>
/home/afrankz/demos/rdock_decoys_rna/rnas/3wru

>  <Rbt.Executable>
rbdock ($Id: //depot/dev/client3/rdock/2013.1/src/exe/rbdock.cxx#4 $)

>  <Rbt.Library>
libRbt.so (2013.1, Build901 2013/11/27)

>  <Rbt.Parameter_File>
/export/apps/rDock/src/rDock_2013.1_src/data/scripts/dock_solv.prm

>  <Rbt.Receptor>
prm/blind_docking_20.prm

>  <SCORE>
6.95904

>  <SCORE.INTER>
0.00212185

>  <SCORE.INTER.CONST>
1

>  <SCORE.INTER.POLAR>
0

>  <SCORE.INTER.ROT>
13

>  <SCORE.INTER.SOLV>
38.4118

>  <SCORE.INTER.VDW>
-25.0692

>  <SCORE.INTER.norm>
4.61273e-05

>  <SCORE.INTRA>
3.40719

>  <SCORE.INTRA.DIHEDRAL>
-1.12166

>  <SCORE.INTRA.DIHEDRAL.0>
19.7146

>  <SCORE.INTRA.POLAR>
0

>  <SCORE.INTRA.POLAR.0>
0

>  <SCORE.INTRA.REPUL>
0

>  <SCORE.INTRA.REPUL.0>
0

>  <SCORE.INTRA.SOLV>
-1.02863

>  <SCORE.INTRA.SOLV.lig_0>
-116.697

>  <SCORE.INTRA.VDW>
4.48233

>  <SCORE.INTRA.VDW.0>
-7.06424

>  <SCORE.INTRA.norm>
0.0740693

>  <SCORE.RESTR>
3.54973

>  <SCORE.RESTR.CAVITY>
3.54973

>  <SCORE.RESTR.norm>
0.077168

>  <SCORE.SYSTEM>
0

>  <SCORE.SYSTEM.CONST>
0

>  <SCORE.SYSTEM.DIHEDRAL>
0

>  <SCORE.SYSTEM.SOLV>
0

>  <SCORE.SYSTEM.norm>
0

>  <SCORE.heavy>
46

>  <SCORE.norm>
0.151283

>  <RMSD>
8.172

$$$$
lig.pdb
 OpenBabel03061811583D
libRbt.so/2013.1/901 2013/11/27
 46 49  0  0  0  0  0  0  0  0999 V2000
    8.4686  -21.8366    8.4835 C   0  0  1  0  0  0  0  0  0  0  0  0
   10.3950  -20.4626    7.5840 C   0  0  1  0  0  0  0  0  0  0  0  0
   11.1816  -20.3500    8.9250 C   0  0  1  0  0  0  0  0  0  0  0  0
   12.1464  -19.0588    8.8559 C   0  0  2  0  0  0  0  0  0  0  0  0
    9.3590  -19.2030   10.2669 C   0  0  2  0  0  0  0  0  0  0  0  0
    9.9241  -18.2305   11.3410 C   0  0  1  0  0  0  0  0  0  0  0  0
    9.1736  -16.9918   10.9152 C   0  0  1  0  0  0  0  0  0  0  0  0
    9.3277  -16.9487    9.3616 C   0  0  1  0  0  0  0  0  0  0  0  0
   10.6611  -16.3436    8.7982 C   0  0  0  0  0  0  0  0  0  0  0  0
    7.4428  -17.0290   12.6721 C   0  0  1  0  0  0  0  0  0  0  0  0
    5.9918  -17.1885   13.0158 C   0  0  1  0  0  0  0  0  0  0  0  0
    7.7487  -23.1664    8.1566 C   0  0  1  0  0  0  0  0  0  0  0  0
    5.8232  -16.9978   14.5649 C   0  0  0  0  0  0  0  0  0  0  0  0
    6.2352  -15.7160   15.0606 C   0  0  0  0  0  0  0  0  0  0  0  0
    7.6439  -15.5404   14.7780 C   0  0  2  0  0  0  0  0  0  0  0  0
    8.1551  -14.1378   15.2942 C   0  0  0  0  0  0  0  0  0  0  0  0
   16.8713  -16.5872    9.3571 C   0  0  2  0  0  0  0  0  0  0  0  0
   15.1594  -18.0176    8.5976 C   0  0  0  0  0  0  0  0  0  0  0  0
   17.8127  -15.6155    9.0752 C   0  0  0  0  0  0  0  0  0  0  0  0
   16.0277  -16.6979    8.3010 C   0  0  1  0  0  0  0  0  0  0  0  0
    7.0257  -23.0923    6.7355 C   0  0  0  0  0  0  0  0  0  0  0  0
    5.9849  -21.8724    6.7655 C   0  0  0  0  0  0  0  0  0  0  0  0
    6.8036  -20.5351    7.0778 C   0  0  1  0  0  0  0  0  0  0  0  0
    5.8891  -19.3058    7.1399 C   0  0  0  0  0  0  0  0  0  0  0  0
   13.1916  -19.2864    7.6784 C   0  0  1  0  0  0  0  0  0  0  0  0
   12.3210  -19.3714    6.3142 C   0  0  0  0  0  0  0  0  0  0  0  0
   11.3485  -20.6119    6.3725 C   0  0  2  0  0  0  0  0  0  0  0  0
   16.1946  -16.2601   10.5919 F   0  0  0  0  0  0  0  0  0  0  0  0
    7.9532  -13.9397   16.8239 N   0  0  0  0  0  0  0  0  0  0  0  0
    8.7661  -24.2799    8.2213 N   0  0  0  0  0  0  0  0  0  0  0  0
    5.1567  -16.2319   12.4318 N   0  0  0  0  0  0  0  0  0  0  0  0
   17.6760  -14.2421    8.7647 N   0  0  0  0  0  0  0  0  0  0  0  0
    6.6433  -18.1141    7.1847 N   0  0  0  0  0  0  0  0  0  0  0  0
   14.1031  -18.1316    7.5899 N   0  0  0  0  0  0  0  0  0  0  0  0
   10.5375  -20.6949    5.1377 N   0  0  0  0  0  0  0  0  0  0  0  0
    9.5619  -21.6147    7.5920 O   0  0  0  0  0  0  0  0  0  0  0  0
   10.1593  -20.2116   10.0152 O   0  0  0  0  0  0  0  0  0  0  0  0
   12.8290  -18.9818   10.0493 O   0  0  0  0  0  0  0  0  0  0  0  0
    9.5636  -18.7120   12.6001 O   0  0  0  0  0  0  0  0  0  0  0  0
    9.0479  -18.3374    9.1184 O   0  0  0  0  0  0  0  0  0  0  0  0
   10.7373  -14.9765    9.2492 O   0  0  0  0  0  0  0  0  0  0  0  0
    7.7183  -17.1261   11.3254 O   0  0  0  0  0  0  0  0  0  0  0  0
   15.1494  -15.5602    8.1576 O   0  0  0  0  0  0  0  0  0  0  0  0
   15.3755  -18.8105    9.5288 O   0  0  0  0  0  0  0  0  0  0  0  0
    7.9053  -15.6902   13.2977 O   0  0  0  0  0  0  0  0  0  0  0  0
    7.5235  -20.6717    8.4094 O   0  0  0  0  0  0  0  0  0  0  0  0
  1 36  1  6  0  0  0
  2 36  1  1  0  0  0
  2  3  1  0  0  0  0
  3 37  1  1  0  0  0
  3  4  1  0  0  0  0
  4 38  1  1  0  0  0
  5 37  1  6  0  0  0
  5  6  1  0  0  0  0
  6  7  1  0  0  0  0
  6 39  1  1  0  0  0
  7 42  1  6  0  0  0
  8  9  1  1  0  0  0
  8  7  1  0  0  0  0
 10 42  1  6  0  0  0
 10 11  1  0  0  0  0
 11 31  1  6  0  0  0
 11 13  1  0  0  0  0
 12 30  1  6  0  0  0
 12  1  1  0  0  0  0
 14 13  1  0  0  0  0
 15 16  1  6  0  0  0
 15 14  1  0  0  0  0
 17 19  1  6  0  0  0
 17 28  1  0  0  0  0
 18 34  1  0  0  0  0
 19 32  1  0  0  0  0
 20 18  1  1  0  0  0
 20 17  1  0  0  0  0
 20 43  1  0  0  0  0
 21 12  1  0  0  0  0
 22 21  1  0  0  0  0
 22 23  1  0  0  0  0
 23 24  1  1  0  0  0
 23 46  1  0  0  0  0
 24 33  1  0  0  0  0
 25 34  1  6  0  0  0
 25  4  1  0  0  0  0
 26 25  1  0  0  0  0
 27 35  1  6  0  0  0
 27 26  1  0  0  0  0
 27  2  1  0  0  0  0
 29 16  1  0  0  0  0
 40  8  1  0  0  0  0
 40  5  1  0  0  0  0
 41  9  1  0  0  0  0
 44 18  2  0  0  0  0
 45 15  1  0  0  0  0
 45 10  1  0  0  0  0
 46  1  1  0  0  0  0
M  END
>  <CHROM.1>
177.28761158,63.46510747,-69.03231390,-95.34041115,71.64429422,-60.86676733
-179.19971876,58.87260009,59.06257563,173.12521940,169.63540122,-169.84721918
75.79329825,10.27364649,-18.29135949,9.75055942,2.90037048,0.30773559,0.81869578

>  <Name>
lig.pdb

>  <RI>
0

>  <Rbt.Current_Directory>
/home/afrankz/demos/rdock_decoys_rna/rnas/3wru

>  <Rbt.Executable>
rbdock ($Id: //depot/dev/client3/rdock/2013.1/src/exe/rbdock.cxx#4 $)

>  <Rbt.Library>
libRbt.so (2013.1, Build901 2013/11/27)

>  <Rbt.Parameter_File>
/export/apps/rDock/src/rDock_2013.1_src/data/scripts/dock_solv.prm

>  <Rbt.Receptor>
prm/pocket_docking_7.prm

>  <SCORE>
4.87001

>  <SCORE.INTER>
8.28775

>  <SCORE.INTER.CONST>
1

>  <SCORE.INTER.POLAR>
0

>  <SCORE.INTER.ROT>
13

>  <SCORE.INTER.SOLV>
16.4623

>  <SCORE.INTER.VDW>
-12.2289

>  <SCORE.INTER.norm>
0.180169

>  <SCORE.INTRA>
-3.41774

>  <SCORE.INTRA.DIHEDRAL>
-11.9531

>  <SCORE.INTRA.DIHEDRAL.0>
19.7146

>  <SCORE.INTRA.POLAR>
0

>  <SCORE.INTRA.POLAR.0>
0

>  <SCORE.INTRA.REPUL>
0.120411

>  <SCORE.INTRA.REPUL.0>
0

>  <SCORE.INTRA.SOLV>
1.15752

>  <SCORE.INTRA.SOLV.lig_0>
-116.697

>  <SCORE.INTRA.VDW>
1.378

>  <SCORE.INTRA.VDW.0>
-7.06424

>  <SCORE.INTRA.norm>
-0.0742987

>  <SCORE.RESTR>
0

>  <SCORE.RESTR.CAVITY>
0

>  <SCORE.RESTR.norm>
0

>  <SCORE.SYSTEM>
0

>  <SCORE.SYSTEM.CONST>
0

>  <SCORE.SYSTEM.DIHEDRAL>
0

>  <SCORE.SYSTEM.SOLV>
0

>  <SCORE.SYSTEM.norm>
0

>  <SCORE.heavy>
46

>  <SCORE.norm>
0.10587

>  <RMSD>
8.174

$$$$
lig.pdb
 OpenBabel03061811583D
libRbt.so/2013.1/901 2013/11/27
 46 49  0  0  0  0  0  0  0  0999 V2000
    9.9458   -7.5314    1.2882 C   0  0  1  0  0  0  0  0  0  0  0  0
   11.5004   -5.8383    2.3487 C   0  0  1  0  0  0  0  0  0  0  0  0
   11.9380   -6.9466    3.3537 C   0  0  1  0  0  0  0  0  0  0  0  0
   12.7286   -6.2559    4.5788 C   0  0  2  0  0  0  0  0  0  0  0  0
   10.5497   -8.7901    4.4084 C   0  0  2  0  0  0  0  0  0  0  0  0
   10.8832   -9.9835    3.4686 C   0  0  1  0  0  0  0  0  0  0  0  0
   11.2575  -10.9873    4.5321 C   0  0  1  0  0  0  0  0  0  0  0  0
   12.1928  -10.2032    5.5065 C   0  0  1  0  0  0  0  0  0  0  0  0
   13.6997  -10.0714    5.0900 C   0  0  0  0  0  0  0  0  0  0  0  0
   10.1693  -12.1667    6.4053 C   0  0  1  0  0  0  0  0  0  0  0  0
    9.2152  -13.3103    6.5804 C   0  0  1  0  0  0  0  0  0  0  0  0
    9.7433   -8.1480   -0.1161 C   0  0  1  0  0  0  0  0  0  0  0  0
    9.4891  -13.9783    7.9744 C   0  0  0  0  0  0  0  0  0  0  0  0
    9.3154  -13.1081    9.1019 C   0  0  0  0  0  0  0  0  0  0  0  0
   10.2475  -12.0069    8.9859 C   0  0  2  0  0  0  0  0  0  0  0  0
   10.0966  -11.0062   10.1986 C   0  0  0  0  0  0  0  0  0  0  0  0
   14.3967   -2.5130    7.7616 C   0  0  2  0  0  0  0  0  0  0  0  0
   14.0737   -4.0307    5.9882 C   0  0  0  0  0  0  0  0  0  0  0  0
   14.2041   -1.4338    6.9200 C   0  0  0  0  0  0  0  0  0  0  0  0
   15.0931   -3.4676    7.0959 C   0  0  1  0  0  0  0  0  0  0  0  0
    8.9684   -7.1382   -1.0792 C   0  0  0  0  0  0  0  0  0  0  0  0
    7.5581   -6.7832   -0.4031 C   0  0  0  0  0  0  0  0  0  0  0  0
    7.8488   -6.1258    1.0249 C   0  0  1  0  0  0  0  0  0  0  0  0
    6.5541   -5.7600    1.7606 C   0  0  0  0  0  0  0  0  0  0  0  0
   14.0362   -5.5636    3.9941 C   0  0  1  0  0  0  0  0  0  0  0  0
   13.5195   -4.4107    2.9793 C   0  0  0  0  0  0  0  0  0  0  0  0
   12.7177   -5.0623    1.7875 C   0  0  2  0  0  0  0  0  0  0  0  0
   13.1183   -2.9793    8.2491 F   0  0  0  0  0  0  0  0  0  0  0  0
    8.6493  -10.4597   10.3628 N   0  0  0  0  0  0  0  0  0  0  0  0
   11.0983   -8.5298   -0.6616 N   0  0  0  0  0  0  0  0  0  0  0  0
    7.8695  -12.9340    6.6080 N   0  0  0  0  0  0  0  0  0  0  0  0
   13.3635   -1.2626    5.7951 N   0  0  0  0  0  0  0  0  0  0  0  0
    5.7055   -4.9868    0.9402 N   0  0  0  0  0  0  0  0  0  0  0  0
   14.7964   -4.9301    5.0864 N   0  0  0  0  0  0  0  0  0  0  0  0
   12.2285   -4.0195    0.8587 N   0  0  0  0  0  0  0  0  0  0  0  0
   10.8340   -6.4146    1.2328 O   0  0  0  0  0  0  0  0  0  0  0  0
   10.6834   -7.6231    3.8240 O   0  0  0  0  0  0  0  0  0  0  0  0
   13.1041   -7.2536    5.4503 O   0  0  0  0  0  0  0  0  0  0  0  0
    9.7312  -10.3123    2.7532 O   0  0  0  0  0  0  0  0  0  0  0  0
   11.3975   -9.0089    5.5910 O   0  0  0  0  0  0  0  0  0  0  0  0
   13.7458   -9.2758    3.8887 O   0  0  0  0  0  0  0  0  0  0  0  0
    9.9978  -11.4623    5.2334 O   0  0  0  0  0  0  0  0  0  0  0  0
   16.2787   -2.9549    6.4496 O   0  0  0  0  0  0  0  0  0  0  0  0
   12.8654   -3.7488    5.9322 O   0  0  0  0  0  0  0  0  0  0  0  0
   10.0484  -11.2862    7.6733 O   0  0  0  0  0  0  0  0  0  0  0  0
    8.6388   -7.0967    1.8871 O   0  0  0  0  0  0  0  0  0  0  0  0
  1 36  1  6  0  0  0
  2 36  1  6  0  0  0
  2  3  1  0  0  0  0
  3 37  1  1  0  0  0
  3  4  1  0  0  0  0
  4 38  1  1  0  0  0
  5 37  1  6  0  0  0
  5  6  1  0  0  0  0
  6  7  1  0  0  0  0
  6 39  1  1  0  0  0
  7 42  1  1  0  0  0
  8  9  1  6  0  0  0
  8  7  1  0  0  0  0
 10 42  1  6  0  0  0
 10 11  1  0  0  0  0
 11 31  1  1  0  0  0
 11 13  1  0  0  0  0
 12 30  1  6  0  0  0
 12  1  1  0  0  0  0
 14 13  1  0  0  0  0
 15 16  1  1  0  0  0
 15 14  1  0  0  0  0
 17 19  1  6  0  0  0
 17 28  1  0  0  0  0
 18 34  1  0  0  0  0
 19 32  1  0  0  0  0
 20 18  1  6  0  0  0
 20 17  1  0  0  0  0
 20 43  1  0  0  0  0
 21 12  1  0  0  0  0
 22 21  1  0  0  0  0
 22 23  1  0  0  0  0
 23 24  1  1  0  0  0
 23 46  1  0  0  0  0
 24 33  1  0  0  0  0
 25 34  1  1  0  0  0
 25  4  1  0  0  0  0
 26 25  1  0  0  0  0
 27 35  1  6  0  0  0
 27 26  1  0  0  0  0
 27  2  1  0  0  0  0
 29 16  1  0  0  0  0
 40  8  1  0  0  0  0
 40  5  1  0  0  0  0
 41  9  1  0  0  0  0
 44 18  2  0  0  0  0
 45 15  1  0  0  0  0
 45 10  1  0  0  0  0
 46  1  1  0  0  0  0
M  END
>  <CHROM.1>
-162.95316948,37.26613666,162.09711186,-68.10169447,-167.08086286,65.11071579
-141.34327486,-55.90977181,72.52352428,171.70531465,-69.64336596,-51.62355073
-51.13973846,11.23134658,-7.56632903,4.56700726,0.87990991,-0.91052494,-0.84730074

>  <Name>
lig.pdb

>  <RI>
0

>  <Rbt.Current_Directory>
/home/afrankz/demos/rdock_decoys_rna/rnas/3wru

>  <Rbt.Executable>
rbdock ($Id: //depot/dev/client3/rdock/2013.1/src/exe/rbdock.cxx#4 $)

>  <Rbt.Library>
libRbt.so (2013.1, Build901 2013/11/27)

>  <Rbt.Parameter_File>
/export/apps/rDock/src/rDock_2013.1_src/data/scripts/dock_solv.prm

>  <Rbt.Receptor>
prm/blind_docking_20.prm

>  <SCORE>
5.49573

>  <SCORE.INTER>
-5.32134

>  <SCORE.INTER.CONST>
1

>  <SCORE.INTER.POLAR>
0

>  <SCORE.INTER.ROT>
13

>  <SCORE.INTER.SOLV>
37.7303

>  <SCORE.INTER.VDW>
-28.391

>  <SCORE.INTER.norm>
-0.115681

>  <SCORE.INTRA>
7.06057

>  <SCORE.INTRA.DIHEDRAL>
-5.95734

>  <SCORE.INTRA.DIHEDRAL.0>
19.7146

>  <SCORE.INTRA.POLAR>
0

>  <SCORE.INTRA.POLAR.0>
0

>  <SCORE.INTRA.REPUL>
0

>  <SCORE.INTRA.REPUL.0>
0

>  <SCORE.INTRA.SOLV>
4.37361

>  <SCORE.INTRA.SOLV.lig_0>
-116.697

>  <SCORE.INTRA.VDW>
7.85244

>  <SCORE.INTRA.VDW.0>
-7.06424

>  <SCORE.INTRA.norm>
0.153491

>  <SCORE.RESTR>
3.7565

>  <SCORE.RESTR.CAVITY>
3.7565

>  <SCORE.RESTR.norm>
0.081663

>  <SCORE.SYSTEM>
0

>  <SCORE.SYSTEM.CONST>
0

>  <SCORE.SYSTEM.DIHEDRAL>
0

>  <SCORE.SYSTEM.SOLV>
0

>  <SCORE.SYSTEM.norm>
0

>  <SCORE.heavy>
46

>  <SCORE.norm>
0.119472

>  <RMSD>
8.176

$$$$
lig.pdb
 OpenBabel03061811583D
libRbt.so/2013.1/901 2013/11/27
 46 49  0  0  0  0  0  0  0  0999 V2000
    9.8339  -14.7945    3.0399 C   0  0  1  0  0  0  0  0  0  0  0  0
    9.6332  -15.2459    5.5226 C   0  0  1  0  0  0  0  0  0  0  0  0
    9.0668  -13.8595    5.9547 C   0  0  1  0  0  0  0  0  0  0  0  0
    8.1917  -14.0497    7.2967 C   0  0  2  0  0  0  0  0  0  0  0  0
   11.3334  -13.2080    6.8907 C   0  0  2  0  0  0  0  0  0  0  0  0
   12.0265  -11.9155    7.4081 C   0  0  1  0  0  0  0  0  0  0  0  0
   12.7350  -12.5208    8.5958 C   0  0  1  0  0  0  0  0  0  0  0  0
   11.6562  -13.4114    9.2900 C   0  0  1  0  0  0  0  0  0  0  0  0
   10.6496  -12.6862   10.2506 C   0  0  0  0  0  0  0  0  0  0  0  0
   14.5983  -14.0698    9.0568 C   0  0  1  0  0  0  0  0  0  0  0  0
   15.8812  -14.6691    8.5631 C   0  0  1  0  0  0  0  0  0  0  0  0
   10.9055  -14.9224    1.9314 C   0  0  1  0  0  0  0  0  0  0  0  0
   16.5233  -15.5012    9.7293 C   0  0  0  0  0  0  0  0  0  0  0  0
   15.7125  -16.5813   10.2136 C   0  0  0  0  0  0  0  0  0  0  0  0
   14.4760  -16.0364   10.7327 C   0  0  2  0  0  0  0  0  0  0  0  0
   13.5343  -17.1832   11.2741 C   0  0  0  0  0  0  0  0  0  0  0  0
    6.2220  -15.2976   11.5382 C   0  0  2  0  0  0  0  0  0  0  0  0
    6.7402  -15.8640    9.3103 C   0  0  0  0  0  0  0  0  0  0  0  0
    5.3178  -15.2602   12.5828 C   0  0  0  0  0  0  0  0  0  0  0  0
    5.6567  -15.9530   10.4941 C   0  0  1  0  0  0  0  0  0  0  0  0
   12.0509  -13.8255    2.1123 C   0  0  0  0  0  0  0  0  0  0  0  0
   11.3661  -12.3756    2.0793 C   0  0  0  0  0  0  0  0  0  0  0  0
   10.2974  -12.3093    3.2665 C   0  0  1  0  0  0  0  0  0  0  0  0
    9.5753  -10.9573    3.3115 C   0  0  0  0  0  0  0  0  0  0  0  0
    6.9683  -15.0079    6.9560 C   0  0  1  0  0  0  0  0  0  0  0  0
    7.6159  -16.4336    6.5388 C   0  0  0  0  0  0  0  0  0  0  0  0
    8.5004  -16.2647    5.2438 C   0  0  2  0  0  0  0  0  0  0  0  0
    7.4547  -15.9038   11.9883 F   0  0  0  0  0  0  0  0  0  0  0  0
   13.1581  -18.2291   10.1856 N   0  0  0  0  0  0  0  0  0  0  0  0
   11.4526  -16.3291    1.9667 N   0  0  0  0  0  0  0  0  0  0  0  0
   15.7225  -15.5718    7.5079 N   0  0  0  0  0  0  0  0  0  0  0  0
    4.8341  -16.2773   13.4389 N   0  0  0  0  0  0  0  0  0  0  0  0
   10.4860   -9.9028    3.5342 N   0  0  0  0  0  0  0  0  0  0  0  0
    6.1337  -15.1975    8.1560 N   0  0  0  0  0  0  0  0  0  0  0  0
    9.1089  -17.5571    4.8579 N   0  0  0  0  0  0  0  0  0  0  0  0
   10.3786  -15.1246    4.3180 O   0  0  0  0  0  0  0  0  0  0  0  0
   10.2486  -12.9656    6.1940 O   0  0  0  0  0  0  0  0  0  0  0  0
    7.7033  -12.8137    7.6568 O   0  0  0  0  0  0  0  0  0  0  0  0
   12.8823  -11.4482    6.4099 O   0  0  0  0  0  0  0  0  0  0  0  0
   11.1430  -14.0281    8.0975 O   0  0  0  0  0  0  0  0  0  0  0  0
   11.4070  -12.1913   11.3729 O   0  0  0  0  0  0  0  0  0  0  0  0
   13.9082  -13.3500    8.1057 O   0  0  0  0  0  0  0  0  0  0  0  0
    5.3677  -17.3378   10.7857 O   0  0  0  0  0  0  0  0  0  0  0  0
    7.9062  -16.2850    9.3871 O   0  0  0  0  0  0  0  0  0  0  0  0
   13.7716  -15.2269    9.6696 O   0  0  0  0  0  0  0  0  0  0  0  0
    9.2612  -13.4068    3.0879 O   0  0  0  0  0  0  0  0  0  0  0  0
  1 36  1  1  0  0  0
  2 36  1  6  0  0  0
  2  3  1  0  0  0  0
  3 37  1  1  0  0  0
  3  4  1  0  0  0  0
  4 38  1  6  0  0  0
  5 37  1  1  0  0  0
  5  6  1  0  0  0  0
  6  7  1  0  0  0  0
  6 39  1  6  0  0  0
  7 42  1  6  0  0  0
  8  9  1  6  0  0  0
  8  7  1  0  0  0  0
 10 42  1  6  0  0  0
 10 11  1  0  0  0  0
 11 31  1  6  0  0  0
 11 13  1  0  0  0  0
 12 30  1  1  0  0  0
 12  1  1  0  0  0  0
 14 13  1  0  0  0  0
 15 16  1  6  0  0  0
 15 14  1  0  0  0  0
 17 19  1  1  0  0  0
 17 28  1  0  0  0  0
 18 34  1  0  0  0  0
 19 32  1  0  0  0  0
 20 18  1  6  0  0  0
 20 17  1  0  0  0  0
 20 43  1  0  0  0  0
 21 12  1  0  0  0  0
 22 21  1  0  0  0  0
 22 23  1  0  0  0  0
 23 24  1  6  0  0  0
 23 46  1  0  0  0  0
 24 33  1  0  0  0  0
 25 34  1  1  0  0  0
 25  4  1  0  0  0  0
 26 25  1  0  0  0  0
 27 35  1  1  0  0  0
 27 26  1  0  0  0  0
 27  2  1  0  0  0  0
 29 16  1  0  0  0  0
 40  8  1  0  0  0  0
 40  5  1  0  0  0  0
 41  9  1  0  0  0  0
 44 18  2  0  0  0  0
 45 15  1  0  0  0  0
 45 10  1  0  0  0  0
 46  1  1  0  0  0  0
M  END
>  <CHROM.1>
-172.99472484,-67.05017366,-48.22256615,-155.63521506,-174.57368758,-65.92515581
-169.66474209,-59.30526462,70.47889089,-121.34671192,176.59337808,-61.17426227
-63.55313254,10.40725082,-14.54525166,7.56475620,0.99561214,-0.08287113,-1.28639535

>  <Name>
lig.pdb

>  <RI>
0

>  <Rbt.Current_Directory>
/home/afrankz/demos/rdock_decoys_rna/rnas/3wru

>  <Rbt.Executable>
rbdock ($Id: //depot/dev/client3/rdock/2013.1/src/exe/rbdock.cxx#4 $)

>  <Rbt.Library>
libRbt.so (2013.1, Build901 2013/11/27)

>  <Rbt.Parameter_File>
/export/apps/rDock/src/rDock_2013.1_src/data/scripts/dock_solv.prm

>  <Rbt.Receptor>
prm/pocket_docking_5.prm

>  <SCORE>
-5.78515

>  <SCORE.INTER>
-2.02524

>  <SCORE.INTER.CONST>
1

>  <SCORE.INTER.POLAR>
0

>  <SCORE.INTER.ROT>
13

>  <SCORE.INTER.SOLV>
20.7428

>  <SCORE.INTER.VDW>
-20.5311

>  <SCORE.INTER.norm>
-0.044027

>  <SCORE.INTRA>
-3.75991

>  <SCORE.INTRA.DIHEDRAL>
-12.0729

>  <SCORE.INTRA.DIHEDRAL.0>
19.7146

>  <SCORE.INTRA.POLAR>
0

>  <SCORE.INTRA.POLAR.0>
0

>  <SCORE.INTRA.REPUL>
0.0163843

>  <SCORE.INTRA.REPUL.0>
0

>  <SCORE.INTRA.SOLV>
0.619584

>  <SCORE.INTRA.SOLV.lig_0>
-116.697

>  <SCORE.INTRA.VDW>
1.8848

>  <SCORE.INTRA.VDW.0>
-7.06424

>  <SCORE.INTRA.norm>
-0.0817372

>  <SCORE.RESTR>
0

>  <SCORE.RESTR.CAVITY>
0

>  <SCORE.RESTR.norm>
0

>  <SCORE.SYSTEM>
0

>  <SCORE.SYSTEM.CONST>
0

>  <SCORE.SYSTEM.DIHEDRAL>
0

>  <SCORE.SYSTEM.SOLV>
0

>  <SCORE.SYSTEM.norm>
0

>  <SCORE.heavy>
46

>  <SCORE.norm>
-0.125764

>  <RMSD>
8.195

$$$$
lig.pdb
 OpenBabel03061811583D
libRbt.so/2013.1/901 2013/11/27
 46 49  0  0  0  0  0  0  0  0999 V2000
   13.3905  -13.6813    4.4282 C   0  0  1  0  0  0  0  0  0  0  0  0
   11.0904  -12.6268    4.5025 C   0  0  1  0  0  0  0  0  0  0  0  0
   11.5068  -11.2402    5.0801 C   0  0  1  0  0  0  0  0  0  0  0  0
   10.4363  -10.1330    4.5992 C   0  0  2  0  0  0  0  0  0  0  0  0
   10.5460  -11.7664    7.3687 C   0  0  2  0  0  0  0  0  0  0  0  0
   10.2741  -13.2961    7.2981 C   0  0  1  0  0  0  0  0  0  0  0  0
    9.6673  -13.4630    8.6703 C   0  0  1  0  0  0  0  0  0  0  0  0
   10.6165  -12.6691    9.6232 C   0  0  1  0  0  0  0  0  0  0  0  0
   11.9177  -13.4041   10.1010 C   0  0  0  0  0  0  0  0  0  0  0  0
    7.4181  -13.3018    9.6695 C   0  0  1  0  0  0  0  0  0  0  0  0
    6.8141  -14.6539    9.4328 C   0  0  1  0  0  0  0  0  0  0  0  0
   14.0679  -14.9941    4.8874 C   0  0  1  0  0  0  0  0  0  0  0  0
    5.8340  -14.9755   10.6161 C   0  0  0  0  0  0  0  0  0  0  0  0
    4.7484  -14.0494   10.7656 C   0  0  0  0  0  0  0  0  0  0  0  0
    5.2933  -12.7351   11.0316 C   0  0  2  0  0  0  0  0  0  0  0  0
    4.1417  -11.6667   11.1970 C   0  0  0  0  0  0  0  0  0  0  0  0
    8.7406   -7.0876   -0.0274 C   0  0  2  0  0  0  0  0  0  0  0  0
   10.0590   -7.9271    1.7360 C   0  0  0  0  0  0  0  0  0  0  0  0
    7.6116   -6.4131   -0.4524 C   0  0  0  0  0  0  0  0  0  0  0  0
    8.8449   -6.9601    1.3187 C   0  0  1  0  0  0  0  0  0  0  0  0
   14.2234  -15.0338    6.4755 C   0  0  0  0  0  0  0  0  0  0  0  0
   15.0853  -13.7587    6.9268 C   0  0  0  0  0  0  0  0  0  0  0  0
   14.3102  -12.4459    6.4456 C   0  0  1  0  0  0  0  0  0  0  0  0
   15.0655  -11.1655    6.8218 C   0  0  0  0  0  0  0  0  0  0  0  0
   10.4900  -10.0521    3.0113 C   0  0  1  0  0  0  0  0  0  0  0  0
   10.0265  -11.5077    2.4706 C   0  0  0  0  0  0  0  0  0  0  0  0
   11.0447  -12.6110    2.9544 C   0  0  2  0  0  0  0  0  0  0  0  0
    9.8971   -6.5876   -0.7360 F   0  0  0  0  0  0  0  0  0  0  0  0
    4.6715  -10.2482   11.5539 N   0  0  0  0  0  0  0  0  0  0  0  0
   13.2515  -16.1519    4.3654 N   0  0  0  0  0  0  0  0  0  0  0  0
    6.0366  -14.7387    8.2744 N   0  0  0  0  0  0  0  0  0  0  0  0
    7.0214   -6.2897   -1.7322 N   0  0  0  0  0  0  0  0  0  0  0  0
   16.3244  -11.1138    6.1866 N   0  0  0  0  0  0  0  0  0  0  0  0
    9.5332   -9.0393    2.5306 N   0  0  0  0  0  0  0  0  0  0  0  0
   10.6269  -13.9483    2.4783 N   0  0  0  0  0  0  0  0  0  0  0  0
   12.0347  -13.6231    4.8727 O   0  0  0  0  0  0  0  0  0  0  0  0
   11.5159  -11.3798    6.5745 O   0  0  0  0  0  0  0  0  0  0  0  0
   10.8258   -8.9197    5.1209 O   0  0  0  0  0  0  0  0  0  0  0  0
    9.3863  -13.5347    6.2483 O   0  0  0  0  0  0  0  0  0  0  0  0
   10.7527  -11.4983    8.8007 O   0  0  0  0  0  0  0  0  0  0  0  0
   12.7677  -13.5667    8.9481 O   0  0  0  0  0  0  0  0  0  0  0  0
    8.2662  -12.8790    8.6691 O   0  0  0  0  0  0  0  0  0  0  0  0
    9.1339   -5.6084    1.7377 O   0  0  0  0  0  0  0  0  0  0  0  0
   11.2453   -7.7509    1.4130 O   0  0  0  0  0  0  0  0  0  0  0  0
    6.2432  -12.3274    9.9301 O   0  0  0  0  0  0  0  0  0  0  0  0
   14.1315  -12.4779    4.9366 O   0  0  0  0  0  0  0  0  0  0  0  0
  1 36  1  1  0  0  0
  2 36  1  6  0  0  0
  2  3  1  0  0  0  0
  3 37  1  1  0  0  0
  3  4  1  0  0  0  0
  4 38  1  1  0  0  0
  5 37  1  6  0  0  0
  5  6  1  0  0  0  0
  6  7  1  0  0  0  0
  6 39  1  6  0  0  0
  7 42  1  6  0  0  0
  8  9  1  6  0  0  0
  8  7  1  0  0  0  0
 10 42  1  6  0  0  0
 10 11  1  0  0  0  0
 11 31  1  6  0  0  0
 11 13  1  0  0  0  0
 12 30  1  1  0  0  0
 12  1  1  0  0  0  0
 14 13  1  0  0  0  0
 15 16  1  6  0  0  0
 15 14  1  0  0  0  0
 17 19  1  6  0  0  0
 17 28  1  0  0  0  0
 18 34  1  0  0  0  0
 19 32  1  0  0  0  0
 20 18  1  6  0  0  0
 20 17  1  0  0  0  0
 20 43  1  0  0  0  0
 21 12  1  0  0  0  0
 22 21  1  0  0  0  0
 22 23  1  0  0  0  0
 23 24  1  6  0  0  0
 23 46  1  0  0  0  0
 24 33  1  0  0  0  0
 25 34  1  6  0  0  0
 25  4  1  0  0  0  0
 26 25  1  0  0  0  0
 27 35  1  1  0  0  0
 27 26  1  0  0  0  0
 27  2  1  0  0  0  0
 29 16  1  0  0  0  0
 40  8  1  0  0  0  0
 40  5  1  0  0  0  0
 41  9  1  0  0  0  0
 44 18  2  0  0  0  0
 45 15  1  0  0  0  0
 45 10  1  0  0  0  0
 46  1  1  0  0  0  0
M  END
>  <CHROM.1>
-172.78702278,-66.57121303,-56.21723592,73.83707419,160.16386535,67.80087432
-78.72649180,177.18190946,-176.60280480,-112.87629501,172.74006342,62.39243915
121.45982832,10.16009799,-11.58747754,5.77778372,-1.37963580,-0.36471056
2.20457940

>  <Name>
lig.pdb

>  <RI>
0

>  <Rbt.Current_Directory>
/home/afrankz/demos/rdock_decoys_rna/rnas/3wru

>  <Rbt.Executable>
rbdock ($Id: //depot/dev/client3/rdock/2013.1/src/exe/rbdock.cxx#4 $)

>  <Rbt.Library>
libRbt.so (2013.1, Build901 2013/11/27)

>  <Rbt.Parameter_File>
/export/apps/rDock/src/rDock_2013.1_src/data/scripts/dock_solv.prm

>  <Rbt.Receptor>
prm/pocket_docking_7.prm

>  <SCORE>
-8.64933

>  <SCORE.INTER>
-4.95945

>  <SCORE.INTER.CONST>
1

>  <SCORE.INTER.POLAR>
0

>  <SCORE.INTER.ROT>
13

>  <SCORE.INTER.SOLV>
22.9248

>  <SCORE.INTER.VDW>
-23.2146

>  <SCORE.INTER.norm>
-0.107814

>  <SCORE.INTRA>
-3.68988

>  <SCORE.INTRA.DIHEDRAL>
-10.6371

>  <SCORE.INTRA.DIHEDRAL.0>
19.7146

>  <SCORE.INTRA.POLAR>
0

>  <SCORE.INTRA.POLAR.0>
0

>  <SCORE.INTRA.REPUL>
0.0141605

>  <SCORE.INTRA.REPUL.0>
0

>  <SCORE.INTRA.SOLV>
0.281862

>  <SCORE.INTRA.SOLV.lig_0>
-116.697

>  <SCORE.INTRA.VDW>
1.41694

>  <SCORE.INTRA.VDW.0>
-7.06424

>  <SCORE.INTRA.norm>
-0.0802148

>  <SCORE.RESTR>
0

>  <SCORE.RESTR.CAVITY>
0

>  <SCORE.RESTR.norm>
0

>  <SCORE.SYSTEM>
0

>  <SCORE.SYSTEM.CONST>
0

>  <SCORE.SYSTEM.DIHEDRAL>
0

>  <SCORE.SYSTEM.SOLV>
0

>  <SCORE.SYSTEM.norm>
0

>  <SCORE.heavy>
46

>  <SCORE.norm>
-0.188029

>  <RMSD>
8.207

$$$$
lig.pdb
 OpenBabel03061811583D
libRbt.so/2013.1/901 2013/11/27
 46 49  0  0  0  0  0  0  0  0999 V2000
   11.5969  -16.3303    3.8587 C   0  0  1  0  0  0  0  0  0  0  0  0
   12.9610  -14.3173    3.1551 C   0  0  1  0  0  0  0  0  0  0  0  0
   12.7949  -13.5237    4.4864 C   0  0  1  0  0  0  0  0  0  0  0  0
   14.0520  -12.5273    4.6589 C   0  0  2  0  0  0  0  0  0  0  0  0
   11.2126  -11.7497    3.5992 C   0  0  2  0  0  0  0  0  0  0  0  0
    9.7486  -11.2532    3.7694 C   0  0  1  0  0  0  0  0  0  0  0  0
    9.9557   -9.8319    3.3047 C   0  0  1  0  0  0  0  0  0  0  0  0
   11.2524   -9.3602    4.0363 C   0  0  1  0  0  0  0  0  0  0  0  0
   11.0903   -8.8611    5.5149 C   0  0  0  0  0  0  0  0  0  0  0  0
    9.7770   -8.6655    1.1389 C   0  0  1  0  0  0  0  0  0  0  0  0
   10.3390   -8.5483   -0.2465 C   0  0  1  0  0  0  0  0  0  0  0  0
   10.4230  -17.1758    3.3106 C   0  0  1  0  0  0  0  0  0  0  0  0
    9.9000   -7.1658   -0.8467 C   0  0  0  0  0  0  0  0  0  0  0  0
   10.3522   -6.0205   -0.1103 C   0  0  0  0  0  0  0  0  0  0  0  0
    9.7991   -6.0803    1.2260 C   0  0  2  0  0  0  0  0  0  0  0  0
   10.2710   -4.8456    2.0907 C   0  0  0  0  0  0  0  0  0  0  0  0
   19.0725  -11.8024    6.8889 C   0  0  2  0  0  0  0  0  0  0  0  0
   16.8069  -12.0018    6.2726 C   0  0  0  0  0  0  0  0  0  0  0  0
   20.3127  -11.2499    6.6304 C   0  0  0  0  0  0  0  0  0  0  0  0
   18.1295  -11.0899    6.2239 C   0  0  1  0  0  0  0  0  0  0  0  0
    9.0603  -16.3448    3.3296 C   0  0  0  0  0  0  0  0  0  0  0  0
    8.7754  -15.8837    4.8391 C   0  0  0  0  0  0  0  0  0  0  0  0
   10.0122  -14.9939    5.3233 C   0  0  1  0  0  0  0  0  0  0  0  0
    9.8391  -14.5118    6.7686 C   0  0  0  0  0  0  0  0  0  0  0  0
   15.3710  -13.4107    4.7622 C   0  0  1  0  0  0  0  0  0  0  0  0
   15.5026  -14.1900    3.3475 C   0  0  0  0  0  0  0  0  0  0  0  0
   14.2672  -15.1496    3.1446 C   0  0  2  0  0  0  0  0  0  0  0  0
   18.8505  -11.8437    8.3167 F   0  0  0  0  0  0  0  0  0  0  0  0
   11.8084   -4.8176    2.3270 N   0  0  0  0  0  0  0  0  0  0  0  0
   10.7875  -17.6413    1.9214 N   0  0  0  0  0  0  0  0  0  0  0  0
   11.7357   -8.5484   -0.2995 N   0  0  0  0  0  0  0  0  0  0  0  0
   21.6145  -11.6532    7.0100 N   0  0  0  0  0  0  0  0  0  0  0  0
    9.8346  -15.5984    7.6688 N   0  0  0  0  0  0  0  0  0  0  0  0
   16.5450  -12.5363    4.9346 N   0  0  0  0  0  0  0  0  0  0  0  0
   14.3674  -15.8591    1.8501 N   0  0  0  0  0  0  0  0  0  0  0  0
   11.8897  -15.2370    2.9880 O   0  0  0  0  0  0  0  0  0  0  0  0
   11.5050  -12.7638    4.3783 O   0  0  0  0  0  0  0  0  0  0  0  0
   13.8823  -11.8397    5.8398 O   0  0  0  0  0  0  0  0  0  0  0  0
    8.9289  -12.0133    2.9341 O   0  0  0  0  0  0  0  0  0  0  0  0
   12.0320  -10.5430    3.7931 O   0  0  0  0  0  0  0  0  0  0  0  0
   10.4709   -7.5604    5.4642 O   0  0  0  0  0  0  0  0  0  0  0  0
   10.1337   -9.8222    1.7973 O   0  0  0  0  0  0  0  0  0  0  0  0
   17.8582   -9.8073    6.8303 O   0  0  0  0  0  0  0  0  0  0  0  0
   16.1363  -12.2194    7.2951 O   0  0  0  0  0  0  0  0  0  0  0  0
   10.1845   -7.3779    1.8964 O   0  0  0  0  0  0  0  0  0  0  0  0
   11.2954  -15.8035    5.2326 O   0  0  0  0  0  0  0  0  0  0  0  0
  1 36  1  6  0  0  0
  2 36  1  1  0  0  0
  2  3  1  0  0  0  0
  3 37  1  6  0  0  0
  3  4  1  0  0  0  0
  4 38  1  1  0  0  0
  5 37  1  1  0  0  0
  5  6  1  0  0  0  0
  6  7  1  0  0  0  0
  6 39  1  6  0  0  0
  7 42  1  6  0  0  0
  8  9  1  1  0  0  0
  8  7  1  0  0  0  0
 10 42  1  1  0  0  0
 10 11  1  0  0  0  0
 11 31  1  1  0  0  0
 11 13  1  0  0  0  0
 12 30  1  6  0  0  0
 12  1  1  0  0  0  0
 14 13  1  0  0  0  0
 15 16  1  1  0  0  0
 15 14  1  0  0  0  0
 17 19  1  1  0  0  0
 17 28  1  0  0  0  0
 18 34  1  0  0  0  0
 19 32  1  0  0  0  0
 20 18  1  1  0  0  0
 20 17  1  0  0  0  0
 20 43  1  0  0  0  0
 21 12  1  0  0  0  0
 22 21  1  0  0  0  0
 22 23  1  0  0  0  0
 23 24  1  1  0  0  0
 23 46  1  0  0  0  0
 24 33  1  0  0  0  0
 25 34  1  6  0  0  0
 25  4  1  0  0  0  0
 26 25  1  0  0  0  0
 27 35  1  6  0  0  0
 27 26  1  0  0  0  0
 27  2  1  0  0  0  0
 29 16  1  0  0  0  0
 40  8  1  0  0  0  0
 40  5  1  0  0  0  0
 41  9  1  0  0  0  0
 44 18  2  0  0  0  0
 45 15  1  0  0  0  0
 45 10  1  0  0  0  0
 46  1  1  0  0  0  0
M  END
>  <CHROM.1>
-175.92930978,-62.34733516,-68.81428752,179.00216787,153.39252565,-73.95094118
162.62658477,-63.79791937,-175.85271399,-108.91352099,166.05427405,64.55254470
79.42081950,12.68981587,-11.72476931,4.01876575,0.65012187,0.43461486,2.89663702

>  <Name>
lig.pdb

>  <RI>
0

>  <Rbt.Current_Directory>
/home/afrankz/demos/rdock_decoys_rna/rnas/3wru

>  <Rbt.Executable>
rbdock ($Id: //depot/dev/client3/rdock/2013.1/src/exe/rbdock.cxx#4 $)

>  <Rbt.Library>
libRbt.so (2013.1, Build901 2013/11/27)

>  <Rbt.Parameter_File>
/export/apps/rDock/src/rDock_2013.1_src/data/scripts/dock_solv.prm

>  <Rbt.Receptor>
prm/pocket_docking_6.prm

>  <SCORE>
-12.5636

>  <SCORE.INTER>
-7.71979

>  <SCORE.INTER.CONST>
1

>  <SCORE.INTER.POLAR>
0

>  <SCORE.INTER.ROT>
13

>  <SCORE.INTER.SOLV>
27.0825

>  <SCORE.INTER.VDW>
-26.4407

>  <SCORE.INTER.norm>
-0.167821

>  <SCORE.INTRA>
-4.84382

>  <SCORE.INTRA.DIHEDRAL>
-10.5899

>  <SCORE.INTRA.DIHEDRAL.0>
19.7146

>  <SCORE.INTRA.POLAR>
0

>  <SCORE.INTRA.POLAR.0>
0

>  <SCORE.INTRA.REPUL>
0

>  <SCORE.INTRA.REPUL.0>
0

>  <SCORE.INTRA.SOLV>
-0.335705

>  <SCORE.INTRA.SOLV.lig_0>
-116.697

>  <SCORE.INTRA.VDW>
0.618966

>  <SCORE.INTRA.VDW.0>
-7.06424

>  <SCORE.INTRA.norm>
-0.1053

>  <SCORE.RESTR>
0

>  <SCORE.RESTR.CAVITY>
0

>  <SCORE.RESTR.norm>
0

>  <SCORE.SYSTEM>
0

>  <SCORE.SYSTEM.CONST>
0

>  <SCORE.SYSTEM.DIHEDRAL>
0

>  <SCORE.SYSTEM.SOLV>
0

>  <SCORE.SYSTEM.norm>
0

>  <SCORE.heavy>
46

>  <SCORE.norm>
-0.273122

>  <RMSD>
8.218

$$$$
lig.pdb
 OpenBabel03061811583D
libRbt.so/2013.1/901 2013/11/27
 46 49  0  0  0  0  0  0  0  0999 V2000
   10.0817   -7.8197    1.0428 C   0  0  1  0  0  0  0  0  0  0  0  0
   11.0485   -6.1232    2.6538 C   0  0  1  0  0  0  0  0  0  0  0  0
   12.1877   -6.9140    3.3656 C   0  0  1  0  0  0  0  0  0  0  0  0
   12.4387   -6.2677    4.8224 C   0  0  2  0  0  0  0  0  0  0  0  0
   11.4372   -9.0300    4.5476 C   0  0  2  0  0  0  0  0  0  0  0  0
   10.8876  -10.4498    4.2303 C   0  0  1  0  0  0  0  0  0  0  0  0
   11.2833  -11.1198    5.5239 C   0  0  1  0  0  0  0  0  0  0  0  0
   12.7550  -10.6612    5.7745 C   0  0  1  0  0  0  0  0  0  0  0  0
   13.8811  -11.4462    5.0147 C   0  0  0  0  0  0  0  0  0  0  0  0
   10.2469  -11.4661    7.7352 C   0  0  1  0  0  0  0  0  0  0  0  0
    9.5900  -12.7856    7.4589 C   0  0  1  0  0  0  0  0  0  0  0  0
   10.2752   -8.2293   -0.4364 C   0  0  1  0  0  0  0  0  0  0  0  0
    9.4806  -13.5797    8.8087 C   0  0  0  0  0  0  0  0  0  0  0  0
    8.7074  -12.9291    9.8273 C   0  0  0  0  0  0  0  0  0  0  0  0
    9.3327  -11.6635   10.1469 C   0  0  2  0  0  0  0  0  0  0  0  0
    8.5183  -10.8939   11.2603 C   0  0  0  0  0  0  0  0  0  0  0  0
   15.2188   -1.7672    7.5117 C   0  0  2  0  0  0  0  0  0  0  0  0
   14.4995   -3.5616    6.1643 C   0  0  0  0  0  0  0  0  0  0  0  0
   14.3134   -0.7238    7.5514 C   0  0  0  0  0  0  0  0  0  0  0  0
   14.5442   -2.9363    7.6442 C   0  0  1  0  0  0  0  0  0  0  0  0
    9.6294   -7.1500   -1.4191 C   0  0  0  0  0  0  0  0  0  0  0  0
    8.0713   -7.0168   -1.0630 C   0  0  0  0  0  0  0  0  0  0  0  0
    7.9531   -6.5635    0.4655 C   0  0  1  0  0  0  0  0  0  0  0  0
    6.4921   -6.4194    0.9082 C   0  0  0  0  0  0  0  0  0  0  0  0
   12.9213   -4.7655    4.6190 C   0  0  1  0  0  0  0  0  0  0  0  0
   11.6925   -3.9914    3.9001 C   0  0  0  0  0  0  0  0  0  0  0  0
   11.4106   -4.6269    2.4842 C   0  0  2  0  0  0  0  0  0  0  0  0
   16.2240   -1.5733    8.5323 F   0  0  0  0  0  0  0  0  0  0  0  0
    9.2174   -9.5877   11.7349 N   0  0  0  0  0  0  0  0  0  0  0  0
   11.7531   -8.4133   -0.6836 N   0  0  0  0  0  0  0  0  0  0  0  0
    8.2803  -12.6842    6.9816 N   0  0  0  0  0  0  0  0  0  0  0  0
   12.9023   -0.7047    7.4514 N   0  0  0  0  0  0  0  0  0  0  0  0
    6.3903   -5.6287    2.0725 N   0  0  0  0  0  0  0  0  0  0  0  0
   13.1752   -4.1411    5.9298 N   0  0  0  0  0  0  0  0  0  0  0  0
   10.2818   -3.9377    1.8208 N   0  0  0  0  0  0  0  0  0  0  0  0
   10.8259   -6.6398    1.3481 O   0  0  0  0  0  0  0  0  0  0  0  0
   11.7248   -8.3379    3.4709 O   0  0  0  0  0  0  0  0  0  0  0  0
   13.4475   -6.9819    5.4292 O   0  0  0  0  0  0  0  0  0  0  0  0
    9.5092  -10.3521    4.0362 O   0  0  0  0  0  0  0  0  0  0  0  0
   12.5609   -9.2707    5.4667 O   0  0  0  0  0  0  0  0  0  0  0  0
   15.1369  -10.8161    5.3371 O   0  0  0  0  0  0  0  0  0  0  0  0
   10.3584  -10.6485    6.6316 O   0  0  0  0  0  0  0  0  0  0  0  0
   15.1906   -3.8629    8.5442 O   0  0  0  0  0  0  0  0  0  0  0  0
   15.4430   -3.5338    5.3571 O   0  0  0  0  0  0  0  0  0  0  0  0
    9.4672  -10.8154    8.9042 O   0  0  0  0  0  0  0  0  0  0  0  0
    8.6320   -7.5879    1.3599 O   0  0  0  0  0  0  0  0  0  0  0  0
  1 36  1  6  0  0  0
  2 36  1  6  0  0  0
  2  3  1  0  0  0  0
  3 37  1  1  0  0  0
  3  4  1  0  0  0  0
  4 38  1  6  0  0  0
  5 37  1  6  0  0  0
  5  6  1  0  0  0  0
  6  7  1  0  0  0  0
  6 39  1  1  0  0  0
  7 42  1  1  0  0  0
  8  9  1  6  0  0  0
  8  7  1  0  0  0  0
 10 42  1  6  0  0  0
 10 11  1  0  0  0  0
 11 31  1  1  0  0  0
 11 13  1  0  0  0  0
 12 30  1  6  0  0  0
 12  1  1  0  0  0  0
 14 13  1  0  0  0  0
 15 16  1  1  0  0  0
 15 14  1  0  0  0  0
 17 19  1  1  0  0  0
 17 28  1  0  0  0  0
 18 34  1  0  0  0  0
 19 32  1  0  0  0  0
 20 18  1  6  0  0  0
 20 17  1  0  0  0  0
 20 43  1  0  0  0  0
 21 12  1  0  0  0  0
 22 21  1  0  0  0  0
 22 23  1  0  0  0  0
 23 24  1  1  0  0  0
 23 46  1  0  0  0  0
 24 33  1  0  0  0  0
 25 34  1  1  0  0  0
 25  4  1  0  0  0  0
 26 25  1  0  0  0  0
 27 35  1  1  0  0  0
 27 26  1  0  0  0  0
 27  2  1  0  0  0  0
 29 16  1  0  0  0  0
 40  8  1  0  0  0  0
 40  5  1  0  0  0  0
 41  9  1  0  0  0  0
 44 18  2  0  0  0  0
 45 15  1  0  0  0  0
 45 10  1  0  0  0  0
 46  1  1  0  0  0  0
M  END
>  <CHROM.1>
-168.97764926,79.24670455,-113.85432370,175.66536173,157.74791874,177.08589333
-66.48532526,174.71210070,-13.35422474,-139.15312074,103.81847650,-161.07466622
124.34964049,11.34148713,-7.50814803,5.04008262,0.74996599,-0.97379170,-0.95145617

>  <Name>
lig.pdb

>  <RI>
0

>  <Rbt.Current_Directory>
/home/afrankz/demos/rdock_decoys_rna/rnas/3wru

>  <Rbt.Executable>
rbdock ($Id: //depot/dev/client3/rdock/2013.1/src/exe/rbdock.cxx#4 $)

>  <Rbt.Library>
libRbt.so (2013.1, Build901 2013/11/27)

>  <Rbt.Parameter_File>
/export/apps/rDock/src/rDock_2013.1_src/data/scripts/dock_solv.prm

>  <Rbt.Receptor>
prm/blind_docking_20.prm

>  <SCORE>
8.95875

>  <SCORE.INTER>
1.11139

>  <SCORE.INTER.CONST>
1

>  <SCORE.INTER.POLAR>
0

>  <SCORE.INTER.ROT>
13

>  <SCORE.INTER.SOLV>
43.8767

>  <SCORE.INTER.VDW>
-26.1513

>  <SCORE.INTER.norm>
0.0241607

>  <SCORE.INTRA>
4.63288

>  <SCORE.INTRA.DIHEDRAL>
5.23137

>  <SCORE.INTRA.DIHEDRAL.0>
19.7146

>  <SCORE.INTRA.POLAR>
0

>  <SCORE.INTRA.POLAR.0>
0

>  <SCORE.INTRA.REPUL>
0

>  <SCORE.INTRA.REPUL.0>
0

>  <SCORE.INTRA.SOLV>
-1.11192

>  <SCORE.INTRA.SOLV.lig_0>
-116.697

>  <SCORE.INTRA.VDW>
2.57316

>  <SCORE.INTRA.VDW.0>
-7.06424

>  <SCORE.INTRA.norm>
0.100715

>  <SCORE.RESTR>
3.21448

>  <SCORE.RESTR.CAVITY>
3.21448

>  <SCORE.RESTR.norm>
0.06988

>  <SCORE.SYSTEM>
0

>  <SCORE.SYSTEM.CONST>
0

>  <SCORE.SYSTEM.DIHEDRAL>
0

>  <SCORE.SYSTEM.SOLV>
0

>  <SCORE.SYSTEM.norm>
0

>  <SCORE.heavy>
46

>  <SCORE.norm>
0.194755

>  <RMSD>
8.229

$$$$
lig.pdb
 OpenBabel03061811583D
libRbt.so/2013.1/901 2013/11/27
 46 49  0  0  0  0  0  0  0  0999 V2000
   10.1460   -7.5160    1.0298 C   0  0  1  0  0  0  0  0  0  0  0  0
   11.2671   -5.9745    2.6955 C   0  0  1  0  0  0  0  0  0  0  0  0
   12.6655   -6.4107    3.2283 C   0  0  1  0  0  0  0  0  0  0  0  0
   12.8805   -5.7850    4.6998 C   0  0  2  0  0  0  0  0  0  0  0  0
   12.1750   -8.7086    4.1858 C   0  0  2  0  0  0  0  0  0  0  0  0
   10.6730   -8.4406    4.4874 C   0  0  1  0  0  0  0  0  0  0  0  0
   10.3158   -9.8144    5.0013 C   0  0  1  0  0  0  0  0  0  0  0  0
   10.9589  -10.8013    3.9758 C   0  0  1  0  0  0  0  0  0  0  0  0
   10.1544  -11.0771    2.6573 C   0  0  0  0  0  0  0  0  0  0  0  0
   10.9520  -11.2820    6.8788 C   0  0  1  0  0  0  0  0  0  0  0  0
    9.6732  -11.7493    7.5075 C   0  0  1  0  0  0  0  0  0  0  0  0
   10.3101   -7.9182   -0.4550 C   0  0  1  0  0  0  0  0  0  0  0  0
    9.8943  -13.1992    8.0671 C   0  0  0  0  0  0  0  0  0  0  0  0
   10.9191  -13.3080    9.0654 C   0  0  0  0  0  0  0  0  0  0  0  0
   12.1792  -12.8979    8.4832 C   0  0  2  0  0  0  0  0  0  0  0  0
   13.3485  -12.9877    9.5412 C   0  0  0  0  0  0  0  0  0  0  0  0
   15.0255   -1.5564    7.6435 C   0  0  2  0  0  0  0  0  0  0  0  0
   14.4485   -3.4582    6.3773 C   0  0  0  0  0  0  0  0  0  0  0  0
   16.3945   -1.7130    7.7498 C   0  0  0  0  0  0  0  0  0  0  0  0
   14.4322   -2.7622    7.8260 C   0  0  1  0  0  0  0  0  0  0  0  0
    9.8665   -6.7293   -1.4232 C   0  0  0  0  0  0  0  0  0  0  0  0
    8.3400   -6.3605   -1.0973 C   0  0  0  0  0  0  0  0  0  0  0  0
    8.2558   -5.9282    0.4395 C   0  0  1  0  0  0  0  0  0  0  0  0
    6.8247   -5.5659    0.8543 C   0  0  0  0  0  0  0  0  0  0  0  0
   12.8653   -4.1996    4.5686 C   0  0  1  0  0  0  0  0  0  0  0  0
   11.3862   -3.8063    4.0362 C   0  0  0  0  0  0  0  0  0  0  0  0
   11.1434   -4.4330    2.6092 C   0  0  2  0  0  0  0  0  0  0  0  0
   14.7059   -0.9538    6.3690 F   0  0  0  0  0  0  0  0  0  0  0  0
   12.8468  -12.9249   11.0125 N   0  0  0  0  0  0  0  0  0  0  0  0
   11.7468   -8.3268   -0.6752 N   0  0  0  0  0  0  0  0  0  0  0  0
    9.2631  -10.9872    8.6051 N   0  0  0  0  0  0  0  0  0  0  0  0
   17.3033   -2.5191    7.0248 N   0  0  0  0  0  0  0  0  0  0  0  0
    6.7975   -5.0106    2.1512 N   0  0  0  0  0  0  0  0  0  0  0  0
   13.0725   -3.5873    5.8932 N   0  0  0  0  0  0  0  0  0  0  0  0
    9.7908   -4.0924    2.1153 N   0  0  0  0  0  0  0  0  0  0  0  0
   11.0580   -6.4749    1.3812 O   0  0  0  0  0  0  0  0  0  0  0  0
   12.6646   -7.9112    3.2664 O   0  0  0  0  0  0  0  0  0  0  0  0
   14.1203   -6.1835    5.1472 O   0  0  0  0  0  0  0  0  0  0  0  0
   10.5929   -7.4326    5.4491 O   0  0  0  0  0  0  0  0  0  0  0  0
   12.2343  -10.1460    3.8768 O   0  0  0  0  0  0  0  0  0  0  0  0
   10.4727  -12.4171    2.2317 O   0  0  0  0  0  0  0  0  0  0  0  0
   10.9034   -9.9948    6.3892 O   0  0  0  0  0  0  0  0  0  0  0  0
   15.1306   -3.5979    8.7747 O   0  0  0  0  0  0  0  0  0  0  0  0
   15.4759   -3.8089    5.7739 O   0  0  0  0  0  0  0  0  0  0  0  0
   12.0702  -11.4972    7.9281 O   0  0  0  0  0  0  0  0  0  0  0  0
    8.7430   -7.0661    1.3215 O   0  0  0  0  0  0  0  0  0  0  0  0
  1 36  1  6  0  0  0
  2 36  1  6  0  0  0
  2  3  1  0  0  0  0
  3 37  1  1  0  0  0
  3  4  1  0  0  0  0
  4 38  1  6  0  0  0
  5 37  1  6  0  0  0
  5  6  1  0  0  0  0
  6  7  1  0  0  0  0
  6 39  1  1  0  0  0
  7 42  1  1  0  0  0
  8  9  1  6  0  0  0
  8  7  1  0  0  0  0
 10 42  1  1  0  0  0
 10 11  1  0  0  0  0
 11 31  1  1  0  0  0
 11 13  1  0  0  0  0
 12 30  1  1  0  0  0
 12  1  1  0  0  0  0
 14 13  1  0  0  0  0
 15 16  1  1  0  0  0
 15 14  1  0  0  0  0
 17 19  1  6  0  0  0
 17 28  1  0  0  0  0
 18 34  1  0  0  0  0
 19 32  1  0  0  0  0
 20 18  1  6  0  0  0
 20 17  1  0  0  0  0
 20 43  1  0  0  0  0
 21 12  1  0  0  0  0
 22 21  1  0  0  0  0
 22 23  1  0  0  0  0
 23 24  1  1  0  0  0
 23 46  1  0  0  0  0
 24 33  1  0  0  0  0
 25 34  1  1  0  0  0
 25  4  1  0  0  0  0
 26 25  1  0  0  0  0
 27 35  1  1  0  0  0
 27 26  1  0  0  0  0
 27  2  1  0  0  0  0
 29 16  1  0  0  0  0
 40  8  1  0  0  0  0
 40  5  1  0  0  0  0
 41  9  1  0  0  0  0
 44 18  2  0  0  0  0
 45 15  1  0  0  0  0
 45 10  1  0  0  0  0
 46  1  1  0  0  0  0
M  END
>  <CHROM.1>
-172.94676568,109.17269431,-81.90082537,54.99406246,-165.03164551,-149.99685310
-83.37693663,-22.94254628,58.60418286,-113.24863857,-85.39345623,-171.76778637
82.68006127,11.69664627,-7.35482957,4.68190855,1.04808488,-0.93702247,-0.61084330

>  <Name>
lig.pdb

>  <RI>
0

>  <Rbt.Current_Directory>
/home/afrankz/demos/rdock_decoys_rna/rnas/3wru

>  <Rbt.Executable>
rbdock ($Id: //depot/dev/client3/rdock/2013.1/src/exe/rbdock.cxx#4 $)

>  <Rbt.Library>
libRbt.so (2013.1, Build901 2013/11/27)

>  <Rbt.Parameter_File>
/export/apps/rDock/src/rDock_2013.1_src/data/scripts/dock_solv.prm

>  <Rbt.Receptor>
prm/blind_docking_20.prm

>  <SCORE>
21.0255

>  <SCORE.INTER>
1.53656

>  <SCORE.INTER.CONST>
1

>  <SCORE.INTER.POLAR>
0

>  <SCORE.INTER.ROT>
13

>  <SCORE.INTER.SOLV>
45.1264

>  <SCORE.INTER.VDW>
-26.2844

>  <SCORE.INTER.norm>
0.0334036

>  <SCORE.INTRA>
10.9165

>  <SCORE.INTRA.DIHEDRAL>
3.96238

>  <SCORE.INTRA.DIHEDRAL.0>
19.7146

>  <SCORE.INTRA.POLAR>
0

>  <SCORE.INTRA.POLAR.0>
0

>  <SCORE.INTRA.REPUL>
0

>  <SCORE.INTRA.REPUL.0>
0

>  <SCORE.INTRA.SOLV>
6.22578

>  <SCORE.INTRA.SOLV.lig_0>
-116.697

>  <SCORE.INTRA.VDW>
5.82245

>  <SCORE.INTRA.VDW.0>
-7.06424

>  <SCORE.INTRA.norm>
0.237316

>  <SCORE.RESTR>
8.57241

>  <SCORE.RESTR.CAVITY>
8.57241

>  <SCORE.RESTR.norm>
0.186357

>  <SCORE.SYSTEM>
0

>  <SCORE.SYSTEM.CONST>
0

>  <SCORE.SYSTEM.DIHEDRAL>
0

>  <SCORE.SYSTEM.SOLV>
0

>  <SCORE.SYSTEM.norm>
0

>  <SCORE.heavy>
46

>  <SCORE.norm>
0.457076

>  <RMSD>
8.233

$$$$
lig.pdb
 OpenBabel03061811583D
libRbt.so/2013.1/901 2013/11/27
 46 49  0  0  0  0  0  0  0  0999 V2000
    9.2093  -17.0829    9.7413 C   0  0  1  0  0  0  0  0  0  0  0  0
    9.5058  -14.7263    8.8657 C   0  0  1  0  0  0  0  0  0  0  0  0
    8.7462  -14.7838    7.5058 C   0  0  1  0  0  0  0  0  0  0  0  0
    9.3570  -13.6619    6.5203 C   0  0  2  0  0  0  0  0  0  0  0  0
    8.1218  -17.1830    6.9656 C   0  0  2  0  0  0  0  0  0  0  0  0
    6.7523  -16.8609    6.3028 C   0  0  1  0  0  0  0  0  0  0  0  0
    6.3735  -18.2693    5.9131 C   0  0  1  0  0  0  0  0  0  0  0  0
    7.6673  -18.8655    5.2729 C   0  0  1  0  0  0  0  0  0  0  0  0
    7.9401  -18.5144    3.7682 C   0  0  0  0  0  0  0  0  0  0  0  0
    5.4273  -20.2908    6.9627 C   0  0  1  0  0  0  0  0  0  0  0  0
    4.9921  -20.9754    8.2239 C   0  0  1  0  0  0  0  0  0  0  0  0
    8.5034  -17.7959   10.9188 C   0  0  1  0  0  0  0  0  0  0  0  0
    4.4584  -22.4051    7.8557 C   0  0  0  0  0  0  0  0  0  0  0  0
    5.4203  -23.2606    7.2222 C   0  0  0  0  0  0  0  0  0  0  0  0
    5.8388  -22.6477    5.9795 C   0  0  2  0  0  0  0  0  0  0  0  0
    6.9089  -23.5424    5.2383 C   0  0  0  0  0  0  0  0  0  0  0  0
   12.7518   -9.7672    5.1819 C   0  0  2  0  0  0  0  0  0  0  0  0
   11.0687  -11.1979    6.0024 C   0  0  0  0  0  0  0  0  0  0  0  0
   13.1724   -8.8396    4.2477 C   0  0  0  0  0  0  0  0  0  0  0  0
   11.4192   -9.9675    5.0295 C   0  0  1  0  0  0  0  0  0  0  0  0
    9.1472  -17.3695   12.3158 C   0  0  0  0  0  0  0  0  0  0  0  0
   10.7084  -17.7351   12.2806 C   0  0  0  0  0  0  0  0  0  0  0  0
   11.3721  -16.9412   11.0619 C   0  0  1  0  0  0  0  0  0  0  0  0
   12.8717  -17.2359   10.9361 C   0  0  0  0  0  0  0  0  0  0  0  0
    9.1020  -12.2360    7.1781 C   0  0  1  0  0  0  0  0  0  0  0  0
    9.9319  -12.2276    8.5699 C   0  0  0  0  0  0  0  0  0  0  0  0
    9.3695  -13.3380    9.5388 C   0  0  2  0  0  0  0  0  0  0  0  0
   13.1096   -9.3143    6.5072 F   0  0  0  0  0  0  0  0  0  0  0  0
    8.2229  -23.7222    6.0514 N   0  0  0  0  0  0  0  0  0  0  0  0
    7.0301  -17.4738   10.8481 N   0  0  0  0  0  0  0  0  0  0  0  0
    6.0225  -21.1902    9.1435 N   0  0  0  0  0  0  0  0  0  0  0  0
   12.7987   -7.4922    4.0329 N   0  0  0  0  0  0  0  0  0  0  0  0
   13.4698  -16.4144    9.9572 N   0  0  0  0  0  0  0  0  0  0  0  0
    9.6350  -11.1789    6.3001 N   0  0  0  0  0  0  0  0  0  0  0  0
   10.1266  -13.3505   10.8100 N   0  0  0  0  0  0  0  0  0  0  0  0
    8.9670  -15.6760    9.7763 O   0  0  0  0  0  0  0  0  0  0  0  0
    8.9495  -16.1652    6.9553 O   0  0  0  0  0  0  0  0  0  0  0  0
    8.6703  -13.7325    5.3289 O   0  0  0  0  0  0  0  0  0  0  0  0
    5.9212  -16.2928    7.2692 O   0  0  0  0  0  0  0  0  0  0  0  0
    8.5906  -18.3899    6.2665 O   0  0  0  0  0  0  0  0  0  0  0  0
    6.8313  -19.0230    3.0002 O   0  0  0  0  0  0  0  0  0  0  0  0
    5.9649  -19.0370    7.1572 O   0  0  0  0  0  0  0  0  0  0  0  0
   10.6289   -8.8160    5.3979 O   0  0  0  0  0  0  0  0  0  0  0  0
   11.8936  -12.0308    6.4128 O   0  0  0  0  0  0  0  0  0  0  0  0
    6.3874  -21.2637    6.2350 O   0  0  0  0  0  0  0  0  0  0  0  0
   10.6903  -17.3321    9.7610 O   0  0  0  0  0  0  0  0  0  0  0  0
  1 36  1  1  0  0  0
  2 36  1  1  0  0  0
  2  3  1  0  0  0  0
  3 37  1  6  0  0  0
  3  4  1  0  0  0  0
  4 38  1  6  0  0  0
  5 37  1  6  0  0  0
  5  6  1  0  0  0  0
  6  7  1  0  0  0  0
  6 39  1  1  0  0  0
  7 42  1  1  0  0  0
  8  9  1  6  0  0  0
  8  7  1  0  0  0  0
 10 42  1  1  0  0  0
 10 11  1  0  0  0  0
 11 31  1  1  0  0  0
 11 13  1  0  0  0  0
 12 30  1  1  0  0  0
 12  1  1  0  0  0  0
 14 13  1  0  0  0  0
 15 16  1  1  0  0  0
 15 14  1  0  0  0  0
 17 19  1  6  0  0  0
 17 28  1  0  0  0  0
 18 34  1  0  0  0  0
 19 32  1  0  0  0  0
 20 18  1  1  0  0  0
 20 17  1  0  0  0  0
 20 43  1  0  0  0  0
 21 12  1  0  0  0  0
 22 21  1  0  0  0  0
 22 23  1  0  0  0  0
 23 24  1  6  0  0  0
 23 46  1  0  0  0  0
 24 33  1  0  0  0  0
 25 34  1  6  0  0  0
 25  4  1  0  0  0  0
 26 25  1  0  0  0  0
 27 35  1  1  0  0  0
 27 26  1  0  0  0  0
 27  2  1  0  0  0  0
 29 16  1  0  0  0  0
 40  8  1  0  0  0  0
 40  5  1  0  0  0  0
 41  9  1  0  0  0  0
 44 18  2  0  0  0  0
 45 15  1  0  0  0  0
 45 10  1  0  0  0  0
 46  1  1  0  0  0  0
M  END
>  <CHROM.1>
177.79809173,76.60854803,101.51715621,56.26263219,172.06514060,-60.53295547
-177.62270031,-62.65350603,60.53868137,159.06828171,172.18367927,-173.28163340
-60.47890171,8.93630638,-16.17072097,7.42335978,-2.51606663,-1.00513119,-0.94702639

>  <Name>
lig.pdb

>  <RI>
0

>  <Rbt.Current_Directory>
/home/afrankz/demos/rdock_decoys_rna/rnas/3wru

>  <Rbt.Executable>
rbdock ($Id: //depot/dev/client3/rdock/2013.1/src/exe/rbdock.cxx#4 $)

>  <Rbt.Library>
libRbt.so (2013.1, Build901 2013/11/27)

>  <Rbt.Parameter_File>
/export/apps/rDock/src/rDock_2013.1_src/data/scripts/dock_solv.prm

>  <Rbt.Receptor>
prm/pocket_docking_7.prm

>  <SCORE>
0.478383

>  <SCORE.INTER>
3.52198

>  <SCORE.INTER.CONST>
1

>  <SCORE.INTER.POLAR>
0

>  <SCORE.INTER.ROT>
13

>  <SCORE.INTER.SOLV>
15.4208

>  <SCORE.INTER.VDW>
-15.0589

>  <SCORE.INTER.norm>
0.0765648

>  <SCORE.INTRA>
-3.0436

>  <SCORE.INTRA.DIHEDRAL>
-10.4582

>  <SCORE.INTRA.DIHEDRAL.0>
19.7146

>  <SCORE.INTRA.POLAR>
0

>  <SCORE.INTRA.POLAR.0>
0

>  <SCORE.INTRA.REPUL>
0

>  <SCORE.INTRA.REPUL.0>
0

>  <SCORE.INTRA.SOLV>
0.556028

>  <SCORE.INTRA.SOLV.lig_0>
-116.697

>  <SCORE.INTRA.VDW>
1.90749

>  <SCORE.INTRA.VDW.0>
-7.06424

>  <SCORE.INTRA.norm>
-0.0661652

>  <SCORE.RESTR>
0

>  <SCORE.RESTR.CAVITY>
0

>  <SCORE.RESTR.norm>
0

>  <SCORE.SYSTEM>
0

>  <SCORE.SYSTEM.CONST>
0

>  <SCORE.SYSTEM.DIHEDRAL>
0

>  <SCORE.SYSTEM.SOLV>
0

>  <SCORE.SYSTEM.norm>
0

>  <SCORE.heavy>
46

>  <SCORE.norm>
0.0103996

>  <RMSD>
8.234

$$$$
lig.pdb
 OpenBabel03061811583D
libRbt.so/2013.1/901 2013/11/27
 46 49  0  0  0  0  0  0  0  0999 V2000
   11.4629  -12.6370    4.6304 C   0  0  1  0  0  0  0  0  0  0  0  0
    9.4431  -13.2827    6.0130 C   0  0  1  0  0  0  0  0  0  0  0  0
    9.4819  -12.1413    7.0739 C   0  0  1  0  0  0  0  0  0  0  0  0
    8.7291  -12.6455    8.4089 C   0  0  2  0  0  0  0  0  0  0  0  0
   11.8545  -12.6451    7.8187 C   0  0  2  0  0  0  0  0  0  0  0  0
   13.0165  -11.8812    8.5151 C   0  0  1  0  0  0  0  0  0  0  0  0
   13.4694  -12.9875    9.4370 C   0  0  1  0  0  0  0  0  0  0  0  0
   12.1512  -13.5574   10.0508 C   0  0  1  0  0  0  0  0  0  0  0  0
   11.5432  -12.7798   11.2703 C   0  0  0  0  0  0  0  0  0  0  0  0
   14.7387  -15.0996    9.3284 C   0  0  1  0  0  0  0  0  0  0  0  0
   15.4035  -16.1329    8.4687 C   0  0  1  0  0  0  0  0  0  0  0  0
   11.7423  -11.8807    3.3102 C   0  0  1  0  0  0  0  0  0  0  0  0
   15.9083  -17.2984    9.3914 C   0  0  0  0  0  0  0  0  0  0  0  0
   14.8777  -17.9668   10.1329 C   0  0  0  0  0  0  0  0  0  0  0  0
   14.2347  -17.0054   11.0032 C   0  0  2  0  0  0  0  0  0  0  0  0
   13.0804  -17.6831   11.8418 C   0  0  0  0  0  0  0  0  0  0  0  0
    5.0228  -15.6504   10.7158 C   0  0  2  0  0  0  0  0  0  0  0  0
    6.9694  -14.5865    9.9210 C   0  0  0  0  0  0  0  0  0  0  0  0
    4.7060  -16.6085   11.6601 C   0  0  0  0  0  0  0  0  0  0  0  0
    6.0338  -14.8832   11.1938 C   0  0  1  0  0  0  0  0  0  0  0  0
   11.3753  -12.7817    2.0448 C   0  0  0  0  0  0  0  0  0  0  0  0
   12.2385  -14.1312    2.1230 C   0  0  0  0  0  0  0  0  0  0  0  0
   11.8748  -14.8688    3.4940 C   0  0  1  0  0  0  0  0  0  0  0  0
   12.6632  -16.1724    3.6688 C   0  0  0  0  0  0  0  0  0  0  0  0
    7.2094  -12.9354    8.0385 C   0  0  1  0  0  0  0  0  0  0  0  0
    7.2322  -14.1406    6.9555 C   0  0  0  0  0  0  0  0  0  0  0  0
    7.9900  -13.6785    5.6516 C   0  0  2  0  0  0  0  0  0  0  0  0
    3.8396  -14.8884   10.3854 F   0  0  0  0  0  0  0  0  0  0  0  0
   12.3390  -16.6854   12.7774 N   0  0  0  0  0  0  0  0  0  0  0  0
   10.9627  -10.5880    3.3350 N   0  0  0  0  0  0  0  0  0  0  0  0
   14.5525  -16.7381    7.5396 N   0  0  0  0  0  0  0  0  0  0  0  0
    5.4792  -17.6404   12.2422 N   0  0  0  0  0  0  0  0  0  0  0  0
   14.0525  -15.9267    3.6866 N   0  0  0  0  0  0  0  0  0  0  0  0
    6.4809  -13.3871    9.2375 N   0  0  0  0  0  0  0  0  0  0  0  0
    8.0297  -14.7739    4.6577 N   0  0  0  0  0  0  0  0  0  0  0  0
   10.0633  -12.8599    4.8055 O   0  0  0  0  0  0  0  0  0  0  0  0
   10.9296  -11.8475    7.3398 O   0  0  0  0  0  0  0  0  0  0  0  0
    8.7764  -11.6215    9.3283 O   0  0  0  0  0  0  0  0  0  0  0  0
   13.9533  -11.5288    7.5427 O   0  0  0  0  0  0  0  0  0  0  0  0
   11.3976  -13.6133    8.8282 O   0  0  0  0  0  0  0  0  0  0  0  0
   12.4203  -12.9901   12.3949 O   0  0  0  0  0  0  0  0  0  0  0  0
   14.2055  -14.0397    8.6275 O   0  0  0  0  0  0  0  0  0  0  0  0
    5.5770  -13.6366   11.7625 O   0  0  0  0  0  0  0  0  0  0  0  0
    7.9549  -15.2684    9.5947 O   0  0  0  0  0  0  0  0  0  0  0  0
   13.6973  -15.8455   10.1985 O   0  0  0  0  0  0  0  0  0  0  0  0
   12.1837  -13.9543    4.6680 O   0  0  0  0  0  0  0  0  0  0  0  0
  1 36  1  6  0  0  0
  2 36  1  6  0  0  0
  2  3  1  0  0  0  0
  3 37  1  1  0  0  0
  3  4  1  0  0  0  0
  4 38  1  1  0  0  0
  5 37  1  1  0  0  0
  5  6  1  0  0  0  0
  6  7  1  0  0  0  0
  6 39  1  6  0  0  0
  7 42  1  6  0  0  0
  8  9  1  1  0  0  0
  8  7  1  0  0  0  0
 10 42  1  6  0  0  0
 10 11  1  0  0  0  0
 11 31  1  6  0  0  0
 11 13  1  0  0  0  0
 12 30  1  1  0  0  0
 12  1  1  0  0  0  0
 14 13  1  0  0  0  0
 15 16  1  6  0  0  0
 15 14  1  0  0  0  0
 17 19  1  1  0  0  0
 17 28  1  0  0  0  0
 18 34  1  0  0  0  0
 19 32  1  0  0  0  0
 20 18  1  6  0  0  0
 20 17  1  0  0  0  0
 20 43  1  0  0  0  0
 21 12  1  0  0  0  0
 22 21  1  0  0  0  0
 22 23  1  0  0  0  0
 23 24  1  1  0  0  0
 23 46  1  0  0  0  0
 24 33  1  0  0  0  0
 25 34  1  1  0  0  0
 25  4  1  0  0  0  0
 26 25  1  0  0  0  0
 27 35  1  6  0  0  0
 27 26  1  0  0  0  0
 27  2  1  0  0  0  0
 29 16  1  0  0  0  0
 40  8  1  0  0  0  0
 40  5  1  0  0  0  0
 41  9  1  0  0  0  0
 44 18  2  0  0  0  0
 45 15  1  0  0  0  0
 45 10  1  0  0  0  0
 46  1  1  0  0  0  0
M  END
>  <CHROM.1>
-166.89107121,70.34588571,-61.25309736,-155.10589731,177.34234461,-70.19740895
177.60803594,-178.99678856,-60.18228229,87.83049809,141.84074715,60.39880265
-58.43716611,10.64847869,-14.24616175,8.10506751,0.59705068,0.16183908,-1.20239186

>  <Name>
lig.pdb

>  <RI>
0

>  <Rbt.Current_Directory>
/home/afrankz/demos/rdock_decoys_rna/rnas/3wru

>  <Rbt.Executable>
rbdock ($Id: //depot/dev/client3/rdock/2013.1/src/exe/rbdock.cxx#4 $)

>  <Rbt.Library>
libRbt.so (2013.1, Build901 2013/11/27)

>  <Rbt.Parameter_File>
/export/apps/rDock/src/rDock_2013.1_src/data/scripts/dock_solv.prm

>  <Rbt.Receptor>
prm/pocket_docking_6.prm

>  <SCORE>
-5.55579

>  <SCORE.INTER>
-1.73886

>  <SCORE.INTER.CONST>
1

>  <SCORE.INTER.POLAR>
0

>  <SCORE.INTER.ROT>
13

>  <SCORE.INTER.SOLV>
22.4406

>  <SCORE.INTER.VDW>
-20.9061

>  <SCORE.INTER.norm>
-0.0378014

>  <SCORE.INTRA>
-3.81692

>  <SCORE.INTRA.DIHEDRAL>
-10.2244

>  <SCORE.INTRA.DIHEDRAL.0>
19.7146

>  <SCORE.INTRA.POLAR>
0

>  <SCORE.INTRA.POLAR.0>
0

>  <SCORE.INTRA.REPUL>
0.0257885

>  <SCORE.INTRA.REPUL.0>
0

>  <SCORE.INTRA.SOLV>
0.699716

>  <SCORE.INTRA.SOLV.lig_0>
-116.697

>  <SCORE.INTRA.VDW>
0.816462

>  <SCORE.INTRA.VDW.0>
-7.06424

>  <SCORE.INTRA.norm>
-0.0829766

>  <SCORE.RESTR>
0

>  <SCORE.RESTR.CAVITY>
0

>  <SCORE.RESTR.norm>
0

>  <SCORE.SYSTEM>
0

>  <SCORE.SYSTEM.CONST>
0

>  <SCORE.SYSTEM.DIHEDRAL>
0

>  <SCORE.SYSTEM.SOLV>
0

>  <SCORE.SYSTEM.norm>
0

>  <SCORE.heavy>
46

>  <SCORE.norm>
-0.120778

>  <RMSD>
8.236

$$$$
lig.pdb
 OpenBabel03061811583D
libRbt.so/2013.1/901 2013/11/27
 46 49  0  0  0  0  0  0  0  0999 V2000
    9.2779   -6.5118    1.2088 C   0  0  1  0  0  0  0  0  0  0  0  0
   11.0153   -5.9618    2.9658 C   0  0  1  0  0  0  0  0  0  0  0  0
   12.3319   -6.6599    3.4228 C   0  0  1  0  0  0  0  0  0  0  0  0
   12.7659   -6.0645    4.8581 C   0  0  2  0  0  0  0  0  0  0  0  0
   11.7329   -8.8463    4.5624 C   0  0  2  0  0  0  0  0  0  0  0  0
   11.3119  -10.3014    4.2099 C   0  0  1  0  0  0  0  0  0  0  0  0
   11.6739  -10.9471    5.5256 C   0  0  1  0  0  0  0  0  0  0  0  0
   13.0885  -10.3815    5.8693 C   0  0  1  0  0  0  0  0  0  0  0  0
   14.3158  -11.0764    5.1820 C   0  0  0  0  0  0  0  0  0  0  0  0
   10.4316  -11.4481    7.5966 C   0  0  1  0  0  0  0  0  0  0  0  0
    9.7183  -12.6991    7.1781 C   0  0  1  0  0  0  0  0  0  0  0  0
    8.8809   -7.9770    0.9105 C   0  0  1  0  0  0  0  0  0  0  0  0
    9.4917  -13.5920    8.4492 C   0  0  0  0  0  0  0  0  0  0  0  0
    8.7017  -12.9811    9.4794 C   0  0  0  0  0  0  0  0  0  0  0  0
    9.3782  -11.7853    9.9350 C   0  0  2  0  0  0  0  0  0  0  0  0
    8.5487  -11.0612   11.0675 C   0  0  0  0  0  0  0  0  0  0  0  0
   14.5774   -1.7626    7.5524 C   0  0  2  0  0  0  0  0  0  0  0  0
   14.8933   -3.6385    6.1616 C   0  0  0  0  0  0  0  0  0  0  0  0
   14.2164   -1.3577    8.8235 C   0  0  0  0  0  0  0  0  0  0  0  0
   15.1074   -3.0089    7.6248 C   0  0  1  0  0  0  0  0  0  0  0  0
    9.7155   -8.5577   -0.3199 C   0  0  0  0  0  0  0  0  0  0  0  0
    9.4457   -7.6225   -1.5946 C   0  0  0  0  0  0  0  0  0  0  0  0
    9.9063   -6.1378   -1.2217 C   0  0  1  0  0  0  0  0  0  0  0  0
    9.6757   -5.1594   -2.3796 C   0  0  0  0  0  0  0  0  0  0  0  0
   13.0572   -4.5108    4.6799 C   0  0  1  0  0  0  0  0  0  0  0  0
   11.6531   -3.8385    4.2296 C   0  0  0  0  0  0  0  0  0  0  0  0
   11.1947   -4.4285    2.8405 C   0  0  2  0  0  0  0  0  0  0  0  0
   15.4822   -0.7939    6.9758 F   0  0  0  0  0  0  0  0  0  0  0  0
    7.1542  -10.5698   10.5834 N   0  0  0  0  0  0  0  0  0  0  0  0
    9.0846   -8.7848    2.1696 N   0  0  0  0  0  0  0  0  0  0  0  0
    8.4441  -12.4809    6.6468 N   0  0  0  0  0  0  0  0  0  0  0  0
   13.6290   -0.1592    9.2925 N   0  0  0  0  0  0  0  0  0  0  0  0
    9.9731   -3.8355   -1.9922 N   0  0  0  0  0  0  0  0  0  0  0  0
   13.4710   -3.9294    5.9695 N   0  0  0  0  0  0  0  0  0  0  0  0
    9.9066   -3.8326    2.4223 N   0  0  0  0  0  0  0  0  0  0  0  0
   10.6225   -6.4329    1.6831 O   0  0  0  0  0  0  0  0  0  0  0  0
   12.0355   -8.1289    3.5065 O   0  0  0  0  0  0  0  0  0  0  0  0
   13.9292   -6.6955    5.2387 O   0  0  0  0  0  0  0  0  0  0  0  0
    9.9451  -10.3055    3.9288 O   0  0  0  0  0  0  0  0  0  0  0  0
   12.8110   -9.0077    5.5507 O   0  0  0  0  0  0  0  0  0  0  0  0
   14.1308  -12.5003    5.3098 O   0  0  0  0  0  0  0  0  0  0  0  0
   10.6483  -10.5519    6.5726 O   0  0  0  0  0  0  0  0  0  0  0  0
   16.5142   -3.0067    7.9521 O   0  0  0  0  0  0  0  0  0  0  0  0
   15.8001   -3.8258    5.3338 O   0  0  0  0  0  0  0  0  0  0  0  0
    9.6271  -10.8488    8.7762 O   0  0  0  0  0  0  0  0  0  0  0  0
    9.1302   -5.6472   -0.0104 O   0  0  0  0  0  0  0  0  0  0  0  0
  1 36  1  6  0  0  0
  2 36  1  6  0  0  0
  2  3  1  0  0  0  0
  3 37  1  1  0  0  0
  3  4  1  0  0  0  0
  4 38  1  6  0  0  0
  5 37  1  6  0  0  0
  5  6  1  0  0  0  0
  6  7  1  0  0  0  0
  6 39  1  1  0  0  0
  7 42  1  1  0  0  0
  8  9  1  6  0  0  0
  8  7  1  0  0  0  0
 10 42  1  6  0  0  0
 10 11  1  0  0  0  0
 11 31  1  1  0  0  0
 11 13  1  0  0  0  0
 12 30  1  1  0  0  0
 12  1  1  0  0  0  0
 14 13  1  0  0  0  0
 15 16  1  1  0  0  0
 15 14  1  0  0  0  0
 17 19  1  1  0  0  0
 17 28  1  0  0  0  0
 18 34  1  0  0  0  0
 19 32  1  0  0  0  0
 20 18  1  6  0  0  0
 20 17  1  0  0  0  0
 20 43  1  0  0  0  0
 21 12  1  0  0  0  0
 22 21  1  0  0  0  0
 22 23  1  0  0  0  0
 23 24  1  6  0  0  0
 23 46  1  0  0  0  0
 24 33  1  0  0  0  0
 25 34  1  1  0  0  0
 25  4  1  0  0  0  0
 26 25  1  0  0  0  0
 27 35  1  1  0  0  0
 27 26  1  0  0  0  0
 27  2  1  0  0  0  0
 29 16  1  0  0  0  0
 40  8  1  0  0  0  0
 40  5  1  0  0  0  0
 41  9  1  0  0  0  0
 44 18  2  0  0  0  0
 45 15  1  0  0  0  0
 45 10  1  0  0  0  0
 46  1  1  0  0  0  0
M  END
>  <CHROM.1>
-117.49440945,150.58594119,-98.15485015,172.39735870,151.37781663,-46.22141385
-70.45337858,-62.47011405,179.96276275,-71.56770391,155.77399229,174.64123237
103.86027609,11.53458588,-7.35670495,4.90278447,0.85727943,-1.01964417,-0.98380722

>  <Name>
lig.pdb

>  <RI>
0

>  <Rbt.Current_Directory>
/home/afrankz/demos/rdock_decoys_rna/rnas/3wru

>  <Rbt.Executable>
rbdock ($Id: //depot/dev/client3/rdock/2013.1/src/exe/rbdock.cxx#4 $)

>  <Rbt.Library>
libRbt.so (2013.1, Build901 2013/11/27)

>  <Rbt.Parameter_File>
/export/apps/rDock/src/rDock_2013.1_src/data/scripts/dock_solv.prm

>  <Rbt.Receptor>
prm/blind_docking_20.prm

>  <SCORE>
14.8797

>  <SCORE.INTER>
5.53824

>  <SCORE.INTER.CONST>
1

>  <SCORE.INTER.POLAR>
0

>  <SCORE.INTER.ROT>
13

>  <SCORE.INTER.SOLV>
34.5173

>  <SCORE.INTER.VDW>
-20.0803

>  <SCORE.INTER.norm>
0.120396

>  <SCORE.INTRA>
5.47872

>  <SCORE.INTRA.DIHEDRAL>
4.63427

>  <SCORE.INTRA.DIHEDRAL.0>
19.7146

>  <SCORE.INTRA.POLAR>
0

>  <SCORE.INTRA.POLAR.0>
0

>  <SCORE.INTRA.REPUL>
0

>  <SCORE.INTRA.REPUL.0>
0

>  <SCORE.INTRA.SOLV>
2.90619

>  <SCORE.INTRA.SOLV.lig_0>
-116.697

>  <SCORE.INTRA.VDW>
1.70849

>  <SCORE.INTRA.VDW.0>
-7.06424

>  <SCORE.INTRA.norm>
0.119103

>  <SCORE.RESTR>
3.8627

>  <SCORE.RESTR.CAVITY>
3.8627

>  <SCORE.RESTR.norm>
0.0839717

>  <SCORE.SYSTEM>
0

>  <SCORE.SYSTEM.CONST>
0

>  <SCORE.SYSTEM.DIHEDRAL>
0

>  <SCORE.SYSTEM.SOLV>
0

>  <SCORE.SYSTEM.norm>
0

>  <SCORE.heavy>
46

>  <SCORE.norm>
0.323471

>  <RMSD>
8.246

$$$$
lig.pdb
 OpenBabel03061811583D
libRbt.so/2013.1/901 2013/11/27
 46 49  0  0  0  0  0  0  0  0999 V2000
   10.9506   -7.7204    0.0291 C   0  0  1  0  0  0  0  0  0  0  0  0
   10.5430   -6.9106    2.3926 C   0  0  1  0  0  0  0  0  0  0  0  0
   12.0599   -7.1298    2.6766 C   0  0  1  0  0  0  0  0  0  0  0  0
   12.4671   -6.3005    3.9993 C   0  0  2  0  0  0  0  0  0  0  0  0
   11.9799   -9.3348    3.9294 C   0  0  2  0  0  0  0  0  0  0  0  0
   10.5218   -9.8757    3.9341 C   0  0  1  0  0  0  0  0  0  0  0  0
   10.7510  -11.0839    4.8096 C   0  0  1  0  0  0  0  0  0  0  0  0
   12.0495  -11.7427    4.2449 C   0  0  1  0  0  0  0  0  0  0  0  0
   11.8851  -12.6726    2.9919 C   0  0  0  0  0  0  0  0  0  0  0  0
   10.7277  -11.5736    7.2269 C   0  0  1  0  0  0  0  0  0  0  0  0
    9.8940  -12.7404    6.7883 C   0  0  1  0  0  0  0  0  0  0  0  0
   11.2153   -6.3364   -0.6095 C   0  0  1  0  0  0  0  0  0  0  0  0
    9.6913  -13.6972    8.0163 C   0  0  0  0  0  0  0  0  0  0  0  0
    9.0248  -13.1012    9.1385 C   0  0  0  0  0  0  0  0  0  0  0  0
    9.8204  -11.9892    9.6134 C   0  0  2  0  0  0  0  0  0  0  0  0
    9.1305  -11.2846   10.8473 C   0  0  0  0  0  0  0  0  0  0  0  0
   15.1630   -3.4656    7.1860 C   0  0  2  0  0  0  0  0  0  0  0  0
   14.0290   -3.7375    5.1383 C   0  0  0  0  0  0  0  0  0  0  0  0
   16.3262   -2.7239    7.1027 C   0  0  0  0  0  0  0  0  0  0  0  0
   14.1966   -2.8452    6.4646 C   0  0  1  0  0  0  0  0  0  0  0  0
    9.8649   -5.6963   -1.1703 C   0  0  0  0  0  0  0  0  0  0  0  0
    9.2378   -6.7096   -2.2437 C   0  0  0  0  0  0  0  0  0  0  0  0
    8.9652   -8.1012   -1.5055 C   0  0  1  0  0  0  0  0  0  0  0  0
    8.3728   -9.1473   -2.4574 C   0  0  0  0  0  0  0  0  0  0  0  0
   12.2294   -4.7553    3.7053 C   0  0  1  0  0  0  0  0  0  0  0  0
   10.6393   -4.5866    3.4425 C   0  0  0  0  0  0  0  0  0  0  0  0
   10.2134   -5.4139    2.1688 C   0  0  2  0  0  0  0  0  0  0  0  0
   14.8053   -3.6484    8.5746 F   0  0  0  0  0  0  0  0  0  0  0  0
    9.9935  -11.3357   12.1406 N   0  0  0  0  0  0  0  0  0  0  0  0
   11.8749   -5.4589    0.4269 N   0  0  0  0  0  0  0  0  0  0  0  0
    8.6054  -12.3978    6.3691 N   0  0  0  0  0  0  0  0  0  0  0  0
   16.9920   -2.1484    5.9950 N   0  0  0  0  0  0  0  0  0  0  0  0
    7.2316   -8.6442   -3.1174 N   0  0  0  0  0  0  0  0  0  0  0  0
   12.6032   -3.9590    4.8879 N   0  0  0  0  0  0  0  0  0  0  0  0
    8.7605   -5.2793    1.9237 N   0  0  0  0  0  0  0  0  0  0  0  0
   10.1552   -7.5954    1.2085 O   0  0  0  0  0  0  0  0  0  0  0  0
   12.2537   -8.6050    2.8742 O   0  0  0  0  0  0  0  0  0  0  0  0
   13.8088   -6.5097    4.2281 O   0  0  0  0  0  0  0  0  0  0  0  0
    9.6969   -8.9053    4.5045 O   0  0  0  0  0  0  0  0  0  0  0  0
   12.8144  -10.5337    4.1063 O   0  0  0  0  0  0  0  0  0  0  0  0
   11.4026  -11.8530    1.9085 O   0  0  0  0  0  0  0  0  0  0  0  0
   10.9383  -10.6293    6.2458 O   0  0  0  0  0  0  0  0  0  0  0  0
   12.9336   -2.7674    7.1610 O   0  0  0  0  0  0  0  0  0  0  0  0
   14.9704   -4.1505    4.4414 O   0  0  0  0  0  0  0  0  0  0  0  0
   10.0565  -10.9981    8.4982 O   0  0  0  0  0  0  0  0  0  0  0  0
   10.2653   -8.6449   -0.9360 O   0  0  0  0  0  0  0  0  0  0  0  0
  1 36  1  1  0  0  0
  2 36  1  6  0  0  0
  2  3  1  0  0  0  0
  3 37  1  1  0  0  0
  3  4  1  0  0  0  0
  4 38  1  6  0  0  0
  5 37  1  6  0  0  0
  5  6  1  0  0  0  0
  6  7  1  0  0  0  0
  6 39  1  1  0  0  0
  7 42  1  1  0  0  0
  8  9  1  6  0  0  0
  8  7  1  0  0  0  0
 10 42  1  6  0  0  0
 10 11  1  0  0  0  0
 11 31  1  1  0  0  0
 11 13  1  0  0  0  0
 12 30  1  1  0  0  0
 12  1  1  0  0  0  0
 14 13  1  0  0  0  0
 15 16  1  1  0  0  0
 15 14  1  0  0  0  0
 17 19  1  1  0  0  0
 17 28  1  0  0  0  0
 18 34  1  0  0  0  0
 19 32  1  0  0  0  0
 20 18  1  6  0  0  0
 20 17  1  0  0  0  0
 20 43  1  0  0  0  0
 21 12  1  0  0  0  0
 22 21  1  0  0  0  0
 22 23  1  0  0  0  0
 23 24  1  6  0  0  0
 23 46  1  0  0  0  0
 24 33  1  0  0  0  0
 25 34  1  1  0  0  0
 25  4  1  0  0  0  0
 26 25  1  0  0  0  0
 27 35  1  1  0  0  0
 27 26  1  0  0  0  0
 27  2  1  0  0  0  0
 29 16  1  0  0  0  0
 40  8  1  0  0  0  0
 40  5  1  0  0  0  0
 41  9  1  0  0  0  0
 44 18  2  0  0  0  0
 45 15  1  0  0  0  0
 45 10  1  0  0  0  0
 46  1  1  0  0  0  0
M  END
>  <CHROM.1>
-63.44527951,-37.57967815,-77.75255626,88.09199136,159.58356132,63.41203041
-20.60899210,118.64950277,-47.40674089,133.71767094,106.02521322,-52.87342623
76.95824115,11.38060581,-7.91777103,4.14742930,1.31378249,-1.02281126,-1.07260541

>  <Name>
lig.pdb

>  <RI>
0

>  <Rbt.Current_Directory>
/home/afrankz/demos/rdock_decoys_rna/rnas/3wru

>  <Rbt.Executable>
rbdock ($Id: //depot/dev/client3/rdock/2013.1/src/exe/rbdock.cxx#4 $)

>  <Rbt.Library>
libRbt.so (2013.1, Build901 2013/11/27)

>  <Rbt.Parameter_File>
/export/apps/rDock/src/rDock_2013.1_src/data/scripts/dock_solv.prm

>  <Rbt.Receptor>
prm/blind_docking_20.prm

>  <SCORE>
26.0989

>  <SCORE.INTER>
6.94079

>  <SCORE.INTER.CONST>
1

>  <SCORE.INTER.POLAR>
0

>  <SCORE.INTER.ROT>
13

>  <SCORE.INTER.SOLV>
34.4856

>  <SCORE.INTER.VDW>
-19.1347

>  <SCORE.INTER.norm>
0.150887

>  <SCORE.INTRA>
15.633

>  <SCORE.INTRA.DIHEDRAL>
7.11407

>  <SCORE.INTRA.DIHEDRAL.0>
19.7146

>  <SCORE.INTRA.POLAR>
0

>  <SCORE.INTRA.POLAR.0>
0

>  <SCORE.INTRA.REPUL>
0

>  <SCORE.INTRA.REPUL.0>
0

>  <SCORE.INTRA.SOLV>
7.74124

>  <SCORE.INTRA.SOLV.lig_0>
-116.697

>  <SCORE.INTRA.VDW>
8.20533

>  <SCORE.INTRA.VDW.0>
-7.06424

>  <SCORE.INTRA.norm>
0.339847

>  <SCORE.RESTR>
3.52509

>  <SCORE.RESTR.CAVITY>
3.52509

>  <SCORE.RESTR.norm>
0.0766324

>  <SCORE.SYSTEM>
0

>  <SCORE.SYSTEM.CONST>
0

>  <SCORE.SYSTEM.DIHEDRAL>
0

>  <SCORE.SYSTEM.SOLV>
0

>  <SCORE.SYSTEM.norm>
0

>  <SCORE.heavy>
46

>  <SCORE.norm>
0.567367

>  <RMSD>
8.253

$$$$
lig.pdb
 OpenBabel03061811583D
libRbt.so/2013.1/901 2013/11/27
 46 49  0  0  0  0  0  0  0  0999 V2000
   11.2105  -11.3390    5.1472 C   0  0  1  0  0  0  0  0  0  0  0  0
    9.9696  -12.5379    6.9995 C   0  0  1  0  0  0  0  0  0  0  0  0
   10.5378  -11.8717    8.2891 C   0  0  1  0  0  0  0  0  0  0  0  0
   10.4018  -12.9112    9.5154 C   0  0  2  0  0  0  0  0  0  0  0  0
   12.9880  -12.3596    7.8461 C   0  0  2  0  0  0  0  0  0  0  0  0
   14.3632  -11.6870    8.1206 C   0  0  1  0  0  0  0  0  0  0  0  0
   15.1357  -12.9328    8.4813 C   0  0  1  0  0  0  0  0  0  0  0  0
   14.2004  -13.7099    9.4614 C   0  0  1  0  0  0  0  0  0  0  0  0
   14.2148  -13.2570   10.9636 C   0  0  0  0  0  0  0  0  0  0  0  0
   16.5211  -14.5429    7.2276 C   0  0  1  0  0  0  0  0  0  0  0  0
   16.3360  -15.8370    7.9625 C   0  0  1  0  0  0  0  0  0  0  0  0
   10.8796  -10.4223    3.9458 C   0  0  1  0  0  0  0  0  0  0  0  0
   17.6947  -16.6228    7.9371 C   0  0  0  0  0  0  0  0  0  0  0  0
   18.7949  -15.9405    8.5557 C   0  0  0  0  0  0  0  0  0  0  0  0
   19.0273  -14.6990    7.8489 C   0  0  2  0  0  0  0  0  0  0  0  0
   20.2256  -13.8960    8.4924 C   0  0  0  0  0  0  0  0  0  0  0  0
    7.7980  -16.7004   11.9656 C   0  0  2  0  0  0  0  0  0  0  0  0
    9.3995  -15.4219   10.8022 C   0  0  0  0  0  0  0  0  0  0  0  0
    7.7968  -17.7825   11.1060 C   0  0  0  0  0  0  0  0  0  0  0  0
    9.0746  -16.2719   12.1270 C   0  0  1  0  0  0  0  0  0  0  0  0
    9.9655  -11.1817    2.8802 C   0  0  0  0  0  0  0  0  0  0  0  0
   10.7462  -12.4966    2.3967 C   0  0  0  0  0  0  0  0  0  0  0  0
   11.0251  -13.4040    3.6831 C   0  0  1  0  0  0  0  0  0  0  0  0
   11.7833  -14.6876    3.3243 C   0  0  0  0  0  0  0  0  0  0  0  0
    8.8551  -13.2064    9.7424 C   0  0  1  0  0  0  0  0  0  0  0  0
    8.3285  -13.9167    8.3845 C   0  0  0  0  0  0  0  0  0  0  0  0
    8.4796  -12.9269    7.1657 C   0  0  2  0  0  0  0  0  0  0  0  0
    7.1624  -17.0714   13.2098 F   0  0  0  0  0  0  0  0  0  0  0  0
   21.5818  -14.6539    8.4113 N   0  0  0  0  0  0  0  0  0  0  0  0
   10.2188   -9.1727    4.4760 N   0  0  0  0  0  0  0  0  0  0  0  0
   16.0203  -15.6867    9.3157 N   0  0  0  0  0  0  0  0  0  0  0  0
    8.3695  -19.0709   11.2224 N   0  0  0  0  0  0  0  0  0  0  0  0
   10.9620  -15.5758    2.5979 N   0  0  0  0  0  0  0  0  0  0  0  0
    8.6859  -14.1447   10.8665 N   0  0  0  0  0  0  0  0  0  0  0  0
    8.0140  -13.5669    5.9155 N   0  0  0  0  0  0  0  0  0  0  0  0
   10.0358  -11.6348    5.9033 O   0  0  0  0  0  0  0  0  0  0  0  0
   11.9749  -11.5420    8.0078 O   0  0  0  0  0  0  0  0  0  0  0  0
   10.9090  -12.3002   10.6404 O   0  0  0  0  0  0  0  0  0  0  0  0
   14.7912  -11.0702    6.9444 O   0  0  0  0  0  0  0  0  0  0  0  0
   12.9862  -13.5516    8.7089 O   0  0  0  0  0  0  0  0  0  0  0  0
   13.4103  -14.1967   11.7037 O   0  0  0  0  0  0  0  0  0  0  0  0
   15.4063  -13.7331    7.2201 O   0  0  0  0  0  0  0  0  0  0  0  0
    9.2477  -15.4386   13.2940 O   0  0  0  0  0  0  0  0  0  0  0  0
   10.1513  -15.7986    9.8882 O   0  0  0  0  0  0  0  0  0  0  0  0
   17.7713  -13.8598    7.8343 O   0  0  0  0  0  0  0  0  0  0  0  0
   11.8463  -12.6226    4.6956 O   0  0  0  0  0  0  0  0  0  0  0  0
  1 36  1  6  0  0  0
  2 36  1  6  0  0  0
  2  3  1  0  0  0  0
  3 37  1  6  0  0  0
  3  4  1  0  0  0  0
  4 38  1  1  0  0  0
  5 37  1  1  0  0  0
  5  6  1  0  0  0  0
  6  7  1  0  0  0  0
  6 39  1  6  0  0  0
  7 42  1  6  0  0  0
  8  9  1  1  0  0  0
  8  7  1  0  0  0  0
 10 42  1  1  0  0  0
 10 11  1  0  0  0  0
 11 31  1  1  0  0  0
 11 13  1  0  0  0  0
 12 30  1  1  0  0  0
 12  1  1  0  0  0  0
 14 13  1  0  0  0  0
 15 16  1  1  0  0  0
 15 14  1  0  0  0  0
 17 19  1  6  0  0  0
 17 28  1  0  0  0  0
 18 34  1  0  0  0  0
 19 32  1  0  0  0  0
 20 18  1  6  0  0  0
 20 17  1  0  0  0  0
 20 43  1  0  0  0  0
 21 12  1  0  0  0  0
 22 21  1  0  0  0  0
 22 23  1  0  0  0  0
 23 24  1  6  0  0  0
 23 46  1  0  0  0  0
 24 33  1  0  0  0  0
 25 34  1  1  0  0  0
 25  4  1  0  0  0  0
 26 25  1  0  0  0  0
 27 35  1  6  0  0  0
 27 26  1  0  0  0  0
 27  2  1  0  0  0  0
 29 16  1  0  0  0  0
 40  8  1  0  0  0  0
 40  5  1  0  0  0  0
 41  9  1  0  0  0  0
 44 18  2  0  0  0  0
 45 15  1  0  0  0  0
 45 10  1  0  0  0  0
 46  1  1  0  0  0  0
M  END
>  <CHROM.1>
174.36139789,78.50274129,-69.07125436,-157.56152405,153.15640665,-173.46474913
78.78155358,62.73159436,63.54234531,73.28171723,78.52046599,-70.23702756
-55.14401215,12.27242426,-13.86537850,8.12191513,2.86614240,-0.04194250,2.09118483

>  <Name>
lig.pdb

>  <RI>
0

>  <Rbt.Current_Directory>
/home/afrankz/demos/rdock_decoys_rna/rnas/3wru

>  <Rbt.Executable>
rbdock ($Id: //depot/dev/client3/rdock/2013.1/src/exe/rbdock.cxx#4 $)

>  <Rbt.Library>
libRbt.so (2013.1, Build901 2013/11/27)

>  <Rbt.Parameter_File>
/export/apps/rDock/src/rDock_2013.1_src/data/scripts/dock_solv.prm

>  <Rbt.Receptor>
prm/pocket_docking_4.prm

>  <SCORE>
-0.0604796

>  <SCORE.INTER>
1.09792

>  <SCORE.INTER.CONST>
1

>  <SCORE.INTER.POLAR>
0

>  <SCORE.INTER.ROT>
13

>  <SCORE.INTER.SOLV>
18.3164

>  <SCORE.INTER.VDW>
-17.6402

>  <SCORE.INTER.norm>
0.0238678

>  <SCORE.INTRA>
-1.1584

>  <SCORE.INTRA.DIHEDRAL>
-8.01868

>  <SCORE.INTRA.DIHEDRAL.0>
19.7146

>  <SCORE.INTRA.POLAR>
0

>  <SCORE.INTRA.POLAR.0>
0

>  <SCORE.INTRA.REPUL>
0

>  <SCORE.INTRA.REPUL.0>
0

>  <SCORE.INTRA.SOLV>
2.27894

>  <SCORE.INTRA.SOLV.lig_0>
-116.697

>  <SCORE.INTRA.VDW>
1.71147

>  <SCORE.INTRA.VDW.0>
-7.06424

>  <SCORE.INTRA.norm>
-0.0251826

>  <SCORE.RESTR>
0

>  <SCORE.RESTR.CAVITY>
0

>  <SCORE.RESTR.norm>
0

>  <SCORE.SYSTEM>
0

>  <SCORE.SYSTEM.CONST>
0

>  <SCORE.SYSTEM.DIHEDRAL>
0

>  <SCORE.SYSTEM.SOLV>
0

>  <SCORE.SYSTEM.norm>
0

>  <SCORE.heavy>
46

>  <SCORE.norm>
-0.00131477

>  <RMSD>
8.261

$$$$
lig.pdb
 OpenBabel03061811583D
libRbt.so/2013.1/901 2013/11/27
 46 49  0  0  0  0  0  0  0  0999 V2000
    9.9881  -19.5524    9.5988 C   0  0  1  0  0  0  0  0  0  0  0  0
   12.3461  -18.6338    9.5388 C   0  0  1  0  0  0  0  0  0  0  0  0
   13.5579  -18.5031   10.5106 C   0  0  1  0  0  0  0  0  0  0  0  0
   14.8156  -17.9039    9.6970 C   0  0  2  0  0  0  0  0  0  0  0  0
   12.5160  -16.4236   11.5245 C   0  0  2  0  0  0  0  0  0  0  0  0
   12.8418  -15.4684   12.7078 C   0  0  1  0  0  0  0  0  0  0  0  0
   12.5646  -14.1625   12.0032 C   0  0  1  0  0  0  0  0  0  0  0  0
   13.2733  -14.3005   10.6183 C   0  0  1  0  0  0  0  0  0  0  0  0
   14.8135  -14.0041   10.5776 C   0  0  0  0  0  0  0  0  0  0  0  0
   10.6377  -12.8744   11.1597 C   0  0  1  0  0  0  0  0  0  0  0  0
   10.5377  -11.6374   12.0016 C   0  0  1  0  0  0  0  0  0  0  0  0
    8.8073  -19.3443   10.5764 C   0  0  1  0  0  0  0  0  0  0  0  0
    9.9883  -10.4697   11.1077 C   0  0  0  0  0  0  0  0  0  0  0  0
    8.6888  -10.7035   10.5462 C   0  0  0  0  0  0  0  0  0  0  0  0
    8.7544  -11.8732    9.6961 C   0  0  2  0  0  0  0  0  0  0  0  0
    7.3458  -12.1873    9.0543 C   0  0  0  0  0  0  0  0  0  0  0  0
   17.7662  -17.9573    5.3212 C   0  0  2  0  0  0  0  0  0  0  0  0
   17.1878  -19.4106    7.0837 C   0  0  0  0  0  0  0  0  0  0  0  0
   18.6373  -16.9973    4.8420 C   0  0  0  0  0  0  0  0  0  0  0  0
   18.3749  -18.6382    6.3238 C   0  0  1  0  0  0  0  0  0  0  0  0
    8.8908  -20.3642   11.8013 C   0  0  0  0  0  0  0  0  0  0  0  0
    8.8881  -21.8561   11.2125 C   0  0  0  0  0  0  0  0  0  0  0  0
   10.1480  -22.0031   10.2395 C   0  0  1  0  0  0  0  0  0  0  0  0
   10.2269  -23.4004    9.6128 C   0  0  0  0  0  0  0  0  0  0  0  0
   15.2001  -18.9385    8.5513 C   0  0  1  0  0  0  0  0  0  0  0  0
   13.9173  -19.0139    7.5640 C   0  0  0  0  0  0  0  0  0  0  0  0
   12.6667  -19.5705    8.3477 C   0  0  2  0  0  0  0  0  0  0  0  0
   17.3405  -18.8091    4.2337 F   0  0  0  0  0  0  0  0  0  0  0  0
    7.3599  -13.4424    8.1351 N   0  0  0  0  0  0  0  0  0  0  0  0
    8.8217  -17.9047   11.0311 N   0  0  0  0  0  0  0  0  0  0  0  0
    9.6399  -11.7417   13.0677 N   0  0  0  0  0  0  0  0  0  0  0  0
   19.8859  -17.1101    4.1866 N   0  0  0  0  0  0  0  0  0  0  0  0
    9.1134  -23.6474    8.7821 N   0  0  0  0  0  0  0  0  0  0  0  0
   16.3569  -18.4334    7.7904 N   0  0  0  0  0  0  0  0  0  0  0  0
   11.4836  -19.6331    7.4614 N   0  0  0  0  0  0  0  0  0  0  0  0
   11.2280  -19.1976   10.2120 O   0  0  0  0  0  0  0  0  0  0  0  0
   13.1295  -17.5798   11.6137 O   0  0  0  0  0  0  0  0  0  0  0  0
   15.8709  -17.7989   10.5753 O   0  0  0  0  0  0  0  0  0  0  0  0
   11.9620  -15.7511   13.7534 O   0  0  0  0  0  0  0  0  0  0  0  0
   12.8231  -15.6329   10.3221 O   0  0  0  0  0  0  0  0  0  0  0  0
   14.9914  -12.6091   10.8944 O   0  0  0  0  0  0  0  0  0  0  0  0
   11.0647  -13.9911   11.8449 O   0  0  0  0  0  0  0  0  0  0  0  0
   19.3497  -19.5923    5.8485 O   0  0  0  0  0  0  0  0  0  0  0  0
   17.0107  -20.6395    7.0517 O   0  0  0  0  0  0  0  0  0  0  0  0
    9.2604  -13.0628   10.4776 O   0  0  0  0  0  0  0  0  0  0  0  0
   10.0588  -20.9753    9.1233 O   0  0  0  0  0  0  0  0  0  0  0  0
  1 36  1  1  0  0  0
  2 36  1  1  0  0  0
  2  3  1  0  0  0  0
  3 37  1  1  0  0  0
  3  4  1  0  0  0  0
  4 38  1  1  0  0  0
  5 37  1  1  0  0  0
  5  6  1  0  0  0  0
  6  7  1  0  0  0  0
  6 39  1  1  0  0  0
  7 42  1  6  0  0  0
  8  9  1  1  0  0  0
  8  7  1  0  0  0  0
 10 42  1  1  0  0  0
 10 11  1  0  0  0  0
 11 31  1  1  0  0  0
 11 13  1  0  0  0  0
 12 30  1  1  0  0  0
 12  1  1  0  0  0  0
 14 13  1  0  0  0  0
 15 16  1  1  0  0  0
 15 14  1  0  0  0  0
 17 19  1  6  0  0  0
 17 28  1  0  0  0  0
 18 34  1  0  0  0  0
 19 32  1  0  0  0  0
 20 18  1  6  0  0  0
 20 17  1  0  0  0  0
 20 43  1  0  0  0  0
 21 12  1  0  0  0  0
 22 21  1  0  0  0  0
 22 23  1  0  0  0  0
 23 24  1  6  0  0  0
 23 46  1  0  0  0  0
 24 33  1  0  0  0  0
 25 34  1  6  0  0  0
 25  4  1  0  0  0  0
 26 25  1  0  0  0  0
 27 35  1  6  0  0  0
 27 26  1  0  0  0  0
 27  2  1  0  0  0  0
 29 16  1  0  0  0  0
 40  8  1  0  0  0  0
 40  5  1  0  0  0  0
 41  9  1  0  0  0  0
 44 18  2  0  0  0  0
 45 15  1  0  0  0  0
 45 10  1  0  0  0  0
 46  1  1  0  0  0  0
M  END
>  <CHROM.1>
-147.03465966,-174.88118907,-46.72816014,-151.72991617,-176.95228118,-65.05765604
-84.09378779,-179.70724266,64.38727718,-69.63659038,164.19678981,63.84415474
156.03493823,12.65725442,-17.04509684,9.50496187,2.45543104,0.45890270,0.17930487

>  <Name>
lig.pdb

>  <RI>
0

>  <Rbt.Current_Directory>
/home/afrankz/demos/rdock_decoys_rna/rnas/3wru

>  <Rbt.Executable>
rbdock ($Id: //depot/dev/client3/rdock/2013.1/src/exe/rbdock.cxx#4 $)

>  <Rbt.Library>
libRbt.so (2013.1, Build901 2013/11/27)

>  <Rbt.Parameter_File>
/export/apps/rDock/src/rDock_2013.1_src/data/scripts/dock_solv.prm

>  <Rbt.Receptor>
prm/pocket_docking_8.prm

>  <SCORE>
-3.64904

>  <SCORE.INTER>
-4.12533

>  <SCORE.INTER.CONST>
1

>  <SCORE.INTER.POLAR>
0

>  <SCORE.INTER.ROT>
13

>  <SCORE.INTER.SOLV>
22.5444

>  <SCORE.INTER.VDW>
-22.5317

>  <SCORE.INTER.norm>
-0.0896812

>  <SCORE.INTRA>
0.476294

>  <SCORE.INTRA.DIHEDRAL>
-6.24813

>  <SCORE.INTRA.DIHEDRAL.0>
19.7146

>  <SCORE.INTRA.POLAR>
0

>  <SCORE.INTRA.POLAR.0>
0

>  <SCORE.INTRA.REPUL>
0

>  <SCORE.INTRA.REPUL.0>
0

>  <SCORE.INTRA.SOLV>
0.966773

>  <SCORE.INTRA.SOLV.lig_0>
-116.697

>  <SCORE.INTRA.VDW>
3.11697

>  <SCORE.INTRA.VDW.0>
-7.06424

>  <SCORE.INTRA.norm>
0.0103542

>  <SCORE.RESTR>
0

>  <SCORE.RESTR.CAVITY>
0

>  <SCORE.RESTR.norm>
0

>  <SCORE.SYSTEM>
0

>  <SCORE.SYSTEM.CONST>
0

>  <SCORE.SYSTEM.DIHEDRAL>
0

>  <SCORE.SYSTEM.SOLV>
0

>  <SCORE.SYSTEM.norm>
0

>  <SCORE.heavy>
46

>  <SCORE.norm>
-0.0793269

>  <RMSD>
8.263

$$$$
lig.pdb
 OpenBabel03061811583D
libRbt.so/2013.1/901 2013/11/27
 46 49  0  0  0  0  0  0  0  0999 V2000
   13.9592  -13.1740    8.8805 C   0  0  1  0  0  0  0  0  0  0  0  0
   13.3363  -15.6264    8.8073 C   0  0  1  0  0  0  0  0  0  0  0  0
   12.1467  -15.5395    9.8109 C   0  0  1  0  0  0  0  0  0  0  0  0
   11.8933  -17.0007   10.4460 C   0  0  2  0  0  0  0  0  0  0  0  0
   11.8350  -13.5652   11.3739 C   0  0  2  0  0  0  0  0  0  0  0  0
   10.3724  -13.9771   11.7056 C   0  0  1  0  0  0  0  0  0  0  0  0
   10.1057  -12.9502   12.7795 C   0  0  1  0  0  0  0  0  0  0  0  0
   11.3752  -12.9877   13.6885 C   0  0  1  0  0  0  0  0  0  0  0  0
   11.4361  -14.1185   14.7744 C   0  0  0  0  0  0  0  0  0  0  0  0
    8.7165  -11.3504   11.5168 C   0  0  1  0  0  0  0  0  0  0  0  0
    8.4961   -9.9190   11.1280 C   0  0  1  0  0  0  0  0  0  0  0  0
   13.8863  -11.9453    7.9433 C   0  0  1  0  0  0  0  0  0  0  0  0
    7.0652   -9.7894   10.4955 C   0  0  0  0  0  0  0  0  0  0  0  0
    5.9874  -10.1600   11.3670 C   0  0  0  0  0  0  0  0  0  0  0  0
    6.1468  -11.5504   11.7364 C   0  0  2  0  0  0  0  0  0  0  0  0
    4.9904  -12.0154   12.7066 C   0  0  0  0  0  0  0  0  0  0  0  0
   10.4722  -22.0268    9.6128 C   0  0  2  0  0  0  0  0  0  0  0  0
    9.8381  -19.7768    9.9102 C   0  0  0  0  0  0  0  0  0  0  0  0
   10.6646  -23.2862   10.1484 C   0  0  0  0  0  0  0  0  0  0  0  0
    9.8038  -21.2657   10.5146 C   0  0  1  0  0  0  0  0  0  0  0  0
   14.9710  -12.0489    6.7769 C   0  0  0  0  0  0  0  0  0  0  0  0
   16.4217  -12.1675    7.4506 C   0  0  0  0  0  0  0  0  0  0  0  0
   16.4290  -13.4709    8.3763 C   0  0  1  0  0  0  0  0  0  0  0  0
   17.7780  -13.6661    9.0788 C   0  0  0  0  0  0  0  0  0  0  0  0
   11.4843  -17.9869    9.2667 C   0  0  1  0  0  0  0  0  0  0  0  0
   12.7627  -18.0551    8.2732 C   0  0  0  0  0  0  0  0  0  0  0  0
   13.0466  -16.6287    7.6625 C   0  0  2  0  0  0  0  0  0  0  0  0
    9.7850  -22.1406    8.3461 F   0  0  0  0  0  0  0  0  0  0  0  0
    5.1437  -13.4906   13.1763 N   0  0  0  0  0  0  0  0  0  0  0  0
   12.4788  -11.8469    7.4059 N   0  0  0  0  0  0  0  0  0  0  0  0
    8.5083   -9.0255   12.2028 N   0  0  0  0  0  0  0  0  0  0  0  0
    9.7458  -24.2974   10.5156 N   0  0  0  0  0  0  0  0  0  0  0  0
   17.8661  -14.9484    9.6609 N   0  0  0  0  0  0  0  0  0  0  0  0
   11.2302  -19.3341    9.8081 N   0  0  0  0  0  0  0  0  0  0  0  0
   14.2200  -16.6730    6.7623 N   0  0  0  0  0  0  0  0  0  0  0  0
   13.5638  -14.3632    8.1959 O   0  0  0  0  0  0  0  0  0  0  0  0
   12.5418  -14.5458   10.8642 O   0  0  0  0  0  0  0  0  0  0  0  0
   10.8398  -16.8976   11.3267 O   0  0  0  0  0  0  0  0  0  0  0  0
    9.6001  -13.8136   10.5549 O   0  0  0  0  0  0  0  0  0  0  0  0
   12.3486  -12.9989   12.6311 O   0  0  0  0  0  0  0  0  0  0  0  0
   10.2416  -14.0115   15.5742 O   0  0  0  0  0  0  0  0  0  0  0  0
    9.9259  -11.5888   12.1326 O   0  0  0  0  0  0  0  0  0  0  0  0
    8.4337  -21.6832   10.7013 O   0  0  0  0  0  0  0  0  0  0  0  0
    8.8339  -19.1276    9.5745 O   0  0  0  0  0  0  0  0  0  0  0  0
    7.4980  -11.7729   12.3740 O   0  0  0  0  0  0  0  0  0  0  0  0
   15.3434  -13.3569    9.4340 O   0  0  0  0  0  0  0  0  0  0  0  0
  1 36  1  6  0  0  0
  2 36  1  6  0  0  0
  2  3  1  0  0  0  0
  3 37  1  1  0  0  0
  3  4  1  0  0  0  0
  4 38  1  1  0  0  0
  5 37  1  1  0  0  0
  5  6  1  0  0  0  0
  6  7  1  0  0  0  0
  6 39  1  6  0  0  0
  7 42  1  6  0  0  0
  8  9  1  6  0  0  0
  8  7  1  0  0  0  0
 10 42  1  1  0  0  0
 10 11  1  0  0  0  0
 11 31  1  1  0  0  0
 11 13  1  0  0  0  0
 12 30  1  6  0  0  0
 12  1  1  0  0  0  0
 14 13  1  0  0  0  0
 15 16  1  1  0  0  0
 15 14  1  0  0  0  0
 17 19  1  1  0  0  0
 17 28  1  0  0  0  0
 18 34  1  0  0  0  0
 19 32  1  0  0  0  0
 20 18  1  6  0  0  0
 20 17  1  0  0  0  0
 20 43  1  0  0  0  0
 21 12  1  0  0  0  0
 22 21  1  0  0  0  0
 22 23  1  0  0  0  0
 23 24  1  1  0  0  0
 23 46  1  0  0  0  0
 24 33  1  0  0  0  0
 25 34  1  1  0  0  0
 25  4  1  0  0  0  0
 26 25  1  0  0  0  0
 27 35  1  6  0  0  0
 27 26  1  0  0  0  0
 27  2  1  0  0  0  0
 29 16  1  0  0  0  0
 40  8  1  0  0  0  0
 40  5  1  0  0  0  0
 41  9  1  0  0  0  0
 44 18  2  0  0  0  0
 45 15  1  0  0  0  0
 45 10  1  0  0  0  0
 46  1  1  0  0  0  0
M  END
>  <CHROM.1>
-170.61841104,63.10665971,134.42390553,43.78442592,76.81306936,-55.10834923
168.97533950,-177.89337018,64.57950660,-61.89956015,171.14543780,-167.72159314
105.49523549,11.14137500,-15.08542167,10.39552234,-1.76469008,-0.44584432
-3.00623135

>  <Name>
lig.pdb

>  <RI>
0

>  <Rbt.Current_Directory>
/home/afrankz/demos/rdock_decoys_rna/rnas/3wru

>  <Rbt.Executable>
rbdock ($Id: //depot/dev/client3/rdock/2013.1/src/exe/rbdock.cxx#4 $)

>  <Rbt.Library>
libRbt.so (2013.1, Build901 2013/11/27)

>  <Rbt.Parameter_File>
/export/apps/rDock/src/rDock_2013.1_src/data/scripts/dock_solv.prm

>  <Rbt.Receptor>
prm/pocket_docking_7.prm

>  <SCORE>
-0.940259

>  <SCORE.INTER>
1.47503

>  <SCORE.INTER.CONST>
1

>  <SCORE.INTER.POLAR>
0

>  <SCORE.INTER.ROT>
13

>  <SCORE.INTER.SOLV>
19.7612

>  <SCORE.INTER.VDW>
-17.8704

>  <SCORE.INTER.norm>
0.0320658

>  <SCORE.INTRA>
-2.41529

>  <SCORE.INTRA.DIHEDRAL>
-6.90556

>  <SCORE.INTRA.DIHEDRAL.0>
19.7146

>  <SCORE.INTRA.POLAR>
0

>  <SCORE.INTRA.POLAR.0>
0

>  <SCORE.INTRA.REPUL>
3.44366e-05

>  <SCORE.INTRA.REPUL.0>
0

>  <SCORE.INTRA.SOLV>
-1.85882

>  <SCORE.INTRA.SOLV.lig_0>
-116.697

>  <SCORE.INTRA.VDW>
1.96673

>  <SCORE.INTRA.VDW.0>
-7.06424

>  <SCORE.INTRA.norm>
-0.0525062

>  <SCORE.RESTR>
0

>  <SCORE.RESTR.CAVITY>
0

>  <SCORE.RESTR.norm>
0

>  <SCORE.SYSTEM>
0

>  <SCORE.SYSTEM.CONST>
0

>  <SCORE.SYSTEM.DIHEDRAL>
0

>  <SCORE.SYSTEM.SOLV>
0

>  <SCORE.SYSTEM.norm>
0

>  <SCORE.heavy>
46

>  <SCORE.norm>
-0.0204404

>  <RMSD>
8.264

$$$$
lig.pdb
 OpenBabel03061811583D
libRbt.so/2013.1/901 2013/11/27
 46 49  0  0  0  0  0  0  0  0999 V2000
    9.2154  -12.6651    4.4710 C   0  0  1  0  0  0  0  0  0  0  0  0
   10.1796  -14.0509    6.3572 C   0  0  1  0  0  0  0  0  0  0  0  0
   11.4321  -14.0181    7.2845 C   0  0  1  0  0  0  0  0  0  0  0  0
   11.4171  -15.3279    8.2264 C   0  0  2  0  0  0  0  0  0  0  0  0
   13.9038  -13.9580    6.7145 C   0  0  2  0  0  0  0  0  0  0  0  0
   14.8539  -14.2174    5.5109 C   0  0  1  0  0  0  0  0  0  0  0  0
   16.0639  -13.4857    6.0397 C   0  0  1  0  0  0  0  0  0  0  0  0
   15.5033  -12.1339    6.5850 C   0  0  1  0  0  0  0  0  0  0  0  0
   15.2619  -10.9921    5.5363 C   0  0  0  0  0  0  0  0  0  0  0  0
   17.4554  -15.3932    6.7532 C   0  0  1  0  0  0  0  0  0  0  0  0
   17.9663  -16.2289    7.8886 C   0  0  1  0  0  0  0  0  0  0  0  0
    9.5177  -13.5966    3.2734 C   0  0  1  0  0  0  0  0  0  0  0  0
   18.8507  -17.3838    7.2983 C   0  0  0  0  0  0  0  0  0  0  0  0
   19.9939  -16.9431    6.5516 C   0  0  0  0  0  0  0  0  0  0  0  0
   19.5372  -16.1601    5.4232 C   0  0  2  0  0  0  0  0  0  0  0  0
   20.7561  -15.6374    4.5653 C   0  0  0  0  0  0  0  0  0  0  0  0
    9.3469  -17.7091   12.5502 C   0  0  2  0  0  0  0  0  0  0  0  0
   10.8191  -16.3749   11.2831 C   0  0  0  0  0  0  0  0  0  0  0  0
    9.0572  -18.9097   13.1705 C   0  0  0  0  0  0  0  0  0  0  0  0
   10.6200  -17.7536   12.0850 C   0  0  1  0  0  0  0  0  0  0  0  0
   10.9189  -13.2308    2.6022 C   0  0  0  0  0  0  0  0  0  0  0  0
   10.8651  -11.6979    2.1334 C   0  0  0  0  0  0  0  0  0  0  0  0
   10.5801  -10.7986    3.4241 C   0  0  1  0  0  0  0  0  0  0  0  0
   10.4978   -9.3076    3.0756 C   0  0  0  0  0  0  0  0  0  0  0  0
   10.1152  -15.2646    9.1385 C   0  0  1  0  0  0  0  0  0  0  0  0
    8.8523  -15.3259    8.1250 C   0  0  0  0  0  0  0  0  0  0  0  0
    8.8637  -14.0676    7.1739 C   0  0  2  0  0  0  0  0  0  0  0  0
    9.1180  -16.6209   13.4738 F   0  0  0  0  0  0  0  0  0  0  0  0
   20.3252  -14.7045    3.3973 N   0  0  0  0  0  0  0  0  0  0  0  0
    9.4765  -15.0233    3.7657 N   0  0  0  0  0  0  0  0  0  0  0  0
   18.7991  -15.5414    8.7760 N   0  0  0  0  0  0  0  0  0  0  0  0
    7.8593  -19.4056   13.7366 N   0  0  0  0  0  0  0  0  0  0  0  0
   10.5922   -8.5095    4.2354 N   0  0  0  0  0  0  0  0  0  0  0  0
   10.0702  -16.4402   10.0263 N   0  0  0  0  0  0  0  0  0  0  0  0
    7.7222  -14.1166    6.2336 N   0  0  0  0  0  0  0  0  0  0  0  0
   10.1370  -12.8893    5.5384 O   0  0  0  0  0  0  0  0  0  0  0  0
   12.6345  -14.0037    6.3862 O   0  0  0  0  0  0  0  0  0  0  0  0
   12.5307  -15.2752    9.0345 O   0  0  0  0  0  0  0  0  0  0  0  0
   15.0311  -15.5955    5.3823 O   0  0  0  0  0  0  0  0  0  0  0  0
   14.3685  -12.6803    7.2775 O   0  0  0  0  0  0  0  0  0  0  0  0
   14.2539  -11.4585    4.6173 O   0  0  0  0  0  0  0  0  0  0  0  0
   16.6998  -14.3094    7.1449 O   0  0  0  0  0  0  0  0  0  0  0  0
   11.6036  -17.8498   13.1383 O   0  0  0  0  0  0  0  0  0  0  0  0
   11.4918  -15.4129   11.6887 O   0  0  0  0  0  0  0  0  0  0  0  0
   18.6849  -15.0058    5.8953 O   0  0  0  0  0  0  0  0  0  0  0  0
    9.2681  -11.2199    4.0652 O   0  0  0  0  0  0  0  0  0  0  0  0
  1 36  1  1  0  0  0
  2 36  1  6  0  0  0
  2  3  1  0  0  0  0
  3 37  1  6  0  0  0
  3  4  1  0  0  0  0
  4 38  1  1  0  0  0
  5 37  1  6  0  0  0
  5  6  1  0  0  0  0
  6  7  1  0  0  0  0
  6 39  1  1  0  0  0
  7 42  1  1  0  0  0
  8  9  1  6  0  0  0
  8  7  1  0  0  0  0
 10 42  1  1  0  0  0
 10 11  1  0  0  0  0
 11 31  1  1  0  0  0
 11 13  1  0  0  0  0
 12 30  1  1  0  0  0
 12  1  1  0  0  0  0
 14 13  1  0  0  0  0
 15 16  1  1  0  0  0
 15 14  1  0  0  0  0
 17 19  1  1  0  0  0
 17 28  1  0  0  0  0
 18 34  1  0  0  0  0
 19 32  1  0  0  0  0
 20 18  1  1  0  0  0
 20 17  1  0  0  0  0
 20 43  1  0  0  0  0
 21 12  1  0  0  0  0
 22 21  1  0  0  0  0
 22 23  1  0  0  0  0
 23 24  1  6  0  0  0
 23 46  1  0  0  0  0
 24 33  1  0  0  0  0
 25 34  1  1  0  0  0
 25  4  1  0  0  0  0
 26 25  1  0  0  0  0
 27 35  1  6  0  0  0
 27 26  1  0  0  0  0
 27  2  1  0  0  0  0
 29 16  1  0  0  0  0
 40  8  1  0  0  0  0
 40  5  1  0  0  0  0
 41  9  1  0  0  0  0
 44 18  2  0  0  0  0
 45 15  1  0  0  0  0
 45 10  1  0  0  0  0
 46  1  1  0  0  0  0
M  END
>  <CHROM.1>
-70.12939191,172.49791261,178.97506293,169.57895730,77.08381741,63.01786246
-175.39776854,-175.87200061,-175.29749791,-72.87246415,175.49635946,-164.86060296
84.32311176,12.89031648,-14.53472375,7.15440970,2.49195039,-0.17933693,2.19597950

>  <Name>
lig.pdb

>  <RI>
0

>  <Rbt.Current_Directory>
/home/afrankz/demos/rdock_decoys_rna/rnas/3wru

>  <Rbt.Executable>
rbdock ($Id: //depot/dev/client3/rdock/2013.1/src/exe/rbdock.cxx#4 $)

>  <Rbt.Library>
libRbt.so (2013.1, Build901 2013/11/27)

>  <Rbt.Parameter_File>
/export/apps/rDock/src/rDock_2013.1_src/data/scripts/dock_solv.prm

>  <Rbt.Receptor>
prm/pocket_docking_4.prm

>  <SCORE>
-2.57867

>  <SCORE.INTER>
1.3631

>  <SCORE.INTER.CONST>
1

>  <SCORE.INTER.POLAR>
0

>  <SCORE.INTER.ROT>
13

>  <SCORE.INTER.SOLV>
20.9891

>  <SCORE.INTER.VDW>
-18.3543

>  <SCORE.INTER.norm>
0.0296326

>  <SCORE.INTRA>
-3.96121

>  <SCORE.INTRA.DIHEDRAL>
-14.2926

>  <SCORE.INTRA.DIHEDRAL.0>
19.7146

>  <SCORE.INTRA.POLAR>
0

>  <SCORE.INTRA.POLAR.0>
0

>  <SCORE.INTRA.REPUL>
0

>  <SCORE.INTRA.REPUL.0>
0

>  <SCORE.INTRA.SOLV>
1.57742

>  <SCORE.INTRA.SOLV.lig_0>
-116.697

>  <SCORE.INTRA.VDW>
2.39637

>  <SCORE.INTRA.VDW.0>
-7.06424

>  <SCORE.INTRA.norm>
-0.0861133

>  <SCORE.RESTR>
0.0194448

>  <SCORE.RESTR.CAVITY>
0.0194448

>  <SCORE.RESTR.norm>
0.000422713

>  <SCORE.SYSTEM>
0

>  <SCORE.SYSTEM.CONST>
0

>  <SCORE.SYSTEM.DIHEDRAL>
0

>  <SCORE.SYSTEM.SOLV>
0

>  <SCORE.SYSTEM.norm>
0

>  <SCORE.heavy>
46

>  <SCORE.norm>
-0.0560581

>  <RMSD>
8.270

$$$$
lig.pdb
 OpenBabel03061811583D
libRbt.so/2013.1/901 2013/11/27
 46 49  0  0  0  0  0  0  0  0999 V2000
   13.7275  -17.5043    5.7425 C   0  0  1  0  0  0  0  0  0  0  0  0
   14.9066  -15.6610    4.4698 C   0  0  1  0  0  0  0  0  0  0  0  0
   16.0809  -15.3663    5.4516 C   0  0  1  0  0  0  0  0  0  0  0  0
   17.3366  -14.8053    4.6080 C   0  0  2  0  0  0  0  0  0  0  0  0
   14.9584  -13.2146    6.1921 C   0  0  2  0  0  0  0  0  0  0  0  0
   14.8480  -12.3035    7.4476 C   0  0  1  0  0  0  0  0  0  0  0  0
   14.7276  -10.9790    6.7334 C   0  0  1  0  0  0  0  0  0  0  0  0
   15.8358  -11.0190    5.6336 C   0  0  1  0  0  0  0  0  0  0  0  0
   17.2938  -10.6527    6.0829 C   0  0  0  0  0  0  0  0  0  0  0  0
   12.9182   -9.6026    5.7767 C   0  0  1  0  0  0  0  0  0  0  0  0
   11.4573   -9.5121    5.4505 C   0  0  1  0  0  0  0  0  0  0  0  0
   12.3555  -17.7476    6.4147 C   0  0  1  0  0  0  0  0  0  0  0  0
   11.1332   -8.0369    5.0224 C   0  0  0  0  0  0  0  0  0  0  0  0
   11.8518   -7.5743    3.8699 C   0  0  0  0  0  0  0  0  0  0  0  0
   13.2692   -7.6137    4.1604 C   0  0  2  0  0  0  0  0  0  0  0  0
   14.1159   -7.1225    2.9207 C   0  0  0  0  0  0  0  0  0  0  0  0
   20.3643  -12.5854    1.4270 C   0  0  2  0  0  0  0  0  0  0  0  0
   18.8034  -14.2400    2.0425 C   0  0  0  0  0  0  0  0  0  0  0  0
   21.5105  -12.3700    2.1685 C   0  0  0  0  0  0  0  0  0  0  0  0
   20.1827  -13.9215    1.2813 C   0  0  1  0  0  0  0  0  0  0  0  0
   12.1673  -16.8065    7.6901 C   0  0  0  0  0  0  0  0  0  0  0  0
   13.3652  -17.1044    8.7141 C   0  0  0  0  0  0  0  0  0  0  0  0
   14.7427  -16.8031    7.9606 C   0  0  1  0  0  0  0  0  0  0  0  0
   15.9565  -17.0715    8.8584 C   0  0  0  0  0  0  0  0  0  0  0  0
   17.8002  -15.9435    3.5980 C   0  0  1  0  0  0  0  0  0  0  0  0
   16.5531  -16.1884    2.5927 C   0  0  0  0  0  0  0  0  0  0  0  0
   15.3037  -16.7102    3.4019 C   0  0  2  0  0  0  0  0  0  0  0  0
   20.4663  -11.8858    0.1661 F   0  0  0  0  0  0  0  0  0  0  0  0
   15.3913   -7.9787    2.6747 N   0  0  0  0  0  0  0  0  0  0  0  0
   11.2791  -17.5266    5.3793 N   0  0  0  0  0  0  0  0  0  0  0  0
   11.0616  -10.3065    4.3707 N   0  0  0  0  0  0  0  0  0  0  0  0
   21.8291  -12.6821    3.5111 N   0  0  0  0  0  0  0  0  0  0  0  0
   17.1548  -17.0406    8.1141 N   0  0  0  0  0  0  0  0  0  0  0  0
   18.9575  -15.4746    2.8148 N   0  0  0  0  0  0  0  0  0  0  0  0
   14.1524  -16.9264    2.4979 N   0  0  0  0  0  0  0  0  0  0  0  0
   13.7932  -16.1962    5.1735 O   0  0  0  0  0  0  0  0  0  0  0  0
   15.5794  -14.3453    6.4309 O   0  0  0  0  0  0  0  0  0  0  0  0
   18.3586  -14.5536    5.4959 O   0  0  0  0  0  0  0  0  0  0  0  0
   13.7060  -12.6747    8.1586 O   0  0  0  0  0  0  0  0  0  0  0  0
   15.5759  -12.3545    5.1703 O   0  0  0  0  0  0  0  0  0  0  0  0
   17.7073  -11.6406    7.0479 O   0  0  0  0  0  0  0  0  0  0  0  0
   13.3426  -10.8672    6.1224 O   0  0  0  0  0  0  0  0  0  0  0  0
   20.0814  -14.3307   -0.1002 O   0  0  0  0  0  0  0  0  0  0  0  0
   17.7851  -13.5313    1.9850 O   0  0  0  0  0  0  0  0  0  0  0  0
   13.6831   -9.0079    4.5688 O   0  0  0  0  0  0  0  0  0  0  0  0
   14.8532  -17.6766    6.7217 O   0  0  0  0  0  0  0  0  0  0  0  0
  1 36  1  1  0  0  0
  2 36  1  1  0  0  0
  2  3  1  0  0  0  0
  3 37  1  1  0  0  0
  3  4  1  0  0  0  0
  4 38  1  1  0  0  0
  5 37  1  1  0  0  0
  5  6  1  0  0  0  0
  6  7  1  0  0  0  0
  6 39  1  6  0  0  0
  7 42  1  6  0  0  0
  8  9  1  1  0  0  0
  8  7  1  0  0  0  0
 10 42  1  6  0  0  0
 10 11  1  0  0  0  0
 11 31  1  6  0  0  0
 11 13  1  0  0  0  0
 12 30  1  6  0  0  0
 12  1  1  0  0  0  0
 14 13  1  0  0  0  0
 15 16  1  6  0  0  0
 15 14  1  0  0  0  0
 17 19  1  1  0  0  0
 17 28  1  0  0  0  0
 18 34  1  0  0  0  0
 19 32  1  0  0  0  0
 20 18  1  1  0  0  0
 20 17  1  0  0  0  0
 20 43  1  0  0  0  0
 21 12  1  0  0  0  0
 22 21  1  0  0  0  0
 22 23  1  0  0  0  0
 23 24  1  1  0  0  0
 23 46  1  0  0  0  0
 24 33  1  0  0  0  0
 25 34  1  6  0  0  0
 25  4  1  0  0  0  0
 26 25  1  0  0  0  0
 27 35  1  6  0  0  0
 27 26  1  0  0  0  0
 27  2  1  0  0  0  0
 29 16  1  0  0  0  0
 40  8  1  0  0  0  0
 40  5  1  0  0  0  0
 41  9  1  0  0  0  0
 44 18  2  0  0  0  0
 45 15  1  0  0  0  0
 45 10  1  0  0  0  0
 46  1  1  0  0  0  0
M  END
>  <CHROM.1>
-179.22146357,-71.30062941,-49.18189984,-168.72280702,161.67193281,63.11848645
-167.88510075,-138.72277223,-65.14524209,-137.69622289,116.29092843,169.16945920
-56.73550628,15.65814094,-13.35947523,4.80508033,0.61326186,-0.55939835,2.83875692

>  <Name>
lig.pdb

>  <RI>
0

>  <Rbt.Current_Directory>
/home/afrankz/demos/rdock_decoys_rna/rnas/3wru

>  <Rbt.Executable>
rbdock ($Id: //depot/dev/client3/rdock/2013.1/src/exe/rbdock.cxx#4 $)

>  <Rbt.Library>
libRbt.so (2013.1, Build901 2013/11/27)

>  <Rbt.Parameter_File>
/export/apps/rDock/src/rDock_2013.1_src/data/scripts/dock_solv.prm

>  <Rbt.Receptor>
prm/pocket_docking_7.prm

>  <SCORE>
-0.956418

>  <SCORE.INTER>
-0.715615

>  <SCORE.INTER.CONST>
1

>  <SCORE.INTER.POLAR>
0

>  <SCORE.INTER.ROT>
13

>  <SCORE.INTER.SOLV>
21.3581

>  <SCORE.INTER.VDW>
-19.8631

>  <SCORE.INTER.norm>
-0.0155568

>  <SCORE.INTRA>
-0.24098

>  <SCORE.INTRA.DIHEDRAL>
-4.18061

>  <SCORE.INTRA.DIHEDRAL.0>
19.7146

>  <SCORE.INTRA.POLAR>
0

>  <SCORE.INTRA.POLAR.0>
0

>  <SCORE.INTRA.REPUL>
0.0712099

>  <SCORE.INTRA.REPUL.0>
0

>  <SCORE.INTRA.SOLV>
2.01008

>  <SCORE.INTRA.SOLV.lig_0>
-116.697

>  <SCORE.INTRA.VDW>
0.488238

>  <SCORE.INTRA.VDW.0>
-7.06424

>  <SCORE.INTRA.norm>
-0.0052387

>  <SCORE.RESTR>
0.000176844

>  <SCORE.RESTR.CAVITY>
0.000176844

>  <SCORE.RESTR.norm>
3.84443e-06

>  <SCORE.SYSTEM>
0

>  <SCORE.SYSTEM.CONST>
0

>  <SCORE.SYSTEM.DIHEDRAL>
0

>  <SCORE.SYSTEM.SOLV>
0

>  <SCORE.SYSTEM.norm>
0

>  <SCORE.heavy>
46

>  <SCORE.norm>
-0.0207917

>  <RMSD>
8.274

$$$$
lig.pdb
 OpenBabel03061811583D
libRbt.so/2013.1/901 2013/11/27
 46 49  0  0  0  0  0  0  0  0999 V2000
   10.6234  -14.2646    8.0410 C   0  0  1  0  0  0  0  0  0  0  0  0
   12.8969  -13.2266    7.6392 C   0  0  1  0  0  0  0  0  0  0  0  0
   13.4611  -11.7853    7.4547 C   0  0  1  0  0  0  0  0  0  0  0  0
   15.0023  -11.8851    6.9880 C   0  0  2  0  0  0  0  0  0  0  0  0
   12.7165   -9.9077    5.9190 C   0  0  2  0  0  0  0  0  0  0  0  0
   13.2606   -9.8826    4.4623 C   0  0  1  0  0  0  0  0  0  0  0  0
   12.6559   -8.5664    4.0371 C   0  0  1  0  0  0  0  0  0  0  0  0
   11.1790   -8.6269    4.5414 C   0  0  1  0  0  0  0  0  0  0  0  0
   10.1530   -9.3983    3.6391 C   0  0  0  0  0  0  0  0  0  0  0  0
   12.9267   -6.1598    4.5043 C   0  0  1  0  0  0  0  0  0  0  0  0
   12.9993   -5.6772    3.0863 C   0  0  1  0  0  0  0  0  0  0  0  0
   10.1494  -14.5232    6.5913 C   0  0  1  0  0  0  0  0  0  0  0  0
   12.4590   -4.2043    3.0332 C   0  0  0  0  0  0  0  0  0  0  0  0
   13.1911   -3.2667    3.8355 C   0  0  0  0  0  0  0  0  0  0  0  0
   13.1136   -3.6811    5.2201 C   0  0  2  0  0  0  0  0  0  0  0  0
   13.9118   -2.6887    6.1545 C   0  0  0  0  0  0  0  0  0  0  0  0
   20.1052  -11.9888    8.2317 C   0  0  2  0  0  0  0  0  0  0  0  0
   18.1791  -13.2425    8.7528 C   0  0  0  0  0  0  0  0  0  0  0  0
   21.4759  -11.9823    8.0551 C   0  0  0  0  0  0  0  0  0  0  0  0
   19.6562  -13.2637    8.1197 C   0  0  1  0  0  0  0  0  0  0  0  0
    9.2780  -13.3017    6.0468 C   0  0  0  0  0  0  0  0  0  0  0  0
    8.0262  -13.1017    7.0294 C   0  0  0  0  0  0  0  0  0  0  0  0
    8.5934  -12.8104    8.4955 C   0  0  1  0  0  0  0  0  0  0  0  0
    7.4662  -12.6157    9.5167 C   0  0  0  0  0  0  0  0  0  0  0  0
   15.8233  -12.6010    8.1474 C   0  0  1  0  0  0  0  0  0  0  0  0
   15.2104  -14.0956    8.2760 C   0  0  0  0  0  0  0  0  0  0  0  0
   13.6940  -14.0207    8.7037 C   0  0  2  0  0  0  0  0  0  0  0  0
   19.4919  -11.0860    7.2839 F   0  0  0  0  0  0  0  0  0  0  0  0
   15.3939   -2.5007    5.7207 N   0  0  0  0  0  0  0  0  0  0  0  0
   11.3676  -14.7798    5.7372 N   0  0  0  0  0  0  0  0  0  0  0  0
   14.2961   -5.6149    2.5686 N   0  0  0  0  0  0  0  0  0  0  0  0
   22.5181  -12.5856    8.7974 N   0  0  0  0  0  0  0  0  0  0  0  0
    7.9833  -12.2710   10.7835 N   0  0  0  0  0  0  0  0  0  0  0  0
   17.2433  -12.7005    7.7653 N   0  0  0  0  0  0  0  0  0  0  0  0
   13.1171  -15.3789    8.8128 N   0  0  0  0  0  0  0  0  0  0  0  0
   11.5494  -13.1787    8.0901 O   0  0  0  0  0  0  0  0  0  0  0  0
   12.6145  -11.1205    6.4086 O   0  0  0  0  0  0  0  0  0  0  0  0
   15.4767  -10.6018    6.8327 O   0  0  0  0  0  0  0  0  0  0  0  0
   14.6550   -9.8795    4.5161 O   0  0  0  0  0  0  0  0  0  0  0  0
   11.4617   -9.1419    5.8531 O   0  0  0  0  0  0  0  0  0  0  0  0
   10.5484  -10.7845    3.6270 O   0  0  0  0  0  0  0  0  0  0  0  0
   13.4211   -7.4319    4.6941 O   0  0  0  0  0  0  0  0  0  0  0  0
   19.5923  -13.7222    6.7515 O   0  0  0  0  0  0  0  0  0  0  0  0
   17.8940  -13.6414    9.8939 O   0  0  0  0  0  0  0  0  0  0  0  0
   13.6314   -5.0915    5.3761 O   0  0  0  0  0  0  0  0  0  0  0  0
    9.4645  -13.9701    8.9499 O   0  0  0  0  0  0  0  0  0  0  0  0
  1 36  1  6  0  0  0
  2 36  1  1  0  0  0
  2  3  1  0  0  0  0
  3 37  1  6  0  0  0
  3  4  1  0  0  0  0
  4 38  1  1  0  0  0
  5 37  1  6  0  0  0
  5  6  1  0  0  0  0
  6  7  1  0  0  0  0
  6 39  1  1  0  0  0
  7 42  1  1  0  0  0
  8  9  1  6  0  0  0
  8  7  1  0  0  0  0
 10 42  1  6  0  0  0
 10 11  1  0  0  0  0
 11 31  1  1  0  0  0
 11 13  1  0  0  0  0
 12 30  1  6  0  0  0
 12  1  1  0  0  0  0
 14 13  1  0  0  0  0
 15 16  1  1  0  0  0
 15 14  1  0  0  0  0
 17 19  1  6  0  0  0
 17 28  1  0  0  0  0
 18 34  1  0  0  0  0
 19 32  1  0  0  0  0
 20 18  1  6  0  0  0
 20 17  1  0  0  0  0
 20 43  1  0  0  0  0
 21 12  1  0  0  0  0
 22 21  1  0  0  0  0
 22 23  1  0  0  0  0
 23 24  1  1  0  0  0
 23 46  1  0  0  0  0
 24 33  1  0  0  0  0
 25 34  1  6  0  0  0
 25  4  1  0  0  0  0
 26 25  1  0  0  0  0
 27 35  1  6  0  0  0
 27 26  1  0  0  0  0
 27  2  1  0  0  0  0
 29 16  1  0  0  0  0
 40  8  1  0  0  0  0
 40  5  1  0  0  0  0
 41  9  1  0  0  0  0
 44 18  2  0  0  0  0
 45 15  1  0  0  0  0
 45 10  1  0  0  0  0
 46  1  1  0  0  0  0
M  END
>  <CHROM.1>
-73.27059267,163.17465306,-179.57691907,107.64186707,-174.55105099,65.01907275
-66.21007424,-54.93210978,-62.58183191,79.56150388,163.85816944,-176.03080902
175.49064485,13.72931032,-10.56828672,6.58346077,1.20156911,0.08393694,2.71845821

>  <Name>
lig.pdb

>  <RI>
0

>  <Rbt.Current_Directory>
/home/afrankz/demos/rdock_decoys_rna/rnas/3wru

>  <Rbt.Executable>
rbdock ($Id: //depot/dev/client3/rdock/2013.1/src/exe/rbdock.cxx#4 $)

>  <Rbt.Library>
libRbt.so (2013.1, Build901 2013/11/27)

>  <Rbt.Parameter_File>
/export/apps/rDock/src/rDock_2013.1_src/data/scripts/dock_solv.prm

>  <Rbt.Receptor>
prm/pocket_docking_7.prm

>  <SCORE>
-7.36851

>  <SCORE.INTER>
-6.49457

>  <SCORE.INTER.CONST>
1

>  <SCORE.INTER.POLAR>
0

>  <SCORE.INTER.ROT>
13

>  <SCORE.INTER.SOLV>
15.8

>  <SCORE.INTER.VDW>
-21.863

>  <SCORE.INTER.norm>
-0.141186

>  <SCORE.INTRA>
-0.873947

>  <SCORE.INTRA.DIHEDRAL>
-8.27723

>  <SCORE.INTRA.DIHEDRAL.0>
19.7146

>  <SCORE.INTRA.POLAR>
0

>  <SCORE.INTRA.POLAR.0>
0

>  <SCORE.INTRA.REPUL>
0.00644758

>  <SCORE.INTRA.REPUL.0>
0

>  <SCORE.INTRA.SOLV>
2.48812

>  <SCORE.INTRA.SOLV.lig_0>
-116.697

>  <SCORE.INTRA.VDW>
1.98837

>  <SCORE.INTRA.VDW.0>
-7.06424

>  <SCORE.INTRA.norm>
-0.0189989

>  <SCORE.RESTR>
0

>  <SCORE.RESTR.CAVITY>
0

>  <SCORE.RESTR.norm>
0

>  <SCORE.SYSTEM>
0

>  <SCORE.SYSTEM.CONST>
0

>  <SCORE.SYSTEM.DIHEDRAL>
0

>  <SCORE.SYSTEM.SOLV>
0

>  <SCORE.SYSTEM.norm>
0

>  <SCORE.heavy>
46

>  <SCORE.norm>
-0.160185

>  <RMSD>
8.279

$$$$
lig.pdb
 OpenBabel03061811583D
libRbt.so/2013.1/901 2013/11/27
 46 49  0  0  0  0  0  0  0  0999 V2000
    9.3282  -12.7473   12.4316 C   0  0  1  0  0  0  0  0  0  0  0  0
   10.4413  -13.1482   10.1937 C   0  0  1  0  0  0  0  0  0  0  0  0
    9.7166  -14.3493    9.5142 C   0  0  1  0  0  0  0  0  0  0  0  0
    9.7753  -14.1551    7.9137 C   0  0  2  0  0  0  0  0  0  0  0  0
   10.1108  -16.8448    9.7487 C   0  0  2  0  0  0  0  0  0  0  0  0
   11.1798  -17.8464   10.2709 C   0  0  1  0  0  0  0  0  0  0  0  0
   10.2669  -19.0279   10.4932 C   0  0  1  0  0  0  0  0  0  0  0  0
    9.0227  -18.4353   11.2281 C   0  0  1  0  0  0  0  0  0  0  0  0
    9.1468  -18.2300   12.7787 C   0  0  0  0  0  0  0  0  0  0  0  0
    9.3679  -20.8993    9.1614 C   0  0  1  0  0  0  0  0  0  0  0  0
    8.9006  -21.3856    7.8221 C   0  0  1  0  0  0  0  0  0  0  0  0
    9.5278  -13.1627   13.9084 C   0  0  1  0  0  0  0  0  0  0  0  0
    8.2865  -22.8194    7.9995 C   0  0  0  0  0  0  0  0  0  0  0  0
    7.1617  -22.8854    8.8877 C   0  0  0  0  0  0  0  0  0  0  0  0
    7.5842  -22.4558   10.2038 C   0  0  2  0  0  0  0  0  0  0  0  0
    6.3818  -22.4983   11.2272 C   0  0  0  0  0  0  0  0  0  0  0  0
   10.3775  -11.1130    3.6391 C   0  0  2  0  0  0  0  0  0  0  0  0
   10.3019  -12.6652    5.4105 C   0  0  0  0  0  0  0  0  0  0  0  0
   10.2424  -10.8246    2.2942 C   0  0  0  0  0  0  0  0  0  0  0  0
   10.0795  -12.4211    3.8376 C   0  0  1  0  0  0  0  0  0  0  0  0
    9.3607  -14.7400   14.0876 C   0  0  0  0  0  0  0  0  0  0  0  0
    7.8987  -15.1510   13.5718 C   0  0  0  0  0  0  0  0  0  0  0  0
    7.7791  -14.7188   12.0373 C   0  0  1  0  0  0  0  0  0  0  0  0
    6.4035  -15.0605   11.4523 C   0  0  0  0  0  0  0  0  0  0  0  0
    8.9873  -12.8219    7.5494 C   0  0  1  0  0  0  0  0  0  0  0  0
    9.7973  -11.6119    8.2604 C   0  0  0  0  0  0  0  0  0  0  0  0
    9.7775  -11.7978    9.8266 C   0  0  2  0  0  0  0  0  0  0  0  0
    9.5450  -10.2180    4.4108 F   0  0  0  0  0  0  0  0  0  0  0  0
    5.9377  -23.9451   11.5877 N   0  0  0  0  0  0  0  0  0  0  0  0
   10.8872  -12.6793   14.3530 N   0  0  0  0  0  0  0  0  0  0  0  0
    7.8819  -20.6138    7.2564 N   0  0  0  0  0  0  0  0  0  0  0  0
   10.4107   -9.6185    1.5742 N   0  0  0  0  0  0  0  0  0  0  0  0
    6.2949  -14.6157   10.1176 N   0  0  0  0  0  0  0  0  0  0  0  0
    9.0058  -12.6141    6.0904 N   0  0  0  0  0  0  0  0  0  0  0  0
   10.5247  -10.7060   10.4891 N   0  0  0  0  0  0  0  0  0  0  0  0
   10.3749  -13.2641   11.6092 O   0  0  0  0  0  0  0  0  0  0  0  0
   10.4438  -15.5907    9.9420 O   0  0  0  0  0  0  0  0  0  0  0  0
    9.1295  -15.2263    7.3379 O   0  0  0  0  0  0  0  0  0  0  0  0
   12.1278  -18.0385    9.2650 O   0  0  0  0  0  0  0  0  0  0  0  0
    8.8606  -17.2765   10.3936 O   0  0  0  0  0  0  0  0  0  0  0  0
    9.3206  -19.5321   13.3723 O   0  0  0  0  0  0  0  0  0  0  0  0
    9.8868  -19.6228    9.1493 O   0  0  0  0  0  0  0  0  0  0  0  0
    8.7190  -12.7510    3.4820 O   0  0  0  0  0  0  0  0  0  0  0  0
   11.4035  -12.8775    5.9434 O   0  0  0  0  0  0  0  0  0  0  0  0
    8.1782  -21.0685   10.1379 O   0  0  0  0  0  0  0  0  0  0  0  0
    8.0037  -13.2214   11.9055 O   0  0  0  0  0  0  0  0  0  0  0  0
  1 36  1  6  0  0  0
  2 36  1  1  0  0  0
  2  3  1  0  0  0  0
  3 37  1  6  0  0  0
  3  4  1  0  0  0  0
  4 38  1  6  0  0  0
  5 37  1  1  0  0  0
  5  6  1  0  0  0  0
  6  7  1  0  0  0  0
  6 39  1  6  0  0  0
  7 42  1  6  0  0  0
  8  9  1  1  0  0  0
  8  7  1  0  0  0  0
 10 42  1  6  0  0  0
 10 11  1  0  0  0  0
 11 31  1  1  0  0  0
 11 13  1  0  0  0  0
 12 30  1  6  0  0  0
 12  1  1  0  0  0  0
 14 13  1  0  0  0  0
 15 16  1  1  0  0  0
 15 14  1  0  0  0  0
 17 19  1  6  0  0  0
 17 28  1  0  0  0  0
 18 34  1  0  0  0  0
 19 32  1  0  0  0  0
 20 18  1  1  0  0  0
 20 17  1  0  0  0  0
 20 43  1  0  0  0  0
 21 12  1  0  0  0  0
 22 21  1  0  0  0  0
 22 23  1  0  0  0  0
 23 24  1  1  0  0  0
 23 46  1  0  0  0  0
 24 33  1  0  0  0  0
 25 34  1  6  0  0  0
 25  4  1  0  0  0  0
 26 25  1  0  0  0  0
 27 35  1  1  0  0  0
 27 26  1  0  0  0  0
 27  2  1  0  0  0  0
 29 16  1  0  0  0  0
 40  8  1  0  0  0  0
 40  5  1  0  0  0  0
 41  9  1  0  0  0  0
 44 18  2  0  0  0  0
 45 15  1  0  0  0  0
 45 10  1  0  0  0  0
 46  1  1  0  0  0  0
M  END
>  <CHROM.1>
175.25588266,-89.03704584,171.46434591,176.35664567,162.91910380,-63.52183274
174.89694545,70.29012785,178.77883498,99.08246407,178.54821520,177.23913902
-51.43922086,9.22642457,-15.79409101,9.19492730,-0.25987813,1.40137494,1.34034453

>  <Name>
lig.pdb

>  <RI>
0

>  <Rbt.Current_Directory>
/home/afrankz/demos/rdock_decoys_rna/rnas/3wru

>  <Rbt.Executable>
rbdock ($Id: //depot/dev/client3/rdock/2013.1/src/exe/rbdock.cxx#4 $)

>  <Rbt.Library>
libRbt.so (2013.1, Build901 2013/11/27)

>  <Rbt.Parameter_File>
/export/apps/rDock/src/rDock_2013.1_src/data/scripts/dock_solv.prm

>  <Rbt.Receptor>
prm/pocket_docking_6.prm

>  <SCORE>
0.971311

>  <SCORE.INTER>
5.63802

>  <SCORE.INTER.CONST>
1

>  <SCORE.INTER.POLAR>
0

>  <SCORE.INTER.ROT>
13

>  <SCORE.INTER.SOLV>
22.3287

>  <SCORE.INTER.VDW>
-15.9509

>  <SCORE.INTER.norm>
0.122566

>  <SCORE.INTRA>
-4.66671

>  <SCORE.INTRA.DIHEDRAL>
-11.5745

>  <SCORE.INTRA.DIHEDRAL.0>
19.7146

>  <SCORE.INTRA.POLAR>
0

>  <SCORE.INTRA.POLAR.0>
0

>  <SCORE.INTRA.REPUL>
0

>  <SCORE.INTRA.REPUL.0>
0

>  <SCORE.INTRA.SOLV>
0.441396

>  <SCORE.INTRA.SOLV.lig_0>
-116.697

>  <SCORE.INTRA.VDW>
0.89985

>  <SCORE.INTRA.VDW.0>
-7.06424

>  <SCORE.INTRA.norm>
-0.10145

>  <SCORE.RESTR>
0

>  <SCORE.RESTR.CAVITY>
0

>  <SCORE.RESTR.norm>
0

>  <SCORE.SYSTEM>
0

>  <SCORE.SYSTEM.CONST>
0

>  <SCORE.SYSTEM.DIHEDRAL>
0

>  <SCORE.SYSTEM.SOLV>
0

>  <SCORE.SYSTEM.norm>
0

>  <SCORE.heavy>
46

>  <SCORE.norm>
0.0211155

>  <RMSD>
8.280

$$$$
lig.pdb
 OpenBabel03061811583D
libRbt.so/2013.1/901 2013/11/27
 46 49  0  0  0  0  0  0  0  0999 V2000
   10.5407   -7.9164    0.9793 C   0  0  1  0  0  0  0  0  0  0  0  0
   11.3983   -6.2082    2.6390 C   0  0  1  0  0  0  0  0  0  0  0  0
   12.7887   -6.5528    3.2537 C   0  0  1  0  0  0  0  0  0  0  0  0
   12.8916   -5.8824    4.7175 C   0  0  2  0  0  0  0  0  0  0  0  0
   12.2771   -8.8608    4.1755 C   0  0  2  0  0  0  0  0  0  0  0  0
   10.7736   -8.5262    4.3904 C   0  0  1  0  0  0  0  0  0  0  0  0
   10.3129   -9.9008    4.8115 C   0  0  1  0  0  0  0  0  0  0  0  0
   10.9736  -10.8731    3.7833 C   0  0  1  0  0  0  0  0  0  0  0  0
   10.2480  -11.0446    2.4027 C   0  0  0  0  0  0  0  0  0  0  0  0
    9.9596  -10.9198    7.0297 C   0  0  1  0  0  0  0  0  0  0  0  0
   10.6405  -11.5439    8.2111 C   0  0  1  0  0  0  0  0  0  0  0  0
   10.6209   -8.1895   -0.5413 C   0  0  1  0  0  0  0  0  0  0  0  0
    9.5865  -12.4010    8.9979 C   0  0  0  0  0  0  0  0  0  0  0  0
    8.9939  -13.4665    8.2416 C   0  0  0  0  0  0  0  0  0  0  0  0
    8.2951  -12.8983    7.1085 C   0  0  2  0  0  0  0  0  0  0  0  0
    7.6271  -14.0280    6.2296 C   0  0  0  0  0  0  0  0  0  0  0  0
   14.0041   -1.3114    7.5330 C   0  0  2  0  0  0  0  0  0  0  0  0
   14.2395   -3.3469    6.3693 C   0  0  0  0  0  0  0  0  0  0  0  0
   13.5791   -0.6551    8.6726 C   0  0  0  0  0  0  0  0  0  0  0  0
   14.1085   -2.6360    7.8048 C   0  0  1  0  0  0  0  0  0  0  0  0
    9.8785   -7.0443   -1.3691 C   0  0  0  0  0  0  0  0  0  0  0  0
    8.3522   -6.9818   -0.8803 C   0  0  0  0  0  0  0  0  0  0  0  0
    8.3503   -6.6678    0.6873 C   0  0  1  0  0  0  0  0  0  0  0  0
    6.9277   -6.5996    1.2554 C   0  0  0  0  0  0  0  0  0  0  0  0
   12.7963   -4.3038    4.5447 C   0  0  1  0  0  0  0  0  0  0  0  0
   11.3278   -4.0065    3.9274 C   0  0  0  0  0  0  0  0  0  0  0  0
   11.1949   -4.6785    2.5066 C   0  0  2  0  0  0  0  0  0  0  0  0
   15.2438   -0.7271    7.0732 F   0  0  0  0  0  0  0  0  0  0  0  0
    6.1294  -14.2661    6.5768 N   0  0  0  0  0  0  0  0  0  0  0  0
   12.0770   -8.3141   -0.9203 N   0  0  0  0  0  0  0  0  0  0  0  0
   11.6658  -12.4330    7.8770 N   0  0  0  0  0  0  0  0  0  0  0  0
   14.2948   -0.1494    9.7832 N   0  0  0  0  0  0  0  0  0  0  0  0
    6.1882   -5.5622    0.6486 N   0  0  0  0  0  0  0  0  0  0  0  0
   12.8998   -3.6504    5.8619 N   0  0  0  0  0  0  0  0  0  0  0  0
    9.8534   -4.4259    1.9356 N   0  0  0  0  0  0  0  0  0  0  0  0
   11.2861   -6.7498    1.3292 O   0  0  0  0  0  0  0  0  0  0  0  0
   12.8681   -8.0497    3.3305 O   0  0  0  0  0  0  0  0  0  0  0  0
   14.1262   -6.2002    5.2378 O   0  0  0  0  0  0  0  0  0  0  0  0
   10.6792   -7.5603    5.3931 O   0  0  0  0  0  0  0  0  0  0  0  0
   12.2843  -10.2837    3.8007 O   0  0  0  0  0  0  0  0  0  0  0  0
   10.8101  -12.2078    1.7631 O   0  0  0  0  0  0  0  0  0  0  0  0
   10.7944  -10.1758    6.2245 O   0  0  0  0  0  0  0  0  0  0  0  0
   15.2610   -2.9578    8.6137 O   0  0  0  0  0  0  0  0  0  0  0  0
   15.3143   -3.5789    5.7916 O   0  0  0  0  0  0  0  0  0  0  0  0
    9.2381  -12.0631    6.2748 O   0  0  0  0  0  0  0  0  0  0  0  0
    9.1176   -7.7496    1.4297 O   0  0  0  0  0  0  0  0  0  0  0  0
  1 36  1  6  0  0  0
  2 36  1  6  0  0  0
  2  3  1  0  0  0  0
  3 37  1  1  0  0  0
  3  4  1  0  0  0  0
  4 38  1  6  0  0  0
  5 37  1  6  0  0  0
  5  6  1  0  0  0  0
  6  7  1  0  0  0  0
  6 39  1  1  0  0  0
  7 42  1  1  0  0  0
  8  9  1  6  0  0  0
  8  7  1  0  0  0  0
 10 42  1  6  0  0  0
 10 11  1  0  0  0  0
 11 31  1  6  0  0  0
 11 13  1  0  0  0  0
 12 30  1  6  0  0  0
 12  1  1  0  0  0  0
 14 13  1  0  0  0  0
 15 16  1  6  0  0  0
 15 14  1  0  0  0  0
 17 19  1  1  0  0  0
 17 28  1  0  0  0  0
 18 34  1  0  0  0  0
 19 32  1  0  0  0  0
 20 18  1  6  0  0  0
 20 17  1  0  0  0  0
 20 43  1  0  0  0  0
 21 12  1  0  0  0  0
 22 21  1  0  0  0  0
 22 23  1  0  0  0  0
 23 24  1  1  0  0  0
 23 46  1  0  0  0  0
 24 33  1  0  0  0  0
 25 34  1  1  0  0  0
 25  4  1  0  0  0  0
 26 25  1  0  0  0  0
 27 35  1  1  0  0  0
 27 26  1  0  0  0  0
 27  2  1  0  0  0  0
 29 16  1  0  0  0  0
 40  8  1  0  0  0  0
 40  5  1  0  0  0  0
 41  9  1  0  0  0  0
 44 18  2  0  0  0  0
 45 15  1  0  0  0  0
 45 10  1  0  0  0  0
 46  1  1  0  0  0  0
M  END
>  <CHROM.1>
178.76368717,103.58885266,-75.16209684,45.44375170,145.09949673,-165.56978164
160.60357280,95.96130144,85.12578118,-88.61059955,166.23894061,-61.67745207
86.93576689,11.19396697,-7.46643530,4.48520453,2.74784322,1.05442055,2.22825903

>  <Name>
lig.pdb

>  <RI>
0

>  <Rbt.Current_Directory>
/home/afrankz/demos/rdock_decoys_rna/rnas/3wru

>  <Rbt.Executable>
rbdock ($Id: //depot/dev/client3/rdock/2013.1/src/exe/rbdock.cxx#4 $)

>  <Rbt.Library>
libRbt.so (2013.1, Build901 2013/11/27)

>  <Rbt.Parameter_File>
/export/apps/rDock/src/rDock_2013.1_src/data/scripts/dock_solv.prm

>  <Rbt.Receptor>
prm/blind_docking_20.prm

>  <SCORE>
5.09814

>  <SCORE.INTER>
-0.627801

>  <SCORE.INTER.CONST>
1

>  <SCORE.INTER.POLAR>
0

>  <SCORE.INTER.ROT>
13

>  <SCORE.INTER.SOLV>
41.6116

>  <SCORE.INTER.VDW>
-26.5557

>  <SCORE.INTER.norm>
-0.0136478

>  <SCORE.INTRA>
2.23416

>  <SCORE.INTRA.DIHEDRAL>
3.41907

>  <SCORE.INTRA.DIHEDRAL.0>
19.7146

>  <SCORE.INTRA.POLAR>
0

>  <SCORE.INTRA.POLAR.0>
0

>  <SCORE.INTRA.REPUL>
0

>  <SCORE.INTRA.REPUL.0>
0

>  <SCORE.INTRA.SOLV>
1.24059

>  <SCORE.INTRA.SOLV.lig_0>
-116.697

>  <SCORE.INTRA.VDW>
-0.0956645

>  <SCORE.INTRA.VDW.0>
-7.06424

>  <SCORE.INTRA.norm>
0.0485687

>  <SCORE.RESTR>
3.49178

>  <SCORE.RESTR.CAVITY>
3.49178

>  <SCORE.RESTR.norm>
0.0759082

>  <SCORE.SYSTEM>
0

>  <SCORE.SYSTEM.CONST>
0

>  <SCORE.SYSTEM.DIHEDRAL>
0

>  <SCORE.SYSTEM.SOLV>
0

>  <SCORE.SYSTEM.norm>
0

>  <SCORE.heavy>
46

>  <SCORE.norm>
0.110829

>  <RMSD>
8.285

$$$$
lig.pdb
 OpenBabel03061811583D
libRbt.so/2013.1/901 2013/11/27
 46 49  0  0  0  0  0  0  0  0999 V2000
   10.2630   -5.1634    1.0370 C   0  0  1  0  0  0  0  0  0  0  0  0
   10.7648   -5.1870    3.5181 C   0  0  1  0  0  0  0  0  0  0  0  0
   12.0481   -6.0342    3.2630 C   0  0  1  0  0  0  0  0  0  0  0  0
   13.0416   -5.8669    4.5232 C   0  0  2  0  0  0  0  0  0  0  0  0
   11.3599   -8.3516    4.0336 C   0  0  2  0  0  0  0  0  0  0  0  0
   11.0529   -9.7630    3.4571 C   0  0  1  0  0  0  0  0  0  0  0  0
   11.4695  -10.5741    4.6602 C   0  0  1  0  0  0  0  0  0  0  0  0
   12.8367   -9.9598    5.0990 C   0  0  1  0  0  0  0  0  0  0  0  0
   14.1121  -10.4421    4.3229 C   0  0  0  0  0  0  0  0  0  0  0  0
   10.4074  -11.3919    6.7307 C   0  0  1  0  0  0  0  0  0  0  0  0
    9.9872  -12.7502    6.2539 C   0  0  1  0  0  0  0  0  0  0  0  0
    9.0235   -4.9758    0.1305 C   0  0  1  0  0  0  0  0  0  0  0  0
    9.9643  -13.7248    7.4843 C   0  0  0  0  0  0  0  0  0  0  0  0
    9.0601  -13.3478    8.5325 C   0  0  0  0  0  0  0  0  0  0  0  0
    9.4567  -12.0530    9.0437 C   0  0  2  0  0  0  0  0  0  0  0  0
    8.4890  -11.5787   10.1986 C   0  0  0  0  0  0  0  0  0  0  0  0
   15.5225   -2.2886    7.8860 C   0  0  2  0  0  0  0  0  0  0  0  0
   15.3575   -3.0524    5.6628 C   0  0  0  0  0  0  0  0  0  0  0  0
   15.5967   -2.8852    9.1304 C   0  0  0  0  0  0  0  0  0  0  0  0
   16.2424   -3.0260    7.0043 C   0  0  1  0  0  0  0  0  0  0  0  0
    8.1125   -6.2864    0.1269 C   0  0  0  0  0  0  0  0  0  0  0  0
    9.0076   -7.5177   -0.3781 C   0  0  0  0  0  0  0  0  0  0  0  0
   10.2467   -7.6672    0.6210 C   0  0  1  0  0  0  0  0  0  0  0  0
   11.1747   -8.8178    0.2132 C   0  0  0  0  0  0  0  0  0  0  0  0
   13.4618   -4.3356    4.6200 C   0  0  1  0  0  0  0  0  0  0  0  0
   12.0966   -3.5116    4.9081 C   0  0  0  0  0  0  0  0  0  0  0  0
   11.0977   -3.6853    3.6997 C   0  0  2  0  0  0  0  0  0  0  0  0
   15.9725   -0.9181    7.9799 F   0  0  0  0  0  0  0  0  0  0  0  0
    8.7814  -10.1297   10.6836 N   0  0  0  0  0  0  0  0  0  0  0  0
    8.2699   -3.7589    0.6108 N   0  0  0  0  0  0  0  0  0  0  0  0
    8.6957  -12.7957    5.7214 N   0  0  0  0  0  0  0  0  0  0  0  0
   16.6372   -2.9264   10.0880 N   0  0  0  0  0  0  0  0  0  0  0  0
   12.0536   -8.4202   -0.8166 N   0  0  0  0  0  0  0  0  0  0  0  0
   14.3829   -4.1416    5.7542 N   0  0  0  0  0  0  0  0  0  0  0  0
    9.8404   -2.9480    3.9547 N   0  0  0  0  0  0  0  0  0  0  0  0
    9.8809   -5.2777    2.4082 O   0  0  0  0  0  0  0  0  0  0  0  0
   11.6012   -7.4582    3.1037 O   0  0  0  0  0  0  0  0  0  0  0  0
   14.1652   -6.6227    4.2738 O   0  0  0  0  0  0  0  0  0  0  0  0
    9.6896   -9.8304    3.1672 O   0  0  0  0  0  0  0  0  0  0  0  0
   12.4511   -8.5792    4.9941 O   0  0  0  0  0  0  0  0  0  0  0  0
   14.2585  -11.8544    4.5719 O   0  0  0  0  0  0  0  0  0  0  0  0
   10.4201  -10.4269    5.7471 O   0  0  0  0  0  0  0  0  0  0  0  0
   17.5398   -2.4585    6.7197 O   0  0  0  0  0  0  0  0  0  0  0  0
   15.4845   -2.2571    4.7173 O   0  0  0  0  0  0  0  0  0  0  0  0
    9.4917  -11.0358    7.9275 O   0  0  0  0  0  0  0  0  0  0  0  0
   11.0517   -6.3780    0.6388 O   0  0  0  0  0  0  0  0  0  0  0  0
  1 36  1  1  0  0  0
  2 36  1  6  0  0  0
  2  3  1  0  0  0  0
  3 37  1  1  0  0  0
  3  4  1  0  0  0  0
  4 38  1  6  0  0  0
  5 37  1  6  0  0  0
  5  6  1  0  0  0  0
  6  7  1  0  0  0  0
  6 39  1  1  0  0  0
  7 42  1  1  0  0  0
  8  9  1  6  0  0  0
  8  7  1  0  0  0  0
 10 42  1  6  0  0  0
 10 11  1  0  0  0  0
 11 31  1  1  0  0  0
 11 13  1  0  0  0  0
 12 30  1  1  0  0  0
 12  1  1  0  0  0  0
 14 13  1  0  0  0  0
 15 16  1  1  0  0  0
 15 14  1  0  0  0  0
 17 19  1  1  0  0  0
 17 28  1  0  0  0  0
 18 34  1  0  0  0  0
 19 32  1  0  0  0  0
 20 18  1  6  0  0  0
 20 17  1  0  0  0  0
 20 43  1  0  0  0  0
 21 12  1  0  0  0  0
 22 21  1  0  0  0  0
 22 23  1  0  0  0  0
 23 24  1  6  0  0  0
 23 46  1  0  0  0  0
 24 33  1  0  0  0  0
 25 34  1  1  0  0  0
 25  4  1  0  0  0  0
 26 25  1  0  0  0  0
 27 35  1  1  0  0  0
 27 26  1  0  0  0  0
 27  2  1  0  0  0  0
 29 16  1  0  0  0  0
 40  8  1  0  0  0  0
 40  5  1  0  0  0  0
 41  9  1  0  0  0  0
 44 18  2  0  0  0  0
 45 15  1  0  0  0  0
 45 10  1  0  0  0  0
 46  1  1  0  0  0  0
M  END
>  <CHROM.1>
-166.50910694,-45.49241785,-84.05648279,-174.18053599,160.44699486,-63.29904237
-67.93714753,-174.07523582,75.36377595,-85.34418012,139.03951788,81.11098537
151.28421319,11.82446004,-7.20007670,4.75749723,0.59142262,-0.93330598,-0.86991780

>  <Name>
lig.pdb

>  <RI>
0

>  <Rbt.Current_Directory>
/home/afrankz/demos/rdock_decoys_rna/rnas/3wru

>  <Rbt.Executable>
rbdock ($Id: //depot/dev/client3/rdock/2013.1/src/exe/rbdock.cxx#4 $)

>  <Rbt.Library>
libRbt.so (2013.1, Build901 2013/11/27)

>  <Rbt.Parameter_File>
/export/apps/rDock/src/rDock_2013.1_src/data/scripts/dock_solv.prm

>  <Rbt.Receptor>
prm/blind_docking_20.prm

>  <SCORE>
7.01361

>  <SCORE.INTER>
3.7071

>  <SCORE.INTER.CONST>
1

>  <SCORE.INTER.POLAR>
0

>  <SCORE.INTER.ROT>
13

>  <SCORE.INTER.SOLV>
40.7485

>  <SCORE.INTER.VDW>
-23.3781

>  <SCORE.INTER.norm>
0.0805891

>  <SCORE.INTRA>
-1.32454

>  <SCORE.INTRA.DIHEDRAL>
-4.92566

>  <SCORE.INTRA.DIHEDRAL.0>
19.7146

>  <SCORE.INTRA.POLAR>
0

>  <SCORE.INTRA.POLAR.0>
0

>  <SCORE.INTRA.REPUL>
0

>  <SCORE.INTRA.REPUL.0>
0

>  <SCORE.INTRA.SOLV>
0.327214

>  <SCORE.INTRA.SOLV.lig_0>
-116.697

>  <SCORE.INTRA.VDW>
0.974679

>  <SCORE.INTRA.VDW.0>
-7.06424

>  <SCORE.INTRA.norm>
-0.0287944

>  <SCORE.RESTR>
4.63105

>  <SCORE.RESTR.CAVITY>
4.63105

>  <SCORE.RESTR.norm>
0.100675

>  <SCORE.SYSTEM>
0

>  <SCORE.SYSTEM.CONST>
0

>  <SCORE.SYSTEM.DIHEDRAL>
0

>  <SCORE.SYSTEM.SOLV>
0

>  <SCORE.SYSTEM.norm>
0

>  <SCORE.heavy>
46

>  <SCORE.norm>
0.15247

>  <RMSD>
8.298

$$$$
lig.pdb
 OpenBabel03061811583D
libRbt.so/2013.1/901 2013/11/27
 46 49  0  0  0  0  0  0  0  0999 V2000
    9.6971  -14.9036    5.1396 C   0  0  1  0  0  0  0  0  0  0  0  0
    9.9623  -12.3880    5.0432 C   0  0  1  0  0  0  0  0  0  0  0  0
   10.9318  -11.3097    5.6150 C   0  0  1  0  0  0  0  0  0  0  0  0
   10.4106   -9.8503    5.1662 C   0  0  2  0  0  0  0  0  0  0  0  0
   11.3706  -12.4523    7.8375 C   0  0  2  0  0  0  0  0  0  0  0  0
   12.6150  -12.0624    8.6849 C   0  0  1  0  0  0  0  0  0  0  0  0
   12.4535  -13.0917    9.7773 C   0  0  1  0  0  0  0  0  0  0  0  0
   10.9397  -13.0336   10.1568 C   0  0  1  0  0  0  0  0  0  0  0  0
   10.5008  -11.9005   11.1493 C   0  0  0  0  0  0  0  0  0  0  0  0
   12.6714  -15.5294   10.0844 C   0  0  1  0  0  0  0  0  0  0  0  0
   13.3965  -15.3986   11.3905 C   0  0  1  0  0  0  0  0  0  0  0  0
    8.5198  -15.0618    6.1306 C   0  0  1  0  0  0  0  0  0  0  0  0
   13.1632  -16.7090   12.2229 C   0  0  0  0  0  0  0  0  0  0  0  0
   13.6360  -17.9104   11.5969 C   0  0  0  0  0  0  0  0  0  0  0  0
   12.9308  -18.0898   10.3456 C   0  0  2  0  0  0  0  0  0  0  0  0
   13.4169  -19.3964    9.6032 C   0  0  0  0  0  0  0  0  0  0  0  0
    8.3946   -6.8137    0.9861 C   0  0  2  0  0  0  0  0  0  0  0  0
   10.2327   -8.0894    1.7256 C   0  0  0  0  0  0  0  0  0  0  0  0
    7.7376   -5.5985    0.9433 C   0  0  0  0  0  0  0  0  0  0  0  0
    9.6497   -6.6153    1.4601 C   0  0  1  0  0  0  0  0  0  0  0  0
    9.0498  -15.2702    7.6217 C   0  0  0  0  0  0  0  0  0  0  0  0
    9.9912  -16.5685    7.6421 C   0  0  0  0  0  0  0  0  0  0  0  0
   11.1955  -16.3189    6.6207 C   0  0  1  0  0  0  0  0  0  0  0  0
   12.1509  -17.5168    6.5590 C   0  0  0  0  0  0  0  0  0  0  0  0
   10.4581   -9.7766    3.5778 C   0  0  1  0  0  0  0  0  0  0  0  0
    9.4178  -10.8984    3.0439 C   0  0  0  0  0  0  0  0  0  0  0  0
    9.8932  -12.3326    3.4968 C   0  0  2  0  0  0  0  0  0  0  0  0
    8.3727   -7.4209   -0.3255 F   0  0  0  0  0  0  0  0  0  0  0  0
   14.9309  -19.3685    9.2464 N   0  0  0  0  0  0  0  0  0  0  0  0
    7.6334  -13.8460    6.0053 N   0  0  0  0  0  0  0  0  0  0  0  0
   14.7836  -15.2810   11.2659 N   0  0  0  0  0  0  0  0  0  0  0  0
    6.4229   -5.2588    0.5462 N   0  0  0  0  0  0  0  0  0  0  0  0
   13.2154  -17.2712    5.6659 N   0  0  0  0  0  0  0  0  0  0  0  0
   10.0008   -8.4503    3.1259 N   0  0  0  0  0  0  0  0  0  0  0  0
    8.9452  -13.3669    3.0268 N   0  0  0  0  0  0  0  0  0  0  0  0
   10.4127  -13.6925    5.3850 O   0  0  0  0  0  0  0  0  0  0  0  0
   10.9149  -11.4617    7.1081 O   0  0  0  0  0  0  0  0  0  0  0  0
   11.2822   -8.9175    5.6822 O   0  0  0  0  0  0  0  0  0  0  0  0
   13.7535  -12.2392    7.8976 O   0  0  0  0  0  0  0  0  0  0  0  0
   10.4229  -13.0090    8.8158 O   0  0  0  0  0  0  0  0  0  0  0  0
   10.6723  -10.6418   10.4679 O   0  0  0  0  0  0  0  0  0  0  0  0
   12.8383  -14.4566    9.2357 O   0  0  0  0  0  0  0  0  0  0  0  0
   10.5022   -5.9162    0.5269 O   0  0  0  0  0  0  0  0  0  0  0  0
   10.7756   -8.8000    0.8637 O   0  0  0  0  0  0  0  0  0  0  0  0
   13.1112  -16.8776    9.4625 O   0  0  0  0  0  0  0  0  0  0  0  0
   10.6442  -16.0661    5.2271 O   0  0  0  0  0  0  0  0  0  0  0  0
  1 36  1  1  0  0  0
  2 36  1  6  0  0  0
  2  3  1  0  0  0  0
  3 37  1  1  0  0  0
  3  4  1  0  0  0  0
  4 38  1  1  0  0  0
  5 37  1  1  0  0  0
  5  6  1  0  0  0  0
  6  7  1  0  0  0  0
  6 39  1  6  0  0  0
  7 42  1  6  0  0  0
  8  9  1  1  0  0  0
  8  7  1  0  0  0  0
 10 42  1  6  0  0  0
 10 11  1  0  0  0  0
 11 31  1  6  0  0  0
 11 13  1  0  0  0  0
 12 30  1  1  0  0  0
 12  1  1  0  0  0  0
 14 13  1  0  0  0  0
 15 16  1  6  0  0  0
 15 14  1  0  0  0  0
 17 19  1  6  0  0  0
 17 28  1  0  0  0  0
 18 34  1  0  0  0  0
 19 32  1  0  0  0  0
 20 18  1  6  0  0  0
 20 17  1  0  0  0  0
 20 43  1  0  0  0  0
 21 12  1  0  0  0  0
 22 21  1  0  0  0  0
 22 23  1  0  0  0  0
 23 24  1  6  0  0  0
 23 46  1  0  0  0  0
 24 33  1  0  0  0  0
 25 34  1  1  0  0  0
 25  4  1  0  0  0  0
 26 25  1  0  0  0  0
 27 35  1  1  0  0  0
 27 26  1  0  0  0  0
 27  2  1  0  0  0  0
 29 16  1  0  0  0  0
 40  8  1  0  0  0  0
 40  5  1  0  0  0  0
 41  9  1  0  0  0  0
 44 18  2  0  0  0  0
 45 15  1  0  0  0  0
 45 10  1  0  0  0  0
 46  1  1  0  0  0  0
M  END
>  <CHROM.1>
-74.76611483,173.39198328,67.79000970,111.45918557,-176.21728599,67.02049026
-56.40069797,-60.78905675,-179.29052356,-94.20362386,169.99078166,-179.25723702
167.57734252,10.96390446,-12.71730580,6.32672343,0.61009698,1.20431531,-2.95930606

>  <Name>
lig.pdb

>  <RI>
0

>  <Rbt.Current_Directory>
/home/afrankz/demos/rdock_decoys_rna/rnas/3wru

>  <Rbt.Executable>
rbdock ($Id: //depot/dev/client3/rdock/2013.1/src/exe/rbdock.cxx#4 $)

>  <Rbt.Library>
libRbt.so (2013.1, Build901 2013/11/27)

>  <Rbt.Parameter_File>
/export/apps/rDock/src/rDock_2013.1_src/data/scripts/dock_solv.prm

>  <Rbt.Receptor>
prm/pocket_docking_7.prm

>  <SCORE>
-7.01021

>  <SCORE.INTER>
-4.7009

>  <SCORE.INTER.CONST>
1

>  <SCORE.INTER.POLAR>
0

>  <SCORE.INTER.ROT>
13

>  <SCORE.INTER.SOLV>
28.9412

>  <SCORE.INTER.VDW>
-25.0477

>  <SCORE.INTER.norm>
-0.102193

>  <SCORE.INTRA>
-2.30931

>  <SCORE.INTRA.DIHEDRAL>
-8.50932

>  <SCORE.INTRA.DIHEDRAL.0>
19.7146

>  <SCORE.INTRA.POLAR>
0

>  <SCORE.INTRA.POLAR.0>
0

>  <SCORE.INTRA.REPUL>
0

>  <SCORE.INTRA.REPUL.0>
0

>  <SCORE.INTRA.SOLV>
3.5875

>  <SCORE.INTRA.SOLV.lig_0>
-116.697

>  <SCORE.INTRA.VDW>
0.151598

>  <SCORE.INTRA.VDW.0>
-7.06424

>  <SCORE.INTRA.norm>
-0.0502024

>  <SCORE.RESTR>
0

>  <SCORE.RESTR.CAVITY>
0

>  <SCORE.RESTR.norm>
0

>  <SCORE.SYSTEM>
0

>  <SCORE.SYSTEM.CONST>
0

>  <SCORE.SYSTEM.DIHEDRAL>
0

>  <SCORE.SYSTEM.SOLV>
0

>  <SCORE.SYSTEM.norm>
0

>  <SCORE.heavy>
46

>  <SCORE.norm>
-0.152396

>  <RMSD>
8.308

$$$$
lig.pdb
 OpenBabel03061811583D
libRbt.so/2013.1/901 2013/11/27
 46 49  0  0  0  0  0  0  0  0999 V2000
   13.0216  -10.6971    4.6386 C   0  0  1  0  0  0  0  0  0  0  0  0
   12.7548  -12.4371    6.4577 C   0  0  1  0  0  0  0  0  0  0  0  0
   14.1501  -12.7162    7.0940 C   0  0  1  0  0  0  0  0  0  0  0  0
   14.1647  -14.2200    7.6782 C   0  0  2  0  0  0  0  0  0  0  0  0
   16.3866  -13.0175    5.9341 C   0  0  2  0  0  0  0  0  0  0  0  0
   17.1211  -12.6230    4.6212 C   0  0  1  0  0  0  0  0  0  0  0  0
   18.5365  -12.7262    5.1358 C   0  0  1  0  0  0  0  0  0  0  0  0
   18.5120  -11.9937    6.5149 C   0  0  1  0  0  0  0  0  0  0  0  0
   18.6277  -10.4292    6.4885 C   0  0  0  0  0  0  0  0  0  0  0  0
   20.1424  -14.4651    5.8294 C   0  0  1  0  0  0  0  0  0  0  0  0
   20.5111  -15.9186    5.8144 C   0  0  1  0  0  0  0  0  0  0  0  0
   12.4766   -9.2800    4.3419 C   0  0  1  0  0  0  0  0  0  0  0  0
   21.9108  -16.0845    6.5056 C   0  0  0  0  0  0  0  0  0  0  0  0
   21.9608  -15.6512    7.8724 C   0  0  0  0  0  0  0  0  0  0  0  0
   21.6442  -14.2397    7.9234 C   0  0  2  0  0  0  0  0  0  0  0  0
   21.6745  -13.7052    9.4095 C   0  0  0  0  0  0  0  0  0  0  0  0
   14.5905  -18.1103   10.3459 C   0  0  2  0  0  0  0  0  0  0  0  0
   13.8139  -15.9028   10.6232 C   0  0  0  0  0  0  0  0  0  0  0  0
   14.4376  -19.4655   10.5695 C   0  0  0  0  0  0  0  0  0  0  0  0
   13.6532  -17.4407   11.0617 C   0  0  1  0  0  0  0  0  0  0  0  0
   10.8806   -9.2733    4.3169 C   0  0  0  0  0  0  0  0  0  0  0  0
   10.3924  -10.3175    3.2018 C   0  0  0  0  0  0  0  0  0  0  0  0
   10.9672  -11.7576    3.5913 C   0  0  1  0  0  0  0  0  0  0  0  0
   10.5625  -12.8298    2.5724 C   0  0  0  0  0  0  0  0  0  0  0  0
   13.0632  -14.3154    8.8220 C   0  0  1  0  0  0  0  0  0  0  0  0
   11.6390  -14.0412    8.0992 C   0  0  0  0  0  0  0  0  0  0  0  0
   11.6137  -12.5846    7.4946 C   0  0  2  0  0  0  0  0  0  0  0  0
   14.5182  -17.8439    8.9269 F   0  0  0  0  0  0  0  0  0  0  0  0
   23.1104  -13.6357   10.0042 N   0  0  0  0  0  0  0  0  0  0  0  0
   13.0346   -8.3352    5.3789 N   0  0  0  0  0  0  0  0  0  0  0  0
   19.6407  -16.7374    6.5392 N   0  0  0  0  0  0  0  0  0  0  0  0
   13.5657  -20.4171    9.9902 N   0  0  0  0  0  0  0  0  0  0  0  0
   10.9824  -14.1106    2.9899 N   0  0  0  0  0  0  0  0  0  0  0  0
   13.0530  -15.6742    9.3931 N   0  0  0  0  0  0  0  0  0  0  0  0
   10.3228  -12.3243    6.8199 N   0  0  0  0  0  0  0  0  0  0  0  0
   12.6902  -11.1044    5.9666 O   0  0  0  0  0  0  0  0  0  0  0  0
   15.1653  -12.5435    6.0019 O   0  0  0  0  0  0  0  0  0  0  0  0
   15.4050  -14.4413    8.2340 O   0  0  0  0  0  0  0  0  0  0  0  0
   16.7999  -13.5627    3.6409 O   0  0  0  0  0  0  0  0  0  0  0  0
   17.2967  -12.5835    7.0059 O   0  0  0  0  0  0  0  0  0  0  0  0
   17.5147   -9.9286    5.7213 O   0  0  0  0  0  0  0  0  0  0  0  0
   18.9038  -14.1909    5.2913 O   0  0  0  0  0  0  0  0  0  0  0  0
   12.3071  -17.8865   10.7867 O   0  0  0  0  0  0  0  0  0  0  0  0
   14.4703  -15.0547   11.2498 O   0  0  0  0  0  0  0  0  0  0  0  0
   20.2967  -13.9805    7.2920 O   0  0  0  0  0  0  0  0  0  0  0  0
   12.4845  -11.7041    3.6622 O   0  0  0  0  0  0  0  0  0  0  0  0
  1 36  1  1  0  0  0
  2 36  1  1  0  0  0
  2  3  1  0  0  0  0
  3 37  1  6  0  0  0
  3  4  1  0  0  0  0
  4 38  1  1  0  0  0
  5 37  1  1  0  0  0
  5  6  1  0  0  0  0
  6  7  1  0  0  0  0
  6 39  1  6  0  0  0
  7 42  1  1  0  0  0
  8  9  1  6  0  0  0
  8  7  1  0  0  0  0
 10 42  1  1  0  0  0
 10 11  1  0  0  0  0
 11 31  1  1  0  0  0
 11 13  1  0  0  0  0
 12 30  1  1  0  0  0
 12  1  1  0  0  0  0
 14 13  1  0  0  0  0
 15 16  1  1  0  0  0
 15 14  1  0  0  0  0
 17 19  1  6  0  0  0
 17 28  1  0  0  0  0
 18 34  1  0  0  0  0
 19 32  1  0  0  0  0
 20 18  1  6  0  0  0
 20 17  1  0  0  0  0
 20 43  1  0  0  0  0
 21 12  1  0  0  0  0
 22 21  1  0  0  0  0
 22 23  1  0  0  0  0
 23 24  1  6  0  0  0
 23 46  1  0  0  0  0
 24 33  1  0  0  0  0
 25 34  1  6  0  0  0
 25  4  1  0  0  0  0
 26 25  1  0  0  0  0
 27 35  1  6  0  0  0
 27 26  1  0  0  0  0
 27  2  1  0  0  0  0
 29 16  1  0  0  0  0
 40  8  1  0  0  0  0
 40  5  1  0  0  0  0
 41  9  1  0  0  0  0
 44 18  2  0  0  0  0
 45 15  1  0  0  0  0
 45 10  1  0  0  0  0
 46  1  1  0  0  0  0
M  END
>  <CHROM.1>
164.43246792,91.56935029,-158.88527883,179.45374030,-176.27688103,59.69521622
-173.40788388,70.56417517,82.64412722,84.22517304,-174.41998211,-175.07041700
96.61062039,15.45882767,-13.76526249,6.91660188,-2.60648246,-0.00063372,2.44771671

>  <Name>
lig.pdb

>  <RI>
0

>  <Rbt.Current_Directory>
/home/afrankz/demos/rdock_decoys_rna/rnas/3wru

>  <Rbt.Executable>
rbdock ($Id: //depot/dev/client3/rdock/2013.1/src/exe/rbdock.cxx#4 $)

>  <Rbt.Library>
libRbt.so (2013.1, Build901 2013/11/27)

>  <Rbt.Parameter_File>
/export/apps/rDock/src/rDock_2013.1_src/data/scripts/dock_solv.prm

>  <Rbt.Receptor>
prm/pocket_docking_4.prm

>  <SCORE>
-2.78665

>  <SCORE.INTER>
-1.14284

>  <SCORE.INTER.CONST>
1

>  <SCORE.INTER.POLAR>
0

>  <SCORE.INTER.ROT>
13

>  <SCORE.INTER.SOLV>
27.8245

>  <SCORE.INTER.VDW>
-22.3034

>  <SCORE.INTER.norm>
-0.0248443

>  <SCORE.INTRA>
-1.6687

>  <SCORE.INTRA.DIHEDRAL>
-7.81983

>  <SCORE.INTRA.DIHEDRAL.0>
19.7146

>  <SCORE.INTRA.POLAR>
0

>  <SCORE.INTRA.POLAR.0>
0

>  <SCORE.INTRA.REPUL>
0

>  <SCORE.INTRA.REPUL.0>
0

>  <SCORE.INTRA.SOLV>
0.738256

>  <SCORE.INTRA.SOLV.lig_0>
-116.697

>  <SCORE.INTRA.VDW>
1.87209

>  <SCORE.INTRA.VDW.0>
-7.06424

>  <SCORE.INTRA.norm>
-0.0362761

>  <SCORE.RESTR>
0.0248876

>  <SCORE.RESTR.CAVITY>
0.0248876

>  <SCORE.RESTR.norm>
0.000541036

>  <SCORE.SYSTEM>
0

>  <SCORE.SYSTEM.CONST>
0

>  <SCORE.SYSTEM.DIHEDRAL>
0

>  <SCORE.SYSTEM.SOLV>
0

>  <SCORE.SYSTEM.norm>
0

>  <SCORE.heavy>
46

>  <SCORE.norm>
-0.0605793

>  <RMSD>
8.312

$$$$
lig.pdb
 OpenBabel03061811583D
libRbt.so/2013.1/901 2013/11/27
 46 49  0  0  0  0  0  0  0  0999 V2000
    9.9099  -11.3974    5.1282 C   0  0  1  0  0  0  0  0  0  0  0  0
   10.1001  -12.6131    7.3405 C   0  0  1  0  0  0  0  0  0  0  0  0
   10.7616  -12.3168    8.7204 C   0  0  1  0  0  0  0  0  0  0  0  0
   10.7538  -13.6676    9.6025 C   0  0  2  0  0  0  0  0  0  0  0  0
   13.1940  -12.5610    8.0411 C   0  0  2  0  0  0  0  0  0  0  0  0
   14.0938  -13.0384    9.2163 C   0  0  1  0  0  0  0  0  0  0  0  0
   14.6968  -14.2455    8.5394 C   0  0  1  0  0  0  0  0  0  0  0  0
   13.4878  -14.9660    7.8623 C   0  0  1  0  0  0  0  0  0  0  0  0
   12.6192  -15.9018    8.7741 C   0  0  0  0  0  0  0  0  0  0  0  0
   16.9075  -13.2949    7.9983 C   0  0  1  0  0  0  0  0  0  0  0  0
   17.6233  -12.3727    7.0571 C   0  0  1  0  0  0  0  0  0  0  0  0
   11.0574  -12.1711    4.4369 C   0  0  1  0  0  0  0  0  0  0  0  0
   18.9822  -11.9448    7.7165 C   0  0  0  0  0  0  0  0  0  0  0  0
   19.8767  -13.0286    8.0063 C   0  0  0  0  0  0  0  0  0  0  0  0
   19.2319  -13.9244    8.9427 C   0  0  2  0  0  0  0  0  0  0  0  0
   20.1681  -15.1470    9.2941 C   0  0  0  0  0  0  0  0  0  0  0  0
    9.3450  -17.9420   11.2163 C   0  0  2  0  0  0  0  0  0  0  0  0
    7.9743  -16.1290   10.5941 C   0  0  0  0  0  0  0  0  0  0  0  0
    9.6046  -19.0137   12.0495 C   0  0  0  0  0  0  0  0  0  0  0  0
    8.1445  -17.4080   11.5525 C   0  0  1  0  0  0  0  0  0  0  0  0
   12.4584  -11.4400    4.6618 C   0  0  0  0  0  0  0  0  0  0  0  0
   12.3447   -9.9492    4.0815 C   0  0  0  0  0  0  0  0  0  0  0  0
   11.1634   -9.2065    4.8618 C   0  0  1  0  0  0  0  0  0  0  0  0
   10.9664   -7.7685    4.3671 C   0  0  0  0  0  0  0  0  0  0  0  0
    9.2391  -14.0855    9.8512 C   0  0  1  0  0  0  0  0  0  0  0  0
    8.6141  -14.4028    8.3901 C   0  0  0  0  0  0  0  0  0  0  0  0
    8.6387  -13.1009    7.4998 C   0  0  2  0  0  0  0  0  0  0  0  0
    9.4076  -18.3752    9.8386 F   0  0  0  0  0  0  0  0  0  0  0  0
   21.5193  -14.7171    9.9343 N   0  0  0  0  0  0  0  0  0  0  0  0
   11.0595  -13.5838    4.9695 N   0  0  0  0  0  0  0  0  0  0  0  0
   17.9719  -12.9580    5.8367 N   0  0  0  0  0  0  0  0  0  0  0  0
    9.0063  -20.2922   12.1439 N   0  0  0  0  0  0  0  0  0  0  0  0
   12.0970   -6.9742    4.6532 N   0  0  0  0  0  0  0  0  0  0  0  0
    9.1873  -15.3118   10.6672 N   0  0  0  0  0  0  0  0  0  0  0  0
    8.0821  -13.3789    6.1573 N   0  0  0  0  0  0  0  0  0  0  0  0
   10.0524  -11.4332    6.5487 O   0  0  0  0  0  0  0  0  0  0  0  0
   12.1617  -11.8555    8.4382 O   0  0  0  0  0  0  0  0  0  0  0  0
   11.3417  -13.3800   10.8140 O   0  0  0  0  0  0  0  0  0  0  0  0
   15.0115  -12.0271    9.5036 O   0  0  0  0  0  0  0  0  0  0  0  0
   12.8749  -13.7928    7.3021 O   0  0  0  0  0  0  0  0  0  0  0  0
   13.4649  -16.9861    9.2068 O   0  0  0  0  0  0  0  0  0  0  0  0
   15.7143  -13.7835    7.5121 O   0  0  0  0  0  0  0  0  0  0  0  0
    7.0431  -18.3196   11.3470 O   0  0  0  0  0  0  0  0  0  0  0  0
    6.9723  -15.8966    9.8980 O   0  0  0  0  0  0  0  0  0  0  0  0
   17.9134  -14.4067    8.3854 O   0  0  0  0  0  0  0  0  0  0  0  0
    9.8619   -9.9678    4.6702 O   0  0  0  0  0  0  0  0  0  0  0  0
  1 36  1  1  0  0  0
  2 36  1  6  0  0  0
  2  3  1  0  0  0  0
  3 37  1  6  0  0  0
  3  4  1  0  0  0  0
  4 38  1  1  0  0  0
  5 37  1  1  0  0  0
  5  6  1  0  0  0  0
  6  7  1  0  0  0  0
  6 39  1  6  0  0  0
  7 42  1  6  0  0  0
  8  9  1  1  0  0  0
  8  7  1  0  0  0  0
 10 42  1  6  0  0  0
 10 11  1  0  0  0  0
 11 31  1  6  0  0  0
 11 13  1  0  0  0  0
 12 30  1  1  0  0  0
 12  1  1  0  0  0  0
 14 13  1  0  0  0  0
 15 16  1  6  0  0  0
 15 14  1  0  0  0  0
 17 19  1  1  0  0  0
 17 28  1  0  0  0  0
 18 34  1  0  0  0  0
 19 32  1  0  0  0  0
 20 18  1  6  0  0  0
 20 17  1  0  0  0  0
 20 43  1  0  0  0  0
 21 12  1  0  0  0  0
 22 21  1  0  0  0  0
 22 23  1  0  0  0  0
 23 24  1  6  0  0  0
 23 46  1  0  0  0  0
 24 33  1  0  0  0  0
 25 34  1  1  0  0  0
 25  4  1  0  0  0  0
 26 25  1  0  0  0  0
 27 35  1  6  0  0  0
 27 26  1  0  0  0  0
 27  2  1  0  0  0  0
 29 16  1  0  0  0  0
 40  8  1  0  0  0  0
 40  5  1  0  0  0  0
 41  9  1  0  0  0  0
 44 18  2  0  0  0  0
 45 15  1  0  0  0  0
 45 10  1  0  0  0  0
 46  1  1  0  0  0  0
M  END
>  <CHROM.1>
-58.51298505,159.51031801,-73.16527951,-94.65585438,73.24398401,-64.09782569
-156.58319440,59.74376552,69.52606609,-50.08213536,176.80391188,-65.01105753
-157.58665982,12.43198592,-13.74458730,8.14115961,2.64053522,0.03590680,2.47890799

>  <Name>
lig.pdb

>  <RI>
0

>  <Rbt.Current_Directory>
/home/afrankz/demos/rdock_decoys_rna/rnas/3wru

>  <Rbt.Executable>
rbdock ($Id: //depot/dev/client3/rdock/2013.1/src/exe/rbdock.cxx#4 $)

>  <Rbt.Library>
libRbt.so (2013.1, Build901 2013/11/27)

>  <Rbt.Parameter_File>
/export/apps/rDock/src/rDock_2013.1_src/data/scripts/dock_solv.prm

>  <Rbt.Receptor>
prm/pocket_docking_2.prm

>  <SCORE>
11.1975

>  <SCORE.INTER>
5.44317

>  <SCORE.INTER.CONST>
1

>  <SCORE.INTER.POLAR>
0

>  <SCORE.INTER.ROT>
13

>  <SCORE.INTER.SOLV>
20.8328

>  <SCORE.INTER.VDW>
-15.5822

>  <SCORE.INTER.norm>
0.11833

>  <SCORE.INTRA>
2.71059

>  <SCORE.INTRA.DIHEDRAL>
-7.3097

>  <SCORE.INTRA.DIHEDRAL.0>
19.7146

>  <SCORE.INTRA.POLAR>
0

>  <SCORE.INTRA.POLAR.0>
0

>  <SCORE.INTRA.REPUL>
0

>  <SCORE.INTRA.REPUL.0>
0

>  <SCORE.INTRA.SOLV>
4.73497

>  <SCORE.INTRA.SOLV.lig_0>
-116.697

>  <SCORE.INTRA.VDW>
3.99795

>  <SCORE.INTRA.VDW.0>
-7.06424

>  <SCORE.INTRA.norm>
0.0589258

>  <SCORE.RESTR>
3.04373

>  <SCORE.RESTR.CAVITY>
3.04373

>  <SCORE.RESTR.norm>
0.066168

>  <SCORE.SYSTEM>
0

>  <SCORE.SYSTEM.CONST>
0

>  <SCORE.SYSTEM.DIHEDRAL>
0

>  <SCORE.SYSTEM.SOLV>
0

>  <SCORE.SYSTEM.norm>
0

>  <SCORE.heavy>
46

>  <SCORE.norm>
0.243424

>  <RMSD>
8.317

$$$$
lig.pdb
 OpenBabel03061811583D
libRbt.so/2013.1/901 2013/11/27
 46 49  0  0  0  0  0  0  0  0999 V2000
   10.1760  -13.7321    4.4165 C   0  0  1  0  0  0  0  0  0  0  0  0
   11.9162  -13.9110    6.2462 C   0  0  1  0  0  0  0  0  0  0  0  0
   12.0245  -12.4013    6.6188 C   0  0  1  0  0  0  0  0  0  0  0  0
   12.4787  -12.2770    8.1619 C   0  0  2  0  0  0  0  0  0  0  0  0
   14.3040  -12.1372    5.5361 C   0  0  2  0  0  0  0  0  0  0  0  0
   15.1581  -11.9341    6.8197 C   0  0  1  0  0  0  0  0  0  0  0  0
   16.2336  -12.9491    6.5166 C   0  0  1  0  0  0  0  0  0  0  0  0
   15.4588  -14.2161    6.0332 C   0  0  1  0  0  0  0  0  0  0  0  0
   14.8743  -15.1564    7.1448 C   0  0  0  0  0  0  0  0  0  0  0  0
   18.3232  -13.0762    5.2122 C   0  0  1  0  0  0  0  0  0  0  0  0
   19.3489  -12.8766    6.2879 C   0  0  1  0  0  0  0  0  0  0  0  0
   10.0414  -14.0774    2.9146 C   0  0  1  0  0  0  0  0  0  0  0  0
   20.6536  -13.6491    5.8814 C   0  0  0  0  0  0  0  0  0  0  0  0
   21.2470  -13.2186    4.6481 C   0  0  0  0  0  0  0  0  0  0  0  0
   20.2963  -13.4298    3.5773 C   0  0  2  0  0  0  0  0  0  0  0  0
   20.8918  -12.9641    2.1904 C   0  0  0  0  0  0  0  0  0  0  0  0
   11.3085  -14.1821   13.4773 C   0  0  2  0  0  0  0  0  0  0  0  0
   10.6782  -13.0949   11.4838 C   0  0  0  0  0  0  0  0  0  0  0  0
   12.4672  -14.8268   13.0877 C   0  0  0  0  0  0  0  0  0  0  0  0
   11.3074  -12.9310   12.9537 C   0  0  1  0  0  0  0  0  0  0  0  0
   10.9862  -13.1473    2.0257 C   0  0  0  0  0  0  0  0  0  0  0  0
   10.5842  -11.6187    2.2980 C   0  0  0  0  0  0  0  0  0  0  0  0
   10.7769  -11.3300    3.8586 C   0  0  1  0  0  0  0  0  0  0  0  0
   10.4040   -9.8882    4.2240 C   0  0  0  0  0  0  0  0  0  0  0  0
   11.3466  -12.9369    9.0639 C   0  0  1  0  0  0  0  0  0  0  0  0
   11.2974  -14.5029    8.6503 C   0  0  0  0  0  0  0  0  0  0  0  0
   10.8830  -14.6467    7.1351 C   0  0  2  0  0  0  0  0  0  0  0  0
   11.2110  -14.1937   14.9195 F   0  0  0  0  0  0  0  0  0  0  0  0
   19.9841  -13.3324    0.9818 N   0  0  0  0  0  0  0  0  0  0  0  0
   10.3567  -15.5435    2.7393 N   0  0  0  0  0  0  0  0  0  0  0  0
   19.7445  -11.5474    6.4619 N   0  0  0  0  0  0  0  0  0  0  0  0
   13.0050  -15.0923   11.8064 N   0  0  0  0  0  0  0  0  0  0  0  0
   10.5861   -9.6509    5.6030 N   0  0  0  0  0  0  0  0  0  0  0  0
   11.7178  -12.8321   10.4865 N   0  0  0  0  0  0  0  0  0  0  0  0
   10.8461  -16.0720    6.7395 N   0  0  0  0  0  0  0  0  0  0  0  0
   11.4781  -14.0608    4.9019 O   0  0  0  0  0  0  0  0  0  0  0  0
   13.0462  -11.8011    5.6974 O   0  0  0  0  0  0  0  0  0  0  0  0
   12.5665  -10.9369    8.4659 O   0  0  0  0  0  0  0  0  0  0  0  0
   15.6089  -10.6137    6.8411 O   0  0  0  0  0  0  0  0  0  0  0  0
   14.5431  -13.5387    5.1566 O   0  0  0  0  0  0  0  0  0  0  0  0
   15.9901  -15.7066    7.8730 O   0  0  0  0  0  0  0  0  0  0  0  0
   17.1401  -12.4036    5.4280 O   0  0  0  0  0  0  0  0  0  0  0  0
   10.5150  -11.9981   13.7205 O   0  0  0  0  0  0  0  0  0  0  0  0
    9.4996  -13.4104   11.2514 O   0  0  0  0  0  0  0  0  0  0  0  0
   19.0040  -12.7053    3.8718 O   0  0  0  0  0  0  0  0  0  0  0  0
    9.9056  -12.2762    4.6683 O   0  0  0  0  0  0  0  0  0  0  0  0
  1 36  1  6  0  0  0
  2 36  1  6  0  0  0
  2  3  1  0  0  0  0
  3 37  1  6  0  0  0
  3  4  1  0  0  0  0
  4 38  1  1  0  0  0
  5 37  1  1  0  0  0
  5  6  1  0  0  0  0
  6  7  1  0  0  0  0
  6 39  1  6  0  0  0
  7 42  1  6  0  0  0
  8  9  1  1  0  0  0
  8  7  1  0  0  0  0
 10 42  1  1  0  0  0
 10 11  1  0  0  0  0
 11 31  1  6  0  0  0
 11 13  1  0  0  0  0
 12 30  1  1  0  0  0
 12  1  1  0  0  0  0
 14 13  1  0  0  0  0
 15 16  1  6  0  0  0
 15 14  1  0  0  0  0
 17 19  1  1  0  0  0
 17 28  1  0  0  0  0
 18 34  1  0  0  0  0
 19 32  1  0  0  0  0
 20 18  1  6  0  0  0
 20 17  1  0  0  0  0
 20 43  1  0  0  0  0
 21 12  1  0  0  0  0
 22 21  1  0  0  0  0
 22 23  1  0  0  0  0
 23 24  1  6  0  0  0
 23 46  1  0  0  0  0
 24 33  1  0  0  0  0
 25 34  1  1  0  0  0
 25  4  1  0  0  0  0
 26 25  1  0  0  0  0
 27 35  1  6  0  0  0
 27 26  1  0  0  0  0
 27  2  1  0  0  0  0
 29 16  1  0  0  0  0
 40  8  1  0  0  0  0
 40  5  1  0  0  0  0
 41  9  1  0  0  0  0
 44 18  2  0  0  0  0
 45 15  1  0  0  0  0
 45 10  1  0  0  0  0
 46  1  1  0  0  0  0
M  END
>  <CHROM.1>
-177.81949855,-68.48388762,-58.43965174,-63.02337846,167.53421185,-64.58219974
-72.69143455,172.75710942,-56.73584111,-112.08524772,86.19669045,-179.73176617
166.05789301,13.73177254,-13.09856763,6.88541127,2.40824025,-0.03308660,1.67600409

>  <Name>
lig.pdb

>  <RI>
0

>  <Rbt.Current_Directory>
/home/afrankz/demos/rdock_decoys_rna/rnas/3wru

>  <Rbt.Executable>
rbdock ($Id: //depot/dev/client3/rdock/2013.1/src/exe/rbdock.cxx#4 $)

>  <Rbt.Library>
libRbt.so (2013.1, Build901 2013/11/27)

>  <Rbt.Parameter_File>
/export/apps/rDock/src/rDock_2013.1_src/data/scripts/dock_solv.prm

>  <Rbt.Receptor>
prm/pocket_docking_6.prm

>  <SCORE>
-4.16847

>  <SCORE.INTER>
0.226252

>  <SCORE.INTER.CONST>
1

>  <SCORE.INTER.POLAR>
0

>  <SCORE.INTER.ROT>
13

>  <SCORE.INTER.SOLV>
21.5563

>  <SCORE.INTER.VDW>
-19.3013

>  <SCORE.INTER.norm>
0.00491851

>  <SCORE.INTRA>
-4.39472

>  <SCORE.INTRA.DIHEDRAL>
-12.838

>  <SCORE.INTRA.DIHEDRAL.0>
19.7146

>  <SCORE.INTRA.POLAR>
0

>  <SCORE.INTRA.POLAR.0>
0

>  <SCORE.INTRA.REPUL>
0.00938285

>  <SCORE.INTRA.REPUL.0>
0

>  <SCORE.INTRA.SOLV>
3.98601

>  <SCORE.INTRA.SOLV.lig_0>
-116.697

>  <SCORE.INTRA.VDW>
-0.0156557

>  <SCORE.INTRA.VDW.0>
-7.06424

>  <SCORE.INTRA.norm>
-0.0955374

>  <SCORE.RESTR>
0

>  <SCORE.RESTR.CAVITY>
0

>  <SCORE.RESTR.norm>
0

>  <SCORE.SYSTEM>
0

>  <SCORE.SYSTEM.CONST>
0

>  <SCORE.SYSTEM.DIHEDRAL>
0

>  <SCORE.SYSTEM.SOLV>
0

>  <SCORE.SYSTEM.norm>
0

>  <SCORE.heavy>
46

>  <SCORE.norm>
-0.0906189

>  <RMSD>
8.339

$$$$
lig.pdb
 OpenBabel03061811583D
libRbt.so/2013.1/901 2013/11/27
 46 49  0  0  0  0  0  0  0  0999 V2000
    7.9861  -14.3225    6.1615 C   0  0  1  0  0  0  0  0  0  0  0  0
   10.4810  -14.0608    6.5006 C   0  0  1  0  0  0  0  0  0  0  0  0
   10.7719  -12.6238    7.0298 C   0  0  1  0  0  0  0  0  0  0  0  0
   12.2610  -12.1950    6.5809 C   0  0  2  0  0  0  0  0  0  0  0  0
    9.5968  -11.3588    5.1705 C   0  0  2  0  0  0  0  0  0  0  0  0
   10.7196  -10.3978    4.6864 C   0  0  1  0  0  0  0  0  0  0  0  0
   10.6423  -10.7137    3.2122 C   0  0  1  0  0  0  0  0  0  0  0  0
   10.5755  -12.2725    3.1433 C   0  0  1  0  0  0  0  0  0  0  0  0
   11.9371  -13.0454    3.2452 C   0  0  0  0  0  0  0  0  0  0  0  0
    9.5324   -8.8211    2.0853 C   0  0  1  0  0  0  0  0  0  0  0  0
    9.8302   -8.8197    0.6155 C   0  0  1  0  0  0  0  0  0  0  0  0
    6.8102  -13.9205    7.0828 C   0  0  1  0  0  0  0  0  0  0  0  0
   10.0199   -7.3335    0.1472 C   0  0  0  0  0  0  0  0  0  0  0  0
   11.0909   -6.6318    0.7947 C   0  0  0  0  0  0  0  0  0  0  0  0
   10.8202   -6.5814    2.2157 C   0  0  2  0  0  0  0  0  0  0  0  0
   11.9737   -5.8260    2.9862 C   0  0  0  0  0  0  0  0  0  0  0  0
   16.9012  -10.8931    6.8484 C   0  0  2  0  0  0  0  0  0  0  0  0
   15.6063  -12.5147    7.9650 C   0  0  0  0  0  0  0  0  0  0  0  0
   18.1584  -10.3639    6.6260 C   0  0  0  0  0  0  0  0  0  0  0  0
   17.0366  -12.1552    7.3262 C   0  0  1  0  0  0  0  0  0  0  0  0
    6.4323  -15.1076    8.0808 C   0  0  0  0  0  0  0  0  0  0  0  0
    6.0562  -16.3977    7.2054 C   0  0  0  0  0  0  0  0  0  0  0  0
    7.3247  -16.7686    6.3059 C   0  0  1  0  0  0  0  0  0  0  0  0
    7.0588  -17.9901    5.4178 C   0  0  0  0  0  0  0  0  0  0  0  0
   13.2899  -13.1989    7.2623 C   0  0  1  0  0  0  0  0  0  0  0  0
   12.9554  -14.6649    6.6582 C   0  0  0  0  0  0  0  0  0  0  0  0
   11.4915  -15.0921    7.0611 C   0  0  2  0  0  0  0  0  0  0  0  0
   16.1272  -10.8280    5.6293 F   0  0  0  0  0  0  0  0  0  0  0  0
   13.3495   -6.5447    2.8827 N   0  0  0  0  0  0  0  0  0  0  0  0
    7.1983  -12.6599    7.8174 N   0  0  0  0  0  0  0  0  0  0  0  0
   11.0180   -9.4710    0.2715 N   0  0  0  0  0  0  0  0  0  0  0  0
   19.2332  -10.8109    5.8220 N   0  0  0  0  0  0  0  0  0  0  0  0
    6.8124  -19.1402    6.1972 N   0  0  0  0  0  0  0  0  0  0  0  0
   14.6674  -12.8327    6.8871 N   0  0  0  0  0  0  0  0  0  0  0  0
   11.1674  -16.4245    6.5052 N   0  0  0  0  0  0  0  0  0  0  0  0
    9.1894  -14.4898    6.9120 O   0  0  0  0  0  0  0  0  0  0  0  0
    9.7364  -11.7221    6.4234 O   0  0  0  0  0  0  0  0  0  0  0  0
   12.4934  -10.9251    7.0599 O   0  0  0  0  0  0  0  0  0  0  0  0
   10.3483   -9.0924    5.0108 O   0  0  0  0  0  0  0  0  0  0  0  0
    9.6043  -12.4535    4.1873 O   0  0  0  0  0  0  0  0  0  0  0  0
   11.6486  -14.4482    3.0802 O   0  0  0  0  0  0  0  0  0  0  0  0
    9.3918  -10.0781    2.6320 O   0  0  0  0  0  0  0  0  0  0  0  0
   17.3657  -13.1160    6.2991 O   0  0  0  0  0  0  0  0  0  0  0  0
   15.3604  -12.5303    9.1824 O   0  0  0  0  0  0  0  0  0  0  0  0
   10.6378   -7.9765    2.7655 O   0  0  0  0  0  0  0  0  0  0  0  0
    7.6861  -15.5911    5.4155 O   0  0  0  0  0  0  0  0  0  0  0  0
  1 36  1  1  0  0  0
  2 36  1  1  0  0  0
  2  3  1  0  0  0  0
  3 37  1  6  0  0  0
  3  4  1  0  0  0  0
  4 38  1  1  0  0  0
  5 37  1  1  0  0  0
  5  6  1  0  0  0  0
  6  7  1  0  0  0  0
  6 39  1  6  0  0  0
  7 42  1  1  0  0  0
  8  9  1  1  0  0  0
  8  7  1  0  0  0  0
 10 42  1  1  0  0  0
 10 11  1  0  0  0  0
 11 31  1  1  0  0  0
 11 13  1  0  0  0  0
 12 30  1  1  0  0  0
 12  1  1  0  0  0  0
 14 13  1  0  0  0  0
 15 16  1  1  0  0  0
 15 14  1  0  0  0  0
 17 19  1  6  0  0  0
 17 28  1  0  0  0  0
 18 34  1  0  0  0  0
 19 32  1  0  0  0  0
 20 18  1  6  0  0  0
 20 17  1  0  0  0  0
 20 43  1  0  0  0  0
 21 12  1  0  0  0  0
 22 21  1  0  0  0  0
 22 23  1  0  0  0  0
 23 24  1  6  0  0  0
 23 46  1  0  0  0  0
 24 33  1  0  0  0  0
 25 34  1  6  0  0  0
 25  4  1  0  0  0  0
 26 25  1  0  0  0  0
 27 35  1  6  0  0  0
 27 26  1  0  0  0  0
 27  2  1  0  0  0  0
 29 16  1  0  0  0  0
 40  8  1  0  0  0  0
 40  5  1  0  0  0  0
 41  9  1  0  0  0  0
 44 18  2  0  0  0  0
 45 15  1  0  0  0  0
 45 10  1  0  0  0  0
 46  1  1  0  0  0  0
M  END
>  <CHROM.1>
-139.28591236,91.92457440,-68.90666964,-69.94994735,92.98817863,-176.65681620
91.90772815,-63.15082852,57.36192189,76.96381703,163.27246784,-62.89828244
121.51206858,11.34290783,-12.05923448,5.20290264,2.29795764,0.29534456,2.52286006

>  <Name>
lig.pdb

>  <RI>
0

>  <Rbt.Current_Directory>
/home/afrankz/demos/rdock_decoys_rna/rnas/3wru

>  <Rbt.Executable>
rbdock ($Id: //depot/dev/client3/rdock/2013.1/src/exe/rbdock.cxx#4 $)

>  <Rbt.Library>
libRbt.so (2013.1, Build901 2013/11/27)

>  <Rbt.Parameter_File>
/export/apps/rDock/src/rDock_2013.1_src/data/scripts/dock_solv.prm

>  <Rbt.Receptor>
prm/pocket_docking_5.prm

>  <SCORE>
-6.95163

>  <SCORE.INTER>
-9.32613

>  <SCORE.INTER.CONST>
1

>  <SCORE.INTER.POLAR>
0

>  <SCORE.INTER.ROT>
13

>  <SCORE.INTER.SOLV>
30.496

>  <SCORE.INTER.VDW>
-28.6494

>  <SCORE.INTER.norm>
-0.202742

>  <SCORE.INTRA>
2.3745

>  <SCORE.INTRA.DIHEDRAL>
2.07838

>  <SCORE.INTRA.DIHEDRAL.0>
19.7146

>  <SCORE.INTRA.POLAR>
0

>  <SCORE.INTRA.POLAR.0>
0

>  <SCORE.INTRA.REPUL>
0

>  <SCORE.INTRA.REPUL.0>
0

>  <SCORE.INTRA.SOLV>
4.01279

>  <SCORE.INTRA.SOLV.lig_0>
-116.697

>  <SCORE.INTRA.VDW>
-0.671086

>  <SCORE.INTRA.VDW.0>
-7.06424

>  <SCORE.INTRA.norm>
0.0516196

>  <SCORE.RESTR>
0

>  <SCORE.RESTR.CAVITY>
0

>  <SCORE.RESTR.norm>
0

>  <SCORE.SYSTEM>
0

>  <SCORE.SYSTEM.CONST>
0

>  <SCORE.SYSTEM.DIHEDRAL>
0

>  <SCORE.SYSTEM.SOLV>
0

>  <SCORE.SYSTEM.norm>
0

>  <SCORE.heavy>
46

>  <SCORE.norm>
-0.151122

>  <RMSD>
8.349

$$$$
lig.pdb
 OpenBabel03061811583D
libRbt.so/2013.1/901 2013/11/27
 46 49  0  0  0  0  0  0  0  0999 V2000
   11.8955  -10.1966    5.5425 C   0  0  1  0  0  0  0  0  0  0  0  0
   11.0347  -11.9955    7.1016 C   0  0  1  0  0  0  0  0  0  0  0  0
   11.8350  -11.9171    8.4369 C   0  0  1  0  0  0  0  0  0  0  0  0
   11.8549  -13.3791    9.1188 C   0  0  2  0  0  0  0  0  0  0  0  0
   14.1845  -12.1323    7.5034 C   0  0  2  0  0  0  0  0  0  0  0  0
   15.5785  -11.4620    7.6652 C   0  0  1  0  0  0  0  0  0  0  0  0
   16.4250  -12.7020    7.5079 C   0  0  1  0  0  0  0  0  0  0  0  0
   15.7310  -13.7731    8.4082 C   0  0  1  0  0  0  0  0  0  0  0  0
   16.0621  -13.7324    9.9413 C   0  0  0  0  0  0  0  0  0  0  0  0
   17.5191  -13.8409    5.6133 C   0  0  1  0  0  0  0  0  0  0  0  0
   17.4236  -15.3157    5.8679 C   0  0  1  0  0  0  0  0  0  0  0  0
   11.2638   -9.0581    4.7070 C   0  0  1  0  0  0  0  0  0  0  0  0
   18.7514  -15.9931    5.3754 C   0  0  0  0  0  0  0  0  0  0  0  0
   19.9410  -15.5287    6.0295 C   0  0  0  0  0  0  0  0  0  0  0  0
   20.0865  -14.1111    5.7758 C   0  0  2  0  0  0  0  0  0  0  0  0
   21.3788  -13.5387    6.4810 C   0  0  0  0  0  0  0  0  0  0  0  0
    9.3066  -16.8931   12.3531 C   0  0  2  0  0  0  0  0  0  0  0  0
   10.7101  -15.2003   11.5059 C   0  0  0  0  0  0  0  0  0  0  0  0
    9.0893  -18.2275   12.6397 C   0  0  0  0  0  0  0  0  0  0  0  0
   10.6022  -16.7301   11.9869 C   0  0  1  0  0  0  0  0  0  0  0  0
   10.0955   -9.6138    3.7721 C   0  0  0  0  0  0  0  0  0  0  0  0
   10.7122  -10.7466    2.8188 C   0  0  0  0  0  0  0  0  0  0  0  0
   11.3163  -11.8974    3.7498 C   0  0  1  0  0  0  0  0  0  0  0  0
   11.9445  -13.0283    2.9266 C   0  0  0  0  0  0  0  0  0  0  0  0
   10.3545  -13.7866    9.4559 C   0  0  1  0  0  0  0  0  0  0  0  0
    9.5820  -13.8751    8.0341 C   0  0  0  0  0  0  0  0  0  0  0  0
    9.5761  -12.4609    7.3357 C   0  0  2  0  0  0  0  0  0  0  0  0
    8.9337  -16.0873   13.4938 F   0  0  0  0  0  0  0  0  0  0  0  0
   21.3533  -13.7023    8.0279 N   0  0  0  0  0  0  0  0  0  0  0  0
   10.7748   -7.9926    5.6583 N   0  0  0  0  0  0  0  0  0  0  0  0
   17.3123  -15.6574    7.2186 N   0  0  0  0  0  0  0  0  0  0  0  0
    7.9283  -18.9172   13.0612 N   0  0  0  0  0  0  0  0  0  0  0  0
   10.9513  -13.8332    2.3293 N   0  0  0  0  0  0  0  0  0  0  0  0
   10.3295  -15.1148   10.0944 N   0  0  0  0  0  0  0  0  0  0  0  0
    8.8844  -12.5293    6.0294 N   0  0  0  0  0  0  0  0  0  0  0  0
   10.9612  -10.7140    6.4904 O   0  0  0  0  0  0  0  0  0  0  0  0
   13.2201  -11.4588    8.0842 O   0  0  0  0  0  0  0  0  0  0  0  0
   12.5657  -13.2833   10.2942 O   0  0  0  0  0  0  0  0  0  0  0  0
   15.7369  -10.5287    6.6399 O   0  0  0  0  0  0  0  0  0  0  0  0
   14.3818  -13.5067    7.9905 O   0  0  0  0  0  0  0  0  0  0  0  0
   15.3925  -14.8515   10.5556 O   0  0  0  0  0  0  0  0  0  0  0  0
   16.4281  -13.1207    6.0488 O   0  0  0  0  0  0  0  0  0  0  0  0
   11.5293  -16.9661   13.0690 O   0  0  0  0  0  0  0  0  0  0  0  0
   11.0488  -14.2532   12.2345 O   0  0  0  0  0  0  0  0  0  0  0  0
   18.8554  -13.3661    6.2352 O   0  0  0  0  0  0  0  0  0  0  0  0
   12.3811  -11.3138    4.6639 O   0  0  0  0  0  0  0  0  0  0  0  0
  1 36  1  1  0  0  0
  2 36  1  1  0  0  0
  2  3  1  0  0  0  0
  3 37  1  6  0  0  0
  3  4  1  0  0  0  0
  4 38  1  1  0  0  0
  5 37  1  1  0  0  0
  5  6  1  0  0  0  0
  6  7  1  0  0  0  0
  6 39  1  6  0  0  0
  7 42  1  6  0  0  0
  8  9  1  1  0  0  0
  8  7  1  0  0  0  0
 10 42  1  1  0  0  0
 10 11  1  0  0  0  0
 11 31  1  1  0  0  0
 11 13  1  0  0  0  0
 12 30  1  1  0  0  0
 12  1  1  0  0  0  0
 14 13  1  0  0  0  0
 15 16  1  1  0  0  0
 15 14  1  0  0  0  0
 17 19  1  1  0  0  0
 17 28  1  0  0  0  0
 18 34  1  0  0  0  0
 19 32  1  0  0  0  0
 20 18  1  1  0  0  0
 20 17  1  0  0  0  0
 20 43  1  0  0  0  0
 21 12  1  0  0  0  0
 22 21  1  0  0  0  0
 22 23  1  0  0  0  0
 23 24  1  6  0  0  0
 23 46  1  0  0  0  0
 24 33  1  0  0  0  0
 25 34  1  6  0  0  0
 25  4  1  0  0  0  0
 26 25  1  0  0  0  0
 27 35  1  6  0  0  0
 27 26  1  0  0  0  0
 27  2  1  0  0  0  0
 29 16  1  0  0  0  0
 40  8  1  0  0  0  0
 40  5  1  0  0  0  0
 41  9  1  0  0  0  0
 44 18  2  0  0  0  0
 45 15  1  0  0  0  0
 45 10  1  0  0  0  0
 46  1  1  0  0  0  0
M  END
>  <CHROM.1>
158.67077208,90.93242495,-73.85524474,-163.79611799,154.05940245,-176.19296832
84.62064320,-60.72683170,-179.98338207,-85.87341664,173.31821514,-74.18205660
77.25674815,13.32442751,-13.45363150,7.79565714,0.61506699,0.17109581,-0.92102598

>  <Name>
lig.pdb

>  <RI>
0

>  <Rbt.Current_Directory>
/home/afrankz/demos/rdock_decoys_rna/rnas/3wru

>  <Rbt.Executable>
rbdock ($Id: //depot/dev/client3/rdock/2013.1/src/exe/rbdock.cxx#4 $)

>  <Rbt.Library>
libRbt.so (2013.1, Build901 2013/11/27)

>  <Rbt.Parameter_File>
/export/apps/rDock/src/rDock_2013.1_src/data/scripts/dock_solv.prm

>  <Rbt.Receptor>
prm/pocket_docking_3.prm

>  <SCORE>
4.17146

>  <SCORE.INTER>
3.25852

>  <SCORE.INTER.CONST>
1

>  <SCORE.INTER.POLAR>
0

>  <SCORE.INTER.ROT>
13

>  <SCORE.INTER.SOLV>
24.9104

>  <SCORE.INTER.VDW>
-18.3978

>  <SCORE.INTER.norm>
0.0708374

>  <SCORE.INTRA>
0.56142

>  <SCORE.INTRA.DIHEDRAL>
-3.60994

>  <SCORE.INTRA.DIHEDRAL.0>
19.7146

>  <SCORE.INTRA.POLAR>
0

>  <SCORE.INTRA.POLAR.0>
0

>  <SCORE.INTRA.REPUL>
0

>  <SCORE.INTRA.REPUL.0>
0

>  <SCORE.INTRA.SOLV>
2.61187

>  <SCORE.INTRA.SOLV.lig_0>
-116.697

>  <SCORE.INTRA.VDW>
1.06046

>  <SCORE.INTRA.VDW.0>
-7.06424

>  <SCORE.INTRA.norm>
0.0122048

>  <SCORE.RESTR>
0.351525

>  <SCORE.RESTR.CAVITY>
0.351525

>  <SCORE.RESTR.norm>
0.00764184

>  <SCORE.SYSTEM>
0

>  <SCORE.SYSTEM.CONST>
0

>  <SCORE.SYSTEM.DIHEDRAL>
0

>  <SCORE.SYSTEM.SOLV>
0

>  <SCORE.SYSTEM.norm>
0

>  <SCORE.heavy>
46

>  <SCORE.norm>
0.090684

>  <RMSD>
8.367

$$$$
lig.pdb
 OpenBabel03061811583D
libRbt.so/2013.1/901 2013/11/27
 46 49  0  0  0  0  0  0  0  0999 V2000
    9.7834  -11.5915    4.6976 C   0  0  1  0  0  0  0  0  0  0  0  0
   11.0447  -13.4779    5.8194 C   0  0  1  0  0  0  0  0  0  0  0  0
   11.2983  -12.6913    7.1411 C   0  0  1  0  0  0  0  0  0  0  0  0
   11.5088  -13.7468    8.3430 C   0  0  2  0  0  0  0  0  0  0  0  0
   13.7301  -12.2514    6.5662 C   0  0  2  0  0  0  0  0  0  0  0  0
   14.6371  -12.6064    7.7787 C   0  0  1  0  0  0  0  0  0  0  0  0
   15.5692  -13.5587    7.0692 C   0  0  1  0  0  0  0  0  0  0  0  0
   14.6298  -14.4832    6.2314 C   0  0  1  0  0  0  0  0  0  0  0  0
   13.9626  -15.6863    6.9859 C   0  0  0  0  0  0  0  0  0  0  0  0
   17.5270  -12.0823    6.8034 C   0  0  1  0  0  0  0  0  0  0  0  0
   18.3796  -11.2668    5.8776 C   0  0  1  0  0  0  0  0  0  0  0  0
    9.2270  -11.4369    3.2624 C   0  0  1  0  0  0  0  0  0  0  0  0
   19.5253  -10.5969    6.7161 C   0  0  0  0  0  0  0  0  0  0  0  0
   20.3955  -11.5188    7.3881 C   0  0  0  0  0  0  0  0  0  0  0  0
   19.6115  -12.3019    8.3193 C   0  0  2  0  0  0  0  0  0  0  0  0
   20.5169  -13.3452    9.0854 C   0  0  0  0  0  0  0  0  0  0  0  0
    9.1861  -16.7089   12.2562 C   0  0  2  0  0  0  0  0  0  0  0  0
    9.1641  -16.4074    9.9192 C   0  0  0  0  0  0  0  0  0  0  0  0
    8.6155  -17.6002   13.1451 C   0  0  0  0  0  0  0  0  0  0  0  0
    9.5521  -17.3819   11.1370 C   0  0  1  0  0  0  0  0  0  0  0  0
   10.3304  -10.8286    2.2824 C   0  0  0  0  0  0  0  0  0  0  0  0
   10.7957   -9.4106    2.8699 C   0  0  0  0  0  0  0  0  0  0  0  0
   11.3838   -9.6549    4.3363 C   0  0  1  0  0  0  0  0  0  0  0  0
   11.8475   -8.3485    4.9917 C   0  0  0  0  0  0  0  0  0  0  0  0
   10.1652  -14.5829    8.5061 C   0  0  1  0  0  0  0  0  0  0  0  0
    9.9683  -15.3937    7.1170 C   0  0  0  0  0  0  0  0  0  0  0  0
    9.7895  -14.3794    5.9223 C   0  0  2  0  0  0  0  0  0  0  0  0
   10.2898  -16.0289   12.8958 F   0  0  0  0  0  0  0  0  0  0  0  0
   21.6663  -12.6781    9.8942 N   0  0  0  0  0  0  0  0  0  0  0  0
    8.7367  -12.7879    2.8002 N   0  0  0  0  0  0  0  0  0  0  0  0
   19.0304  -12.0138    4.8917 N   0  0  0  0  0  0  0  0  0  0  0  0
    9.1264  -18.7697   13.7555 N   0  0  0  0  0  0  0  0  0  0  0  0
   10.7857   -7.4241    5.0874 N   0  0  0  0  0  0  0  0  0  0  0  0
   10.3114  -15.5527    9.6064 N   0  0  0  0  0  0  0  0  0  0  0  0
    9.6211  -15.1061    4.6444 N   0  0  0  0  0  0  0  0  0  0  0  0
   10.8143  -12.5787    4.7425 O   0  0  0  0  0  0  0  0  0  0  0  0
   12.5289  -11.8607    6.9203 O   0  0  0  0  0  0  0  0  0  0  0  0
   11.7300  -13.0287    9.4969 O   0  0  0  0  0  0  0  0  0  0  0  0
   15.2494  -11.4346    8.2251 O   0  0  0  0  0  0  0  0  0  0  0  0
   13.7825  -13.4463    5.7091 O   0  0  0  0  0  0  0  0  0  0  0  0
   13.1710  -16.4114    6.0237 O   0  0  0  0  0  0  0  0  0  0  0  0
   16.5070  -12.7653    6.1775 O   0  0  0  0  0  0  0  0  0  0  0  0
   10.9653  -17.6773   11.0920 O   0  0  0  0  0  0  0  0  0  0  0  0
    8.0662  -16.4056    9.3384 O   0  0  0  0  0  0  0  0  0  0  0  0
   18.4853  -13.0037    7.5975 O   0  0  0  0  0  0  0  0  0  0  0  0
   10.3206  -10.2891    5.2181 O   0  0  0  0  0  0  0  0  0  0  0  0
  1 36  1  6  0  0  0
  2 36  1  6  0  0  0
  2  3  1  0  0  0  0
  3 37  1  6  0  0  0
  3  4  1  0  0  0  0
  4 38  1  1  0  0  0
  5 37  1  1  0  0  0
  5  6  1  0  0  0  0
  6  7  1  0  0  0  0
  6 39  1  6  0  0  0
  7 42  1  6  0  0  0
  8  9  1  1  0  0  0
  8  7  1  0  0  0  0
 10 42  1  6  0  0  0
 10 11  1  0  0  0  0
 11 31  1  6  0  0  0
 11 13  1  0  0  0  0
 12 30  1  6  0  0  0
 12  1  1  0  0  0  0
 14 13  1  0  0  0  0
 15 16  1  6  0  0  0
 15 14  1  0  0  0  0
 17 19  1  1  0  0  0
 17 28  1  0  0  0  0
 18 34  1  0  0  0  0
 19 32  1  0  0  0  0
 20 18  1  6  0  0  0
 20 17  1  0  0  0  0
 20 43  1  0  0  0  0
 21 12  1  0  0  0  0
 22 21  1  0  0  0  0
 22 23  1  0  0  0  0
 23 24  1  1  0  0  0
 23 46  1  0  0  0  0
 24 33  1  0  0  0  0
 25 34  1  1  0  0  0
 25  4  1  0  0  0  0
 26 25  1  0  0  0  0
 27 35  1  6  0  0  0
 27 26  1  0  0  0  0
 27  2  1  0  0  0  0
 29 16  1  0  0  0  0
 40  8  1  0  0  0  0
 40  5  1  0  0  0  0
 41  9  1  0  0  0  0
 44 18  2  0  0  0  0
 45 15  1  0  0  0  0
 45 10  1  0  0  0  0
 46  1  1  0  0  0  0
M  END
>  <CHROM.1>
-144.11400995,-57.86085189,-56.69424602,-89.36990685,75.13602839,-178.79748356
-177.27342740,59.27771130,59.08520955,90.84236872,139.48776551,58.77071088
179.28271791,12.89292969,-13.33918287,7.31753331,2.60715673,0.15842657,2.25784439

>  <Name>
lig.pdb

>  <RI>
0

>  <Rbt.Current_Directory>
/home/afrankz/demos/rdock_decoys_rna/rnas/3wru

>  <Rbt.Executable>
rbdock ($Id: //depot/dev/client3/rdock/2013.1/src/exe/rbdock.cxx#4 $)

>  <Rbt.Library>
libRbt.so (2013.1, Build901 2013/11/27)

>  <Rbt.Parameter_File>
/export/apps/rDock/src/rDock_2013.1_src/data/scripts/dock_solv.prm

>  <Rbt.Receptor>
prm/pocket_docking_5.prm

>  <SCORE>
0.318637

>  <SCORE.INTER>
0.846364

>  <SCORE.INTER.CONST>
1

>  <SCORE.INTER.POLAR>
0

>  <SCORE.INTER.ROT>
13

>  <SCORE.INTER.SOLV>
32.5004

>  <SCORE.INTER.VDW>
-22.5359

>  <SCORE.INTER.norm>
0.0183992

>  <SCORE.INTRA>
-0.527727

>  <SCORE.INTRA.DIHEDRAL>
-4.95826

>  <SCORE.INTRA.DIHEDRAL.0>
19.7146

>  <SCORE.INTRA.POLAR>
0

>  <SCORE.INTRA.POLAR.0>
0

>  <SCORE.INTRA.REPUL>
0

>  <SCORE.INTRA.REPUL.0>
0

>  <SCORE.INTRA.SOLV>
2.30847

>  <SCORE.INTRA.SOLV.lig_0>
-116.697

>  <SCORE.INTRA.VDW>
0.797167

>  <SCORE.INTRA.VDW.0>
-7.06424

>  <SCORE.INTRA.norm>
-0.0114723

>  <SCORE.RESTR>
0

>  <SCORE.RESTR.CAVITY>
0

>  <SCORE.RESTR.norm>
0

>  <SCORE.SYSTEM>
0

>  <SCORE.SYSTEM.CONST>
0

>  <SCORE.SYSTEM.DIHEDRAL>
0

>  <SCORE.SYSTEM.SOLV>
0

>  <SCORE.SYSTEM.norm>
0

>  <SCORE.heavy>
46

>  <SCORE.norm>
0.0069269

>  <RMSD>
8.389

$$$$
lig.pdb
 OpenBabel03061811583D
libRbt.so/2013.1/901 2013/11/27
 46 49  0  0  0  0  0  0  0  0999 V2000
   11.9471  -10.2487    4.3950 C   0  0  1  0  0  0  0  0  0  0  0  0
   10.5182  -11.8844    5.6952 C   0  0  1  0  0  0  0  0  0  0  0  0
   10.2687  -12.0290    7.2271 C   0  0  1  0  0  0  0  0  0  0  0  0
    9.7113  -13.5132    7.5261 C   0  0  2  0  0  0  0  0  0  0  0  0
   12.6284  -12.5885    7.9733 C   0  0  2  0  0  0  0  0  0  0  0  0
   13.8921  -11.8891    8.5500 C   0  0  1  0  0  0  0  0  0  0  0  0
   14.5903  -13.1206    9.0743 C   0  0  1  0  0  0  0  0  0  0  0  0
   13.4756  -13.9221    9.8189 C   0  0  1  0  0  0  0  0  0  0  0  0
   13.1427  -13.4771   11.2861 C   0  0  0  0  0  0  0  0  0  0  0  0
   16.2586  -13.3771    7.2759 C   0  0  1  0  0  0  0  0  0  0  0  0
   16.7386  -14.1744    6.0999 C   0  0  1  0  0  0  0  0  0  0  0  0
   12.7351   -8.9765    4.7873 C   0  0  1  0  0  0  0  0  0  0  0  0
   18.0261  -13.4856    5.5234 C   0  0  0  0  0  0  0  0  0  0  0  0
   19.1217  -13.3930    6.4453 C   0  0  0  0  0  0  0  0  0  0  0  0
   18.7062  -12.5978    7.5811 C   0  0  2  0  0  0  0  0  0  0  0  0
   19.8721  -12.4677    8.6389 C   0  0  0  0  0  0  0  0  0  0  0  0
    7.3583  -17.3222    8.4831 C   0  0  2  0  0  0  0  0  0  0  0  0
    8.6730  -16.1655    6.9062 C   0  0  0  0  0  0  0  0  0  0  0  0
    6.3974  -18.2853    8.7267 C   0  0  0  0  0  0  0  0  0  0  0  0
    7.8630  -17.5133    7.2389 C   0  0  1  0  0  0  0  0  0  0  0  0
   11.7897   -7.6905    4.7761 C   0  0  0  0  0  0  0  0  0  0  0  0
   11.1618   -7.5427    3.3076 C   0  0  0  0  0  0  0  0  0  0  0  0
   10.3415   -8.8770    2.9870 C   0  0  1  0  0  0  0  0  0  0  0  0
    9.7089   -8.8379    1.5907 C   0  0  0  0  0  0  0  0  0  0  0  0
    8.3198  -13.6785    6.7730 C   0  0  1  0  0  0  0  0  0  0  0  0
    8.6453  -13.5431    5.1913 C   0  0  0  0  0  0  0  0  0  0  0  0
    9.2197  -12.1072    4.8808 C   0  0  2  0  0  0  0  0  0  0  0  0
    8.3661  -17.3730    9.5182 F   0  0  0  0  0  0  0  0  0  0  0  0
   21.0817  -11.6411    8.1156 N   0  0  0  0  0  0  0  0  0  0  0  0
   13.3628   -9.2109    6.1402 N   0  0  0  0  0  0  0  0  0  0  0  0
   17.1259  -15.4802    6.4134 N   0  0  0  0  0  0  0  0  0  0  0  0
    6.5007  -19.6833    8.9171 N   0  0  0  0  0  0  0  0  0  0  0  0
   10.6989   -8.8030    0.5858 N   0  0  0  0  0  0  0  0  0  0  0  0
    7.7685  -15.0206    7.0320 N   0  0  0  0  0  0  0  0  0  0  0  0
    9.5336  -11.9732    3.4411 N   0  0  0  0  0  0  0  0  0  0  0  0
   10.9730  -10.5730    5.3875 O   0  0  0  0  0  0  0  0  0  0  0  0
   11.5876  -11.7930    7.9038 O   0  0  0  0  0  0  0  0  0  0  0  0
    9.4990  -13.6152    8.8828 O   0  0  0  0  0  0  0  0  0  0  0  0
   14.5601  -11.2574    7.5003 O   0  0  0  0  0  0  0  0  0  0  0  0
   12.4583  -13.7849    8.8129 O   0  0  0  0  0  0  0  0  0  0  0  0
   12.1628  -14.3992   11.8033 O   0  0  0  0  0  0  0  0  0  0  0  0
   15.1542  -13.9084    7.9057 O   0  0  0  0  0  0  0  0  0  0  0  0
    8.7532  -18.6479    7.1583 O   0  0  0  0  0  0  0  0  0  0  0  0
    9.8777  -16.1211    6.6076 O   0  0  0  0  0  0  0  0  0  0  0  0
   17.4739  -13.1955    8.2182 O   0  0  0  0  0  0  0  0  0  0  0  0
   11.2657  -10.0810    3.0671 O   0  0  0  0  0  0  0  0  0  0  0  0
  1 36  1  1  0  0  0
  2 36  1  1  0  0  0
  2  3  1  0  0  0  0
  3 37  1  1  0  0  0
  3  4  1  0  0  0  0
  4 38  1  1  0  0  0
  5 37  1  1  0  0  0
  5  6  1  0  0  0  0
  6  7  1  0  0  0  0
  6 39  1  6  0  0  0
  7 42  1  6  0  0  0
  8  9  1  1  0  0  0
  8  7  1  0  0  0  0
 10 42  1  1  0  0  0
 10 11  1  0  0  0  0
 11 31  1  1  0  0  0
 11 13  1  0  0  0  0
 12 30  1  1  0  0  0
 12  1  1  0  0  0  0
 14 13  1  0  0  0  0
 15 16  1  1  0  0  0
 15 14  1  0  0  0  0
 17 19  1  1  0  0  0
 17 28  1  0  0  0  0
 18 34  1  0  0  0  0
 19 32  1  0  0  0  0
 20 18  1  1  0  0  0
 20 17  1  0  0  0  0
 20 43  1  0  0  0  0
 21 12  1  0  0  0  0
 22 21  1  0  0  0  0
 22 23  1  0  0  0  0
 23 24  1  6  0  0  0
 23 46  1  0  0  0  0
 24 33  1  0  0  0  0
 25 34  1  6  0  0  0
 25  4  1  0  0  0  0
 26 25  1  0  0  0  0
 27 35  1  6  0  0  0
 27 26  1  0  0  0  0
 27  2  1  0  0  0  0
 29 16  1  0  0  0  0
 40  8  1  0  0  0  0
 40  5  1  0  0  0  0
 41  9  1  0  0  0  0
 44 18  2  0  0  0  0
 45 15  1  0  0  0  0
 45 10  1  0  0  0  0
 46  1  1  0  0  0  0
M  END
>  <CHROM.1>
-149.97423794,143.08495093,-74.57522662,169.97374859,72.77065186,-176.24599176
-177.90553534,66.95472265,68.85411357,-56.52784036,166.13060174,64.55683330
-46.22470810,12.14421086,-13.06894209,6.83140842,0.42128310,-0.22611167,-0.66453626

>  <Name>
lig.pdb

>  <RI>
0

>  <Rbt.Current_Directory>
/home/afrankz/demos/rdock_decoys_rna/rnas/3wru

>  <Rbt.Executable>
rbdock ($Id: //depot/dev/client3/rdock/2013.1/src/exe/rbdock.cxx#4 $)

>  <Rbt.Library>
libRbt.so (2013.1, Build901 2013/11/27)

>  <Rbt.Parameter_File>
/export/apps/rDock/src/rDock_2013.1_src/data/scripts/dock_solv.prm

>  <Rbt.Receptor>
prm/pocket_docking_4.prm

>  <SCORE>
1.02983

>  <SCORE.INTER>
-0.349331

>  <SCORE.INTER.CONST>
1

>  <SCORE.INTER.POLAR>
0

>  <SCORE.INTER.ROT>
13

>  <SCORE.INTER.SOLV>
23.6852

>  <SCORE.INTER.VDW>
-20.3946

>  <SCORE.INTER.norm>
-0.00759415

>  <SCORE.INTRA>
1.37807

>  <SCORE.INTRA.DIHEDRAL>
-6.62252

>  <SCORE.INTRA.DIHEDRAL.0>
19.7146

>  <SCORE.INTRA.POLAR>
0

>  <SCORE.INTRA.POLAR.0>
0

>  <SCORE.INTRA.REPUL>
0.00476182

>  <SCORE.INTRA.REPUL.0>
0

>  <SCORE.INTRA.SOLV>
4.74151

>  <SCORE.INTRA.SOLV.lig_0>
-116.697

>  <SCORE.INTRA.VDW>
2.29476

>  <SCORE.INTRA.VDW.0>
-7.06424

>  <SCORE.INTRA.norm>
0.0299579

>  <SCORE.RESTR>
0.00109312

>  <SCORE.RESTR.CAVITY>
0.00109312

>  <SCORE.RESTR.norm>
2.37635e-05

>  <SCORE.SYSTEM>
0

>  <SCORE.SYSTEM.CONST>
0

>  <SCORE.SYSTEM.DIHEDRAL>
0

>  <SCORE.SYSTEM.SOLV>
0

>  <SCORE.SYSTEM.norm>
0

>  <SCORE.heavy>
46

>  <SCORE.norm>
0.0223876

>  <RMSD>
8.404

$$$$
lig.pdb
 OpenBabel03061811583D
libRbt.so/2013.1/901 2013/11/27
 46 49  0  0  0  0  0  0  0  0999 V2000
   11.2989  -11.3493    5.1189 C   0  0  1  0  0  0  0  0  0  0  0  0
   10.1022  -12.5743    6.9831 C   0  0  1  0  0  0  0  0  0  0  0  0
   10.6730  -11.9070    8.2709 C   0  0  1  0  0  0  0  0  0  0  0  0
   10.5689  -12.9570    9.4914 C   0  0  2  0  0  0  0  0  0  0  0  0
   13.1936  -12.1952    8.3091 C   0  0  2  0  0  0  0  0  0  0  0  0
   13.3960  -13.5083    7.5007 C   0  0  1  0  0  0  0  0  0  0  0  0
   14.8974  -13.6013    7.6276 C   0  0  1  0  0  0  0  0  0  0  0  0
   15.4118  -12.1594    7.3188 C   0  0  1  0  0  0  0  0  0  0  0  0
   15.5564  -11.7672    5.8065 C   0  0  0  0  0  0  0  0  0  0  0  0
   16.4915  -14.6004    9.2226 C   0  0  1  0  0  0  0  0  0  0  0  0
   17.6180  -13.6147    9.3127 C   0  0  1  0  0  0  0  0  0  0  0  0
   11.0339  -10.1411    4.1897 C   0  0  1  0  0  0  0  0  0  0  0  0
   18.9641  -14.4089    9.4596 C   0  0  0  0  0  0  0  0  0  0  0  0
   19.2628  -15.2917    8.3687 C   0  0  0  0  0  0  0  0  0  0  0  0
   18.2119  -16.2823    8.2725 C   0  0  2  0  0  0  0  0  0  0  0  0
   18.4816  -17.2810    7.0789 C   0  0  0  0  0  0  0  0  0  0  0  0
    7.9554  -16.7277   11.9726 C   0  0  2  0  0  0  0  0  0  0  0  0
    7.5418  -14.4897   11.3617 C   0  0  0  0  0  0  0  0  0  0  0  0
    8.2398  -17.6573   12.9549 C   0  0  0  0  0  0  0  0  0  0  0  0
    7.6307  -15.5516   12.5649 C   0  0  1  0  0  0  0  0  0  0  0  0
    9.9583  -10.5057    3.0682 C   0  0  0  0  0  0  0  0  0  0  0  0
   10.5105  -11.7581    2.2323 C   0  0  0  0  0  0  0  0  0  0  0  0
   10.7304  -12.9707    3.2507 C   0  0  1  0  0  0  0  0  0  0  0  0
   11.2723  -14.2195    2.5448 C   0  0  0  0  0  0  0  0  0  0  0  0
    9.0303  -13.2809    9.7335 C   0  0  1  0  0  0  0  0  0  0  0  0
    8.5011  -13.9912    8.3765 C   0  0  0  0  0  0  0  0  0  0  0  0
    8.6213  -12.9907    7.1630 C   0  0  2  0  0  0  0  0  0  0  0  0
    6.9109  -17.2375   11.1132 F   0  0  0  0  0  0  0  0  0  0  0  0
   17.4416  -18.4354    7.0018 N   0  0  0  0  0  0  0  0  0  0  0  0
   10.5935   -8.9778    5.0454 N   0  0  0  0  0  0  0  0  0  0  0  0
   17.7779  -12.8225    8.1724 N   0  0  0  0  0  0  0  0  0  0  0  0
    7.4190  -18.2658   13.9334 N   0  0  0  0  0  0  0  0  0  0  0  0
   12.5686  -13.9924    2.0360 N   0  0  0  0  0  0  0  0  0  0  0  0
    8.8901  -14.2296   10.8528 N   0  0  0  0  0  0  0  0  0  0  0  0
    8.1530  -13.6304    5.9137 N   0  0  0  0  0  0  0  0  0  0  0  0
   10.1403  -11.6629    5.8925 O   0  0  0  0  0  0  0  0  0  0  0  0
   12.1008  -11.5502    7.9761 O   0  0  0  0  0  0  0  0  0  0  0  0
   11.0778  -12.3448   10.6149 O   0  0  0  0  0  0  0  0  0  0  0  0
   12.7037  -14.5322    8.1486 O   0  0  0  0  0  0  0  0  0  0  0  0
   14.4507  -11.4538    8.1215 O   0  0  0  0  0  0  0  0  0  0  0  0
   16.5691  -12.6198    5.2360 O   0  0  0  0  0  0  0  0  0  0  0  0
   15.2519  -14.0266    9.0409 O   0  0  0  0  0  0  0  0  0  0  0  0
    6.3680  -15.6007   13.2643 O   0  0  0  0  0  0  0  0  0  0  0  0
    6.4867  -13.9923   10.9353 O   0  0  0  0  0  0  0  0  0  0  0  0
   16.8691  -15.6096    8.1105 O   0  0  0  0  0  0  0  0  0  0  0  0
   11.7144  -12.5606    4.3341 O   0  0  0  0  0  0  0  0  0  0  0  0
  1 36  1  6  0  0  0
  2 36  1  6  0  0  0
  2  3  1  0  0  0  0
  3 37  1  6  0  0  0
  3  4  1  0  0  0  0
  4 38  1  1  0  0  0
  5 37  1  6  0  0  0
  5  6  1  0  0  0  0
  6  7  1  0  0  0  0
  6 39  1  1  0  0  0
  7 42  1  1  0  0  0
  8  9  1  6  0  0  0
  8  7  1  0  0  0  0
 10 42  1  6  0  0  0
 10 11  1  0  0  0  0
 11 31  1  6  0  0  0
 11 13  1  0  0  0  0
 12 30  1  1  0  0  0
 12  1  1  0  0  0  0
 14 13  1  0  0  0  0
 15 16  1  6  0  0  0
 15 14  1  0  0  0  0
 17 19  1  1  0  0  0
 17 28  1  0  0  0  0
 18 34  1  0  0  0  0
 19 32  1  0  0  0  0
 20 18  1  6  0  0  0
 20 17  1  0  0  0  0
 20 43  1  0  0  0  0
 21 12  1  0  0  0  0
 22 21  1  0  0  0  0
 22 23  1  0  0  0  0
 23 24  1  6  0  0  0
 23 46  1  0  0  0  0
 24 33  1  0  0  0  0
 25 34  1  1  0  0  0
 25  4  1  0  0  0  0
 26 25  1  0  0  0  0
 27 35  1  6  0  0  0
 27 26  1  0  0  0  0
 27  2  1  0  0  0  0
 29 16  1  0  0  0  0
 40  8  1  0  0  0  0
 40  5  1  0  0  0  0
 41  9  1  0  0  0  0
 44 18  2  0  0  0  0
 45 15  1  0  0  0  0
 45 10  1  0  0  0  0
 46  1  1  0  0  0  0
M  END
>  <CHROM.1>
-169.77944024,79.02711950,-99.56349867,72.16448935,158.28701915,-64.15808385
80.31359961,175.36552177,66.67433003,-70.62662167,171.54286950,65.46093826
170.74280001,12.11859252,-13.74425236,7.92300653,0.45737045,0.13397236,-1.00911979

>  <Name>
lig.pdb

>  <RI>
0

>  <Rbt.Current_Directory>
/home/afrankz/demos/rdock_decoys_rna/rnas/3wru

>  <Rbt.Executable>
rbdock ($Id: //depot/dev/client3/rdock/2013.1/src/exe/rbdock.cxx#4 $)

>  <Rbt.Library>
libRbt.so (2013.1, Build901 2013/11/27)

>  <Rbt.Parameter_File>
/export/apps/rDock/src/rDock_2013.1_src/data/scripts/dock_solv.prm

>  <Rbt.Receptor>
prm/pocket_docking_5.prm

>  <SCORE>
0.0794708

>  <SCORE.INTER>
-0.0673757

>  <SCORE.INTER.CONST>
1

>  <SCORE.INTER.POLAR>
0

>  <SCORE.INTER.ROT>
13

>  <SCORE.INTER.SOLV>
22.5241

>  <SCORE.INTER.VDW>
-19.8196

>  <SCORE.INTER.norm>
-0.00146469

>  <SCORE.INTRA>
0.146847

>  <SCORE.INTRA.DIHEDRAL>
-5.74113

>  <SCORE.INTRA.DIHEDRAL.0>
19.7146

>  <SCORE.INTRA.POLAR>
0

>  <SCORE.INTRA.POLAR.0>
0

>  <SCORE.INTRA.REPUL>
0

>  <SCORE.INTRA.REPUL.0>
0

>  <SCORE.INTRA.SOLV>
2.89278

>  <SCORE.INTRA.SOLV.lig_0>
-116.697

>  <SCORE.INTRA.VDW>
1.57102

>  <SCORE.INTRA.VDW.0>
-7.06424

>  <SCORE.INTRA.norm>
0.00319232

>  <SCORE.RESTR>
0

>  <SCORE.RESTR.CAVITY>
0

>  <SCORE.RESTR.norm>
0

>  <SCORE.SYSTEM>
0

>  <SCORE.SYSTEM.CONST>
0

>  <SCORE.SYSTEM.DIHEDRAL>
0

>  <SCORE.SYSTEM.SOLV>
0

>  <SCORE.SYSTEM.norm>
0

>  <SCORE.heavy>
46

>  <SCORE.norm>
0.00172763

>  <RMSD>
8.404

$$$$
lig.pdb
 OpenBabel03061811583D
libRbt.so/2013.1/901 2013/11/27
 46 49  0  0  0  0  0  0  0  0999 V2000
    8.7887  -15.2886   12.1814 C   0  0  1  0  0  0  0  0  0  0  0  0
    9.5519  -14.2802    9.9885 C   0  0  1  0  0  0  0  0  0  0  0  0
    9.1183  -14.3348    8.4923 C   0  0  1  0  0  0  0  0  0  0  0  0
   10.1952  -13.5218    7.6080 C   0  0  2  0  0  0  0  0  0  0  0  0
    8.1900  -16.6954    8.4321 C   0  0  2  0  0  0  0  0  0  0  0  0
    6.7344  -16.2847    8.0696 C   0  0  1  0  0  0  0  0  0  0  0  0
    6.1501  -17.6717    7.9521 C   0  0  1  0  0  0  0  0  0  0  0  0
    7.1926  -18.4713    7.1077 C   0  0  1  0  0  0  0  0  0  0  0  0
    7.1224  -18.3017    5.5495 C   0  0  0  0  0  0  0  0  0  0  0  0
    5.1195  -19.3246    9.4652 C   0  0  1  0  0  0  0  0  0  0  0  0
    5.1666  -20.0048   10.8008 C   0  0  1  0  0  0  0  0  0  0  0  0
    9.8405  -16.4118   12.3408 C   0  0  1  0  0  0  0  0  0  0  0  0
    4.1731  -21.2200   10.7761 C   0  0  0  0  0  0  0  0  0  0  0  0
    4.4665  -22.2157    9.7856 C   0  0  0  0  0  0  0  0  0  0  0  0
    4.3954  -21.6026    8.4764 C   0  0  2  0  0  0  0  0  0  0  0  0
    4.7195  -22.6516    7.3408 C   0  0  0  0  0  0  0  0  0  0  0  0
   11.4331   -8.7529    5.0732 C   0  0  2  0  0  0  0  0  0  0  0  0
   10.7534  -10.8419    5.9257 C   0  0  0  0  0  0  0  0  0  0  0  0
   12.4469   -7.9108    4.6569 C   0  0  0  0  0  0  0  0  0  0  0  0
   11.9451   -9.9950    5.2581 C   0  0  1  0  0  0  0  0  0  0  0  0
    9.3122  -17.7840   11.7197 C   0  0  0  0  0  0  0  0  0  0  0  0
    7.9436  -18.1748   12.4588 C   0  0  0  0  0  0  0  0  0  0  0  0
    6.9014  -16.9851   12.2251 C   0  0  1  0  0  0  0  0  0  0  0  0
    5.5564  -17.2604   12.9081 C   0  0  0  0  0  0  0  0  0  0  0  0
   10.1761  -12.0031    8.0812 C   0  0  1  0  0  0  0  0  0  0  0  0
   10.6564  -12.0079    9.6289 C   0  0  0  0  0  0  0  0  0  0  0  0
    9.6316  -12.8233   10.5080 C   0  0  2  0  0  0  0  0  0  0  0  0
   10.3539   -8.7213    4.1119 F   0  0  0  0  0  0  0  0  0  0  0  0
    6.1466  -23.2593    7.4602 N   0  0  0  0  0  0  0  0  0  0  0  0
   11.1237  -15.9495   11.6934 N   0  0  0  0  0  0  0  0  0  0  0  0
    6.4124  -20.5514   11.1213 N   0  0  0  0  0  0  0  0  0  0  0  0
   12.4365   -6.5456    4.2860 N   0  0  0  0  0  0  0  0  0  0  0  0
    5.7078  -17.3533   14.3080 N   0  0  0  0  0  0  0  0  0  0  0  0
   11.1398  -11.2206    7.2865 N   0  0  0  0  0  0  0  0  0  0  0  0
   10.0643  -12.8469   11.9228 N   0  0  0  0  0  0  0  0  0  0  0  0
    8.6032  -14.9536   10.8057 O   0  0  0  0  0  0  0  0  0  0  0  0
    9.0768  -15.7849    8.1071 O   0  0  0  0  0  0  0  0  0  0  0  0
    9.7902  -13.5843    6.2934 O   0  0  0  0  0  0  0  0  0  0  0  0
    6.2157  -15.5341    9.1254 O   0  0  0  0  0  0  0  0  0  0  0  0
    8.3673  -18.0103    7.7957 O   0  0  0  0  0  0  0  0  0  0  0  0
    8.1612  -19.1232    4.9803 O   0  0  0  0  0  0  0  0  0  0  0  0
    5.9893  -18.2631    9.3409 O   0  0  0  0  0  0  0  0  0  0  0  0
   12.3584  -10.6252    4.0259 O   0  0  0  0  0  0  0  0  0  0  0  0
    9.6771  -11.1087    5.3661 O   0  0  0  0  0  0  0  0  0  0  0  0
    5.3368  -20.4239    8.3965 O   0  0  0  0  0  0  0  0  0  0  0  0
    7.4691  -15.6879   12.7773 O   0  0  0  0  0  0  0  0  0  0  0  0
  1 36  1  6  0  0  0
  2 36  1  1  0  0  0
  2  3  1  0  0  0  0
  3 37  1  6  0  0  0
  3  4  1  0  0  0  0
  4 38  1  6  0  0  0
  5 37  1  6  0  0  0
  5  6  1  0  0  0  0
  6  7  1  0  0  0  0
  6 39  1  1  0  0  0
  7 42  1  1  0  0  0
  8  9  1  6  0  0  0
  8  7  1  0  0  0  0
 10 42  1  1  0  0  0
 10 11  1  0  0  0  0
 11 31  1  6  0  0  0
 11 13  1  0  0  0  0
 12 30  1  6  0  0  0
 12  1  1  0  0  0  0
 14 13  1  0  0  0  0
 15 16  1  6  0  0  0
 15 14  1  0  0  0  0
 17 19  1  6  0  0  0
 17 28  1  0  0  0  0
 18 34  1  0  0  0  0
 19 32  1  0  0  0  0
 20 18  1  6  0  0  0
 20 17  1  0  0  0  0
 20 43  1  0  0  0  0
 21 12  1  0  0  0  0
 22 21  1  0  0  0  0
 22 23  1  0  0  0  0
 23 24  1  1  0  0  0
 23 46  1  0  0  0  0
 24 33  1  0  0  0  0
 25 34  1  6  0  0  0
 25  4  1  0  0  0  0
 26 25  1  0  0  0  0
 27 35  1  1  0  0  0
 27 26  1  0  0  0  0
 27  2  1  0  0  0  0
 29 16  1  0  0  0  0
 40  8  1  0  0  0  0
 40  5  1  0  0  0  0
 41  9  1  0  0  0  0
 44 18  2  0  0  0  0
 45 15  1  0  0  0  0
 45 10  1  0  0  0  0
 46  1  1  0  0  0  0
M  END
>  <CHROM.1>
-70.24489334,169.06280931,74.03654246,54.72868369,160.95636279,-179.83839326
170.66057975,-60.64484294,177.44967210,-114.49706933,172.52008749,62.62428474
77.22561873,8.31471273,-15.67049654,8.67972744,-2.81785830,-1.07890663,-1.59443952

>  <Name>
lig.pdb

>  <RI>
0

>  <Rbt.Current_Directory>
/home/afrankz/demos/rdock_decoys_rna/rnas/3wru

>  <Rbt.Executable>
rbdock ($Id: //depot/dev/client3/rdock/2013.1/src/exe/rbdock.cxx#4 $)

>  <Rbt.Library>
libRbt.so (2013.1, Build901 2013/11/27)

>  <Rbt.Parameter_File>
/export/apps/rDock/src/rDock_2013.1_src/data/scripts/dock_solv.prm

>  <Rbt.Receptor>
prm/pocket_docking_6.prm

>  <SCORE>
-0.216041

>  <SCORE.INTER>
3.54344

>  <SCORE.INTER.CONST>
1

>  <SCORE.INTER.POLAR>
0

>  <SCORE.INTER.ROT>
13

>  <SCORE.INTER.SOLV>
12.8943

>  <SCORE.INTER.VDW>
-14.2025

>  <SCORE.INTER.norm>
0.0770312

>  <SCORE.INTRA>
-3.75948

>  <SCORE.INTRA.DIHEDRAL>
-12.4031

>  <SCORE.INTRA.DIHEDRAL.0>
19.7146

>  <SCORE.INTRA.POLAR>
0

>  <SCORE.INTRA.POLAR.0>
0

>  <SCORE.INTRA.REPUL>
0

>  <SCORE.INTRA.REPUL.0>
0

>  <SCORE.INTRA.SOLV>
5.74846

>  <SCORE.INTRA.SOLV.lig_0>
-116.697

>  <SCORE.INTRA.VDW>
-0.432151

>  <SCORE.INTRA.VDW.0>
-7.06424

>  <SCORE.INTRA.norm>
-0.0817278

>  <SCORE.RESTR>
0

>  <SCORE.RESTR.CAVITY>
0

>  <SCORE.RESTR.norm>
0

>  <SCORE.SYSTEM>
0

>  <SCORE.SYSTEM.CONST>
0

>  <SCORE.SYSTEM.DIHEDRAL>
0

>  <SCORE.SYSTEM.SOLV>
0

>  <SCORE.SYSTEM.norm>
0

>  <SCORE.heavy>
46

>  <SCORE.norm>
-0.00469655

>  <RMSD>
8.405

$$$$
lig.pdb
 OpenBabel03061811583D
libRbt.so/2013.1/901 2013/11/27
 46 49  0  0  0  0  0  0  0  0999 V2000
   11.9964  -10.9366    4.8020 C   0  0  1  0  0  0  0  0  0  0  0  0
   11.1111  -12.5200    6.5676 C   0  0  1  0  0  0  0  0  0  0  0  0
   12.5212  -12.8580    7.1395 C   0  0  1  0  0  0  0  0  0  0  0  0
   12.4382  -14.2587    7.9357 C   0  0  2  0  0  0  0  0  0  0  0  0
   14.6614  -13.4574    5.9154 C   0  0  2  0  0  0  0  0  0  0  0  0
   15.3258  -13.3097    4.5171 C   0  0  1  0  0  0  0  0  0  0  0  0
   16.7665  -13.3578    4.9653 C   0  0  1  0  0  0  0  0  0  0  0  0
   16.8308  -12.4010    6.1979 C   0  0  1  0  0  0  0  0  0  0  0  0
   16.9675  -10.8670    5.8980 C   0  0  0  0  0  0  0  0  0  0  0  0
   18.4546  -15.0527    5.5665 C   0  0  1  0  0  0  0  0  0  0  0  0
   18.7334  -16.4578    6.0103 C   0  0  1  0  0  0  0  0  0  0  0  0
   11.5071   -9.6589    4.0801 C   0  0  1  0  0  0  0  0  0  0  0  0
   20.2746  -16.6006    6.2724 C   0  0  0  0  0  0  0  0  0  0  0  0
   20.7951  -15.7277    7.2851 C   0  0  0  0  0  0  0  0  0  0  0  0
   20.5755  -14.3574    6.8739 C   0  0  2  0  0  0  0  0  0  0  0  0
   21.1214  -13.3459    7.9574 C   0  0  0  0  0  0  0  0  0  0  0  0
    9.7418  -16.8777   12.3588 C   0  0  2  0  0  0  0  0  0  0  0  0
   11.1085  -15.2375   11.3615 C   0  0  0  0  0  0  0  0  0  0  0  0
    9.5428  -18.1960   12.7229 C   0  0  0  0  0  0  0  0  0  0  0  0
   11.0340  -16.7196   11.9788 C   0  0  1  0  0  0  0  0  0  0  0  0
   10.1096   -9.9117    3.3516 C   0  0  0  0  0  0  0  0  0  0  0  0
   10.2975  -11.1181    2.3117 C   0  0  0  0  0  0  0  0  0  0  0  0
   10.7728  -12.4052    3.1323 C   0  0  1  0  0  0  0  0  0  0  0  0
   10.9931  -13.6169    2.2186 C   0  0  0  0  0  0  0  0  0  0  0  0
   11.4329  -14.0744    9.1547 C   0  0  1  0  0  0  0  0  0  0  0  0
    9.9864  -13.7501    8.5001 C   0  0  0  0  0  0  0  0  0  0  0  0
   10.0525  -12.3974    7.6915 C   0  0  2  0  0  0  0  0  0  0  0  0
    9.3619  -16.0121   13.4524 F   0  0  0  0  0  0  0  0  0  0  0  0
   20.3580  -13.4297    9.3103 N   0  0  0  0  0  0  0  0  0  0  0  0
   11.4268   -8.5460    5.0972 N   0  0  0  0  0  0  0  0  0  0  0  0
   18.1186  -16.8101    7.2150 N   0  0  0  0  0  0  0  0  0  0  0  0
    9.5749  -19.3910   11.9664 N   0  0  0  0  0  0  0  0  0  0  0  0
   11.2161  -14.7879    2.9738 N   0  0  0  0  0  0  0  0  0  0  0  0
   11.3384  -15.3316    9.9183 N   0  0  0  0  0  0  0  0  0  0  0  0
    8.7409  -12.0946    7.0771 N   0  0  0  0  0  0  0  0  0  0  0  0
   11.1358  -11.2693    5.8919 O   0  0  0  0  0  0  0  0  0  0  0  0
   13.4528  -12.9496    5.9662 O   0  0  0  0  0  0  0  0  0  0  0  0
   13.6934  -14.5341    8.4305 O   0  0  0  0  0  0  0  0  0  0  0  0
   14.9360  -14.3945    3.7306 O   0  0  0  0  0  0  0  0  0  0  0  0
   15.6369  -12.8693    6.8469 O   0  0  0  0  0  0  0  0  0  0  0  0
   15.7831  -10.4614    5.1834 O   0  0  0  0  0  0  0  0  0  0  0  0
   17.1208  -14.7830    5.3495 O   0  0  0  0  0  0  0  0  0  0  0  0
   11.9644  -16.8359   13.0775 O   0  0  0  0  0  0  0  0  0  0  0  0
   10.9741  -14.1916   12.0177 O   0  0  0  0  0  0  0  0  0  0  0  0
   19.1074  -14.1162    6.6127 O   0  0  0  0  0  0  0  0  0  0  0  0
   12.0737  -12.1017    3.8573 O   0  0  0  0  0  0  0  0  0  0  0  0
  1 36  1  1  0  0  0
  2 36  1  1  0  0  0
  2  3  1  0  0  0  0
  3 37  1  6  0  0  0
  3  4  1  0  0  0  0
  4 38  1  1  0  0  0
  5 37  1  6  0  0  0
  5  6  1  0  0  0  0
  6  7  1  0  0  0  0
  6 39  1  6  0  0  0
  7 42  1  1  0  0  0
  8  9  1  6  0  0  0
  8  7  1  0  0  0  0
 10 42  1  1  0  0  0
 10 11  1  0  0  0  0
 11 31  1  1  0  0  0
 11 13  1  0  0  0  0
 12 30  1  1  0  0  0
 12  1  1  0  0  0  0
 14 13  1  0  0  0  0
 15 16  1  1  0  0  0
 15 14  1  0  0  0  0
 17 19  1  1  0  0  0
 17 28  1  0  0  0  0
 18 34  1  0  0  0  0
 19 32  1  0  0  0  0
 20 18  1  1  0  0  0
 20 17  1  0  0  0  0
 20 43  1  0  0  0  0
 21 12  1  0  0  0  0
 22 21  1  0  0  0  0
 22 23  1  0  0  0  0
 23 24  1  6  0  0  0
 23 46  1  0  0  0  0
 24 33  1  0  0  0  0
 25 34  1  6  0  0  0
 25  4  1  0  0  0  0
 26 25  1  0  0  0  0
 27 35  1  6  0  0  0
 27 26  1  0  0  0  0
 27  2  1  0  0  0  0
 29 16  1  0  0  0  0
 40  8  1  0  0  0  0
 40  5  1  0  0  0  0
 41  9  1  0  0  0  0
 44 18  2  0  0  0  0
 45 15  1  0  0  0  0
 45 10  1  0  0  0  0
 46  1  1  0  0  0  0
M  END
>  <CHROM.1>
165.00162894,56.97629957,-165.41325934,-177.68825486,169.36226128,62.93335791
177.04060064,-64.87871612,-66.22773446,-111.43275047,171.35786008,-171.22233295
147.74589381,13.70991514,-13.79874585,7.14368290,0.53208237,0.16533872,-0.97336742

>  <Name>
lig.pdb

>  <RI>
0

>  <Rbt.Current_Directory>
/home/afrankz/demos/rdock_decoys_rna/rnas/3wru

>  <Rbt.Executable>
rbdock ($Id: //depot/dev/client3/rdock/2013.1/src/exe/rbdock.cxx#4 $)

>  <Rbt.Library>
libRbt.so (2013.1, Build901 2013/11/27)

>  <Rbt.Parameter_File>
/export/apps/rDock/src/rDock_2013.1_src/data/scripts/dock_solv.prm

>  <Rbt.Receptor>
prm/pocket_docking_5.prm

>  <SCORE>
-2.67804

>  <SCORE.INTER>
3.39215

>  <SCORE.INTER.CONST>
1

>  <SCORE.INTER.POLAR>
0

>  <SCORE.INTER.ROT>
13

>  <SCORE.INTER.SOLV>
23.5533

>  <SCORE.INTER.VDW>
-17.8563

>  <SCORE.INTER.norm>
0.0737424

>  <SCORE.INTRA>
-6.07019

>  <SCORE.INTRA.DIHEDRAL>
-12.9582

>  <SCORE.INTRA.DIHEDRAL.0>
19.7146

>  <SCORE.INTRA.POLAR>
0

>  <SCORE.INTRA.POLAR.0>
0

>  <SCORE.INTRA.REPUL>
0

>  <SCORE.INTRA.REPUL.0>
0

>  <SCORE.INTRA.SOLV>
-1.39684

>  <SCORE.INTRA.SOLV.lig_0>
-116.697

>  <SCORE.INTRA.VDW>
1.10733

>  <SCORE.INTRA.VDW.0>
-7.06424

>  <SCORE.INTRA.norm>
-0.131961

>  <SCORE.RESTR>
0

>  <SCORE.RESTR.CAVITY>
0

>  <SCORE.RESTR.norm>
0

>  <SCORE.SYSTEM>
0

>  <SCORE.SYSTEM.CONST>
0

>  <SCORE.SYSTEM.DIHEDRAL>
0

>  <SCORE.SYSTEM.SOLV>
0

>  <SCORE.SYSTEM.norm>
0

>  <SCORE.heavy>
46

>  <SCORE.norm>
-0.0582183

>  <RMSD>
8.410

$$$$
lig.pdb
 OpenBabel03061811583D
libRbt.so/2013.1/901 2013/11/27
 46 49  0  0  0  0  0  0  0  0999 V2000
    9.5980  -12.7656    5.2320 C   0  0  1  0  0  0  0  0  0  0  0  0
   10.5564  -14.7728    6.4406 C   0  0  1  0  0  0  0  0  0  0  0  0
   11.5661  -14.0666    7.3953 C   0  0  1  0  0  0  0  0  0  0  0  0
   11.7483  -14.9690    8.7203 C   0  0  2  0  0  0  0  0  0  0  0  0
   14.0300  -13.5493    7.0802 C   0  0  2  0  0  0  0  0  0  0  0  0
   15.1149  -14.6591    6.9801 C   0  0  1  0  0  0  0  0  0  0  0  0
   16.3265  -13.7606    6.9188 C   0  0  1  0  0  0  0  0  0  0  0  0
   15.9464  -12.6517    5.8868 C   0  0  1  0  0  0  0  0  0  0  0  0
   16.1231  -13.0060    4.3685 C   0  0  0  0  0  0  0  0  0  0  0  0
   17.8981  -13.0487    8.6815 C   0  0  1  0  0  0  0  0  0  0  0  0
   18.6575  -11.9888    7.9407 C   0  0  1  0  0  0  0  0  0  0  0  0
    9.0589  -12.4972    3.8070 C   0  0  1  0  0  0  0  0  0  0  0  0
   20.1452  -12.0002    8.4415 C   0  0  0  0  0  0  0  0  0  0  0  0
   20.8393  -13.2386    8.2341 C   0  0  0  0  0  0  0  0  0  0  0  0
   20.1537  -14.2827    8.9654 C   0  0  2  0  0  0  0  0  0  0  0  0
   20.8689  -15.6771    8.7674 C   0  0  0  0  0  0  0  0  0  0  0  0
    9.7514  -18.1671   12.3223 C   0  0  2  0  0  0  0  0  0  0  0  0
   10.9880  -17.2262   10.5507 C   0  0  0  0  0  0  0  0  0  0  0  0
    9.3255  -19.2635   11.5967 C   0  0  0  0  0  0  0  0  0  0  0  0
   11.0444  -17.9085   12.0049 C   0  0  1  0  0  0  0  0  0  0  0  0
   10.2530  -12.2133    2.7866 C   0  0  0  0  0  0  0  0  0  0  0  0
   11.0864  -10.9545    3.3279 C   0  0  0  0  0  0  0  0  0  0  0  0
   11.6338  -11.3171    4.7855 C   0  0  1  0  0  0  0  0  0  0  0  0
   12.4388  -10.1642    5.3974 C   0  0  0  0  0  0  0  0  0  0  0  0
   10.3399  -15.0567    9.4548 C   0  0  1  0  0  0  0  0  0  0  0  0
    9.3435  -15.8175    8.4281 C   0  0  0  0  0  0  0  0  0  0  0  0
    9.1738  -14.9653    7.1117 C   0  0  2  0  0  0  0  0  0  0  0  0
    9.5519  -18.4142   13.7325 F   0  0  0  0  0  0  0  0  0  0  0  0
   21.0141  -16.0819    7.2723 N   0  0  0  0  0  0  0  0  0  0  0  0
    8.2223  -13.6828    3.3900 N   0  0  0  0  0  0  0  0  0  0  0  0
   18.7297  -12.1955    6.5602 N   0  0  0  0  0  0  0  0  0  0  0  0
    8.0557  -19.8776   11.4874 N   0  0  0  0  0  0  0  0  0  0  0  0
   11.6406   -9.0100    5.5443 N   0  0  0  0  0  0  0  0  0  0  0  0
   10.4662  -15.8641   10.6814 N   0  0  0  0  0  0  0  0  0  0  0  0
    8.2756  -15.6543    6.1588 N   0  0  0  0  0  0  0  0  0  0  0  0
   10.3391  -13.9854    5.2769 O   0  0  0  0  0  0  0  0  0  0  0  0
   12.8566  -13.9367    6.6398 O   0  0  0  0  0  0  0  0  0  0  0  0
   12.6425  -14.3249    9.5458 O   0  0  0  0  0  0  0  0  0  0  0  0
   15.0445  -15.4449    8.1311 O   0  0  0  0  0  0  0  0  0  0  0  0
   14.6214  -12.3969    6.3820 O   0  0  0  0  0  0  0  0  0  0  0  0
   17.5016  -13.3786    4.1715 O   0  0  0  0  0  0  0  0  0  0  0  0
   16.5812  -13.1741    8.2955 O   0  0  0  0  0  0  0  0  0  0  0  0
   11.6870  -17.0124   12.9378 O   0  0  0  0  0  0  0  0  0  0  0  0
   11.3490  -17.7771    9.4977 O   0  0  0  0  0  0  0  0  0  0  0  0
   18.7072  -14.3610    8.5371 O   0  0  0  0  0  0  0  0  0  0  0  0
   10.4689  -11.6380    5.7075 O   0  0  0  0  0  0  0  0  0  0  0  0
  1 36  1  6  0  0  0
  2 36  1  6  0  0  0
  2  3  1  0  0  0  0
  3 37  1  6  0  0  0
  3  4  1  0  0  0  0
  4 38  1  1  0  0  0
  5 37  1  6  0  0  0
  5  6  1  0  0  0  0
  6  7  1  0  0  0  0
  6 39  1  1  0  0  0
  7 42  1  1  0  0  0
  8  9  1  6  0  0  0
  8  7  1  0  0  0  0
 10 42  1  6  0  0  0
 10 11  1  0  0  0  0
 11 31  1  6  0  0  0
 11 13  1  0  0  0  0
 12 30  1  6  0  0  0
 12  1  1  0  0  0  0
 14 13  1  0  0  0  0
 15 16  1  6  0  0  0
 15 14  1  0  0  0  0
 17 19  1  6  0  0  0
 17 28  1  0  0  0  0
 18 34  1  0  0  0  0
 19 32  1  0  0  0  0
 20 18  1  6  0  0  0
 20 17  1  0  0  0  0
 20 43  1  0  0  0  0
 21 12  1  0  0  0  0
 22 21  1  0  0  0  0
 22 23  1  0  0  0  0
 23 24  1  1  0  0  0
 23 46  1  0  0  0  0
 24 33  1  0  0  0  0
 25 34  1  1  0  0  0
 25  4  1  0  0  0  0
 26 25  1  0  0  0  0
 27 35  1  6  0  0  0
 27 26  1  0  0  0  0
 27  2  1  0  0  0  0
 29 16  1  0  0  0  0
 40  8  1  0  0  0  0
 40  5  1  0  0  0  0
 41  9  1  0  0  0  0
 44 18  2  0  0  0  0
 45 15  1  0  0  0  0
 45 10  1  0  0  0  0
 46  1  1  0  0  0  0
M  END
>  <CHROM.1>
-156.05521897,-72.21305984,-171.42014098,116.95393789,141.71709700,-57.25227881
70.32748643,-55.76607781,-175.00085342,72.93353609,75.26314341,61.09598568
-56.20506039,13.30007747,-14.33530276,7.68392500,2.74325656,0.11900375,2.25496934

>  <Name>
lig.pdb

>  <RI>
0

>  <Rbt.Current_Directory>
/home/afrankz/demos/rdock_decoys_rna/rnas/3wru

>  <Rbt.Executable>
rbdock ($Id: //depot/dev/client3/rdock/2013.1/src/exe/rbdock.cxx#4 $)

>  <Rbt.Library>
libRbt.so (2013.1, Build901 2013/11/27)

>  <Rbt.Parameter_File>
/export/apps/rDock/src/rDock_2013.1_src/data/scripts/dock_solv.prm

>  <Rbt.Receptor>
prm/pocket_docking_3.prm

>  <SCORE>
6.75007

>  <SCORE.INTER>
3.31435

>  <SCORE.INTER.CONST>
1

>  <SCORE.INTER.POLAR>
0

>  <SCORE.INTER.ROT>
13

>  <SCORE.INTER.SOLV>
20.9823

>  <SCORE.INTER.VDW>
-17.0512

>  <SCORE.INTER.norm>
0.0720511

>  <SCORE.INTRA>
3.42574

>  <SCORE.INTRA.DIHEDRAL>
-1.40523

>  <SCORE.INTRA.DIHEDRAL.0>
19.7146

>  <SCORE.INTRA.POLAR>
0

>  <SCORE.INTRA.POLAR.0>
0

>  <SCORE.INTRA.REPUL>
0.00841565

>  <SCORE.INTRA.REPUL.0>
0

>  <SCORE.INTRA.SOLV>
4.71641

>  <SCORE.INTRA.SOLV.lig_0>
-116.697

>  <SCORE.INTRA.VDW>
1.72807

>  <SCORE.INTRA.VDW.0>
-7.06424

>  <SCORE.INTRA.norm>
0.0744726

>  <SCORE.RESTR>
0.00997922

>  <SCORE.RESTR.CAVITY>
0.00997922

>  <SCORE.RESTR.norm>
0.000216939

>  <SCORE.SYSTEM>
0

>  <SCORE.SYSTEM.CONST>
0

>  <SCORE.SYSTEM.DIHEDRAL>
0

>  <SCORE.SYSTEM.SOLV>
0

>  <SCORE.SYSTEM.norm>
0

>  <SCORE.heavy>
46

>  <SCORE.norm>
0.146741

>  <RMSD>
8.412

$$$$
lig.pdb
 OpenBabel03061811583D
libRbt.so/2013.1/901 2013/11/27
 46 49  0  0  0  0  0  0  0  0999 V2000
    9.1308  -12.5747    4.3373 C   0  0  1  0  0  0  0  0  0  0  0  0
   10.1346  -13.9517    6.2092 C   0  0  1  0  0  0  0  0  0  0  0  0
   11.4036  -13.8955    7.1127 C   0  0  1  0  0  0  0  0  0  0  0  0
   11.4696  -15.2400    8.0021 C   0  0  2  0  0  0  0  0  0  0  0  0
   13.7515  -13.2327    6.4156 C   0  0  2  0  0  0  0  0  0  0  0  0
   13.6401  -11.8270    7.0717 C   0  0  1  0  0  0  0  0  0  0  0  0
   14.9940  -11.8011    7.7389 C   0  0  1  0  0  0  0  0  0  0  0  0
   15.1296  -13.2019    8.4162 C   0  0  1  0  0  0  0  0  0  0  0  0
   14.4368  -13.3842    9.8121 C   0  0  0  0  0  0  0  0  0  0  0  0
   17.3471  -11.3701    7.1382 C   0  0  1  0  0  0  0  0  0  0  0  0
   18.3163  -10.9601    6.0698 C   0  0  1  0  0  0  0  0  0  0  0  0
    9.4848  -13.5267    3.1703 C   0  0  1  0  0  0  0  0  0  0  0  0
   19.7370  -10.8045    6.7193 C   0  0  0  0  0  0  0  0  0  0  0  0
   20.2555  -11.9983    7.3231 C   0  0  0  0  0  0  0  0  0  0  0  0
   19.3621  -12.4060    8.3865 C   0  0  2  0  0  0  0  0  0  0  0  0
   19.8775  -13.7253    9.0854 C   0  0  0  0  0  0  0  0  0  0  0  0
    9.4167  -17.9204   12.2422 C   0  0  2  0  0  0  0  0  0  0  0  0
   10.7924  -16.3688   11.1229 C   0  0  0  0  0  0  0  0  0  0  0  0
    9.1502  -19.2539   12.4890 C   0  0  0  0  0  0  0  0  0  0  0  0
   10.7103  -17.7978   11.8540 C   0  0  1  0  0  0  0  0  0  0  0  0
   10.9015  -13.1542    2.5364 C   0  0  0  0  0  0  0  0  0  0  0  0
   10.8411  -11.6326    2.0332 C   0  0  0  0  0  0  0  0  0  0  0  0
   10.5019  -10.7106    3.2944 C   0  0  1  0  0  0  0  0  0  0  0  0
   10.4096   -9.2286    2.9114 C   0  0  0  0  0  0  0  0  0  0  0  0
   10.1858  -15.2737    8.9410 C   0  0  1  0  0  0  0  0  0  0  0  0
    8.9059  -15.3555    7.9505 C   0  0  0  0  0  0  0  0  0  0  0  0
    8.8385  -14.0623    7.0500 C   0  0  2  0  0  0  0  0  0  0  0  0
    9.1003  -17.1394   13.4167 F   0  0  0  0  0  0  0  0  0  0  0  0
   21.2910  -13.5698    9.7164 N   0  0  0  0  0  0  0  0  0  0  0  0
    9.4481  -14.9431    3.6917 N   0  0  0  0  0  0  0  0  0  0  0  0
   18.4765  -11.9025    5.0501 N   0  0  0  0  0  0  0  0  0  0  0  0
    9.1776  -20.3862   11.6414 N   0  0  0  0  0  0  0  0  0  0  0  0
   10.3665   -8.4096    4.0596 N   0  0  0  0  0  0  0  0  0  0  0  0
   10.2144  -16.4836    9.7822 N   0  0  0  0  0  0  0  0  0  0  0  0
    7.6809  -14.1288    6.1308 N   0  0  0  0  0  0  0  0  0  0  0  0
   10.0207  -12.7626    5.4382 O   0  0  0  0  0  0  0  0  0  0  0  0
   12.5847  -13.7894    6.1926 O   0  0  0  0  0  0  0  0  0  0  0  0
   12.5964  -15.1660    8.7900 O   0  0  0  0  0  0  0  0  0  0  0  0
   13.4854  -10.8815    6.0571 O   0  0  0  0  0  0  0  0  0  0  0  0
   14.6523  -13.9809    7.3066 O   0  0  0  0  0  0  0  0  0  0  0  0
   15.0856  -12.4863   10.7346 O   0  0  0  0  0  0  0  0  0  0  0  0
   16.0646  -11.5884    6.6840 O   0  0  0  0  0  0  0  0  0  0  0  0
   11.6381  -17.8317   12.9605 O   0  0  0  0  0  0  0  0  0  0  0  0
   11.2605  -15.3390   11.6357 O   0  0  0  0  0  0  0  0  0  0  0  0
   17.9626  -12.5989    7.8517 O   0  0  0  0  0  0  0  0  0  0  0  0
    9.1760  -11.1378    3.9023 O   0  0  0  0  0  0  0  0  0  0  0  0
  1 36  1  1  0  0  0
  2 36  1  1  0  0  0
  2  3  1  0  0  0  0
  3 37  1  6  0  0  0
  3  4  1  0  0  0  0
  4 38  1  1  0  0  0
  5 37  1  1  0  0  0
  5  6  1  0  0  0  0
  6  7  1  0  0  0  0
  6 39  1  6  0  0  0
  7 42  1  6  0  0  0
  8  9  1  1  0  0  0
  8  7  1  0  0  0  0
 10 42  1  6  0  0  0
 10 11  1  0  0  0  0
 11 31  1  6  0  0  0
 11 13  1  0  0  0  0
 12 30  1  1  0  0  0
 12  1  1  0  0  0  0
 14 13  1  0  0  0  0
 15 16  1  6  0  0  0
 15 14  1  0  0  0  0
 17 19  1  1  0  0  0
 17 28  1  0  0  0  0
 18 34  1  0  0  0  0
 19 32  1  0  0  0  0
 20 18  1  1  0  0  0
 20 17  1  0  0  0  0
 20 43  1  0  0  0  0
 21 12  1  0  0  0  0
 22 21  1  0  0  0  0
 22 23  1  0  0  0  0
 23 24  1  6  0  0  0
 23 46  1  0  0  0  0
 24 33  1  0  0  0  0
 25 34  1  1  0  0  0
 25  4  1  0  0  0  0
 26 25  1  0  0  0  0
 27 35  1  6  0  0  0
 27 26  1  0  0  0  0
 27  2  1  0  0  0  0
 29 16  1  0  0  0  0
 40  8  1  0  0  0  0
 40  5  1  0  0  0  0
 41  9  1  0  0  0  0
 44 18  2  0  0  0  0
 45 15  1  0  0  0  0
 45 10  1  0  0  0  0
 46  1  1  0  0  0  0
M  END
>  <CHROM.1>
-64.26504539,167.85296217,151.69140354,-46.27912311,172.04206701,-63.74031178
-171.10223785,59.79946305,-62.22718839,-76.94466051,161.17107968,-168.72990672
94.29973177,12.80826482,-13.69136261,7.58719616,2.51806447,0.24929399,2.20240862

>  <Name>
lig.pdb

>  <RI>
0

>  <Rbt.Current_Directory>
/home/afrankz/demos/rdock_decoys_rna/rnas/3wru

>  <Rbt.Executable>
rbdock ($Id: //depot/dev/client3/rdock/2013.1/src/exe/rbdock.cxx#4 $)

>  <Rbt.Library>
libRbt.so (2013.1, Build901 2013/11/27)

>  <Rbt.Parameter_File>
/export/apps/rDock/src/rDock_2013.1_src/data/scripts/dock_solv.prm

>  <Rbt.Receptor>
prm/pocket_docking_3.prm

>  <SCORE>
-5.64569

>  <SCORE.INTER>
-3.08837

>  <SCORE.INTER.CONST>
1

>  <SCORE.INTER.POLAR>
0

>  <SCORE.INTER.ROT>
13

>  <SCORE.INTER.SOLV>
32.6918

>  <SCORE.INTER.VDW>
-25.2228

>  <SCORE.INTER.norm>
-0.0671384

>  <SCORE.INTRA>
-2.55733

>  <SCORE.INTRA.DIHEDRAL>
-10.3911

>  <SCORE.INTRA.DIHEDRAL.0>
19.7146

>  <SCORE.INTRA.POLAR>
0

>  <SCORE.INTRA.POLAR.0>
0

>  <SCORE.INTRA.REPUL>
0

>  <SCORE.INTRA.REPUL.0>
0

>  <SCORE.INTRA.SOLV>
2.25922

>  <SCORE.INTRA.SOLV.lig_0>
-116.697

>  <SCORE.INTRA.VDW>
1.50861

>  <SCORE.INTRA.VDW.0>
-7.06424

>  <SCORE.INTRA.norm>
-0.0555941

>  <SCORE.RESTR>
0

>  <SCORE.RESTR.CAVITY>
0

>  <SCORE.RESTR.norm>
0

>  <SCORE.SYSTEM>
0

>  <SCORE.SYSTEM.CONST>
0

>  <SCORE.SYSTEM.DIHEDRAL>
0

>  <SCORE.SYSTEM.SOLV>
0

>  <SCORE.SYSTEM.norm>
0

>  <SCORE.heavy>
46

>  <SCORE.norm>
-0.122732

>  <RMSD>
8.435

$$$$
lig.pdb
 OpenBabel03061811583D
libRbt.so/2013.1/901 2013/11/27
 46 49  0  0  0  0  0  0  0  0999 V2000
   10.9172  -16.5092    5.8204 C   0  0  1  0  0  0  0  0  0  0  0  0
   10.9006  -14.7693    3.9818 C   0  0  1  0  0  0  0  0  0  0  0  0
   10.4722  -13.5788    4.8923 C   0  0  1  0  0  0  0  0  0  0  0  0
    9.8058  -12.4332    3.9724 C   0  0  2  0  0  0  0  0  0  0  0  0
    9.0956  -13.6071    7.0236 C   0  0  2  0  0  0  0  0  0  0  0  0
    7.7650  -14.2194    7.5461 C   0  0  1  0  0  0  0  0  0  0  0  0
    7.9665  -13.9325    9.0144 C   0  0  1  0  0  0  0  0  0  0  0  0
    9.4380  -14.3674    9.3054 C   0  0  1  0  0  0  0  0  0  0  0  0
    9.6881  -15.8950    9.5619 C   0  0  0  0  0  0  0  0  0  0  0  0
    7.7798  -12.0336   10.5774 C   0  0  1  0  0  0  0  0  0  0  0  0
    7.6690  -10.5486   10.7544 C   0  0  1  0  0  0  0  0  0  0  0  0
   11.9378  -17.4428    6.5133 C   0  0  1  0  0  0  0  0  0  0  0  0
    7.7556  -10.2219   12.2874 C   0  0  0  0  0  0  0  0  0  0  0  0
    8.9759  -10.6319   12.9209 C   0  0  0  0  0  0  0  0  0  0  0  0
    9.1006  -12.0690   12.8013 C   0  0  2  0  0  0  0  0  0  0  0  0
   10.4347  -12.5803   13.4747 C   0  0  0  0  0  0  0  0  0  0  0  0
   10.4936   -8.6699    0.3689 C   0  0  2  0  0  0  0  0  0  0  0  0
   10.4276   -9.4730    2.5833 C   0  0  0  0  0  0  0  0  0  0  0  0
    9.8214   -8.0956   -0.6934 C   0  0  0  0  0  0  0  0  0  0  0  0
    9.7595   -8.4960    1.4960 C   0  0  1  0  0  0  0  0  0  0  0  0
   12.4088  -18.6080    5.5292 C   0  0  0  0  0  0  0  0  0  0  0  0
   11.1104  -19.4268    5.0644 C   0  0  0  0  0  0  0  0  0  0  0  0
   10.1206  -18.4059    4.3337 C   0  0  1  0  0  0  0  0  0  0  0  0
    8.8354  -19.0952    3.8599 C   0  0  0  0  0  0  0  0  0  0  0  0
   10.9115  -11.9135    2.9535 C   0  0  1  0  0  0  0  0  0  0  0  0
   11.2979  -13.1827    2.0229 C   0  0  0  0  0  0  0  0  0  0  0  0
   11.9254  -14.3278    2.9077 C   0  0  2  0  0  0  0  0  0  0  0  0
   11.8205   -8.1043    0.4632 F   0  0  0  0  0  0  0  0  0  0  0  0
   10.6150  -14.1226   13.3785 N   0  0  0  0  0  0  0  0  0  0  0  0
   13.0947  -16.6002    6.9940 N   0  0  0  0  0  0  0  0  0  0  0  0
    8.7060   -9.8226   10.1618 N   0  0  0  0  0  0  0  0  0  0  0  0
    9.4451   -6.7560   -0.9488 N   0  0  0  0  0  0  0  0  0  0  0  0
    8.0836  -18.2455    3.0209 N   0  0  0  0  0  0  0  0  0  0  0  0
   10.3453  -10.8531    2.1007 N   0  0  0  0  0  0  0  0  0  0  0  0
   12.2718  -15.4991    2.0725 N   0  0  0  0  0  0  0  0  0  0  0  0
   11.5299  -15.7839    4.7538 O   0  0  0  0  0  0  0  0  0  0  0  0
    9.4875  -14.1260    5.8842 O   0  0  0  0  0  0  0  0  0  0  0  0
    9.4372  -11.3948    4.7983 O   0  0  0  0  0  0  0  0  0  0  0  0
    6.7047  -13.5202    6.9680 O   0  0  0  0  0  0  0  0  0  0  0  0
   10.0336  -13.7599    8.1470 O   0  0  0  0  0  0  0  0  0  0  0  0
    8.8094  -16.3010   10.6302 O   0  0  0  0  0  0  0  0  0  0  0  0
    7.7664  -12.4485    9.2635 O   0  0  0  0  0  0  0  0  0  0  0  0
    9.7853   -7.1364    1.9830 O   0  0  0  0  0  0  0  0  0  0  0  0
   10.9409   -9.0966    3.6499 O   0  0  0  0  0  0  0  0  0  0  0  0
    9.0451  -12.4820   11.3494 O   0  0  0  0  0  0  0  0  0  0  0  0
    9.7456  -17.2822    5.2860 O   0  0  0  0  0  0  0  0  0  0  0  0
  1 36  1  6  0  0  0
  2 36  1  1  0  0  0
  2  3  1  0  0  0  0
  3 37  1  1  0  0  0
  3  4  1  0  0  0  0
  4 38  1  1  0  0  0
  5 37  1  6  0  0  0
  5  6  1  0  0  0  0
  6  7  1  0  0  0  0
  6 39  1  6  0  0  0
  7 42  1  6  0  0  0
  8  9  1  6  0  0  0
  8  7  1  0  0  0  0
 10 42  1  6  0  0  0
 10 11  1  0  0  0  0
 11 31  1  6  0  0  0
 11 13  1  0  0  0  0
 12 30  1  6  0  0  0
 12  1  1  0  0  0  0
 14 13  1  0  0  0  0
 15 16  1  6  0  0  0
 15 14  1  0  0  0  0
 17 19  1  6  0  0  0
 17 28  1  0  0  0  0
 18 34  1  0  0  0  0
 19 32  1  0  0  0  0
 20 18  1  1  0  0  0
 20 17  1  0  0  0  0
 20 43  1  0  0  0  0
 21 12  1  0  0  0  0
 22 21  1  0  0  0  0
 22 23  1  0  0  0  0
 23 24  1  1  0  0  0
 23 46  1  0  0  0  0
 24 33  1  0  0  0  0
 25 34  1  6  0  0  0
 25  4  1  0  0  0  0
 26 25  1  0  0  0  0
 27 35  1  6  0  0  0
 27 26  1  0  0  0  0
 27  2  1  0  0  0  0
 29 16  1  0  0  0  0
 40  8  1  0  0  0  0
 40  5  1  0  0  0  0
 41  9  1  0  0  0  0
 44 18  2  0  0  0  0
 45 15  1  0  0  0  0
 45 10  1  0  0  0  0
 46  1  1  0  0  0  0
M  END
>  <CHROM.1>
-174.92717951,61.20621749,162.22715668,161.80383788,173.58892666,-54.66847109
176.12846394,179.77961417,62.43189400,-60.53481142,167.10046967,-169.77548432
88.49202849,9.87966298,-13.17694460,6.08915068,-2.13857888,1.33735455,-0.61314328

>  <Name>
lig.pdb

>  <RI>
0

>  <Rbt.Current_Directory>
/home/afrankz/demos/rdock_decoys_rna/rnas/3wru

>  <Rbt.Executable>
rbdock ($Id: //depot/dev/client3/rdock/2013.1/src/exe/rbdock.cxx#4 $)

>  <Rbt.Library>
libRbt.so (2013.1, Build901 2013/11/27)

>  <Rbt.Parameter_File>
/export/apps/rDock/src/rDock_2013.1_src/data/scripts/dock_solv.prm

>  <Rbt.Receptor>
prm/pocket_docking_6.prm

>  <SCORE>
-10.1442

>  <SCORE.INTER>
-3.43063

>  <SCORE.INTER.CONST>
1

>  <SCORE.INTER.POLAR>
0

>  <SCORE.INTER.ROT>
13

>  <SCORE.INTER.SOLV>
20.3998

>  <SCORE.INTER.VDW>
-21.3537

>  <SCORE.INTER.norm>
-0.074579

>  <SCORE.INTRA>
-6.71359

>  <SCORE.INTRA.DIHEDRAL>
-13.7286

>  <SCORE.INTRA.DIHEDRAL.0>
19.7146

>  <SCORE.INTRA.POLAR>
0

>  <SCORE.INTRA.POLAR.0>
0

>  <SCORE.INTRA.REPUL>
0

>  <SCORE.INTRA.REPUL.0>
0

>  <SCORE.INTRA.SOLV>
-1.31372

>  <SCORE.INTRA.SOLV.lig_0>
-116.697

>  <SCORE.INTRA.VDW>
0.807596

>  <SCORE.INTRA.VDW.0>
-7.06424

>  <SCORE.INTRA.norm>
-0.145948

>  <SCORE.RESTR>
0

>  <SCORE.RESTR.CAVITY>
0

>  <SCORE.RESTR.norm>
0

>  <SCORE.SYSTEM>
0

>  <SCORE.SYSTEM.CONST>
0

>  <SCORE.SYSTEM.DIHEDRAL>
0

>  <SCORE.SYSTEM.SOLV>
0

>  <SCORE.SYSTEM.norm>
0

>  <SCORE.heavy>
46

>  <SCORE.norm>
-0.220527

>  <RMSD>
8.465

$$$$
lig.pdb
 OpenBabel03061811583D
libRbt.so/2013.1/901 2013/11/27
 46 49  0  0  0  0  0  0  0  0999 V2000
    9.0130  -13.0365    4.4918 C   0  0  1  0  0  0  0  0  0  0  0  0
    9.2161  -13.6445    6.9406 C   0  0  1  0  0  0  0  0  0  0  0  0
    9.6685  -12.2744    7.5306 C   0  0  1  0  0  0  0  0  0  0  0  0
    9.1685  -12.1760    9.0613 C   0  0  2  0  0  0  0  0  0  0  0  0
   12.0039  -13.2380    7.2950 C   0  0  2  0  0  0  0  0  0  0  0  0
   13.4933  -12.8066    7.4145 C   0  0  1  0  0  0  0  0  0  0  0  0
   14.0614  -14.1375    7.8446 C   0  0  1  0  0  0  0  0  0  0  0  0
   13.0859  -14.6457    8.9534 C   0  0  1  0  0  0  0  0  0  0  0  0
   13.3001  -14.0781   10.4003 C   0  0  0  0  0  0  0  0  0  0  0  0
   14.3811  -16.3978    6.9108 C   0  0  1  0  0  0  0  0  0  0  0  0
   15.7997  -16.6389    7.3328 C   0  0  1  0  0  0  0  0  0  0  0  0
    9.6088  -13.4917    3.1386 C   0  0  1  0  0  0  0  0  0  0  0  0
   16.0038  -18.1823    7.5345 C   0  0  0  0  0  0  0  0  0  0  0  0
   15.7720  -18.9770    6.3627 C   0  0  0  0  0  0  0  0  0  0  0  0
   14.3979  -18.7974    5.9448 C   0  0  2  0  0  0  0  0  0  0  0  0
   14.0842  -19.6438    4.6486 C   0  0  0  0  0  0  0  0  0  0  0  0
    5.0990  -11.7236   12.3883 C   0  0  2  0  0  0  0  0  0  0  0  0
    6.7148  -10.7948   10.9463 C   0  0  0  0  0  0  0  0  0  0  0  0
    4.9433  -12.3784   13.5955 C   0  0  0  0  0  0  0  0  0  0  0  0
    6.1944  -10.9273   12.4612 C   0  0  1  0  0  0  0  0  0  0  0  0
   11.1473  -13.0825    3.0232 C   0  0  0  0  0  0  0  0  0  0  0  0
   11.2564  -11.4909    3.1881 C   0  0  0  0  0  0  0  0  0  0  0  0
   10.6512  -11.1018    4.6158 C   0  0  1  0  0  0  0  0  0  0  0  0
   10.6993   -9.5894    4.8645 C   0  0  0  0  0  0  0  0  0  0  0  0
    7.5784  -12.2237    9.0648 C   0  0  1  0  0  0  0  0  0  0  0  0
    7.1703  -13.6731    8.4659 C   0  0  0  0  0  0  0  0  0  0  0  0
    7.6758  -13.8023    6.9774 C   0  0  2  0  0  0  0  0  0  0  0  0
    3.8895  -10.9974   12.0734 F   0  0  0  0  0  0  0  0  0  0  0  0
   14.0950  -21.1783    4.9040 N   0  0  0  0  0  0  0  0  0  0  0  0
    9.4043  -14.9823    3.0127 N   0  0  0  0  0  0  0  0  0  0  0  0
   16.7519  -16.2604    6.3823 N   0  0  0  0  0  0  0  0  0  0  0  0
    4.9334  -11.8982   14.9261 N   0  0  0  0  0  0  0  0  0  0  0  0
   12.0251   -9.1090    4.8153 N   0  0  0  0  0  0  0  0  0  0  0  0
    7.0791  -12.1227   10.4479 N   0  0  0  0  0  0  0  0  0  0  0  0
    7.3210  -15.1267    6.4212 N   0  0  0  0  0  0  0  0  0  0  0  0
    9.6049  -13.7510    5.5772 O   0  0  0  0  0  0  0  0  0  0  0  0
   11.1664  -12.2388    7.4407 O   0  0  0  0  0  0  0  0  0  0  0  0
    9.5792  -10.9594    9.5585 O   0  0  0  0  0  0  0  0  0  0  0  0
   13.9273  -12.3795    6.1589 O   0  0  0  0  0  0  0  0  0  0  0  0
   11.8619  -14.3327    8.2680 O   0  0  0  0  0  0  0  0  0  0  0  0
   12.2902  -14.6639   11.2459 O   0  0  0  0  0  0  0  0  0  0  0  0
   14.0851  -15.0770    6.6526 O   0  0  0  0  0  0  0  0  0  0  0  0
    5.9052   -9.6157   12.9925 O   0  0  0  0  0  0  0  0  0  0  0  0
    6.7758   -9.7291   10.3113 O   0  0  0  0  0  0  0  0  0  0  0  0
   14.1079  -17.3340    5.7079 O   0  0  0  0  0  0  0  0  0  0  0  0
    9.2054  -11.5622    4.7045 O   0  0  0  0  0  0  0  0  0  0  0  0
  1 36  1  1  0  0  0
  2 36  1  6  0  0  0
  2  3  1  0  0  0  0
  3 37  1  1  0  0  0
  3  4  1  0  0  0  0
  4 38  1  6  0  0  0
  5 37  1  1  0  0  0
  5  6  1  0  0  0  0
  6  7  1  0  0  0  0
  6 39  1  6  0  0  0
  7 42  1  6  0  0  0
  8  9  1  1  0  0  0
  8  7  1  0  0  0  0
 10 42  1  6  0  0  0
 10 11  1  0  0  0  0
 11 31  1  6  0  0  0
 11 13  1  0  0  0  0
 12 30  1  1  0  0  0
 12  1  1  0  0  0  0
 14 13  1  0  0  0  0
 15 16  1  6  0  0  0
 15 14  1  0  0  0  0
 17 19  1  1  0  0  0
 17 28  1  0  0  0  0
 18 34  1  0  0  0  0
 19 32  1  0  0  0  0
 20 18  1  6  0  0  0
 20 17  1  0  0  0  0
 20 43  1  0  0  0  0
 21 12  1  0  0  0  0
 22 21  1  0  0  0  0
 22 23  1  0  0  0  0
 23 24  1  6  0  0  0
 23 46  1  0  0  0  0
 24 33  1  0  0  0  0
 25 34  1  1  0  0  0
 25  4  1  0  0  0  0
 26 25  1  0  0  0  0
 27 35  1  1  0  0  0
 27 26  1  0  0  0  0
 27  2  1  0  0  0  0
 29 16  1  0  0  0  0
 40  8  1  0  0  0  0
 40  5  1  0  0  0  0
 41  9  1  0  0  0  0
 44 18  2  0  0  0  0
 45 15  1  0  0  0  0
 45 10  1  0  0  0  0
 46  1  1  0  0  0  0
M  END
>  <CHROM.1>
-175.18921818,-72.19011550,-19.02986855,-173.14960565,-170.31176187,179.31608056
-69.07244890,68.31269772,49.88508668,-61.57559750,153.08377976,-59.59823067
94.44113678,10.53520420,-13.57927191,7.71327477,0.27200089,0.72594314,-1.17890976

>  <Name>
lig.pdb

>  <RI>
0

>  <Rbt.Current_Directory>
/home/afrankz/demos/rdock_decoys_rna/rnas/3wru

>  <Rbt.Executable>
rbdock ($Id: //depot/dev/client3/rdock/2013.1/src/exe/rbdock.cxx#4 $)

>  <Rbt.Library>
libRbt.so (2013.1, Build901 2013/11/27)

>  <Rbt.Parameter_File>
/export/apps/rDock/src/rDock_2013.1_src/data/scripts/dock_solv.prm

>  <Rbt.Receptor>
prm/pocket_docking_8.prm

>  <SCORE>
-2.10555

>  <SCORE.INTER>
0.44575

>  <SCORE.INTER.CONST>
1

>  <SCORE.INTER.POLAR>
0

>  <SCORE.INTER.ROT>
13

>  <SCORE.INTER.SOLV>
18.882

>  <SCORE.INTER.VDW>
-18.2635

>  <SCORE.INTER.norm>
0.00969022

>  <SCORE.INTRA>
-2.5513

>  <SCORE.INTRA.DIHEDRAL>
-7.93493

>  <SCORE.INTRA.DIHEDRAL.0>
19.7146

>  <SCORE.INTRA.POLAR>
0

>  <SCORE.INTRA.POLAR.0>
0

>  <SCORE.INTRA.REPUL>
0

>  <SCORE.INTRA.REPUL.0>
0

>  <SCORE.INTRA.SOLV>
-0.672992

>  <SCORE.INTRA.SOLV.lig_0>
-116.697

>  <SCORE.INTRA.VDW>
1.75266

>  <SCORE.INTRA.VDW.0>
-7.06424

>  <SCORE.INTRA.norm>
-0.055463

>  <SCORE.RESTR>
0

>  <SCORE.RESTR.CAVITY>
0

>  <SCORE.RESTR.norm>
0

>  <SCORE.SYSTEM>
0

>  <SCORE.SYSTEM.CONST>
0

>  <SCORE.SYSTEM.DIHEDRAL>
0

>  <SCORE.SYSTEM.SOLV>
0

>  <SCORE.SYSTEM.norm>
0

>  <SCORE.heavy>
46

>  <SCORE.norm>
-0.0457728

>  <RMSD>
8.466

$$$$
lig.pdb
 OpenBabel03061811583D
libRbt.so/2013.1/901 2013/11/27
 46 49  0  0  0  0  0  0  0  0999 V2000
    8.8242   -5.3007    0.8586 C   0  0  1  0  0  0  0  0  0  0  0  0
   10.3172   -5.8029    2.8402 C   0  0  1  0  0  0  0  0  0  0  0  0
   11.5507   -6.6700    2.4447 C   0  0  1  0  0  0  0  0  0  0  0  0
   12.7872   -6.2860    3.4073 C   0  0  2  0  0  0  0  0  0  0  0  0
   11.0560   -8.8022    3.7280 C   0  0  2  0  0  0  0  0  0  0  0  0
   10.8356  -10.3208    3.4747 C   0  0  1  0  0  0  0  0  0  0  0  0
   11.4132  -10.8338    4.7717 C   0  0  1  0  0  0  0  0  0  0  0  0
   12.7482  -10.0437    4.9518 C   0  0  1  0  0  0  0  0  0  0  0  0
   14.0001  -10.5807    4.1732 C   0  0  0  0  0  0  0  0  0  0  0  0
   10.5755  -11.2968    7.0450 C   0  0  1  0  0  0  0  0  0  0  0  0
   10.2740  -12.7543    6.8615 C   0  0  1  0  0  0  0  0  0  0  0  0
    7.3035   -5.0177    0.8837 C   0  0  1  0  0  0  0  0  0  0  0  0
   10.4134  -13.4705    8.2514 C   0  0  0  0  0  0  0  0  0  0  0  0
    9.5288  -12.9822    9.2701 C   0  0  0  0  0  0  0  0  0  0  0  0
    9.8152  -11.5823    9.5009 C   0  0  2  0  0  0  0  0  0  0  0  0
    8.8630  -10.9842   10.6102 C   0  0  0  0  0  0  0  0  0  0  0  0
   15.0961   -2.4695    6.8626 C   0  0  2  0  0  0  0  0  0  0  0  0
   13.9947   -3.9345    5.3816 C   0  0  0  0  0  0  0  0  0  0  0  0
   14.3432   -2.8486    7.9578 C   0  0  0  0  0  0  0  0  0  0  0  0
   15.3744   -3.5705    6.1213 C   0  0  1  0  0  0  0  0  0  0  0  0
    6.4670   -6.3613    0.6769 C   0  0  0  0  0  0  0  0  0  0  0  0
    6.9031   -7.0130   -0.7221 C   0  0  0  0  0  0  0  0  0  0  0  0
    8.4741   -7.3033   -0.6610 C   0  0  1  0  0  0  0  0  0  0  0  0
    8.9931   -7.9198   -1.9656 C   0  0  0  0  0  0  0  0  0  0  0  0
   13.1484   -4.7566    3.1600 C   0  0  1  0  0  0  0  0  0  0  0  0
   11.8433   -3.9076    3.6092 C   0  0  0  0  0  0  0  0  0  0  0  0
   10.6131   -4.2892    2.6986 C   0  0  2  0  0  0  0  0  0  0  0  0
   16.2808   -1.7719    7.3093 F   0  0  0  0  0  0  0  0  0  0  0  0
    7.3832  -11.4382   10.4541 N   0  0  0  0  0  0  0  0  0  0  0  0
    6.9738   -4.3361    2.1899 N   0  0  0  0  0  0  0  0  0  0  0  0
    8.9690  -13.0198    6.4372 N   0  0  0  0  0  0  0  0  0  0  0  0
   13.5990   -2.0884    8.8904 N   0  0  0  0  0  0  0  0  0  0  0  0
    8.1164   -8.9194   -2.4383 N   0  0  0  0  0  0  0  0  0  0  0  0
   14.2856   -4.3680    4.0134 N   0  0  0  0  0  0  0  0  0  0  0  0
    9.4099   -3.5303    3.1058 N   0  0  0  0  0  0  0  0  0  0  0  0
    9.2168   -6.0853    1.9852 O   0  0  0  0  0  0  0  0  0  0  0  0
   11.1449   -8.1043    2.6207 O   0  0  0  0  0  0  0  0  0  0  0  0
   13.8622   -7.0634    3.0383 O   0  0  0  0  0  0  0  0  0  0  0  0
    9.4661  -10.5461    3.3308 O   0  0  0  0  0  0  0  0  0  0  0  0
   12.2325   -8.7463    4.6100 O   0  0  0  0  0  0  0  0  0  0  0  0
   15.0415   -9.5919    4.2991 O   0  0  0  0  0  0  0  0  0  0  0  0
   10.4395  -10.5432    5.8994 O   0  0  0  0  0  0  0  0  0  0  0  0
   16.4080   -3.3435    5.1382 O   0  0  0  0  0  0  0  0  0  0  0  0
   12.8720   -3.8676    5.9084 O   0  0  0  0  0  0  0  0  0  0  0  0
    9.6893  -10.8013    8.2141 O   0  0  0  0  0  0  0  0  0  0  0  0
    9.2269   -6.0083   -0.4036 O   0  0  0  0  0  0  0  0  0  0  0  0
  1 36  1  1  0  0  0
  2 36  1  6  0  0  0
  2  3  1  0  0  0  0
  3 37  1  1  0  0  0
  3  4  1  0  0  0  0
  4 38  1  6  0  0  0
  5 37  1  6  0  0  0
  5  6  1  0  0  0  0
  6  7  1  0  0  0  0
  6 39  1  1  0  0  0
  7 42  1  1  0  0  0
  8  9  1  6  0  0  0
  8  7  1  0  0  0  0
 10 42  1  6  0  0  0
 10 11  1  0  0  0  0
 11 31  1  1  0  0  0
 11 13  1  0  0  0  0
 12 30  1  1  0  0  0
 12  1  1  0  0  0  0
 14 13  1  0  0  0  0
 15 16  1  1  0  0  0
 15 14  1  0  0  0  0
 17 19  1  1  0  0  0
 17 28  1  0  0  0  0
 18 34  1  0  0  0  0
 19 32  1  0  0  0  0
 20 18  1  6  0  0  0
 20 17  1  0  0  0  0
 20 43  1  0  0  0  0
 21 12  1  0  0  0  0
 22 21  1  0  0  0  0
 22 23  1  0  0  0  0
 23 24  1  6  0  0  0
 23 46  1  0  0  0  0
 24 33  1  0  0  0  0
 25 34  1  1  0  0  0
 25  4  1  0  0  0  0
 26 25  1  0  0  0  0
 27 35  1  1  0  0  0
 27 26  1  0  0  0  0
 27  2  1  0  0  0  0
 29 16  1  0  0  0  0
 40  8  1  0  0  0  0
 40  5  1  0  0  0  0
 41  9  1  0  0  0  0
 44 18  2  0  0  0  0
 45 15  1  0  0  0  0
 45 10  1  0  0  0  0
 46  1  1  0  0  0  0
M  END
>  <CHROM.1>
-131.78983552,-99.11135778,-78.26980678,-170.17603963,159.51519001,170.51031840
-65.93116981,-43.05708992,-166.86973843,140.76985320,74.21829244,-43.42126761
-85.62667987,11.14197350,-7.39475487,4.38224403,1.06853523,-0.84465442,-0.79511131

>  <Name>
lig.pdb

>  <RI>
0

>  <Rbt.Current_Directory>
/home/afrankz/demos/rdock_decoys_rna/rnas/3wru

>  <Rbt.Executable>
rbdock ($Id: //depot/dev/client3/rdock/2013.1/src/exe/rbdock.cxx#4 $)

>  <Rbt.Library>
libRbt.so (2013.1, Build901 2013/11/27)

>  <Rbt.Parameter_File>
/export/apps/rDock/src/rDock_2013.1_src/data/scripts/dock_solv.prm

>  <Rbt.Receptor>
prm/blind_docking_20.prm

>  <SCORE>
27.1711

>  <SCORE.INTER>
10.9984

>  <SCORE.INTER.CONST>
1

>  <SCORE.INTER.POLAR>
0

>  <SCORE.INTER.ROT>
13

>  <SCORE.INTER.SOLV>
37.1017

>  <SCORE.INTER.VDW>
-17.3016

>  <SCORE.INTER.norm>
0.239096

>  <SCORE.INTRA>
12.8324

>  <SCORE.INTRA.DIHEDRAL>
2.17777

>  <SCORE.INTRA.DIHEDRAL.0>
19.7146

>  <SCORE.INTRA.POLAR>
0

>  <SCORE.INTRA.POLAR.0>
0

>  <SCORE.INTRA.REPUL>
0

>  <SCORE.INTRA.REPUL.0>
0

>  <SCORE.INTRA.SOLV>
3.27573

>  <SCORE.INTRA.SOLV.lig_0>
-116.697

>  <SCORE.INTRA.VDW>
10.1056

>  <SCORE.INTRA.VDW.0>
-7.06424

>  <SCORE.INTRA.norm>
0.278965

>  <SCORE.RESTR>
3.34035

>  <SCORE.RESTR.CAVITY>
3.34035

>  <SCORE.RESTR.norm>
0.0726164

>  <SCORE.SYSTEM>
0

>  <SCORE.SYSTEM.CONST>
0

>  <SCORE.SYSTEM.DIHEDRAL>
0

>  <SCORE.SYSTEM.SOLV>
0

>  <SCORE.SYSTEM.norm>
0

>  <SCORE.heavy>
46

>  <SCORE.norm>
0.590677

>  <RMSD>
8.518

$$$$
lig.pdb
 OpenBabel03061811583D
libRbt.so/2013.1/901 2013/11/27
 46 49  0  0  0  0  0  0  0  0999 V2000
   12.5567  -10.5931    4.1373 C   0  0  1  0  0  0  0  0  0  0  0  0
   11.4228  -12.0398    5.8778 C   0  0  1  0  0  0  0  0  0  0  0  0
   11.2660  -12.0032    7.4282 C   0  0  1  0  0  0  0  0  0  0  0  0
   10.6574  -13.4129    7.9235 C   0  0  2  0  0  0  0  0  0  0  0  0
   13.6985  -12.5337    7.9173 C   0  0  2  0  0  0  0  0  0  0  0  0
   14.8798  -12.0264    8.7924 C   0  0  1  0  0  0  0  0  0  0  0  0
   15.5812  -13.3497    8.9821 C   0  0  1  0  0  0  0  0  0  0  0  0
   14.4417  -14.3546    9.3436 C   0  0  1  0  0  0  0  0  0  0  0  0
   13.9691  -14.3821   10.8395 C   0  0  0  0  0  0  0  0  0  0  0  0
   17.5951  -14.1128    7.7798 C   0  0  1  0  0  0  0  0  0  0  0  0
   17.8180  -15.3995    8.5170 C   0  0  1  0  0  0  0  0  0  0  0  0
   13.7945   -9.6765    4.2830 C   0  0  1  0  0  0  0  0  0  0  0  0
   19.3627  -15.6689    8.5926 C   0  0  0  0  0  0  0  0  0  0  0  0
   20.1164  -14.6564    9.2748 C   0  0  0  0  0  0  0  0  0  0  0  0
   19.9539  -13.4029    8.5694 C   0  0  2  0  0  0  0  0  0  0  0  0
   20.7562  -12.2435    9.2814 C   0  0  0  0  0  0  0  0  0  0  0  0
    7.4066  -16.5883    9.4834 C   0  0  2  0  0  0  0  0  0  0  0  0
    7.1578  -14.9161    7.8418 C   0  0  0  0  0  0  0  0  0  0  0  0
    6.8061  -17.6233   10.1749 C   0  0  0  0  0  0  0  0  0  0  0  0
    6.7340  -16.3900    8.3225 C   0  0  1  0  0  0  0  0  0  0  0  0
   13.3656   -8.1957    4.6962 C   0  0  0  0  0  0  0  0  0  0  0  0
   12.3667   -7.6318    3.5752 C   0  0  0  0  0  0  0  0  0  0  0  0
   11.1043   -8.6102    3.5044 C   0  0  1  0  0  0  0  0  0  0  0  0
   10.0904   -8.1600    2.4457 C   0  0  0  0  0  0  0  0  0  0  0  0
    9.2138  -13.5814    7.2765 C   0  0  1  0  0  0  0  0  0  0  0  0
    9.4428  -13.6368    5.6733 C   0  0  0  0  0  0  0  0  0  0  0  0
   10.0652  -12.2772    5.1711 C   0  0  2  0  0  0  0  0  0  0  0  0
    8.8064  -16.8890    9.2839 F   0  0  0  0  0  0  0  0  0  0  0  0
   20.8580  -10.9527    8.4191 N   0  0  0  0  0  0  0  0  0  0  0  0
   14.7268  -10.3026    5.2920 N   0  0  0  0  0  0  0  0  0  0  0  0
   17.3797  -15.3823    9.8441 N   0  0  0  0  0  0  0  0  0  0  0  0
    7.0759  -18.1795   11.4473 N   0  0  0  0  0  0  0  0  0  0  0  0
    9.2599   -9.2303    2.0511 N   0  0  0  0  0  0  0  0  0  0  0  0
    8.6156  -14.8548    7.7158 N   0  0  0  0  0  0  0  0  0  0  0  0
   10.2918  -12.3179    3.7094 N   0  0  0  0  0  0  0  0  0  0  0  0
   11.9202  -10.7968    5.3993 O   0  0  0  0  0  0  0  0  0  0  0  0
   12.6356  -11.7688    7.9957 O   0  0  0  0  0  0  0  0  0  0  0  0
   10.5282  -13.3552    9.2931 O   0  0  0  0  0  0  0  0  0  0  0  0
   15.6072  -11.0961    8.0489 O   0  0  0  0  0  0  0  0  0  0  0  0
   13.5075  -13.9312    8.3367 O   0  0  0  0  0  0  0  0  0  0  0  0
   15.1127  -14.7296   11.6454 O   0  0  0  0  0  0  0  0  0  0  0  0
   16.2727  -13.7365    7.6873 O   0  0  0  0  0  0  0  0  0  0  0  0
    7.0753  -17.3517    7.3003 O   0  0  0  0  0  0  0  0  0  0  0  0
    6.3602  -13.9940    7.6046 O   0  0  0  0  0  0  0  0  0  0  0  0
   18.4898  -13.0476    8.4601 O   0  0  0  0  0  0  0  0  0  0  0  0
   11.5637  -10.0193    3.1675 O   0  0  0  0  0  0  0  0  0  0  0  0
  1 36  1  1  0  0  0
  2 36  1  6  0  0  0
  2  3  1  0  0  0  0
  3 37  1  1  0  0  0
  3  4  1  0  0  0  0
  4 38  1  1  0  0  0
  5 37  1  1  0  0  0
  5  6  1  0  0  0  0
  6  7  1  0  0  0  0
  6 39  1  6  0  0  0
  7 42  1  6  0  0  0
  8  9  1  1  0  0  0
  8  7  1  0  0  0  0
 10 42  1  1  0  0  0
 10 11  1  0  0  0  0
 11 31  1  1  0  0  0
 11 13  1  0  0  0  0
 12 30  1  1  0  0  0
 12  1  1  0  0  0  0
 14 13  1  0  0  0  0
 15 16  1  1  0  0  0
 15 14  1  0  0  0  0
 17 19  1  6  0  0  0
 17 28  1  0  0  0  0
 18 34  1  0  0  0  0
 19 32  1  0  0  0  0
 20 18  1  6  0  0  0
 20 17  1  0  0  0  0
 20 43  1  0  0  0  0
 21 12  1  0  0  0  0
 22 21  1  0  0  0  0
 22 23  1  0  0  0  0
 23 24  1  6  0  0  0
 23 46  1  0  0  0  0
 24 33  1  0  0  0  0
 25 34  1  1  0  0  0
 25  4  1  0  0  0  0
 26 25  1  0  0  0  0
 27 35  1  6  0  0  0
 27 26  1  0  0  0  0
 27  2  1  0  0  0  0
 29 16  1  0  0  0  0
 40  8  1  0  0  0  0
 40  5  1  0  0  0  0
 41  9  1  0  0  0  0
 44 18  2  0  0  0  0
 45 15  1  0  0  0  0
 45 10  1  0  0  0  0
 46  1  1  0  0  0  0
M  END
>  <CHROM.1>
-137.22203058,160.01339206,-63.38046224,-172.59234344,130.34217609,-59.74646295
67.08458609,168.23581596,-176.84062545,56.89152986,161.58681078,158.80800768
149.17472864,12.75750629,-13.05734262,7.38478327,3.11634447,0.17753216,2.41184493

>  <Name>
lig.pdb

>  <RI>
0

>  <Rbt.Current_Directory>
/home/afrankz/demos/rdock_decoys_rna/rnas/3wru

>  <Rbt.Executable>
rbdock ($Id: //depot/dev/client3/rdock/2013.1/src/exe/rbdock.cxx#4 $)

>  <Rbt.Library>
libRbt.so (2013.1, Build901 2013/11/27)

>  <Rbt.Parameter_File>
/export/apps/rDock/src/rDock_2013.1_src/data/scripts/dock_solv.prm

>  <Rbt.Receptor>
prm/pocket_docking_2.prm

>  <SCORE>
12.6857

>  <SCORE.INTER>
5.18557

>  <SCORE.INTER.CONST>
1

>  <SCORE.INTER.POLAR>
0

>  <SCORE.INTER.ROT>
13

>  <SCORE.INTER.SOLV>
28.6592

>  <SCORE.INTER.VDW>
-18.3627

>  <SCORE.INTER.norm>
0.11273

>  <SCORE.INTRA>
3.53526

>  <SCORE.INTRA.DIHEDRAL>
-0.33438

>  <SCORE.INTRA.DIHEDRAL.0>
19.7146

>  <SCORE.INTRA.POLAR>
0

>  <SCORE.INTRA.POLAR.0>
0

>  <SCORE.INTRA.REPUL>
0.0284882

>  <SCORE.INTRA.REPUL.0>
0

>  <SCORE.INTRA.SOLV>
5.10373

>  <SCORE.INTRA.SOLV.lig_0>
-116.697

>  <SCORE.INTRA.VDW>
1.00814

>  <SCORE.INTRA.VDW.0>
-7.06424

>  <SCORE.INTRA.norm>
0.0768534

>  <SCORE.RESTR>
3.96483

>  <SCORE.RESTR.CAVITY>
3.96483

>  <SCORE.RESTR.norm>
0.086192

>  <SCORE.SYSTEM>
0

>  <SCORE.SYSTEM.CONST>
0

>  <SCORE.SYSTEM.DIHEDRAL>
0

>  <SCORE.SYSTEM.SOLV>
0

>  <SCORE.SYSTEM.norm>
0

>  <SCORE.heavy>
46

>  <SCORE.norm>
0.275775

>  <RMSD>
8.530

$$$$
lig.pdb
 OpenBabel03061811583D
libRbt.so/2013.1/901 2013/11/27
 46 49  0  0  0  0  0  0  0  0999 V2000
   11.5775  -10.7374    4.2051 C   0  0  1  0  0  0  0  0  0  0  0  0
   10.7190  -11.9413    6.2597 C   0  0  1  0  0  0  0  0  0  0  0  0
   10.8153  -11.7456    7.8031 C   0  0  1  0  0  0  0  0  0  0  0  0
   10.2171  -13.0545    8.5323 C   0  0  2  0  0  0  0  0  0  0  0  0
   13.2715  -12.3736    7.9058 C   0  0  2  0  0  0  0  0  0  0  0  0
   14.6181  -11.8551    8.4858 C   0  0  1  0  0  0  0  0  0  0  0  0
   15.3028  -13.1907    8.6475 C   0  0  1  0  0  0  0  0  0  0  0  0
   14.2281  -14.1101    9.3101 C   0  0  1  0  0  0  0  0  0  0  0  0
   14.0620  -13.9984   10.8662 C   0  0  0  0  0  0  0  0  0  0  0  0
   16.8562  -13.1749    6.7317 C   0  0  1  0  0  0  0  0  0  0  0  0
   17.1928  -13.7082    5.3711 C   0  0  1  0  0  0  0  0  0  0  0  0
   12.7743  -11.6763    3.9232 C   0  0  1  0  0  0  0  0  0  0  0  0
   18.5417  -13.0573    4.9008 C   0  0  0  0  0  0  0  0  0  0  0  0
   19.6667  -13.3272    5.7494 C   0  0  0  0  0  0  0  0  0  0  0  0
   19.3927  -12.7937    7.0667 C   0  0  2  0  0  0  0  0  0  0  0  0
   20.5963  -13.0694    8.0517 C   0  0  0  0  0  0  0  0  0  0  0  0
    8.1871  -16.4808   10.8557 C   0  0  2  0  0  0  0  0  0  0  0  0
    7.7596  -14.2530   10.2175 C   0  0  0  0  0  0  0  0  0  0  0  0
    7.7922  -17.5792   11.5958 C   0  0  0  0  0  0  0  0  0  0  0  0
    7.1284  -15.6447   10.7156 C   0  0  1  0  0  0  0  0  0  0  0  0
   14.0928  -11.1615    4.6610 C   0  0  0  0  0  0  0  0  0  0  0  0
   14.4033   -9.6727    4.1518 C   0  0  0  0  0  0  0  0  0  0  0  0
   13.1394   -8.7590    4.5035 C   0  0  1  0  0  0  0  0  0  0  0  0
   13.3352   -7.3097    4.0425 C   0  0  0  0  0  0  0  0  0  0  0  0
    8.6813  -13.1808    8.1370 C   0  0  1  0  0  0  0  0  0  0  0  0
    8.6466  -13.4054    6.5326 C   0  0  0  0  0  0  0  0  0  0  0  0
    9.2545  -12.1479    5.7997 C   0  0  2  0  0  0  0  0  0  0  0  0
    8.7334  -16.9212    9.5919 F   0  0  0  0  0  0  0  0  0  0  0  0
   21.9503  -12.5046    7.5343 N   0  0  0  0  0  0  0  0  0  0  0  0
   12.3885  -13.0713    4.3525 N   0  0  0  0  0  0  0  0  0  0  0  0
   17.4151  -15.0877    5.3359 N   0  0  0  0  0  0  0  0  0  0  0  0
    8.5189  -18.6929   12.0784 N   0  0  0  0  0  0  0  0  0  0  0  0
   12.2278   -6.5104    4.3974 N   0  0  0  0  0  0  0  0  0  0  0  0
    8.0920  -14.3605    8.7954 N   0  0  0  0  0  0  0  0  0  0  0  0
    9.2410  -12.3442    4.3331 N   0  0  0  0  0  0  0  0  0  0  0  0
   11.2010  -10.7884    5.5816 O   0  0  0  0  0  0  0  0  0  0  0  0
   12.2691  -11.5561    8.1247 O   0  0  0  0  0  0  0  0  0  0  0  0
   10.3129  -12.8570    9.8917 O   0  0  0  0  0  0  0  0  0  0  0  0
   15.2108  -11.0208    7.5372 O   0  0  0  0  0  0  0  0  0  0  0  0
   13.1255  -13.7235    8.4730 O   0  0  0  0  0  0  0  0  0  0  0  0
   15.3830  -14.0251   11.4427 O   0  0  0  0  0  0  0  0  0  0  0  0
   15.7109  -13.7095    7.2805 O   0  0  0  0  0  0  0  0  0  0  0  0
    6.1620  -16.1135    9.7500 O   0  0  0  0  0  0  0  0  0  0  0  0
    7.9174  -13.2520   10.9356 O   0  0  0  0  0  0  0  0  0  0  0  0
   18.1121  -13.3786    7.6143 O   0  0  0  0  0  0  0  0  0  0  0  0
   11.8968   -9.3184    3.8302 O   0  0  0  0  0  0  0  0  0  0  0  0
  1 36  1  1  0  0  0
  2 36  1  6  0  0  0
  2  3  1  0  0  0  0
  3 37  1  6  0  0  0
  3  4  1  0  0  0  0
  4 38  1  1  0  0  0
  5 37  1  1  0  0  0
  5  6  1  0  0  0  0
  6  7  1  0  0  0  0
  6 39  1  6  0  0  0
  7 42  1  6  0  0  0
  8  9  1  1  0  0  0
  8  7  1  0  0  0  0
 10 42  1  1  0  0  0
 10 11  1  0  0  0  0
 11 31  1  1  0  0  0
 11 13  1  0  0  0  0
 12 30  1  1  0  0  0
 12  1  1  0  0  0  0
 14 13  1  0  0  0  0
 15 16  1  1  0  0  0
 15 14  1  0  0  0  0
 17 19  1  1  0  0  0
 17 28  1  0  0  0  0
 18 34  1  0  0  0  0
 19 32  1  0  0  0  0
 20 18  1  6  0  0  0
 20 17  1  0  0  0  0
 20 43  1  0  0  0  0
 21 12  1  0  0  0  0
 22 21  1  0  0  0  0
 22 23  1  0  0  0  0
 23 24  1  6  0  0  0
 23 46  1  0  0  0  0
 24 33  1  0  0  0  0
 25 34  1  1  0  0  0
 25  4  1  0  0  0  0
 26 25  1  0  0  0  0
 27 35  1  6  0  0  0
 27 26  1  0  0  0  0
 27  2  1  0  0  0  0
 29 16  1  0  0  0  0
 40  8  1  0  0  0  0
 40  5  1  0  0  0  0
 41  9  1  0  0  0  0
 44 18  2  0  0  0  0
 45 15  1  0  0  0  0
 45 10  1  0  0  0  0
 46  1  1  0  0  0  0
M  END
>  <CHROM.1>
-62.65823107,163.14199595,-59.74727688,-175.58915974,79.32849475,-46.62938372
-178.92691496,56.44203263,-176.22189571,76.90770772,164.90836265,-178.20969283
77.11118630,12.76596691,-12.90781491,7.47023608,0.47857123,0.04302648,-0.77696924

>  <Name>
lig.pdb

>  <RI>
0

>  <Rbt.Current_Directory>
/home/afrankz/demos/rdock_decoys_rna/rnas/3wru

>  <Rbt.Executable>
rbdock ($Id: //depot/dev/client3/rdock/2013.1/src/exe/rbdock.cxx#4 $)

>  <Rbt.Library>
libRbt.so (2013.1, Build901 2013/11/27)

>  <Rbt.Parameter_File>
/export/apps/rDock/src/rDock_2013.1_src/data/scripts/dock_solv.prm

>  <Rbt.Receptor>
prm/pocket_docking_3.prm

>  <SCORE>
-2.32236

>  <SCORE.INTER>
2.27535

>  <SCORE.INTER.CONST>
1

>  <SCORE.INTER.POLAR>
0

>  <SCORE.INTER.ROT>
13

>  <SCORE.INTER.SOLV>
18.4002

>  <SCORE.INTER.VDW>
-16.8832

>  <SCORE.INTER.norm>
0.0494642

>  <SCORE.INTRA>
-4.63219

>  <SCORE.INTRA.DIHEDRAL>
-13.6301

>  <SCORE.INTRA.DIHEDRAL.0>
19.7146

>  <SCORE.INTRA.POLAR>
0

>  <SCORE.INTRA.POLAR.0>
0

>  <SCORE.INTRA.REPUL>
0

>  <SCORE.INTRA.REPUL.0>
0

>  <SCORE.INTRA.SOLV>
2.62814

>  <SCORE.INTRA.SOLV.lig_0>
-116.697

>  <SCORE.INTRA.VDW>
0.868781

>  <SCORE.INTRA.VDW.0>
-7.06424

>  <SCORE.INTRA.norm>
-0.1007

>  <SCORE.RESTR>
0.0344697

>  <SCORE.RESTR.CAVITY>
0.0344697

>  <SCORE.RESTR.norm>
0.000749342

>  <SCORE.SYSTEM>
0

>  <SCORE.SYSTEM.CONST>
0

>  <SCORE.SYSTEM.DIHEDRAL>
0

>  <SCORE.SYSTEM.SOLV>
0

>  <SCORE.SYSTEM.norm>
0

>  <SCORE.heavy>
46

>  <SCORE.norm>
-0.0504862

>  <RMSD>
8.576

$$$$
lig.pdb
 OpenBabel03061811583D
libRbt.so/2013.1/901 2013/11/27
 46 49  0  0  0  0  0  0  0  0999 V2000
   11.6203   -5.5946    0.4348 C   0  0  1  0  0  0  0  0  0  0  0  0
   12.9266   -5.1736    2.5618 C   0  0  1  0  0  0  0  0  0  0  0  0
   13.2965   -5.9858    3.8398 C   0  0  1  0  0  0  0  0  0  0  0  0
   13.9765   -4.9896    4.9113 C   0  0  2  0  0  0  0  0  0  0  0  0
   11.7478   -7.8130    4.6768 C   0  0  2  0  0  0  0  0  0  0  0  0
   11.5855   -8.7284    3.4300 C   0  0  1  0  0  0  0  0  0  0  0  0
   11.9393  -10.0403    4.0878 C   0  0  1  0  0  0  0  0  0  0  0  0
   13.2184   -9.7304    4.9287 C   0  0  1  0  0  0  0  0  0  0  0  0
   14.5882   -9.7361    4.1636 C   0  0  0  0  0  0  0  0  0  0  0  0
   10.3166  -11.7622    4.7846 C   0  0  1  0  0  0  0  0  0  0  0  0
    9.9217  -12.0717    3.3714 C   0  0  1  0  0  0  0  0  0  0  0  0
   10.4386   -4.6876    0.8522 C   0  0  1  0  0  0  0  0  0  0  0  0
    9.3561  -13.5353    3.3216 C   0  0  0  0  0  0  0  0  0  0  0  0
    8.2001  -13.7606    4.1411 C   0  0  0  0  0  0  0  0  0  0  0  0
    8.5532  -13.5054    5.5214 C   0  0  2  0  0  0  0  0  0  0  0  0
    7.3135  -13.7288    6.4744 C   0  0  0  0  0  0  0  0  0  0  0  0
   15.9587   -2.3917    8.3083 C   0  0  2  0  0  0  0  0  0  0  0  0
   15.1274   -2.7334    6.1300 C   0  0  0  0  0  0  0  0  0  0  0  0
   17.1452   -2.1892    8.9874 C   0  0  0  0  0  0  0  0  0  0  0  0
   16.0574   -1.8286    7.0785 C   0  0  1  0  0  0  0  0  0  0  0  0
    9.3484   -5.5105    1.6780 C   0  0  0  0  0  0  0  0  0  0  0  0
    8.8395   -6.7260    0.7637 C   0  0  0  0  0  0  0  0  0  0  0  0
   10.1059   -7.6312    0.3995 C   0  0  1  0  0  0  0  0  0  0  0  0
    9.7223   -8.8210   -0.4885 C   0  0  0  0  0  0  0  0  0  0  0  0
   15.3175   -4.4196    4.2730 C   0  0  1  0  0  0  0  0  0  0  0  0
   14.8690   -3.5690    2.9686 C   0  0  0  0  0  0  0  0  0  0  0  0
   14.1747   -4.5196    1.9187 C   0  0  2  0  0  0  0  0  0  0  0  0
   14.8607   -1.8650    9.0871 F   0  0  0  0  0  0  0  0  0  0  0  0
    5.9741  -13.9041    5.7028 N   0  0  0  0  0  0  0  0  0  0  0  0
   10.9936   -3.5258    1.6407 N   0  0  0  0  0  0  0  0  0  0  0  0
    8.8977  -11.2617    2.8726 N   0  0  0  0  0  0  0  0  0  0  0  0
   18.4187   -2.7888    8.8457 N   0  0  0  0  0  0  0  0  0  0  0  0
    9.5915  -10.0014    0.2734 N   0  0  0  0  0  0  0  0  0  0  0  0
   15.9786   -3.5123    5.2282 N   0  0  0  0  0  0  0  0  0  0  0  0
   13.7481   -3.7538    0.7266 N   0  0  0  0  0  0  0  0  0  0  0  0
   12.3602   -6.0280    1.5767 O   0  0  0  0  0  0  0  0  0  0  0  0
   12.0172   -6.5669    4.3677 O   0  0  0  0  0  0  0  0  0  0  0  0
   14.2937   -5.7295    6.0284 O   0  0  0  0  0  0  0  0  0  0  0  0
   10.2619   -8.6459    2.9960 O   0  0  0  0  0  0  0  0  0  0  0  0
   12.7576   -8.4953    5.5014 O   0  0  0  0  0  0  0  0  0  0  0  0
   14.7132   -8.4643    3.4964 O   0  0  0  0  0  0  0  0  0  0  0  0
   10.7866  -10.4804    4.9719 O   0  0  0  0  0  0  0  0  0  0  0  0
   15.5990   -0.4592    7.0455 O   0  0  0  0  0  0  0  0  0  0  0  0
   13.8868   -2.7650    6.1799 O   0  0  0  0  0  0  0  0  0  0  0  0
    9.0962  -12.1041    5.6742 O   0  0  0  0  0  0  0  0  0  0  0  0
   11.1429   -6.7947   -0.3319 O   0  0  0  0  0  0  0  0  0  0  0  0
  1 36  1  1  0  0  0
  2 36  1  6  0  0  0
  2  3  1  0  0  0  0
  3 37  1  1  0  0  0
  3  4  1  0  0  0  0
  4 38  1  1  0  0  0
  5 37  1  6  0  0  0
  5  6  1  0  0  0  0
  6  7  1  0  0  0  0
  6 39  1  1  0  0  0
  7 42  1  1  0  0  0
  8  9  1  6  0  0  0
  8  7  1  0  0  0  0
 10 42  1  6  0  0  0
 10 11  1  0  0  0  0
 11 31  1  1  0  0  0
 11 13  1  0  0  0  0
 12 30  1  1  0  0  0
 12  1  1  0  0  0  0
 14 13  1  0  0  0  0
 15 16  1  1  0  0  0
 15 14  1  0  0  0  0
 17 19  1  1  0  0  0
 17 28  1  0  0  0  0
 18 34  1  0  0  0  0
 19 32  1  0  0  0  0
 20 18  1  6  0  0  0
 20 17  1  0  0  0  0
 20 43  1  0  0  0  0
 21 12  1  0  0  0  0
 22 21  1  0  0  0  0
 22 23  1  0  0  0  0
 23 24  1  6  0  0  0
 23 46  1  0  0  0  0
 24 33  1  0  0  0  0
 25 34  1  1  0  0  0
 25  4  1  0  0  0  0
 26 25  1  0  0  0  0
 27 35  1  6  0  0  0
 27 26  1  0  0  0  0
 27  2  1  0  0  0  0
 29 16  1  0  0  0  0
 40  8  1  0  0  0  0
 40  5  1  0  0  0  0
 41  9  1  0  0  0  0
 44 18  2  0  0  0  0
 45 15  1  0  0  0  0
 45 10  1  0  0  0  0
 46  1  1  0  0  0  0
M  END
>  <CHROM.1>
-54.54625476,163.93388033,127.93872609,-72.97542455,128.19309216,80.68403136
-54.47980217,-10.63184689,-74.18415745,-108.86470126,149.24161279,-99.50914128
-32.24828681,12.21032005,-7.10581195,4.07702274,2.85547136,0.93822752,2.21095392

>  <Name>
lig.pdb

>  <RI>
0

>  <Rbt.Current_Directory>
/home/afrankz/demos/rdock_decoys_rna/rnas/3wru

>  <Rbt.Executable>
rbdock ($Id: //depot/dev/client3/rdock/2013.1/src/exe/rbdock.cxx#4 $)

>  <Rbt.Library>
libRbt.so (2013.1, Build901 2013/11/27)

>  <Rbt.Parameter_File>
/export/apps/rDock/src/rDock_2013.1_src/data/scripts/dock_solv.prm

>  <Rbt.Receptor>
prm/blind_docking_20.prm

>  <SCORE>
22.9416

>  <SCORE.INTER>
3.26951

>  <SCORE.INTER.CONST>
1

>  <SCORE.INTER.POLAR>
0

>  <SCORE.INTER.ROT>
13

>  <SCORE.INTER.SOLV>
49.9589

>  <SCORE.INTER.VDW>
-26.74

>  <SCORE.INTER.norm>
0.0710762

>  <SCORE.INTRA>
14.8352

>  <SCORE.INTRA.DIHEDRAL>
12.466

>  <SCORE.INTRA.DIHEDRAL.0>
19.7146

>  <SCORE.INTRA.POLAR>
0

>  <SCORE.INTRA.POLAR.0>
0

>  <SCORE.INTRA.REPUL>
0.21039

>  <SCORE.INTRA.REPUL.0>
0

>  <SCORE.INTRA.SOLV>
10.2113

>  <SCORE.INTRA.SOLV.lig_0>
-116.697

>  <SCORE.INTRA.VDW>
2.44457

>  <SCORE.INTRA.VDW.0>
-7.06424

>  <SCORE.INTRA.norm>
0.322505

>  <SCORE.RESTR>
4.83684

>  <SCORE.RESTR.CAVITY>
4.83684

>  <SCORE.RESTR.norm>
0.105149

>  <SCORE.SYSTEM>
0

>  <SCORE.SYSTEM.CONST>
0

>  <SCORE.SYSTEM.DIHEDRAL>
0

>  <SCORE.SYSTEM.SOLV>
0

>  <SCORE.SYSTEM.norm>
0

>  <SCORE.heavy>
46

>  <SCORE.norm>
0.498729

>  <RMSD>
8.577

$$$$
lig.pdb
 OpenBabel03061811583D
libRbt.so/2013.1/901 2013/11/27
 46 49  0  0  0  0  0  0  0  0999 V2000
   10.0919  -15.0958   10.3448 C   0  0  1  0  0  0  0  0  0  0  0  0
    9.9884  -15.1604    7.8164 C   0  0  1  0  0  0  0  0  0  0  0  0
    9.2220  -16.5171    7.7750 C   0  0  1  0  0  0  0  0  0  0  0  0
    9.4265  -17.1866    6.3215 C   0  0  2  0  0  0  0  0  0  0  0  0
    9.4048  -18.5530    9.2782 C   0  0  2  0  0  0  0  0  0  0  0  0
   10.4005  -19.2164   10.2718 C   0  0  1  0  0  0  0  0  0  0  0  0
    9.4155  -20.1076   10.9892 C   0  0  1  0  0  0  0  0  0  0  0  0
    8.1887  -19.1870   11.2835 C   0  0  1  0  0  0  0  0  0  0  0  0
    8.2838  -18.2620   12.5473 C   0  0  0  0  0  0  0  0  0  0  0  0
    8.1208  -22.1658   10.5757 C   0  0  1  0  0  0  0  0  0  0  0  0
    8.6032  -22.9428   11.7642 C   0  0  1  0  0  0  0  0  0  0  0  0
    9.7198  -14.1251   11.4906 C   0  0  1  0  0  0  0  0  0  0  0  0
    7.4849  -23.9635   12.1791 C   0  0  0  0  0  0  0  0  0  0  0  0
    7.1362  -24.9172   11.1654 C   0  0  0  0  0  0  0  0  0  0  0  0
    6.6312  -24.2039   10.0116 C   0  0  2  0  0  0  0  0  0  0  0  0
    6.2377  -25.2042    8.8542 C   0  0  0  0  0  0  0  0  0  0  0  0
    9.7419  -16.7352    1.1724 C   0  0  2  0  0  0  0  0  0  0  0  0
   10.2973  -17.1045    3.4325 C   0  0  0  0  0  0  0  0  0  0  0  0
    9.9761  -17.0557   -0.1514 C   0  0  0  0  0  0  0  0  0  0  0  0
   10.2220  -17.7332    1.9553 C   0  0  1  0  0  0  0  0  0  0  0  0
   10.6550  -12.8317   11.4723 C   0  0  0  0  0  0  0  0  0  0  0  0
   12.1791  -13.3131   11.6046 C   0  0  0  0  0  0  0  0  0  0  0  0
   12.4966  -14.2843   10.3749 C   0  0  1  0  0  0  0  0  0  0  0  0
   13.9361  -14.8110   10.4188 C   0  0  0  0  0  0  0  0  0  0  0  0
    8.7865  -16.2150    5.2365 C   0  0  1  0  0  0  0  0  0  0  0  0
    9.6359  -14.8369    5.3097 C   0  0  0  0  0  0  0  0  0  0  0  0
    9.4734  -14.1794    6.7342 C   0  0  2  0  0  0  0  0  0  0  0  0
    8.3308  -16.4899    1.3675 F   0  0  0  0  0  0  0  0  0  0  0  0
    5.6727  -24.4880    7.5941 N   0  0  0  0  0  0  0  0  0  0  0  0
    8.2580  -13.7738   11.3528 N   0  0  0  0  0  0  0  0  0  0  0  0
    9.7397  -23.7183   11.5183 N   0  0  0  0  0  0  0  0  0  0  0  0
   11.1800  -17.2068   -0.8789 N   0  0  0  0  0  0  0  0  0  0  0  0
   14.2534  -15.5190    9.2403 N   0  0  0  0  0  0  0  0  0  0  0  0
    8.9408  -16.7981    3.8916 N   0  0  0  0  0  0  0  0  0  0  0  0
   10.2543  -12.9255    6.8199 N   0  0  0  0  0  0  0  0  0  0  0  0
    9.7979  -14.5202    9.0715 O   0  0  0  0  0  0  0  0  0  0  0  0
    9.8043  -17.3755    8.8599 O   0  0  0  0  0  0  0  0  0  0  0  0
    8.7410  -18.3808    6.3103 O   0  0  0  0  0  0  0  0  0  0  0  0
   11.3618  -19.9068    9.5325 O   0  0  0  0  0  0  0  0  0  0  0  0
    8.1154  -18.5714    9.9868 O   0  0  0  0  0  0  0  0  0  0  0  0
    8.3660  -19.1200   13.7029 O   0  0  0  0  0  0  0  0  0  0  0  0
    9.0372  -21.2635   10.0809 O   0  0  0  0  0  0  0  0  0  0  0  0
    9.3721  -18.9010    1.9666 O   0  0  0  0  0  0  0  0  0  0  0  0
   11.3471  -16.9292    4.0727 O   0  0  0  0  0  0  0  0  0  0  0  0
    7.6518  -23.2022    9.5252 O   0  0  0  0  0  0  0  0  0  0  0  0
   11.5456  -15.4697   10.3967 O   0  0  0  0  0  0  0  0  0  0  0  0
  1 36  1  6  0  0  0
  2 36  1  1  0  0  0
  2  3  1  0  0  0  0
  3 37  1  1  0  0  0
  3  4  1  0  0  0  0
  4 38  1  1  0  0  0
  5 37  1  1  0  0  0
  5  6  1  0  0  0  0
  6  7  1  0  0  0  0
  6 39  1  6  0  0  0
  7 42  1  6  0  0  0
  8  9  1  1  0  0  0
  8  7  1  0  0  0  0
 10 42  1  6  0  0  0
 10 11  1  0  0  0  0
 11 31  1  6  0  0  0
 11 13  1  0  0  0  0
 12 30  1  6  0  0  0
 12  1  1  0  0  0  0
 14 13  1  0  0  0  0
 15 16  1  6  0  0  0
 15 14  1  0  0  0  0
 17 19  1  6  0  0  0
 17 28  1  0  0  0  0
 18 34  1  0  0  0  0
 19 32  1  0  0  0  0
 20 18  1  1  0  0  0
 20 17  1  0  0  0  0
 20 43  1  0  0  0  0
 21 12  1  0  0  0  0
 22 21  1  0  0  0  0
 22 23  1  0  0  0  0
 23 24  1  1  0  0  0
 23 46  1  0  0  0  0
 24 33  1  0  0  0  0
 25 34  1  6  0  0  0
 25  4  1  0  0  0  0
 26 25  1  0  0  0  0
 27 35  1  6  0  0  0
 27 26  1  0  0  0  0
 27  2  1  0  0  0  0
 29 16  1  0  0  0  0
 40  8  1  0  0  0  0
 40  5  1  0  0  0  0
 41  9  1  0  0  0  0
 44 18  2  0  0  0  0
 45 15  1  0  0  0  0
 45 10  1  0  0  0  0
 46  1  1  0  0  0  0
M  END
>  <CHROM.1>
-178.36271802,55.96258026,173.56287616,171.06448697,-178.85931166,-63.55610257
-65.01745823,179.34763667,-65.34555823,65.01420126,164.17428904,-172.20253688
-57.74559796,9.50423627,-18.06510386,8.11172437,-0.90307983,1.20524640,1.66458819

>  <Name>
lig.pdb

>  <RI>
0

>  <Rbt.Current_Directory>
/home/afrankz/demos/rdock_decoys_rna/rnas/3wru

>  <Rbt.Executable>
rbdock ($Id: //depot/dev/client3/rdock/2013.1/src/exe/rbdock.cxx#4 $)

>  <Rbt.Library>
libRbt.so (2013.1, Build901 2013/11/27)

>  <Rbt.Parameter_File>
/export/apps/rDock/src/rDock_2013.1_src/data/scripts/dock_solv.prm

>  <Rbt.Receptor>
prm/pocket_docking_8.prm

>  <SCORE>
2.03678

>  <SCORE.INTER>
9.69005

>  <SCORE.INTER.CONST>
1

>  <SCORE.INTER.POLAR>
0

>  <SCORE.INTER.ROT>
13

>  <SCORE.INTER.SOLV>
8.97888

>  <SCORE.INTER.VDW>
-8.79959

>  <SCORE.INTER.norm>
0.210653

>  <SCORE.INTRA>
-7.65327

>  <SCORE.INTRA.DIHEDRAL>
-16.6787

>  <SCORE.INTRA.DIHEDRAL.0>
19.7146

>  <SCORE.INTRA.POLAR>
0

>  <SCORE.INTRA.POLAR.0>
0

>  <SCORE.INTRA.REPUL>
0

>  <SCORE.INTRA.REPUL.0>
0

>  <SCORE.INTRA.SOLV>
-3.08799

>  <SCORE.INTRA.SOLV.lig_0>
-116.697

>  <SCORE.INTRA.VDW>
2.2301

>  <SCORE.INTRA.VDW.0>
-7.06424

>  <SCORE.INTRA.norm>
-0.166375

>  <SCORE.RESTR>
0

>  <SCORE.RESTR.CAVITY>
0

>  <SCORE.RESTR.norm>
0

>  <SCORE.SYSTEM>
0

>  <SCORE.SYSTEM.CONST>
0

>  <SCORE.SYSTEM.DIHEDRAL>
0

>  <SCORE.SYSTEM.SOLV>
0

>  <SCORE.SYSTEM.norm>
0

>  <SCORE.heavy>
46

>  <SCORE.norm>
0.0442779

>  <RMSD>
8.588

$$$$
lig.pdb
 OpenBabel03061811583D
libRbt.so/2013.1/901 2013/11/27
 46 49  0  0  0  0  0  0  0  0999 V2000
   11.4727  -11.2348    5.3761 C   0  0  1  0  0  0  0  0  0  0  0  0
   10.4429  -12.7470    7.1255 C   0  0  1  0  0  0  0  0  0  0  0  0
   11.1694  -12.2841    8.4246 C   0  0  1  0  0  0  0  0  0  0  0  0
   11.1737  -13.5031    9.4814 C   0  0  2  0  0  0  0  0  0  0  0  0
   13.5092  -12.6546    7.5157 C   0  0  2  0  0  0  0  0  0  0  0  0
   14.9120  -11.9842    7.5555 C   0  0  1  0  0  0  0  0  0  0  0  0
   15.7446  -13.2433    7.5420 C   0  0  1  0  0  0  0  0  0  0  0  0
   15.0649  -14.1800    8.5906 C   0  0  1  0  0  0  0  0  0  0  0  0
   15.4341  -13.9431   10.0970 C   0  0  0  0  0  0  0  0  0  0  0  0
   16.5207  -13.2682    5.2009 C   0  0  1  0  0  0  0  0  0  0  0  0
   16.4366  -13.9065    3.8465 C   0  0  1  0  0  0  0  0  0  0  0  0
   11.0861   -9.9652    4.5812 C   0  0  1  0  0  0  0  0  0  0  0  0
   17.4507  -13.1832    2.8912 C   0  0  0  0  0  0  0  0  0  0  0  0
   18.8223  -13.2545    3.3062 C   0  0  0  0  0  0  0  0  0  0  0  0
   18.9498  -12.6145    4.5982 C   0  0  2  0  0  0  0  0  0  0  0  0
   20.4419  -12.6699    5.1136 C   0  0  0  0  0  0  0  0  0  0  0  0
    8.7802  -17.5567   11.6939 C   0  0  2  0  0  0  0  0  0  0  0  0
   10.2628  -16.2126   10.4498 C   0  0  0  0  0  0  0  0  0  0  0  0
    8.5162  -18.5198   10.7385 C   0  0  0  0  0  0  0  0  0  0  0  0
   10.1027  -17.2582   11.6599 C   0  0  1  0  0  0  0  0  0  0  0  0
    9.9618  -10.2891    3.4954 C   0  0  0  0  0  0  0  0  0  0  0  0
   10.5246  -11.4268    2.5150 C   0  0  0  0  0  0  0  0  0  0  0  0
   10.8722  -12.7114    3.4009 C   0  0  1  0  0  0  0  0  0  0  0  0
   11.4328  -13.8579    2.5508 C   0  0  0  0  0  0  0  0  0  0  0  0
    9.6634  -13.8454    9.8456 C   0  0  1  0  0  0  0  0  0  0  0  0
    8.9694  -14.3408    8.4676 C   0  0  0  0  0  0  0  0  0  0  0  0
    8.9806  -13.1719    7.4086 C   0  0  2  0  0  0  0  0  0  0  0  0
    8.3375  -18.0259   12.9876 F   0  0  0  0  0  0  0  0  0  0  0  0
   20.6615  -11.8772    6.4340 N   0  0  0  0  0  0  0  0  0  0  0  0
   10.6406   -8.9114    5.5662 N   0  0  0  0  0  0  0  0  0  0  0  0
   16.8048  -15.2547    3.8253 N   0  0  0  0  0  0  0  0  0  0  0  0
    7.3187  -19.1857   10.3867 N   0  0  0  0  0  0  0  0  0  0  0  0
   11.7149  -14.9886    3.3464 N   0  0  0  0  0  0  0  0  0  0  0  0
    9.6232  -14.9488   10.8220 N   0  0  0  0  0  0  0  0  0  0  0  0
    8.3608  -13.6141    6.1399 N   0  0  0  0  0  0  0  0  0  0  0  0
   10.3838  -11.6837    6.1836 O   0  0  0  0  0  0  0  0  0  0  0  0
   12.5647  -11.9005    8.0259 O   0  0  0  0  0  0  0  0  0  0  0  0
   11.8192  -13.0698   10.6179 O   0  0  0  0  0  0  0  0  0  0  0  0
   15.0522  -11.1945    6.4136 O   0  0  0  0  0  0  0  0  0  0  0  0
   13.7078  -13.9557    8.1735 O   0  0  0  0  0  0  0  0  0  0  0  0
   14.9125  -12.6519   10.4697 O   0  0  0  0  0  0  0  0  0  0  0  0
   15.7084  -13.8489    6.1505 O   0  0  0  0  0  0  0  0  0  0  0  0
   10.5788  -16.6602   12.8854 O   0  0  0  0  0  0  0  0  0  0  0  0
   10.8525  -16.4517    9.3832 O   0  0  0  0  0  0  0  0  0  0  0  0
   18.0175  -13.2580    5.5975 O   0  0  0  0  0  0  0  0  0  0  0  0
   11.9004  -12.3443    4.4584 O   0  0  0  0  0  0  0  0  0  0  0  0
  1 36  1  6  0  0  0
  2 36  1  6  0  0  0
  2  3  1  0  0  0  0
  3 37  1  6  0  0  0
  3  4  1  0  0  0  0
  4 38  1  1  0  0  0
  5 37  1  1  0  0  0
  5  6  1  0  0  0  0
  6  7  1  0  0  0  0
  6 39  1  6  0  0  0
  7 42  1  6  0  0  0
  8  9  1  1  0  0  0
  8  7  1  0  0  0  0
 10 42  1  1  0  0  0
 10 11  1  0  0  0  0
 11 31  1  1  0  0  0
 11 13  1  0  0  0  0
 12 30  1  1  0  0  0
 12  1  1  0  0  0  0
 14 13  1  0  0  0  0
 15 16  1  1  0  0  0
 15 14  1  0  0  0  0
 17 19  1  6  0  0  0
 17 28  1  0  0  0  0
 18 34  1  0  0  0  0
 19 32  1  0  0  0  0
 20 18  1  6  0  0  0
 20 17  1  0  0  0  0
 20 43  1  0  0  0  0
 21 12  1  0  0  0  0
 22 21  1  0  0  0  0
 22 23  1  0  0  0  0
 23 24  1  6  0  0  0
 23 46  1  0  0  0  0
 24 33  1  0  0  0  0
 25 34  1  1  0  0  0
 25  4  1  0  0  0  0
 26 25  1  0  0  0  0
 27 35  1  6  0  0  0
 27 26  1  0  0  0  0
 27  2  1  0  0  0  0
 29 16  1  0  0  0  0
 40  8  1  0  0  0  0
 40  5  1  0  0  0  0
 41  9  1  0  0  0  0
 44 18  2  0  0  0  0
 45 15  1  0  0  0  0
 45 10  1  0  0  0  0
 46  1  1  0  0  0  0
M  END
>  <CHROM.1>
-173.93329008,76.41809157,-62.98705175,-166.10667121,78.55351666,66.40279814
-179.76545346,174.47442162,178.59080179,69.00540598,81.72245484,-179.13292221
-57.70160144,12.72485374,-13.66968430,7.26262140,0.74665199,0.02061208,-0.99885493

>  <Name>
lig.pdb

>  <RI>
0

>  <Rbt.Current_Directory>
/home/afrankz/demos/rdock_decoys_rna/rnas/3wru

>  <Rbt.Executable>
rbdock ($Id: //depot/dev/client3/rdock/2013.1/src/exe/rbdock.cxx#4 $)

>  <Rbt.Library>
libRbt.so (2013.1, Build901 2013/11/27)

>  <Rbt.Parameter_File>
/export/apps/rDock/src/rDock_2013.1_src/data/scripts/dock_solv.prm

>  <Rbt.Receptor>
prm/pocket_docking_4.prm

>  <SCORE>
-5.82547

>  <SCORE.INTER>
0.283222

>  <SCORE.INTER.CONST>
1

>  <SCORE.INTER.POLAR>
0

>  <SCORE.INTER.ROT>
13

>  <SCORE.INTER.SOLV>
20.8465

>  <SCORE.INTER.VDW>
-19.0267

>  <SCORE.INTER.norm>
0.006157

>  <SCORE.INTRA>
-6.11751

>  <SCORE.INTRA.DIHEDRAL>
-13.0609

>  <SCORE.INTRA.DIHEDRAL.0>
19.7146

>  <SCORE.INTRA.POLAR>
0

>  <SCORE.INTRA.POLAR.0>
0

>  <SCORE.INTRA.REPUL>
0

>  <SCORE.INTRA.REPUL.0>
0

>  <SCORE.INTRA.SOLV>
-1.29663

>  <SCORE.INTRA.SOLV.lig_0>
-116.697

>  <SCORE.INTRA.VDW>
1.06126

>  <SCORE.INTRA.VDW.0>
-7.06424

>  <SCORE.INTRA.norm>
-0.132989

>  <SCORE.RESTR>
0.00881101

>  <SCORE.RESTR.CAVITY>
0.00881101

>  <SCORE.RESTR.norm>
0.000191544

>  <SCORE.SYSTEM>
0

>  <SCORE.SYSTEM.CONST>
0

>  <SCORE.SYSTEM.DIHEDRAL>
0

>  <SCORE.SYSTEM.SOLV>
0

>  <SCORE.SYSTEM.norm>
0

>  <SCORE.heavy>
46

>  <SCORE.norm>
-0.126641

>  <RMSD>
8.608

$$$$
lig.pdb
 OpenBabel03061811583D
libRbt.so/2013.1/901 2013/11/27
 46 49  0  0  0  0  0  0  0  0999 V2000
    9.0174   -6.7121    1.5733 C   0  0  1  0  0  0  0  0  0  0  0  0
   10.4818   -5.3309    3.1082 C   0  0  1  0  0  0  0  0  0  0  0  0
   11.5878   -6.4292    3.1293 C   0  0  1  0  0  0  0  0  0  0  0  0
   12.5420   -6.1828    4.4067 C   0  0  2  0  0  0  0  0  0  0  0  0
   11.2538   -8.8378    3.8538 C   0  0  2  0  0  0  0  0  0  0  0  0
   10.3049   -9.2127    5.0276 C   0  0  1  0  0  0  0  0  0  0  0  0
   10.5979  -10.6931    5.0671 C   0  0  1  0  0  0  0  0  0  0  0  0
   10.5522  -11.1468    3.5734 C   0  0  1  0  0  0  0  0  0  0  0  0
    9.1357  -11.4359    2.9636 C   0  0  0  0  0  0  0  0  0  0  0  0
   12.5705  -12.1294    5.4274 C   0  0  1  0  0  0  0  0  0  0  0  0
   14.0119  -12.1995    5.8351 C   0  0  1  0  0  0  0  0  0  0  0  0
    9.5664   -7.1977    0.2110 C   0  0  1  0  0  0  0  0  0  0  0  0
   14.5713  -13.6138    5.4459 C   0  0  0  0  0  0  0  0  0  0  0  0
   14.5143  -13.9174    4.0448 C   0  0  0  0  0  0  0  0  0  0  0  0
   13.1305  -13.8942    3.6210 C   0  0  2  0  0  0  0  0  0  0  0  0
   13.0043  -14.2134    2.0792 C   0  0  0  0  0  0  0  0  0  0  0  0
   15.0964   -2.6982    7.5344 C   0  0  2  0  0  0  0  0  0  0  0  0
   15.0600   -3.3740    5.2772 C   0  0  0  0  0  0  0  0  0  0  0  0
   15.6932   -2.7486    8.7799 C   0  0  0  0  0  0  0  0  0  0  0  0
   15.9225   -3.2808    6.6302 C   0  0  1  0  0  0  0  0  0  0  0  0
    9.1523   -6.1985   -0.9629 C   0  0  0  0  0  0  0  0  0  0  0  0
    7.5519   -6.0991   -0.9953 C   0  0  0  0  0  0  0  0  0  0  0  0
    7.0633   -5.5646    0.4300 C   0  0  1  0  0  0  0  0  0  0  0  0
    5.5363   -5.4461    0.5038 C   0  0  0  0  0  0  0  0  0  0  0  0
   13.2444   -4.7662    4.2316 C   0  0  1  0  0  0  0  0  0  0  0  0
   12.0523   -3.6686    4.2408 C   0  0  0  0  0  0  0  0  0  0  0  0
   11.0894   -3.9093    3.0149 C   0  0  2  0  0  0  0  0  0  0  0  0
   14.7747   -1.3272    7.2081 F   0  0  0  0  0  0  0  0  0  0  0  0
   11.5642  -14.0055    1.5286 N   0  0  0  0  0  0  0  0  0  0  0  0
   11.0641   -7.3443    0.3331 N   0  0  0  0  0  0  0  0  0  0  0  0
   14.8374  -11.2816    5.1798 N   0  0  0  0  0  0  0  0  0  0  0  0
   15.1688   -2.5444   10.0779 N   0  0  0  0  0  0  0  0  0  0  0  0
    5.1261   -4.9482    1.7587 N   0  0  0  0  0  0  0  0  0  0  0  0
   14.1380   -4.5076    5.3749 N   0  0  0  0  0  0  0  0  0  0  0  0
    9.9879   -2.9213    3.0174 N   0  0  0  0  0  0  0  0  0  0  0  0
    9.6435   -5.4919    1.9712 O   0  0  0  0  0  0  0  0  0  0  0  0
   10.8823   -7.7510    3.2200 O   0  0  0  0  0  0  0  0  0  0  0  0
   13.5087   -7.1634    4.4026 O   0  0  0  0  0  0  0  0  0  0  0  0
   10.7195   -8.5180    6.1645 O   0  0  0  0  0  0  0  0  0  0  0  0
   11.3216  -10.0586    3.0352 O   0  0  0  0  0  0  0  0  0  0  0  0
    8.6965  -12.7078    3.4806 O   0  0  0  0  0  0  0  0  0  0  0  0
   11.9728  -10.9122    5.6722 O   0  0  0  0  0  0  0  0  0  0  0  0
   17.1246   -2.5173    6.3889 O   0  0  0  0  0  0  0  0  0  0  0  0
   15.1625   -2.5904    4.3190 O   0  0  0  0  0  0  0  0  0  0  0  0
   12.5058  -12.5565    3.9404 O   0  0  0  0  0  0  0  0  0  0  0  0
    7.5295   -6.5128    1.5225 O   0  0  0  0  0  0  0  0  0  0  0  0
  1 36  1  6  0  0  0
  2 36  1  6  0  0  0
  2  3  1  0  0  0  0
  3 37  1  1  0  0  0
  3  4  1  0  0  0  0
  4 38  1  6  0  0  0
  5 37  1  6  0  0  0
  5  6  1  0  0  0  0
  6  7  1  0  0  0  0
  6 39  1  1  0  0  0
  7 42  1  6  0  0  0
  8  9  1  6  0  0  0
  8  7  1  0  0  0  0
 10 42  1  6  0  0  0
 10 11  1  0  0  0  0
 11 31  1  6  0  0  0
 11 13  1  0  0  0  0
 12 30  1  1  0  0  0
 12  1  1  0  0  0  0
 14 13  1  0  0  0  0
 15 16  1  6  0  0  0
 15 14  1  0  0  0  0
 17 19  1  1  0  0  0
 17 28  1  0  0  0  0
 18 34  1  0  0  0  0
 19 32  1  0  0  0  0
 20 18  1  6  0  0  0
 20 17  1  0  0  0  0
 20 43  1  0  0  0  0
 21 12  1  0  0  0  0
 22 21  1  0  0  0  0
 22 23  1  0  0  0  0
 23 24  1  6  0  0  0
 23 46  1  0  0  0  0
 24 33  1  0  0  0  0
 25 34  1  1  0  0  0
 25  4  1  0  0  0  0
 26 25  1  0  0  0  0
 27 35  1  1  0  0  0
 27 26  1  0  0  0  0
 27  2  1  0  0  0  0
 29 16  1  0  0  0  0
 40  8  1  0  0  0  0
 40  5  1  0  0  0  0
 41  9  1  0  0  0  0
 44 18  2  0  0  0  0
 45 15  1  0  0  0  0
 45 10  1  0  0  0  0
 46  1  1  0  0  0  0
M  END
>  <CHROM.1>
-115.12923036,50.21942321,-144.88143143,114.67038127,-161.10341630,-75.54857639
169.60524022,-171.88834468,-165.17879970,-78.61794375,171.71053033,-178.83213052
168.84056011,11.75489320,-7.50821465,3.86489347,2.00376261,0.66696893,-3.08332921

>  <Name>
lig.pdb

>  <RI>
0

>  <Rbt.Current_Directory>
/home/afrankz/demos/rdock_decoys_rna/rnas/3wru

>  <Rbt.Executable>
rbdock ($Id: //depot/dev/client3/rdock/2013.1/src/exe/rbdock.cxx#4 $)

>  <Rbt.Library>
libRbt.so (2013.1, Build901 2013/11/27)

>  <Rbt.Parameter_File>
/export/apps/rDock/src/rDock_2013.1_src/data/scripts/dock_solv.prm

>  <Rbt.Receptor>
prm/blind_docking_20.prm

>  <SCORE>
14.1571

>  <SCORE.INTER>
-2.61436

>  <SCORE.INTER.CONST>
1

>  <SCORE.INTER.POLAR>
0

>  <SCORE.INTER.ROT>
13

>  <SCORE.INTER.SOLV>
39.2334

>  <SCORE.INTER.VDW>
-27.0874

>  <SCORE.INTER.norm>
-0.0568339

>  <SCORE.INTRA>
8.01151

>  <SCORE.INTRA.DIHEDRAL>
5.07186

>  <SCORE.INTRA.DIHEDRAL.0>
19.7146

>  <SCORE.INTRA.POLAR>
0

>  <SCORE.INTRA.POLAR.0>
0

>  <SCORE.INTRA.REPUL>
0.00273513

>  <SCORE.INTRA.REPUL.0>
0

>  <SCORE.INTRA.SOLV>
1.28507

>  <SCORE.INTRA.SOLV.lig_0>
-116.697

>  <SCORE.INTRA.VDW>
4.81937

>  <SCORE.INTRA.VDW.0>
-7.06424

>  <SCORE.INTRA.norm>
0.174163

>  <SCORE.RESTR>
8.75995

>  <SCORE.RESTR.CAVITY>
8.75995

>  <SCORE.RESTR.norm>
0.190434

>  <SCORE.SYSTEM>
0

>  <SCORE.SYSTEM.CONST>
0

>  <SCORE.SYSTEM.DIHEDRAL>
0

>  <SCORE.SYSTEM.SOLV>
0

>  <SCORE.SYSTEM.norm>
0

>  <SCORE.heavy>
46

>  <SCORE.norm>
0.307763

>  <RMSD>
8.616

$$$$
lig.pdb
 OpenBabel03061811583D
libRbt.so/2013.1/901 2013/11/27
 46 49  0  0  0  0  0  0  0  0999 V2000
    9.4489  -12.3018    5.0770 C   0  0  1  0  0  0  0  0  0  0  0  0
   10.5264  -13.9707    6.6458 C   0  0  1  0  0  0  0  0  0  0  0  0
   10.7736  -12.9183    7.7688 C   0  0  1  0  0  0  0  0  0  0  0  0
   10.8739  -13.6827    9.1860 C   0  0  2  0  0  0  0  0  0  0  0  0
   13.2427  -12.7408    7.2121 C   0  0  2  0  0  0  0  0  0  0  0  0
   14.3945  -11.7013    7.3187 C   0  0  1  0  0  0  0  0  0  0  0  0
   15.5086  -12.6600    7.6629 C   0  0  1  0  0  0  0  0  0  0  0  0
   14.9072  -13.5879    8.7659 C   0  0  1  0  0  0  0  0  0  0  0  0
   14.9153  -13.0389   10.2357 C   0  0  0  0  0  0  0  0  0  0  0  0
   16.8181  -12.8705    5.5834 C   0  0  1  0  0  0  0  0  0  0  0  0
   17.1688  -13.7051    4.3878 C   0  0  1  0  0  0  0  0  0  0  0  0
    9.1113  -12.2935    3.5673 C   0  0  1  0  0  0  0  0  0  0  0  0
   18.2716  -12.9530    3.5616 C   0  0  0  0  0  0  0  0  0  0  0  0
   19.4916  -12.7049    4.2748 C   0  0  0  0  0  0  0  0  0  0  0  0
   19.1979  -11.8698    5.4200 C   0  0  2  0  0  0  0  0  0  0  0  0
   20.5059  -11.5689    6.2527 C   0  0  0  0  0  0  0  0  0  0  0  0
    8.8478  -17.6687   12.3674 C   0  0  2  0  0  0  0  0  0  0  0  0
    8.2745  -15.6636   11.2702 C   0  0  0  0  0  0  0  0  0  0  0  0
   10.2205  -17.8236   12.3245 C   0  0  0  0  0  0  0  0  0  0  0  0
    8.5630  -16.3801   12.6797 C   0  0  1  0  0  0  0  0  0  0  0  0
   10.3808  -11.8676    2.6985 C   0  0  0  0  0  0  0  0  0  0  0  0
   10.8566  -10.4152    3.1847 C   0  0  0  0  0  0  0  0  0  0  0  0
   11.2149  -10.5102    4.7399 C   0  0  1  0  0  0  0  0  0  0  0  0
   11.6718   -9.1600    5.3052 C   0  0  0  0  0  0  0  0  0  0  0  0
    9.4780  -14.3938    9.4627 C   0  0  1  0  0  0  0  0  0  0  0  0
    9.2885  -15.4879    8.2824 C   0  0  0  0  0  0  0  0  0  0  0  0
    9.2171  -14.7634    6.8831 C   0  0  2  0  0  0  0  0  0  0  0  0
    8.2839  -18.6169   13.3015 F   0  0  0  0  0  0  0  0  0  0  0  0
   21.0852  -12.8297    6.9563 N   0  0  0  0  0  0  0  0  0  0  0  0
    8.5978  -13.6631    3.1930 N   0  0  0  0  0  0  0  0  0  0  0  0
   17.7243  -14.9488    4.7009 N   0  0  0  0  0  0  0  0  0  0  0  0
   11.2051  -17.2215   11.5064 N   0  0  0  0  0  0  0  0  0  0  0  0
   10.6715   -8.1779    5.1443 N   0  0  0  0  0  0  0  0  0  0  0  0
    9.5232  -15.0949   10.7584 N   0  0  0  0  0  0  0  0  0  0  0  0
    9.0568  -15.7518    5.7937 N   0  0  0  0  0  0  0  0  0  0  0  0
   10.3920  -13.3290    5.3843 O   0  0  0  0  0  0  0  0  0  0  0  0
   12.0587  -12.2201    7.4313 O   0  0  0  0  0  0  0  0  0  0  0  0
   11.0913  -12.7333   10.1594 O   0  0  0  0  0  0  0  0  0  0  0  0
   14.5392  -11.0796    6.0778 O   0  0  0  0  0  0  0  0  0  0  0  0
   13.6406  -13.8216    8.1279 O   0  0  0  0  0  0  0  0  0  0  0  0
   14.2933  -14.0360   11.0705 O   0  0  0  0  0  0  0  0  0  0  0  0
   15.8890  -13.4470    6.4219 O   0  0  0  0  0  0  0  0  0  0  0  0
    7.4082  -16.2484   13.5373 O   0  0  0  0  0  0  0  0  0  0  0  0
    7.1655  -15.6232   10.7125 O   0  0  0  0  0  0  0  0  0  0  0  0
   18.1507  -12.5225    6.2912 O   0  0  0  0  0  0  0  0  0  0  0  0
    9.9970  -10.9758    5.5210 O   0  0  0  0  0  0  0  0  0  0  0  0
  1 36  1  6  0  0  0
  2 36  1  6  0  0  0
  2  3  1  0  0  0  0
  3 37  1  6  0  0  0
  3  4  1  0  0  0  0
  4 38  1  1  0  0  0
  5 37  1  1  0  0  0
  5  6  1  0  0  0  0
  6  7  1  0  0  0  0
  6 39  1  6  0  0  0
  7 42  1  6  0  0  0
  8  9  1  1  0  0  0
  8  7  1  0  0  0  0
 10 42  1  1  0  0  0
 10 11  1  0  0  0  0
 11 31  1  1  0  0  0
 11 13  1  0  0  0  0
 12 30  1  6  0  0  0
 12  1  1  0  0  0  0
 14 13  1  0  0  0  0
 15 16  1  1  0  0  0
 15 14  1  0  0  0  0
 17 19  1  1  0  0  0
 17 28  1  0  0  0  0
 18 34  1  0  0  0  0
 19 32  1  0  0  0  0
 20 18  1  6  0  0  0
 20 17  1  0  0  0  0
 20 43  1  0  0  0  0
 21 12  1  0  0  0  0
 22 21  1  0  0  0  0
 22 23  1  0  0  0  0
 23 24  1  1  0  0  0
 23 46  1  0  0  0  0
 24 33  1  0  0  0  0
 25 34  1  1  0  0  0
 25  4  1  0  0  0  0
 26 25  1  0  0  0  0
 27 35  1  6  0  0  0
 27 26  1  0  0  0  0
 27  2  1  0  0  0  0
 29 16  1  0  0  0  0
 40  8  1  0  0  0  0
 40  5  1  0  0  0  0
 41  9  1  0  0  0  0
 44 18  2  0  0  0  0
 45 15  1  0  0  0  0
 45 10  1  0  0  0  0
 46  1  1  0  0  0  0
M  END
>  <CHROM.1>
-153.52531629,-55.96392507,-55.28774878,-162.51052629,86.31774086,178.75814906
179.06044341,-67.66776563,-61.54740851,-91.55373820,97.37845451,59.04949144
172.16133002,12.45447345,-13.52796712,7.54484213,2.45979985,0.01404746,2.14762870

>  <Name>
lig.pdb

>  <RI>
0

>  <Rbt.Current_Directory>
/home/afrankz/demos/rdock_decoys_rna/rnas/3wru

>  <Rbt.Executable>
rbdock ($Id: //depot/dev/client3/rdock/2013.1/src/exe/rbdock.cxx#4 $)

>  <Rbt.Library>
libRbt.so (2013.1, Build901 2013/11/27)

>  <Rbt.Parameter_File>
/export/apps/rDock/src/rDock_2013.1_src/data/scripts/dock_solv.prm

>  <Rbt.Receptor>
prm/pocket_docking_4.prm

>  <SCORE>
-1.94835

>  <SCORE.INTER>
-0.664321

>  <SCORE.INTER.CONST>
1

>  <SCORE.INTER.POLAR>
0

>  <SCORE.INTER.ROT>
13

>  <SCORE.INTER.SOLV>
24.621

>  <SCORE.INTER.VDW>
-20.9166

>  <SCORE.INTER.norm>
-0.0144418

>  <SCORE.INTRA>
-1.28402

>  <SCORE.INTRA.DIHEDRAL>
-6.91859

>  <SCORE.INTRA.DIHEDRAL.0>
19.7146

>  <SCORE.INTRA.POLAR>
0

>  <SCORE.INTRA.POLAR.0>
0

>  <SCORE.INTRA.REPUL>
0

>  <SCORE.INTRA.REPUL.0>
0

>  <SCORE.INTRA.SOLV>
3.64057

>  <SCORE.INTRA.SOLV.lig_0>
-116.697

>  <SCORE.INTRA.VDW>
0.354987

>  <SCORE.INTRA.VDW.0>
-7.06424

>  <SCORE.INTRA.norm>
-0.0279136

>  <SCORE.RESTR>
0

>  <SCORE.RESTR.CAVITY>
0

>  <SCORE.RESTR.norm>
0

>  <SCORE.SYSTEM>
0

>  <SCORE.SYSTEM.CONST>
0

>  <SCORE.SYSTEM.DIHEDRAL>
0

>  <SCORE.SYSTEM.SOLV>
0

>  <SCORE.SYSTEM.norm>
0

>  <SCORE.heavy>
46

>  <SCORE.norm>
-0.0423554

>  <RMSD>
8.619

$$$$
lig.pdb
 OpenBabel03061811583D
libRbt.so/2013.1/901 2013/11/27
 46 49  0  0  0  0  0  0  0  0999 V2000
   15.7522  -14.7860    7.2799 C   0  0  1  0  0  0  0  0  0  0  0  0
   14.1736  -14.8678    9.2570 C   0  0  1  0  0  0  0  0  0  0  0  0
   13.3212  -16.0988    8.8236 C   0  0  1  0  0  0  0  0  0  0  0  0
   11.8803  -16.0143    9.5443 C   0  0  2  0  0  0  0  0  0  0  0  0
   12.5058  -15.1784    6.6042 C   0  0  2  0  0  0  0  0  0  0  0  0
   10.9674  -15.3526    6.7513 C   0  0  1  0  0  0  0  0  0  0  0  0
   10.5626  -13.9459    6.3823 C   0  0  1  0  0  0  0  0  0  0  0  0
   11.5366  -13.0284    7.1878 C   0  0  1  0  0  0  0  0  0  0  0  0
   11.1695  -12.7487    8.6873 C   0  0  0  0  0  0  0  0  0  0  0  0
   10.2226  -12.5938    4.3476 C   0  0  1  0  0  0  0  0  0  0  0  0
   10.3152  -12.5165    2.8529 C   0  0  1  0  0  0  0  0  0  0  0  0
   17.1798  -15.2840    6.9522 C   0  0  1  0  0  0  0  0  0  0  0  0
    9.7555  -11.1245    2.3907 C   0  0  0  0  0  0  0  0  0  0  0  0
   10.4592   -9.9898    2.9158 C   0  0  0  0  0  0  0  0  0  0  0  0
   10.3614  -10.0109    4.3597 C   0  0  2  0  0  0  0  0  0  0  0  0
   11.1279   -8.7861    4.9979 C   0  0  0  0  0  0  0  0  0  0  0  0
    7.8166  -16.6201   11.8108 C   0  0  2  0  0  0  0  0  0  0  0  0
   10.0716  -17.2814   11.9860 C   0  0  0  0  0  0  0  0  0  0  0  0
    6.5484  -16.6004   12.3596 C   0  0  0  0  0  0  0  0  0  0  0  0
    8.7035  -16.9770   12.7728 C   0  0  1  0  0  0  0  0  0  0  0  0
   18.2823  -14.3479    7.6275 C   0  0  0  0  0  0  0  0  0  0  0  0
   18.0638  -12.8511    7.0946 C   0  0  0  0  0  0  0  0  0  0  0  0
   16.5839  -12.3977    7.4951 C   0  0  1  0  0  0  0  0  0  0  0  0
   16.2721  -10.9749    7.0155 C   0  0  0  0  0  0  0  0  0  0  0  0
   12.1100  -16.0910   11.1166 C   0  0  1  0  0  0  0  0  0  0  0  0
   12.9770  -14.7795   11.5093 C   0  0  0  0  0  0  0  0  0  0  0  0
   14.3806  -14.8273   10.7914 C   0  0  2  0  0  0  0  0  0  0  0  0
    8.1073  -15.3330   11.2204 F   0  0  0  0  0  0  0  0  0  0  0  0
   12.6390   -8.7525    4.6294 N   0  0  0  0  0  0  0  0  0  0  0  0
   17.2933  -16.7188    7.4081 N   0  0  0  0  0  0  0  0  0  0  0  0
   11.6205  -12.5741    2.3565 N   0  0  0  0  0  0  0  0  0  0  0  0
    5.7849  -17.6119   12.9885 N   0  0  0  0  0  0  0  0  0  0  0  0
   16.2266  -10.9129    5.6066 N   0  0  0  0  0  0  0  0  0  0  0  0
   10.8129  -16.0302   11.8141 N   0  0  0  0  0  0  0  0  0  0  0  0
   15.1791  -13.6287   11.1310 N   0  0  0  0  0  0  0  0  0  0  0  0
   15.4679  -14.9289    8.6720 O   0  0  0  0  0  0  0  0  0  0  0  0
   13.1910  -16.0299    7.3299 O   0  0  0  0  0  0  0  0  0  0  0  0
   11.1482  -17.1106    9.1466 O   0  0  0  0  0  0  0  0  0  0  0  0
   10.5481  -16.3246    5.8420 O   0  0  0  0  0  0  0  0  0  0  0  0
   12.7421  -13.7567    6.9011 O   0  0  0  0  0  0  0  0  0  0  0  0
    9.8834  -12.0976    8.7009 O   0  0  0  0  0  0  0  0  0  0  0  0
   10.7310  -13.7561    4.8857 O   0  0  0  0  0  0  0  0  0  0  0  0
    8.9259  -15.9372   13.7503 O   0  0  0  0  0  0  0  0  0  0  0  0
   10.4325  -18.4076   11.6067 O   0  0  0  0  0  0  0  0  0  0  0  0
   10.8958  -11.3149    4.9035 O   0  0  0  0  0  0  0  0  0  0  0  0
   15.5703  -13.3494    6.8812 O   0  0  0  0  0  0  0  0  0  0  0  0
  1 36  1  1  0  0  0
  2 36  1  6  0  0  0
  2  3  1  0  0  0  0
  3 37  1  6  0  0  0
  3  4  1  0  0  0  0
  4 38  1  6  0  0  0
  5 37  1  1  0  0  0
  5  6  1  0  0  0  0
  6  7  1  0  0  0  0
  6 39  1  6  0  0  0
  7 42  1  6  0  0  0
  8  9  1  1  0  0  0
  8  7  1  0  0  0  0
 10 42  1  1  0  0  0
 10 11  1  0  0  0  0
 11 31  1  1  0  0  0
 11 13  1  0  0  0  0
 12 30  1  1  0  0  0
 12  1  1  0  0  0  0
 14 13  1  0  0  0  0
 15 16  1  1  0  0  0
 15 14  1  0  0  0  0
 17 19  1  1  0  0  0
 17 28  1  0  0  0  0
 18 34  1  0  0  0  0
 19 32  1  0  0  0  0
 20 18  1  6  0  0  0
 20 17  1  0  0  0  0
 20 43  1  0  0  0  0
 21 12  1  0  0  0  0
 22 21  1  0  0  0  0
 22 23  1  0  0  0  0
 23 24  1  6  0  0  0
 23 46  1  0  0  0  0
 24 33  1  0  0  0  0
 25 34  1  1  0  0  0
 25  4  1  0  0  0  0
 26 25  1  0  0  0  0
 27 35  1  6  0  0  0
 27 26  1  0  0  0  0
 27  2  1  0  0  0  0
 29 16  1  0  0  0  0
 40  8  1  0  0  0  0
 40  5  1  0  0  0  0
 41  9  1  0  0  0  0
 44 18  2  0  0  0  0
 45 15  1  0  0  0  0
 45 10  1  0  0  0  0
 46  1  1  0  0  0  0
M  END
>  <CHROM.1>
-164.49005407,68.10065220,-70.18536412,-68.89326935,170.77558507,-60.37914190
-175.07886327,-58.92570388,-59.18124342,86.12117322,168.09723297,66.73331220
84.93479468,12.14033980,-14.15699320,7.98847605,-1.11014824,-0.02072841,2.19767961

>  <Name>
lig.pdb

>  <RI>
0

>  <Rbt.Current_Directory>
/home/afrankz/demos/rdock_decoys_rna/rnas/3wru

>  <Rbt.Executable>
rbdock ($Id: //depot/dev/client3/rdock/2013.1/src/exe/rbdock.cxx#4 $)

>  <Rbt.Library>
libRbt.so (2013.1, Build901 2013/11/27)

>  <Rbt.Parameter_File>
/export/apps/rDock/src/rDock_2013.1_src/data/scripts/dock_solv.prm

>  <Rbt.Receptor>
prm/pocket_docking_4.prm

>  <SCORE>
-4.13203

>  <SCORE.INTER>
1.17096

>  <SCORE.INTER.CONST>
1

>  <SCORE.INTER.POLAR>
0

>  <SCORE.INTER.ROT>
13

>  <SCORE.INTER.SOLV>
22.4309

>  <SCORE.INTER.VDW>
-18.963

>  <SCORE.INTER.norm>
0.0254555

>  <SCORE.INTRA>
-5.30299

>  <SCORE.INTRA.DIHEDRAL>
-14.1215

>  <SCORE.INTRA.DIHEDRAL.0>
19.7146

>  <SCORE.INTRA.POLAR>
0

>  <SCORE.INTRA.POLAR.0>
0

>  <SCORE.INTRA.REPUL>
0.415301

>  <SCORE.INTRA.REPUL.0>
0

>  <SCORE.INTRA.SOLV>
0.356562

>  <SCORE.INTRA.SOLV.lig_0>
-116.697

>  <SCORE.INTRA.VDW>
-0.497022

>  <SCORE.INTRA.VDW.0>
-7.06424

>  <SCORE.INTRA.norm>
-0.115282

>  <SCORE.RESTR>
0

>  <SCORE.RESTR.CAVITY>
0

>  <SCORE.RESTR.norm>
0

>  <SCORE.SYSTEM>
0

>  <SCORE.SYSTEM.CONST>
0

>  <SCORE.SYSTEM.DIHEDRAL>
0

>  <SCORE.SYSTEM.SOLV>
0

>  <SCORE.SYSTEM.norm>
0

>  <SCORE.heavy>
46

>  <SCORE.norm>
-0.0898268

>  <RMSD>
8.624

$$$$
lig.pdb
 OpenBabel03061811583D
libRbt.so/2013.1/901 2013/11/27
 46 49  0  0  0  0  0  0  0  0999 V2000
    9.6001  -16.4349   10.0219 C   0  0  1  0  0  0  0  0  0  0  0  0
    9.6480  -14.3529    8.5829 C   0  0  1  0  0  0  0  0  0  0  0  0
   11.1426  -14.3017    8.1432 C   0  0  1  0  0  0  0  0  0  0  0  0
   11.5337  -12.7737    7.8041 C   0  0  2  0  0  0  0  0  0  0  0  0
   13.2464  -15.0133    9.3703 C   0  0  2  0  0  0  0  0  0  0  0  0
   13.7177  -15.4408   10.7894 C   0  0  1  0  0  0  0  0  0  0  0  0
   14.9861  -16.1508   10.3821 C   0  0  1  0  0  0  0  0  0  0  0  0
   14.5707  -17.0400    9.1672 C   0  0  1  0  0  0  0  0  0  0  0  0
   13.8959  -18.4179    9.4954 C   0  0  0  0  0  0  0  0  0  0  0  0
   17.2718  -15.5995    9.6368 C   0  0  1  0  0  0  0  0  0  0  0  0
   18.2941  -14.5313    9.3863 C   0  0  1  0  0  0  0  0  0  0  0  0
    9.0279  -17.8707    9.9555 C   0  0  1  0  0  0  0  0  0  0  0  0
   19.6349  -15.2187    8.9457 C   0  0  0  0  0  0  0  0  0  0  0  0
   19.5425  -16.0027    7.7477 C   0  0  0  0  0  0  0  0  0  0  0  0
   18.5880  -17.0692    7.9638 C   0  0  2  0  0  0  0  0  0  0  0  0
   18.4359  -17.9644    6.6713 C   0  0  0  0  0  0  0  0  0  0  0  0
   12.3750   -8.9285    4.6866 C   0  0  2  0  0  0  0  0  0  0  0  0
   10.5589  -10.4127    4.9143 C   0  0  0  0  0  0  0  0  0  0  0  0
   12.8456   -7.6816    4.3206 C   0  0  0  0  0  0  0  0  0  0  0  0
   11.0213   -8.8817    4.7555 C   0  0  1  0  0  0  0  0  0  0  0  0
    7.4329  -17.8552   10.0147 C   0  0  0  0  0  0  0  0  0  0  0  0
    6.9887  -17.1261   11.3724 C   0  0  0  0  0  0  0  0  0  0  0  0
    7.5896  -15.6447   11.3544 C   0  0  1  0  0  0  0  0  0  0  0  0
    7.2280  -14.8652   12.6244 C   0  0  0  0  0  0  0  0  0  0  0  0
   10.6343  -12.2938    6.5828 C   0  0  1  0  0  0  0  0  0  0  0  0
    9.1012  -12.3453    7.1053 C   0  0  0  0  0  0  0  0  0  0  0  0
    8.7065  -13.8281    7.4707 C   0  0  2  0  0  0  0  0  0  0  0  0
   12.9927   -9.3319    5.9297 F   0  0  0  0  0  0  0  0  0  0  0  0
   17.4705  -19.1677    6.8723 N   0  0  0  0  0  0  0  0  0  0  0  0
    9.5454  -18.5252    8.6973 N   0  0  0  0  0  0  0  0  0  0  0  0
   17.9662  -13.6579    8.3456 N   0  0  0  0  0  0  0  0  0  0  0  0
   12.5899   -6.8820    3.1819 N   0  0  0  0  0  0  0  0  0  0  0  0
    5.8293  -14.7391   12.7613 N   0  0  0  0  0  0  0  0  0  0  0  0
   10.9707  -10.9024    6.2316 N   0  0  0  0  0  0  0  0  0  0  0  0
    7.3120  -13.8887    7.9618 N   0  0  0  0  0  0  0  0  0  0  0  0
    9.2549  -15.6925    8.8520 O   0  0  0  0  0  0  0  0  0  0  0  0
   11.9496  -14.8310    9.2928 O   0  0  0  0  0  0  0  0  0  0  0  0
   12.8555  -12.7554    7.4187 O   0  0  0  0  0  0  0  0  0  0  0  0
   13.9268  -14.2877   11.5468 O   0  0  0  0  0  0  0  0  0  0  0  0
   13.7972  -16.0446    8.4768 O   0  0  0  0  0  0  0  0  0  0  0  0
   14.7920  -19.1395   10.3639 O   0  0  0  0  0  0  0  0  0  0  0  0
   16.0278  -15.1203    9.9855 O   0  0  0  0  0  0  0  0  0  0  0  0
   10.5388   -8.1092    5.8766 O   0  0  0  0  0  0  0  0  0  0  0  0
    9.9381  -11.0560    4.0522 O   0  0  0  0  0  0  0  0  0  0  0  0
   17.2510  -16.5014    8.3783 O   0  0  0  0  0  0  0  0  0  0  0  0
    9.1038  -15.7051   11.2372 O   0  0  0  0  0  0  0  0  0  0  0  0
  1 36  1  6  0  0  0
  2 36  1  6  0  0  0
  2  3  1  0  0  0  0
  3 37  1  1  0  0  0
  3  4  1  0  0  0  0
  4 38  1  6  0  0  0
  5 37  1  1  0  0  0
  5  6  1  0  0  0  0
  6  7  1  0  0  0  0
  6 39  1  1  0  0  0
  7 42  1  6  0  0  0
  8  9  1  1  0  0  0
  8  7  1  0  0  0  0
 10 42  1  6  0  0  0
 10 11  1  0  0  0  0
 11 31  1  6  0  0  0
 11 13  1  0  0  0  0
 12 30  1  6  0  0  0
 12  1  1  0  0  0  0
 14 13  1  0  0  0  0
 15 16  1  6  0  0  0
 15 14  1  0  0  0  0
 17 19  1  1  0  0  0
 17 28  1  0  0  0  0
 18 34  1  0  0  0  0
 19 32  1  0  0  0  0
 20 18  1  1  0  0  0
 20 17  1  0  0  0  0
 20 43  1  0  0  0  0
 21 12  1  0  0  0  0
 22 21  1  0  0  0  0
 22 23  1  0  0  0  0
 23 24  1  1  0  0  0
 23 46  1  0  0  0  0
 24 33  1  0  0  0  0
 25 34  1  1  0  0  0
 25  4  1  0  0  0  0
 26 25  1  0  0  0  0
 27 35  1  1  0  0  0
 27 26  1  0  0  0  0
 27  2  1  0  0  0  0
 29 16  1  0  0  0  0
 40  8  1  0  0  0  0
 40  5  1  0  0  0  0
 41  9  1  0  0  0  0
 44 18  2  0  0  0  0
 45 15  1  0  0  0  0
 45 10  1  0  0  0  0
 46  1  1  0  0  0  0
M  END
>  <CHROM.1>
-178.53190789,75.94709042,177.80235548,173.88669892,177.40089759,-55.38117510
-174.28719518,177.26174307,-58.37527709,68.72659494,169.85767923,-60.59887067
162.18006212,12.44634755,-14.33091351,8.36044108,2.56167906,0.17424827,-0.58252892

>  <Name>
lig.pdb

>  <RI>
0

>  <Rbt.Current_Directory>
/home/afrankz/demos/rdock_decoys_rna/rnas/3wru

>  <Rbt.Executable>
rbdock ($Id: //depot/dev/client3/rdock/2013.1/src/exe/rbdock.cxx#4 $)

>  <Rbt.Library>
libRbt.so (2013.1, Build901 2013/11/27)

>  <Rbt.Parameter_File>
/export/apps/rDock/src/rDock_2013.1_src/data/scripts/dock_solv.prm

>  <Rbt.Receptor>
prm/pocket_docking_6.prm

>  <SCORE>
-8.60717

>  <SCORE.INTER>
-0.69385

>  <SCORE.INTER.CONST>
1

>  <SCORE.INTER.POLAR>
0

>  <SCORE.INTER.ROT>
13

>  <SCORE.INTER.SOLV>
16.5567

>  <SCORE.INTER.VDW>
-18.2481

>  <SCORE.INTER.norm>
-0.0150837

>  <SCORE.INTRA>
-7.91332

>  <SCORE.INTRA.DIHEDRAL>
-16.3046

>  <SCORE.INTRA.DIHEDRAL.0>
19.7146

>  <SCORE.INTRA.POLAR>
0

>  <SCORE.INTRA.POLAR.0>
0

>  <SCORE.INTRA.REPUL>
0

>  <SCORE.INTRA.REPUL.0>
0

>  <SCORE.INTRA.SOLV>
-2.56749

>  <SCORE.INTRA.SOLV.lig_0>
-116.697

>  <SCORE.INTRA.VDW>
1.52274

>  <SCORE.INTRA.VDW.0>
-7.06424

>  <SCORE.INTRA.norm>
-0.172029

>  <SCORE.RESTR>
0

>  <SCORE.RESTR.CAVITY>
0

>  <SCORE.RESTR.norm>
0

>  <SCORE.SYSTEM>
0

>  <SCORE.SYSTEM.CONST>
0

>  <SCORE.SYSTEM.DIHEDRAL>
0

>  <SCORE.SYSTEM.SOLV>
0

>  <SCORE.SYSTEM.norm>
0

>  <SCORE.heavy>
46

>  <SCORE.norm>
-0.187112

>  <RMSD>
8.680

$$$$
lig.pdb
 OpenBabel03061811583D
libRbt.so/2013.1/901 2013/11/27
 46 49  0  0  0  0  0  0  0  0999 V2000
   12.0807  -14.4248    8.4437 C   0  0  1  0  0  0  0  0  0  0  0  0
   11.9904  -12.2038    7.2324 C   0  0  1  0  0  0  0  0  0  0  0  0
   13.4141  -12.3189    6.6081 C   0  0  1  0  0  0  0  0  0  0  0  0
   13.9370  -10.8407    6.2279 C   0  0  2  0  0  0  0  0  0  0  0  0
   15.3655  -13.6909    7.4725 C   0  0  2  0  0  0  0  0  0  0  0  0
   15.0864  -15.0119    6.7007 C   0  0  1  0  0  0  0  0  0  0  0  0
   16.4733  -15.2243    6.1438 C   0  0  1  0  0  0  0  0  0  0  0  0
   16.8980  -13.8263    5.5922 C   0  0  1  0  0  0  0  0  0  0  0  0
   16.3757  -13.4393    4.1642 C   0  0  0  0  0  0  0  0  0  0  0  0
   18.5933  -16.2455    6.8833 C   0  0  1  0  0  0  0  0  0  0  0  0
   19.4369  -16.7203    8.0286 C   0  0  1  0  0  0  0  0  0  0  0  0
   11.2541  -15.7300    8.5242 C   0  0  1  0  0  0  0  0  0  0  0  0
   20.7870  -17.2790    7.4544 C   0  0  0  0  0  0  0  0  0  0  0  0
   21.5690  -16.3246    6.7222 C   0  0  0  0  0  0  0  0  0  0  0  0
   20.7986  -15.8685    5.5849 C   0  0  2  0  0  0  0  0  0  0  0  0
   21.6070  -14.8049    4.7423 C   0  0  0  0  0  0  0  0  0  0  0  0
   14.2210   -6.9366    2.5919 C   0  0  2  0  0  0  0  0  0  0  0  0
   12.5874   -8.1424    3.7878 C   0  0  0  0  0  0  0  0  0  0  0  0
   14.7849   -5.7286    2.2274 C   0  0  0  0  0  0  0  0  0  0  0  0
   13.2629   -6.7081    3.5241 C   0  0  1  0  0  0  0  0  0  0  0  0
    9.8320  -15.4671    9.1997 C   0  0  0  0  0  0  0  0  0  0  0  0
   10.0771  -14.8558   10.6621 C   0  0  0  0  0  0  0  0  0  0  0  0
   10.9073  -13.4998   10.4955 C   0  0  1  0  0  0  0  0  0  0  0  0
   11.2046  -12.8412   11.8480 C   0  0  0  0  0  0  0  0  0  0  0  0
   12.9550  -10.2370    5.1315 C   0  0  1  0  0  0  0  0  0  0  0  0
   11.5039  -10.1193    5.8429 C   0  0  0  0  0  0  0  0  0  0  0  0
   10.9859  -11.5526    6.2497 C   0  0  2  0  0  0  0  0  0  0  0  0
   15.2570   -7.8341    3.0512 F   0  0  0  0  0  0  0  0  0  0  0  0
   20.8456  -14.3248    3.4735 N   0  0  0  0  0  0  0  0  0  0  0  0
   11.1273  -16.2927    7.1289 N   0  0  0  0  0  0  0  0  0  0  0  0
   19.8044  -15.7129    8.9250 N   0  0  0  0  0  0  0  0  0  0  0  0
   15.5072   -4.7694    2.9754 N   0  0  0  0  0  0  0  0  0  0  0  0
   10.0113  -12.5056   12.5221 N   0  0  0  0  0  0  0  0  0  0  0  0
   13.4065   -8.8880    4.7458 N   0  0  0  0  0  0  0  0  0  0  0  0
    9.6662  -11.4595    6.9125 N   0  0  0  0  0  0  0  0  0  0  0  0
   11.4789  -13.4933    7.5441 O   0  0  0  0  0  0  0  0  0  0  0  0
   14.2901  -12.9595    7.6449 O   0  0  0  0  0  0  0  0  0  0  0  0
   15.1933  -10.9693    5.6791 O   0  0  0  0  0  0  0  0  0  0  0  0
   14.6864  -15.9808    7.6219 O   0  0  0  0  0  0  0  0  0  0  0  0
   16.4547  -13.0507    6.7182 O   0  0  0  0  0  0  0  0  0  0  0  0
   14.9352  -13.4701    4.2103 O   0  0  0  0  0  0  0  0  0  0  0  0
   17.3931  -15.6834    7.2607 O   0  0  0  0  0  0  0  0  0  0  0  0
   13.7922   -6.1850    4.7621 O   0  0  0  0  0  0  0  0  0  0  0  0
   11.5303   -8.5320    3.2650 O   0  0  0  0  0  0  0  0  0  0  0  0
   19.4783  -15.2938    6.0413 O   0  0  0  0  0  0  0  0  0  0  0  0
   12.2256  -13.7863    9.7955 O   0  0  0  0  0  0  0  0  0  0  0  0
  1 36  1  6  0  0  0
  2 36  1  6  0  0  0
  2  3  1  0  0  0  0
  3 37  1  1  0  0  0
  3  4  1  0  0  0  0
  4 38  1  6  0  0  0
  5 37  1  6  0  0  0
  5  6  1  0  0  0  0
  6  7  1  0  0  0  0
  6 39  1  1  0  0  0
  7 42  1  1  0  0  0
  8  9  1  6  0  0  0
  8  7  1  0  0  0  0
 10 42  1  1  0  0  0
 10 11  1  0  0  0  0
 11 31  1  1  0  0  0
 11 13  1  0  0  0  0
 12 30  1  6  0  0  0
 12  1  1  0  0  0  0
 14 13  1  0  0  0  0
 15 16  1  1  0  0  0
 15 14  1  0  0  0  0
 17 19  1  1  0  0  0
 17 28  1  0  0  0  0
 18 34  1  0  0  0  0
 19 32  1  0  0  0  0
 20 18  1  1  0  0  0
 20 17  1  0  0  0  0
 20 43  1  0  0  0  0
 21 12  1  0  0  0  0
 22 21  1  0  0  0  0
 22 23  1  0  0  0  0
 23 24  1  1  0  0  0
 23 46  1  0  0  0  0
 24 33  1  0  0  0  0
 25 34  1  1  0  0  0
 25  4  1  0  0  0  0
 26 25  1  0  0  0  0
 27 35  1  1  0  0  0
 27 26  1  0  0  0  0
 27  2  1  0  0  0  0
 29 16  1  0  0  0  0
 40  8  1  0  0  0  0
 40  5  1  0  0  0  0
 41  9  1  0  0  0  0
 44 18  2  0  0  0  0
 45 15  1  0  0  0  0
 45 10  1  0  0  0  0
 46  1  1  0  0  0  0
M  END
>  <CHROM.1>
-179.38349324,59.96835657,152.44102466,-62.62934218,164.02332088,59.13869805
-178.05881669,177.63535433,62.28595951,82.70068332,175.32105311,-60.87300218
-177.14796590,14.68934171,-12.60457137,6.46406226,0.81279699,-0.38352766
2.54220512

>  <Name>
lig.pdb

>  <RI>
0

>  <Rbt.Current_Directory>
/home/afrankz/demos/rdock_decoys_rna/rnas/3wru

>  <Rbt.Executable>
rbdock ($Id: //depot/dev/client3/rdock/2013.1/src/exe/rbdock.cxx#4 $)

>  <Rbt.Library>
libRbt.so (2013.1, Build901 2013/11/27)

>  <Rbt.Parameter_File>
/export/apps/rDock/src/rDock_2013.1_src/data/scripts/dock_solv.prm

>  <Rbt.Receptor>
prm/pocket_docking_5.prm

>  <SCORE>
-2.68344

>  <SCORE.INTER>
3.20003

>  <SCORE.INTER.CONST>
1

>  <SCORE.INTER.POLAR>
0

>  <SCORE.INTER.ROT>
13

>  <SCORE.INTER.SOLV>
17.3294

>  <SCORE.INTER.VDW>
-15.9098

>  <SCORE.INTER.norm>
0.0695659

>  <SCORE.INTRA>
-5.88347

>  <SCORE.INTRA.DIHEDRAL>
-13.6675

>  <SCORE.INTRA.DIHEDRAL.0>
19.7146

>  <SCORE.INTRA.POLAR>
0

>  <SCORE.INTRA.POLAR.0>
0

>  <SCORE.INTRA.REPUL>
0

>  <SCORE.INTRA.REPUL.0>
0

>  <SCORE.INTRA.SOLV>
0.555942

>  <SCORE.INTRA.SOLV.lig_0>
-116.697

>  <SCORE.INTRA.VDW>
0.672321

>  <SCORE.INTRA.VDW.0>
-7.06424

>  <SCORE.INTRA.norm>
-0.127901

>  <SCORE.RESTR>
0

>  <SCORE.RESTR.CAVITY>
0

>  <SCORE.RESTR.norm>
0

>  <SCORE.SYSTEM>
0

>  <SCORE.SYSTEM.CONST>
0

>  <SCORE.SYSTEM.DIHEDRAL>
0

>  <SCORE.SYSTEM.SOLV>
0

>  <SCORE.SYSTEM.norm>
0

>  <SCORE.heavy>
46

>  <SCORE.norm>
-0.0583356

>  <RMSD>
8.698

$$$$
lig.pdb
 OpenBabel03061811583D
libRbt.so/2013.1/901 2013/11/27
 46 49  0  0  0  0  0  0  0  0999 V2000
   10.6268  -14.6217    4.5724 C   0  0  1  0  0  0  0  0  0  0  0  0
   11.8667  -15.6701    6.5144 C   0  0  1  0  0  0  0  0  0  0  0  0
   10.9454  -15.1256    7.6477 C   0  0  1  0  0  0  0  0  0  0  0  0
   11.0225  -16.1289    8.9088 C   0  0  2  0  0  0  0  0  0  0  0  0
   12.6616  -13.2662    7.8353 C   0  0  2  0  0  0  0  0  0  0  0  0
   12.8407  -11.8649    8.4857 C   0  0  1  0  0  0  0  0  0  0  0  0
   14.3366  -11.9162    8.6815 C   0  0  1  0  0  0  0  0  0  0  0  0
   14.6096  -13.3303    9.2856 C   0  0  1  0  0  0  0  0  0  0  0  0
   14.3943  -13.4943   10.8311 C   0  0  0  0  0  0  0  0  0  0  0  0
   16.3583  -11.4157    7.3600 C   0  0  1  0  0  0  0  0  0  0  0  0
   16.8923  -10.9212    6.0489 C   0  0  1  0  0  0  0  0  0  0  0  0
   10.8942  -13.5776    3.4626 C   0  0  1  0  0  0  0  0  0  0  0  0
   18.4287  -10.6422    6.2102 C   0  0  0  0  0  0  0  0  0  0  0  0
   19.2114  -11.7866    6.5793 C   0  0  0  0  0  0  0  0  0  0  0  0
   18.7471  -12.2723    7.8613 C   0  0  2  0  0  0  0  0  0  0  0  0
   19.5681  -13.5421    8.3178 C   0  0  0  0  0  0  0  0  0  0  0  0
    8.8541  -20.7096   11.2522 C   0  0  2  0  0  0  0  0  0  0  0  0
    9.3439  -18.5433   10.4648 C   0  0  0  0  0  0  0  0  0  0  0  0
    9.6326  -21.5710   10.5024 C   0  0  0  0  0  0  0  0  0  0  0  0
    9.6068  -19.6398   11.6101 C   0  0  1  0  0  0  0  0  0  0  0  0
   11.1509  -12.1310    4.0866 C   0  0  0  0  0  0  0  0  0  0  0  0
    9.8653  -11.7243    4.9550 C   0  0  0  0  0  0  0  0  0  0  0  0
    9.6719  -12.8290    6.0944 C   0  0  1  0  0  0  0  0  0  0  0  0
    8.4526  -12.5340    6.9762 C   0  0  0  0  0  0  0  0  0  0  0  0
   10.4661  -17.5458    8.4466 C   0  0  1  0  0  0  0  0  0  0  0  0
   11.4733  -18.0693    7.2901 C   0  0  0  0  0  0  0  0  0  0  0  0
   11.4355  -17.0858    6.0575 C   0  0  2  0  0  0  0  0  0  0  0  0
    8.3020  -21.4192   12.3841 F   0  0  0  0  0  0  0  0  0  0  0  0
   19.0019  -14.2044    9.6066 N   0  0  0  0  0  0  0  0  0  0  0  0
   12.0633  -14.0580    2.6370 N   0  0  0  0  0  0  0  0  0  0  0  0
   16.7912  -11.8447    5.0047 N   0  0  0  0  0  0  0  0  0  0  0  0
   10.2697  -21.4067    9.2500 N   0  0  0  0  0  0  0  0  0  0  0  0
    8.3090  -13.5090    7.9861 N   0  0  0  0  0  0  0  0  0  0  0  0
   10.5072  -18.4909    9.5768 N   0  0  0  0  0  0  0  0  0  0  0  0
   12.3606  -17.5448    4.9979 N   0  0  0  0  0  0  0  0  0  0  0  0
   11.7935  -14.8315    5.3686 O   0  0  0  0  0  0  0  0  0  0  0  0
   11.4578  -13.7601    8.0024 O   0  0  0  0  0  0  0  0  0  0  0  0
   10.2016  -15.6272    9.8939 O   0  0  0  0  0  0  0  0  0  0  0  0
   12.4173  -10.9003    7.5706 O   0  0  0  0  0  0  0  0  0  0  0  0
   13.7608  -14.0702    8.3924 O   0  0  0  0  0  0  0  0  0  0  0  0
   14.8161  -14.8266   11.1849 O   0  0  0  0  0  0  0  0  0  0  0  0
   15.0205  -11.7452    7.3371 O   0  0  0  0  0  0  0  0  0  0  0  0
    9.2401  -19.0960   12.8971 O   0  0  0  0  0  0  0  0  0  0  0  0
    8.3062  -17.8692   10.3573 O   0  0  0  0  0  0  0  0  0  0  0  0
   17.2708  -12.5866    7.8007 O   0  0  0  0  0  0  0  0  0  0  0  0
    9.4908  -14.1976    5.4586 O   0  0  0  0  0  0  0  0  0  0  0  0
  1 36  1  1  0  0  0
  2 36  1  6  0  0  0
  2  3  1  0  0  0  0
  3 37  1  1  0  0  0
  3  4  1  0  0  0  0
  4 38  1  1  0  0  0
  5 37  1  1  0  0  0
  5  6  1  0  0  0  0
  6  7  1  0  0  0  0
  6 39  1  6  0  0  0
  7 42  1  6  0  0  0
  8  9  1  1  0  0  0
  8  7  1  0  0  0  0
 10 42  1  6  0  0  0
 10 11  1  0  0  0  0
 11 31  1  6  0  0  0
 11 13  1  0  0  0  0
 12 30  1  1  0  0  0
 12  1  1  0  0  0  0
 14 13  1  0  0  0  0
 15 16  1  6  0  0  0
 15 14  1  0  0  0  0
 17 19  1  1  0  0  0
 17 28  1  0  0  0  0
 18 34  1  0  0  0  0
 19 32  1  0  0  0  0
 20 18  1  6  0  0  0
 20 17  1  0  0  0  0
 20 43  1  0  0  0  0
 21 12  1  0  0  0  0
 22 21  1  0  0  0  0
 22 23  1  0  0  0  0
 23 24  1  6  0  0  0
 23 46  1  0  0  0  0
 24 33  1  0  0  0  0
 25 34  1  1  0  0  0
 25  4  1  0  0  0  0
 26 25  1  0  0  0  0
 27 35  1  6  0  0  0
 27 26  1  0  0  0  0
 27  2  1  0  0  0  0
 29 16  1  0  0  0  0
 40  8  1  0  0  0  0
 40  5  1  0  0  0  0
 41  9  1  0  0  0  0
 44 18  2  0  0  0  0
 45 15  1  0  0  0  0
 45 10  1  0  0  0  0
 46  1  1  0  0  0  0
M  END
>  <CHROM.1>
176.35833164,-64.35910464,-23.79602945,-173.24984207,163.41052278,-174.88765065
-165.17076609,-173.23096418,-63.11354506,-104.22778861,92.95644777,-179.21058235
88.33515396,12.46184058,-14.90200788,7.92601296,0.78036863,-0.36498044,-0.78738736

>  <Name>
lig.pdb

>  <RI>
0

>  <Rbt.Current_Directory>
/home/afrankz/demos/rdock_decoys_rna/rnas/3wru

>  <Rbt.Executable>
rbdock ($Id: //depot/dev/client3/rdock/2013.1/src/exe/rbdock.cxx#4 $)

>  <Rbt.Library>
libRbt.so (2013.1, Build901 2013/11/27)

>  <Rbt.Parameter_File>
/export/apps/rDock/src/rDock_2013.1_src/data/scripts/dock_solv.prm

>  <Rbt.Receptor>
prm/pocket_docking_5.prm

>  <SCORE>
-0.144233

>  <SCORE.INTER>
1.01708

>  <SCORE.INTER.CONST>
1

>  <SCORE.INTER.POLAR>
0

>  <SCORE.INTER.ROT>
13

>  <SCORE.INTER.SOLV>
21.2439

>  <SCORE.INTER.VDW>
-18.6699

>  <SCORE.INTER.norm>
0.0221105

>  <SCORE.INTRA>
-1.16132

>  <SCORE.INTRA.DIHEDRAL>
-6.38384

>  <SCORE.INTRA.DIHEDRAL.0>
19.7146

>  <SCORE.INTRA.POLAR>
0

>  <SCORE.INTRA.POLAR.0>
0

>  <SCORE.INTRA.REPUL>
0

>  <SCORE.INTRA.REPUL.0>
0

>  <SCORE.INTRA.SOLV>
3.27897

>  <SCORE.INTRA.SOLV.lig_0>
-116.697

>  <SCORE.INTRA.VDW>
0.391118

>  <SCORE.INTRA.VDW.0>
-7.06424

>  <SCORE.INTRA.norm>
-0.025246

>  <SCORE.RESTR>
0

>  <SCORE.RESTR.CAVITY>
0

>  <SCORE.RESTR.norm>
0

>  <SCORE.SYSTEM>
0

>  <SCORE.SYSTEM.CONST>
0

>  <SCORE.SYSTEM.DIHEDRAL>
0

>  <SCORE.SYSTEM.SOLV>
0

>  <SCORE.SYSTEM.norm>
0

>  <SCORE.heavy>
46

>  <SCORE.norm>
-0.00313551

>  <RMSD>
8.717

$$$$
lig.pdb
 OpenBabel03061811583D
libRbt.so/2013.1/901 2013/11/27
 46 49  0  0  0  0  0  0  0  0999 V2000
    9.8416   -7.7024    1.1082 C   0  0  1  0  0  0  0  0  0  0  0  0
   10.9954   -6.0188    2.6056 C   0  0  1  0  0  0  0  0  0  0  0  0
   12.4471   -6.5247    2.8637 C   0  0  1  0  0  0  0  0  0  0  0  0
   12.9538   -5.9507    4.2838 C   0  0  2  0  0  0  0  0  0  0  0  0
   11.9262   -8.8240    3.8016 C   0  0  2  0  0  0  0  0  0  0  0  0
   10.4681   -8.4879    4.2257 C   0  0  1  0  0  0  0  0  0  0  0  0
   10.0768   -9.8568    4.7276 C   0  0  1  0  0  0  0  0  0  0  0  0
   10.5858  -10.8429    3.6287 C   0  0  1  0  0  0  0  0  0  0  0  0
    9.6699  -11.0346    2.3693 C   0  0  0  0  0  0  0  0  0  0  0  0
   11.5567  -11.2305    6.1441 C   0  0  1  0  0  0  0  0  0  0  0  0
   11.9332  -11.6139    7.5441 C   0  0  1  0  0  0  0  0  0  0  0  0
   10.1053   -8.2206   -0.3254 C   0  0  1  0  0  0  0  0  0  0  0  0
   12.8842  -12.8613    7.4802 C   0  0  0  0  0  0  0  0  0  0  0  0
   14.1059  -12.6488    6.7584 C   0  0  0  0  0  0  0  0  0  0  0  0
   13.7826  -12.3104    5.3887 C   0  0  2  0  0  0  0  0  0  0  0  0
   15.0923  -12.0549    4.5436 C   0  0  0  0  0  0  0  0  0  0  0  0
   14.9443   -1.6831    6.9560 C   0  0  2  0  0  0  0  0  0  0  0  0
   14.9008   -3.6478    5.6556 C   0  0  0  0  0  0  0  0  0  0  0  0
   14.5322   -1.1650    8.1691 C   0  0  0  0  0  0  0  0  0  0  0  0
   15.1788   -3.0106    7.1047 C   0  0  1  0  0  0  0  0  0  0  0  0
    9.4558   -7.2506   -1.4139 C   0  0  0  0  0  0  0  0  0  0  0  0
    7.8816   -7.1532   -1.1229 C   0  0  0  0  0  0  0  0  0  0  0  0
    7.6897   -6.5845    0.3588 C   0  0  1  0  0  0  0  0  0  0  0  0
    6.2088   -6.4653    0.7385 C   0  0  0  0  0  0  0  0  0  0  0  0
   12.9844   -4.3628    4.1914 C   0  0  1  0  0  0  0  0  0  0  0  0
   11.4517   -3.8966    3.9475 C   0  0  0  0  0  0  0  0  0  0  0  0
   10.9257   -4.4718    2.5762 C   0  0  2  0  0  0  0  0  0  0  0  0
   16.0994   -0.9520    6.4861 F   0  0  0  0  0  0  0  0  0  0  0  0
   15.7554  -10.6804    4.8457 N   0  0  0  0  0  0  0  0  0  0  0  0
   11.5973   -8.3631   -0.5066 N   0  0  0  0  0  0  0  0  0  0  0  0
   12.6539  -10.6336    8.2318 N   0  0  0  0  0  0  0  0  0  0  0  0
   13.3057   -1.2749    8.8657 N   0  0  0  0  0  0  0  0  0  0  0  0
    6.0523   -5.7824    1.9633 N   0  0  0  0  0  0  0  0  0  0  0  0
   13.4561   -3.7977    5.4683 N   0  0  0  0  0  0  0  0  0  0  0  0
    9.5220   -4.0643    2.3459 N   0  0  0  0  0  0  0  0  0  0  0  0
   10.5286   -6.4724    1.3416 O   0  0  0  0  0  0  0  0  0  0  0  0
   12.3873   -8.0245    2.8693 O   0  0  0  0  0  0  0  0  0  0  0  0
   14.2357   -6.4103    4.4878 O   0  0  0  0  0  0  0  0  0  0  0  0
   10.5160   -7.5080    5.2181 O   0  0  0  0  0  0  0  0  0  0  0  0
   11.8837  -10.2521    3.4495 O   0  0  0  0  0  0  0  0  0  0  0  0
    8.5942  -11.9154    2.7500 O   0  0  0  0  0  0  0  0  0  0  0  0
   10.7572  -10.1113    6.0605 O   0  0  0  0  0  0  0  0  0  0  0  0
   16.5332   -3.3029    7.5126 O   0  0  0  0  0  0  0  0  0  0  0  0
   15.7832   -3.9444    4.8334 O   0  0  0  0  0  0  0  0  0  0  0  0
   12.8773  -11.1019    5.3459 O   0  0  0  0  0  0  0  0  0  0  0  0
    8.3734   -7.5055    1.3560 O   0  0  0  0  0  0  0  0  0  0  0  0
  1 36  1  6  0  0  0
  2 36  1  6  0  0  0
  2  3  1  0  0  0  0
  3 37  1  1  0  0  0
  3  4  1  0  0  0  0
  4 38  1  6  0  0  0
  5 37  1  6  0  0  0
  5  6  1  0  0  0  0
  6  7  1  0  0  0  0
  6 39  1  1  0  0  0
  7 42  1  1  0  0  0
  8  9  1  6  0  0  0
  8  7  1  0  0  0  0
 10 42  1  1  0  0  0
 10 11  1  0  0  0  0
 11 31  1  6  0  0  0
 11 13  1  0  0  0  0
 12 30  1  6  0  0  0
 12  1  1  0  0  0  0
 14 13  1  0  0  0  0
 15 16  1  6  0  0  0
 15 14  1  0  0  0  0
 17 19  1  1  0  0  0
 17 28  1  0  0  0  0
 18 34  1  0  0  0  0
 19 32  1  0  0  0  0
 20 18  1  6  0  0  0
 20 17  1  0  0  0  0
 20 43  1  0  0  0  0
 21 12  1  0  0  0  0
 22 21  1  0  0  0  0
 22 23  1  0  0  0  0
 23 24  1  1  0  0  0
 23 46  1  0  0  0  0
 24 33  1  0  0  0  0
 25 34  1  1  0  0  0
 25  4  1  0  0  0  0
 26 25  1  0  0  0  0
 27 35  1  1  0  0  0
 27 26  1  0  0  0  0
 27  2  1  0  0  0  0
 29 16  1  0  0  0  0
 40  8  1  0  0  0  0
 40  5  1  0  0  0  0
 41  9  1  0  0  0  0
 44 18  2  0  0  0  0
 45 15  1  0  0  0  0
 45 10  1  0  0  0  0
 46  1  1  0  0  0  0
M  END
>  <CHROM.1>
-151.22436562,89.51459295,-75.11036259,53.92918951,-122.94153372,-77.93923879
-166.09296127,-75.61292392,-74.19871298,-79.32075881,151.68849653,-171.32994015
86.96862536,11.89247890,-7.32314273,4.08819106,2.42958571,0.80005549,3.00366280

>  <Name>
lig.pdb

>  <RI>
0

>  <Rbt.Current_Directory>
/home/afrankz/demos/rdock_decoys_rna/rnas/3wru

>  <Rbt.Executable>
rbdock ($Id: //depot/dev/client3/rdock/2013.1/src/exe/rbdock.cxx#4 $)

>  <Rbt.Library>
libRbt.so (2013.1, Build901 2013/11/27)

>  <Rbt.Parameter_File>
/export/apps/rDock/src/rDock_2013.1_src/data/scripts/dock_solv.prm

>  <Rbt.Receptor>
prm/blind_docking_20.prm

>  <SCORE>
12.3038

>  <SCORE.INTER>
3.47647

>  <SCORE.INTER.CONST>
1

>  <SCORE.INTER.POLAR>
0

>  <SCORE.INTER.ROT>
13

>  <SCORE.INTER.SOLV>
49.4985

>  <SCORE.INTER.VDW>
-26.4485

>  <SCORE.INTER.norm>
0.0755753

>  <SCORE.INTRA>
5.27673

>  <SCORE.INTRA.DIHEDRAL>
3.25135

>  <SCORE.INTRA.DIHEDRAL.0>
19.7146

>  <SCORE.INTRA.POLAR>
0

>  <SCORE.INTRA.POLAR.0>
0

>  <SCORE.INTRA.REPUL>
0

>  <SCORE.INTRA.REPUL.0>
0

>  <SCORE.INTRA.SOLV>
1.9776

>  <SCORE.INTRA.SOLV.lig_0>
-116.697

>  <SCORE.INTRA.VDW>
2.66225

>  <SCORE.INTRA.VDW.0>
-7.06424

>  <SCORE.INTRA.norm>
0.114711

>  <SCORE.RESTR>
3.55064

>  <SCORE.RESTR.CAVITY>
3.55064

>  <SCORE.RESTR.norm>
0.0771879

>  <SCORE.SYSTEM>
0

>  <SCORE.SYSTEM.CONST>
0

>  <SCORE.SYSTEM.DIHEDRAL>
0

>  <SCORE.SYSTEM.SOLV>
0

>  <SCORE.SYSTEM.norm>
0

>  <SCORE.heavy>
46

>  <SCORE.norm>
0.267475

>  <RMSD>
8.720

$$$$
lig.pdb
 OpenBabel03061811583D
libRbt.so/2013.1/901 2013/11/27
 46 49  0  0  0  0  0  0  0  0999 V2000
   15.1667  -12.4664    7.2232 C   0  0  1  0  0  0  0  0  0  0  0  0
   13.5129  -14.1200    8.1920 C   0  0  1  0  0  0  0  0  0  0  0  0
   12.6387  -15.2833    7.6333 C   0  0  1  0  0  0  0  0  0  0  0  0
   11.5894  -15.7389    8.7709 C   0  0  2  0  0  0  0  0  0  0  0  0
   11.3700  -13.5779    6.2478 C   0  0  2  0  0  0  0  0  0  0  0  0
   10.7447  -13.4050    4.8343 C   0  0  1  0  0  0  0  0  0  0  0  0
    9.7130  -12.3619    5.1895 C   0  0  1  0  0  0  0  0  0  0  0  0
    9.0554  -12.8860    6.5056 C   0  0  1  0  0  0  0  0  0  0  0  0
    7.9248  -13.9631    6.3527 C   0  0  0  0  0  0  0  0  0  0  0  0
   10.0565  -10.0021    4.5593 C   0  0  1  0  0  0  0  0  0  0  0  0
    9.9733  -10.3984    3.1154 C   0  0  1  0  0  0  0  0  0  0  0  0
   15.4717  -12.0093    5.7771 C   0  0  1  0  0  0  0  0  0  0  0  0
    9.6243   -9.1236    2.2684 C   0  0  0  0  0  0  0  0  0  0  0  0
   10.5840   -8.0610    2.3591 C   0  0  0  0  0  0  0  0  0  0  0  0
   10.6660   -7.6264    3.7373 C   0  0  2  0  0  0  0  0  0  0  0  0
   11.7177   -6.4595    3.9022 C   0  0  0  0  0  0  0  0  0  0  0  0
    8.8149  -17.2907   12.0520 C   0  0  2  0  0  0  0  0  0  0  0  0
   10.5357  -15.7468   11.5955 C   0  0  0  0  0  0  0  0  0  0  0  0
    8.1154  -18.0571   12.9648 C   0  0  0  0  0  0  0  0  0  0  0  0
    9.6330  -16.4455   12.7270 C   0  0  1  0  0  0  0  0  0  0  0  0
   16.5236  -12.9848    5.0774 C   0  0  0  0  0  0  0  0  0  0  0  0
   17.8597  -13.0007    5.9646 C   0  0  0  0  0  0  0  0  0  0  0  0
   17.4713  -13.5099    7.4295 C   0  0  1  0  0  0  0  0  0  0  0  0
   18.6874  -13.5486    8.3628 C   0  0  0  0  0  0  0  0  0  0  0  0
   12.4169  -16.2854   10.0148 C   0  0  1  0  0  0  0  0  0  0  0  0
   13.2837  -15.0315   10.5646 C   0  0  0  0  0  0  0  0  0  0  0  0
   14.2975  -14.5505    9.4561 C   0  0  2  0  0  0  0  0  0  0  0  0
    7.8846  -16.6063   11.1826 F   0  0  0  0  0  0  0  0  0  0  0  0
   13.1597   -6.8747    3.4917 N   0  0  0  0  0  0  0  0  0  0  0  0
   14.1669  -11.9410    5.0207 N   0  0  0  0  0  0  0  0  0  0  0  0
   11.1732  -10.8792    2.5838 N   0  0  0  0  0  0  0  0  0  0  0  0
    8.5563  -18.9398   13.9786 N   0  0  0  0  0  0  0  0  0  0  0  0
   18.3901  -14.2426    9.5549 N   0  0  0  0  0  0  0  0  0  0  0  0
   11.4922  -16.7258   11.0748 N   0  0  0  0  0  0  0  0  0  0  0  0
   15.0877  -13.3969    9.9400 N   0  0  0  0  0  0  0  0  0  0  0  0
   14.4789  -13.7178    7.2294 O   0  0  0  0  0  0  0  0  0  0  0  0
   11.9337  -14.7499    6.4203 O   0  0  0  0  0  0  0  0  0  0  0  0
   10.8311  -16.7656    8.2541 O   0  0  0  0  0  0  0  0  0  0  0  0
   11.7403  -12.9517    3.9679 O   0  0  0  0  0  0  0  0  0  0  0  0
   10.2720  -13.2588    7.1740 O   0  0  0  0  0  0  0  0  0  0  0  0
    8.5277  -15.1413    5.7816 O   0  0  0  0  0  0  0  0  0  0  0  0
   10.4071  -11.0296    5.4079 O   0  0  0  0  0  0  0  0  0  0  0  0
    8.9146  -15.4352   13.4683 O   0  0  0  0  0  0  0  0  0  0  0  0
   10.4153  -14.5676   11.2244 O   0  0  0  0  0  0  0  0  0  0  0  0
   11.0168   -8.7896    4.6349 O   0  0  0  0  0  0  0  0  0  0  0  0
   16.4251  -12.5879    8.0341 O   0  0  0  0  0  0  0  0  0  0  0  0
  1 36  1  6  0  0  0
  2 36  1  6  0  0  0
  2  3  1  0  0  0  0
  3 37  1  6  0  0  0
  3  4  1  0  0  0  0
  4 38  1  6  0  0  0
  5 37  1  1  0  0  0
  5  6  1  0  0  0  0
  6  7  1  0  0  0  0
  6 39  1  6  0  0  0
  7 42  1  1  0  0  0
  8  9  1  6  0  0  0
  8  7  1  0  0  0  0
 10 42  1  1  0  0  0
 10 11  1  0  0  0  0
 11 31  1  6  0  0  0
 11 13  1  0  0  0  0
 12 30  1  6  0  0  0
 12  1  1  0  0  0  0
 14 13  1  0  0  0  0
 15 16  1  6  0  0  0
 15 14  1  0  0  0  0
 17 19  1  1  0  0  0
 17 28  1  0  0  0  0
 18 34  1  0  0  0  0
 19 32  1  0  0  0  0
 20 18  1  6  0  0  0
 20 17  1  0  0  0  0
 20 43  1  0  0  0  0
 21 12  1  0  0  0  0
 22 21  1  0  0  0  0
 22 23  1  0  0  0  0
 23 24  1  1  0  0  0
 23 46  1  0  0  0  0
 24 33  1  0  0  0  0
 25 34  1  1  0  0  0
 25  4  1  0  0  0  0
 26 25  1  0  0  0  0
 27 35  1  1  0  0  0
 27 26  1  0  0  0  0
 27  2  1  0  0  0  0
 29 16  1  0  0  0  0
 40  8  1  0  0  0  0
 40  5  1  0  0  0  0
 41  9  1  0  0  0  0
 44 18  2  0  0  0  0
 45 15  1  0  0  0  0
 45 10  1  0  0  0  0
 46  1  1  0  0  0  0
M  END
>  <CHROM.1>
-147.62622227,160.48325888,-41.59878356,179.76911901,118.05436184,64.21745445
-44.59939084,-60.73145147,-58.68155388,-71.85779270,172.65418683,-168.30276673
-57.35910445,11.96073862,-13.33871416,7.43930572,-1.38236848,0.03515447,2.29570313

>  <Name>
lig.pdb

>  <RI>
0

>  <Rbt.Current_Directory>
/home/afrankz/demos/rdock_decoys_rna/rnas/3wru

>  <Rbt.Executable>
rbdock ($Id: //depot/dev/client3/rdock/2013.1/src/exe/rbdock.cxx#4 $)

>  <Rbt.Library>
libRbt.so (2013.1, Build901 2013/11/27)

>  <Rbt.Parameter_File>
/export/apps/rDock/src/rDock_2013.1_src/data/scripts/dock_solv.prm

>  <Rbt.Receptor>
prm/pocket_docking_3.prm

>  <SCORE>
5.67095

>  <SCORE.INTER>
-0.335981

>  <SCORE.INTER.CONST>
1

>  <SCORE.INTER.POLAR>
0

>  <SCORE.INTER.ROT>
13

>  <SCORE.INTER.SOLV>
18.6887

>  <SCORE.INTER.VDW>
-18.7202

>  <SCORE.INTER.norm>
-0.00730393

>  <SCORE.INTRA>
5.96822

>  <SCORE.INTRA.DIHEDRAL>
-2.34441

>  <SCORE.INTRA.DIHEDRAL.0>
19.7146

>  <SCORE.INTRA.POLAR>
0

>  <SCORE.INTRA.POLAR.0>
0

>  <SCORE.INTRA.REPUL>
0.0840051

>  <SCORE.INTRA.REPUL.0>
0

>  <SCORE.INTRA.SOLV>
8.43894

>  <SCORE.INTRA.SOLV.lig_0>
-116.697

>  <SCORE.INTRA.VDW>
2.50093

>  <SCORE.INTRA.VDW.0>
-7.06424

>  <SCORE.INTRA.norm>
0.129744

>  <SCORE.RESTR>
0.0387111

>  <SCORE.RESTR.CAVITY>
0.0387111

>  <SCORE.RESTR.norm>
0.000841545

>  <SCORE.SYSTEM>
0

>  <SCORE.SYSTEM.CONST>
0

>  <SCORE.SYSTEM.DIHEDRAL>
0

>  <SCORE.SYSTEM.SOLV>
0

>  <SCORE.SYSTEM.norm>
0

>  <SCORE.heavy>
46

>  <SCORE.norm>
0.123281

>  <RMSD>
8.732

$$$$
lig.pdb
 OpenBabel03061811583D
libRbt.so/2013.1/901 2013/11/27
 46 49  0  0  0  0  0  0  0  0999 V2000
   11.0458   -5.3868    0.5054 C   0  0  1  0  0  0  0  0  0  0  0  0
   11.5982   -5.4500    2.9749 C   0  0  1  0  0  0  0  0  0  0  0  0
   13.0537   -5.8262    2.5627 C   0  0  1  0  0  0  0  0  0  0  0  0
   14.0313   -5.5825    3.8228 C   0  0  2  0  0  0  0  0  0  0  0  0
   12.3918   -8.2702    2.7258 C   0  0  2  0  0  0  0  0  0  0  0  0
   13.0194   -8.7043    4.0810 C   0  0  1  0  0  0  0  0  0  0  0  0
   11.7828   -9.3123    4.6974 C   0  0  1  0  0  0  0  0  0  0  0  0
   10.6491   -8.2750    4.4185 C   0  0  1  0  0  0  0  0  0  0  0  0
   10.5476   -7.0550    5.3998 C   0  0  0  0  0  0  0  0  0  0  0  0
   10.3462  -11.2972    4.4146 C   0  0  1  0  0  0  0  0  0  0  0  0
   10.3119  -11.6703    5.8667 C   0  0  1  0  0  0  0  0  0  0  0  0
   10.2368   -4.2014   -0.0723 C   0  0  1  0  0  0  0  0  0  0  0  0
    8.9807  -12.4532    6.1484 C   0  0  0  0  0  0  0  0  0  0  0  0
    8.8271  -13.6664    5.3978 C   0  0  0  0  0  0  0  0  0  0  0  0
    8.8197  -13.3414    3.9874 C   0  0  2  0  0  0  0  0  0  0  0  0
    8.6620  -14.6430    3.1065 C   0  0  0  0  0  0  0  0  0  0  0  0
   14.8867   -2.7088    8.6250 C   0  0  2  0  0  0  0  0  0  0  0  0
   14.4568   -2.7715    6.3090 C   0  0  0  0  0  0  0  0  0  0  0  0
   15.7555   -2.4463    9.6673 C   0  0  0  0  0  0  0  0  0  0  0  0
   15.5745   -2.6511    7.4576 C   0  0  1  0  0  0  0  0  0  0  0  0
    8.6816   -4.5525   -0.1494 C   0  0  0  0  0  0  0  0  0  0  0  0
    8.5076   -5.8603   -1.0613 C   0  0  0  0  0  0  0  0  0  0  0  0
    9.3437   -7.0446   -0.3873 C   0  0  1  0  0  0  0  0  0  0  0  0
    9.2501   -8.3436   -1.1966 C   0  0  0  0  0  0  0  0  0  0  0  0
   13.9957   -4.0332    4.1822 C   0  0  1  0  0  0  0  0  0  0  0  0
   12.4707   -3.7085    4.6237 C   0  0  0  0  0  0  0  0  0  0  0  0
   11.4930   -3.9683    3.4135 C   0  0  2  0  0  0  0  0  0  0  0  0
   13.7774   -1.7833    8.6764 F   0  0  0  0  0  0  0  0  0  0  0  0
    9.8730  -15.6122    3.2270 N   0  0  0  0  0  0  0  0  0  0  0  0
   10.5055   -2.9874    0.7840 N   0  0  0  0  0  0  0  0  0  0  0  0
   11.3391  -12.5324    6.2605 N   0  0  0  0  0  0  0  0  0  0  0  0
   17.0392   -2.9594    9.9674 N   0  0  0  0  0  0  0  0  0  0  0  0
    8.9588   -8.0775   -2.5514 N   0  0  0  0  0  0  0  0  0  0  0  0
   14.8888   -3.7650    5.3236 N   0  0  0  0  0  0  0  0  0  0  0  0
   10.0942   -3.6879    3.8061 N   0  0  0  0  0  0  0  0  0  0  0  0
   10.7123   -5.6140    1.8751 O   0  0  0  0  0  0  0  0  0  0  0  0
   13.0289   -7.2722    2.1608 O   0  0  0  0  0  0  0  0  0  0  0  0
   15.3081   -5.9208    3.4337 O   0  0  0  0  0  0  0  0  0  0  0  0
   14.0368   -9.6224    3.8180 O   0  0  0  0  0  0  0  0  0  0  0  0
   10.9762   -8.0225    3.0418 O   0  0  0  0  0  0  0  0  0  0  0  0
   10.0805   -7.5600    6.6667 O   0  0  0  0  0  0  0  0  0  0  0  0
   11.4952  -10.6432    4.0263 O   0  0  0  0  0  0  0  0  0  0  0  0
   16.3084   -1.4177    7.2945 O   0  0  0  0  0  0  0  0  0  0  0  0
   13.3950   -2.1275    6.2865 O   0  0  0  0  0  0  0  0  0  0  0  0
   10.0789  -12.5952    3.6137 O   0  0  0  0  0  0  0  0  0  0  0  0
   10.8062   -6.6450   -0.2791 O   0  0  0  0  0  0  0  0  0  0  0  0
  1 36  1  1  0  0  0
  2 36  1  6  0  0  0
  2  3  1  0  0  0  0
  3 37  1  1  0  0  0
  3  4  1  0  0  0  0
  4 38  1  6  0  0  0
  5 37  1  1  0  0  0
  5  6  1  0  0  0  0
  6  7  1  0  0  0  0
  6 39  1  6  0  0  0
  7 42  1  6  0  0  0
  8  9  1  1  0  0  0
  8  7  1  0  0  0  0
 10 42  1  6  0  0  0
 10 11  1  0  0  0  0
 11 31  1  6  0  0  0
 11 13  1  0  0  0  0
 12 30  1  1  0  0  0
 12  1  1  0  0  0  0
 14 13  1  0  0  0  0
 15 16  1  6  0  0  0
 15 14  1  0  0  0  0
 17 19  1  1  0  0  0
 17 28  1  0  0  0  0
 18 34  1  0  0  0  0
 19 32  1  0  0  0  0
 20 18  1  6  0  0  0
 20 17  1  0  0  0  0
 20 43  1  0  0  0  0
 21 12  1  0  0  0  0
 22 21  1  0  0  0  0
 22 23  1  0  0  0  0
 23 24  1  6  0  0  0
 23 46  1  0  0  0  0
 24 33  1  0  0  0  0
 25 34  1  1  0  0  0
 25  4  1  0  0  0  0
 26 25  1  0  0  0  0
 27 35  1  1  0  0  0
 27 26  1  0  0  0  0
 27  2  1  0  0  0  0
 29 16  1  0  0  0  0
 40  8  1  0  0  0  0
 40  5  1  0  0  0  0
 41  9  1  0  0  0  0
 44 18  2  0  0  0  0
 45 15  1  0  0  0  0
 45 10  1  0  0  0  0
 46  1  1  0  0  0  0
M  END
>  <CHROM.1>
-114.78459380,-33.79207568,-41.00988823,-72.47575831,-176.08753530,-70.14799556
-61.40775921,-65.19202930,-47.96248797,-132.37324566,-172.67688466,24.69086176
-142.61651305,11.79361727,-6.97810510,3.92110696,2.63144460,1.02401261,2.56535447

>  <Name>
lig.pdb

>  <RI>
0

>  <Rbt.Current_Directory>
/home/afrankz/demos/rdock_decoys_rna/rnas/3wru

>  <Rbt.Executable>
rbdock ($Id: //depot/dev/client3/rdock/2013.1/src/exe/rbdock.cxx#4 $)

>  <Rbt.Library>
libRbt.so (2013.1, Build901 2013/11/27)

>  <Rbt.Parameter_File>
/export/apps/rDock/src/rDock_2013.1_src/data/scripts/dock_solv.prm

>  <Rbt.Receptor>
prm/blind_docking_20.prm

>  <SCORE>
45.1375

>  <SCORE.INTER>
24.0687

>  <SCORE.INTER.CONST>
1

>  <SCORE.INTER.POLAR>
0

>  <SCORE.INTER.ROT>
13

>  <SCORE.INTER.SOLV>
33.8073

>  <SCORE.INTER.VDW>
-7.48998

>  <SCORE.INTER.norm>
0.523232

>  <SCORE.INTRA>
12.7617

>  <SCORE.INTRA.DIHEDRAL>
0.478547

>  <SCORE.INTRA.DIHEDRAL.0>
19.7146

>  <SCORE.INTRA.POLAR>
0

>  <SCORE.INTRA.POLAR.0>
0

>  <SCORE.INTRA.REPUL>
0

>  <SCORE.INTRA.REPUL.0>
0

>  <SCORE.INTRA.SOLV>
4.15246

>  <SCORE.INTRA.SOLV.lig_0>
-116.697

>  <SCORE.INTRA.VDW>
10.4462

>  <SCORE.INTRA.VDW.0>
-7.06424

>  <SCORE.INTRA.norm>
0.277428

>  <SCORE.RESTR>
8.30718

>  <SCORE.RESTR.CAVITY>
8.30718

>  <SCORE.RESTR.norm>
0.180591

>  <SCORE.SYSTEM>
0

>  <SCORE.SYSTEM.CONST>
0

>  <SCORE.SYSTEM.DIHEDRAL>
0

>  <SCORE.SYSTEM.SOLV>
0

>  <SCORE.SYSTEM.norm>
0

>  <SCORE.heavy>
46

>  <SCORE.norm>
0.981251

>  <RMSD>
8.753

$$$$
lig.pdb
 OpenBabel03061811583D
libRbt.so/2013.1/901 2013/11/27
 46 49  0  0  0  0  0  0  0  0999 V2000
   11.8868  -11.5999    5.6753 C   0  0  1  0  0  0  0  0  0  0  0  0
   10.5388  -13.0756    7.2288 C   0  0  1  0  0  0  0  0  0  0  0  0
   11.5591  -13.8637    8.1050 C   0  0  1  0  0  0  0  0  0  0  0  0
   10.8840  -15.2545    8.5665 C   0  0  2  0  0  0  0  0  0  0  0  0
   14.0363  -13.9602    7.5647 C   0  0  2  0  0  0  0  0  0  0  0  0
   14.4643  -12.4732    7.7205 C   0  0  1  0  0  0  0  0  0  0  0  0
   15.6345  -12.6900    8.6493 C   0  0  1  0  0  0  0  0  0  0  0  0
   15.1049  -13.6861    9.7292 C   0  0  1  0  0  0  0  0  0  0  0  0
   14.2717  -13.0745   10.9096 C   0  0  0  0  0  0  0  0  0  0  0  0
   18.0431  -13.1714    8.4247 C   0  0  1  0  0  0  0  0  0  0  0  0
   18.8160  -11.9713    7.9650 C   0  0  1  0  0  0  0  0  0  0  0  0
   12.0446  -10.0869    5.3939 C   0  0  1  0  0  0  0  0  0  0  0  0
   20.2343  -12.0050    8.6370 C   0  0  0  0  0  0  0  0  0  0  0  0
   21.0224  -13.1610    8.3188 C   0  0  0  0  0  0  0  0  0  0  0  0
   20.3228  -14.3408    8.7809 C   0  0  2  0  0  0  0  0  0  0  0  0
   21.1403  -15.6510    8.4493 C   0  0  0  0  0  0  0  0  0  0  0  0
    9.1933  -19.0440   10.7228 C   0  0  2  0  0  0  0  0  0  0  0  0
    9.4352  -16.7442   11.1758 C   0  0  0  0  0  0  0  0  0  0  0  0
    8.8464  -18.8543    9.3986 C   0  0  0  0  0  0  0  0  0  0  0  0
    8.5977  -18.0835   11.4725 C   0  0  1  0  0  0  0  0  0  0  0  0
   10.6488   -9.4324    4.9800 C   0  0  0  0  0  0  0  0  0  0  0  0
   10.1003  -10.1999    3.6829 C   0  0  0  0  0  0  0  0  0  0  0  0
    9.9354  -11.7450    4.0589 C   0  0  1  0  0  0  0  0  0  0  0  0
    9.4241  -12.5711    2.8724 C   0  0  0  0  0  0  0  0  0  0  0  0
    9.6130  -14.9131    9.4602 C   0  0  1  0  0  0  0  0  0  0  0  0
    8.5831  -14.1191    8.4933 C   0  0  0  0  0  0  0  0  0  0  0  0
    9.2351  -12.7679    8.0063 C   0  0  2  0  0  0  0  0  0  0  0  0
   10.6334  -19.0503   10.8486 F   0  0  0  0  0  0  0  0  0  0  0  0
   22.5228  -15.7044    9.1606 N   0  0  0  0  0  0  0  0  0  0  0  0
   12.6357   -9.4394    6.6230 N   0  0  0  0  0  0  0  0  0  0  0  0
   19.0588  -11.9395    6.5889 N   0  0  0  0  0  0  0  0  0  0  0  0
    7.6035  -18.9640    8.7317 N   0  0  0  0  0  0  0  0  0  0  0  0
    9.3905  -13.9459    3.1883 N   0  0  0  0  0  0  0  0  0  0  0  0
    8.9729  -16.1606    9.9148 N   0  0  0  0  0  0  0  0  0  0  0  0
    8.3102  -12.0375    7.1116 N   0  0  0  0  0  0  0  0  0  0  0  0
   11.0849  -11.8232    6.8356 O   0  0  0  0  0  0  0  0  0  0  0  0
   12.7703  -14.1002    7.2506 O   0  0  0  0  0  0  0  0  0  0  0  0
   11.8029  -15.9303    9.3378 O   0  0  0  0  0  0  0  0  0  0  0  0
   14.8172  -11.9852    6.4617 O   0  0  0  0  0  0  0  0  0  0  0  0
   14.4513  -14.5936    8.8263 O   0  0  0  0  0  0  0  0  0  0  0  0
   13.8475  -14.1677   11.7482 O   0  0  0  0  0  0  0  0  0  0  0  0
   16.7895  -13.2847    7.8640 O   0  0  0  0  0  0  0  0  0  0  0  0
    7.2106  -17.8761   11.1272 O   0  0  0  0  0  0  0  0  0  0  0  0
   10.3188  -16.2848   11.9181 O   0  0  0  0  0  0  0  0  0  0  0  0
   18.9426  -14.4059    8.1704 O   0  0  0  0  0  0  0  0  0  0  0  0
   11.2736  -12.3120    4.5037 O   0  0  0  0  0  0  0  0  0  0  0  0
  1 36  1  1  0  0  0
  2 36  1  1  0  0  0
  2  3  1  0  0  0  0
  3 37  1  6  0  0  0
  3  4  1  0  0  0  0
  4 38  1  1  0  0  0
  5 37  1  1  0  0  0
  5  6  1  0  0  0  0
  6  7  1  0  0  0  0
  6 39  1  6  0  0  0
  7 42  1  6  0  0  0
  8  9  1  1  0  0  0
  8  7  1  0  0  0  0
 10 42  1  6  0  0  0
 10 11  1  0  0  0  0
 11 31  1  6  0  0  0
 11 13  1  0  0  0  0
 12 30  1  1  0  0  0
 12  1  1  0  0  0  0
 14 13  1  0  0  0  0
 15 16  1  6  0  0  0
 15 14  1  0  0  0  0
 17 19  1  6  0  0  0
 17 28  1  0  0  0  0
 18 34  1  0  0  0  0
 19 32  1  0  0  0  0
 20 18  1  6  0  0  0
 20 17  1  0  0  0  0
 20 43  1  0  0  0  0
 21 12  1  0  0  0  0
 22 21  1  0  0  0  0
 22 23  1  0  0  0  0
 23 24  1  6  0  0  0
 23 46  1  0  0  0  0
 24 33  1  0  0  0  0
 25 34  1  6  0  0  0
 25  4  1  0  0  0  0
 26 25  1  0  0  0  0
 27 35  1  6  0  0  0
 27 26  1  0  0  0  0
 27  2  1  0  0  0  0
 29 16  1  0  0  0  0
 40  8  1  0  0  0  0
 40  5  1  0  0  0  0
 41  9  1  0  0  0  0
 44 18  2  0  0  0  0
 45 15  1  0  0  0  0
 45 10  1  0  0  0  0
 46  1  1  0  0  0  0
M  END
>  <CHROM.1>
167.58416388,87.46579021,135.42501770,-71.26145767,160.68004137,177.87214648
-93.72159928,62.49478148,-66.46097374,81.18932731,-74.52098801,175.11899850
89.19741518,12.95383835,-14.01520613,8.08496963,2.93674695,0.12514298,2.40400293

>  <Name>
lig.pdb

>  <RI>
0

>  <Rbt.Current_Directory>
/home/afrankz/demos/rdock_decoys_rna/rnas/3wru

>  <Rbt.Executable>
rbdock ($Id: //depot/dev/client3/rdock/2013.1/src/exe/rbdock.cxx#4 $)

>  <Rbt.Library>
libRbt.so (2013.1, Build901 2013/11/27)

>  <Rbt.Parameter_File>
/export/apps/rDock/src/rDock_2013.1_src/data/scripts/dock_solv.prm

>  <Rbt.Receptor>
prm/pocket_docking_2.prm

>  <SCORE>
11.4567

>  <SCORE.INTER>
4.61909

>  <SCORE.INTER.CONST>
1

>  <SCORE.INTER.POLAR>
0

>  <SCORE.INTER.ROT>
13

>  <SCORE.INTER.SOLV>
22.801

>  <SCORE.INTER.VDW>
-16.7876

>  <SCORE.INTER.norm>
0.100415

>  <SCORE.INTRA>
5.024

>  <SCORE.INTRA.DIHEDRAL>
-0.275678

>  <SCORE.INTRA.DIHEDRAL.0>
19.7146

>  <SCORE.INTRA.POLAR>
0

>  <SCORE.INTRA.POLAR.0>
0

>  <SCORE.INTRA.REPUL>
0.0899391

>  <SCORE.INTRA.REPUL.0>
0

>  <SCORE.INTRA.SOLV>
3.35836

>  <SCORE.INTRA.SOLV.lig_0>
-116.697

>  <SCORE.INTRA.VDW>
3.03296

>  <SCORE.INTRA.VDW.0>
-7.06424

>  <SCORE.INTRA.norm>
0.109217

>  <SCORE.RESTR>
1.81364

>  <SCORE.RESTR.CAVITY>
1.81364

>  <SCORE.RESTR.norm>
0.0394271

>  <SCORE.SYSTEM>
0

>  <SCORE.SYSTEM.CONST>
0

>  <SCORE.SYSTEM.DIHEDRAL>
0

>  <SCORE.SYSTEM.SOLV>
0

>  <SCORE.SYSTEM.norm>
0

>  <SCORE.heavy>
46

>  <SCORE.norm>
0.249059

>  <RMSD>
8.754

$$$$
lig.pdb
 OpenBabel03061811583D
libRbt.so/2013.1/901 2013/11/27
 46 49  0  0  0  0  0  0  0  0999 V2000
    9.6716  -11.4855    6.0509 C   0  0  1  0  0  0  0  0  0  0  0  0
   10.4408  -13.2752    7.6675 C   0  0  1  0  0  0  0  0  0  0  0  0
   11.7235  -13.5831    8.4978 C   0  0  1  0  0  0  0  0  0  0  0  0
   11.5642  -15.0349    9.1832 C   0  0  2  0  0  0  0  0  0  0  0  0
   14.1472  -13.7819    7.7738 C   0  0  2  0  0  0  0  0  0  0  0  0
   15.0001  -13.8777    6.4769 C   0  0  1  0  0  0  0  0  0  0  0  0
   16.3308  -13.4881    7.0739 C   0  0  1  0  0  0  0  0  0  0  0  0
   16.0176  -12.2430    7.9632 C   0  0  1  0  0  0  0  0  0  0  0  0
   15.9298  -10.8560    7.2350 C   0  0  0  0  0  0  0  0  0  0  0  0
   18.2091  -14.9120    7.8007 C   0  0  1  0  0  0  0  0  0  0  0  0
   19.0851  -13.9603    8.5595 C   0  0  1  0  0  0  0  0  0  0  0  0
    9.7302  -12.3886    4.7962 C   0  0  1  0  0  0  0  0  0  0  0  0
   20.5838  -14.3520    8.3048 C   0  0  0  0  0  0  0  0  0  0  0  0
   20.9936  -14.2977    6.9308 C   0  0  0  0  0  0  0  0  0  0  0  0
   20.1917  -15.2325    6.1704 C   0  0  2  0  0  0  0  0  0  0  0  0
   20.5921  -15.2109    4.6426 C   0  0  0  0  0  0  0  0  0  0  0  0
    8.6057  -18.5466   11.6107 C   0  0  2  0  0  0  0  0  0  0  0  0
    9.3115  -16.3388   12.0350 C   0  0  0  0  0  0  0  0  0  0  0  0
    8.6834  -19.8952   11.9029 C   0  0  0  0  0  0  0  0  0  0  0  0
    9.2621  -17.8524   12.5732 C   0  0  1  0  0  0  0  0  0  0  0  0
   11.1697  -12.3228    4.1095 C   0  0  0  0  0  0  0  0  0  0  0  0
   11.4735  -10.7950    3.7276 C   0  0  0  0  0  0  0  0  0  0  0  0
   11.4251   -9.9328    5.0730 C   0  0  1  0  0  0  0  0  0  0  0  0
   11.6929   -8.4461    4.8097 C   0  0  0  0  0  0  0  0  0  0  0  0
   10.3240  -14.9773   10.1779 C   0  0  1  0  0  0  0  0  0  0  0  0
    9.0232  -14.6794    9.2585 C   0  0  0  0  0  0  0  0  0  0  0  0
    9.1713  -13.2755    8.5549 C   0  0  2  0  0  0  0  0  0  0  0  0
    7.2190  -18.1604   11.4783 F   0  0  0  0  0  0  0  0  0  0  0  0
   20.2938  -13.8490    3.9524 N   0  0  0  0  0  0  0  0  0  0  0  0
    9.3596  -13.7925    5.2099 N   0  0  0  0  0  0  0  0  0  0  0  0
   18.9751  -12.6291    8.1481 N   0  0  0  0  0  0  0  0  0  0  0  0
    8.1924  -21.0312   11.2174 N   0  0  0  0  0  0  0  0  0  0  0  0
   10.6980   -7.8911    3.9770 N   0  0  0  0  0  0  0  0  0  0  0  0
   10.1515  -16.2845   10.8367 N   0  0  0  0  0  0  0  0  0  0  0  0
    7.9956  -12.9953    7.7013 N   0  0  0  0  0  0  0  0  0  0  0  0
   10.5276  -11.9835    7.0797 O   0  0  0  0  0  0  0  0  0  0  0  0
   12.8769  -13.5547    7.5377 O   0  0  0  0  0  0  0  0  0  0  0  0
   12.7073  -15.2827    9.9097 O   0  0  0  0  0  0  0  0  0  0  0  0
   14.9453  -15.1927    6.0132 O   0  0  0  0  0  0  0  0  0  0  0  0
   14.8334  -12.7660    8.5877 O   0  0  0  0  0  0  0  0  0  0  0  0
   17.2180  -10.6001    6.6406 O   0  0  0  0  0  0  0  0  0  0  0  0
   16.8614  -14.6435    7.9032 O   0  0  0  0  0  0  0  0  0  0  0  0
    8.5941  -17.8917   13.8533 O   0  0  0  0  0  0  0  0  0  0  0  0
    8.7128  -15.3838   12.5568 O   0  0  0  0  0  0  0  0  0  0  0  0
   18.7228  -14.9236    6.3399 O   0  0  0  0  0  0  0  0  0  0  0  0
   10.0589  -10.0716    5.7243 O   0  0  0  0  0  0  0  0  0  0  0  0
  1 36  1  1  0  0  0
  2 36  1  1  0  0  0
  2  3  1  0  0  0  0
  3 37  1  6  0  0  0
  3  4  1  0  0  0  0
  4 38  1  1  0  0  0
  5 37  1  6  0  0  0
  5  6  1  0  0  0  0
  6  7  1  0  0  0  0
  6 39  1  1  0  0  0
  7 42  1  1  0  0  0
  8  9  1  6  0  0  0
  8  7  1  0  0  0  0
 10 42  1  6  0  0  0
 10 11  1  0  0  0  0
 11 31  1  6  0  0  0
 11 13  1  0  0  0  0
 12 30  1  1  0  0  0
 12  1  1  0  0  0  0
 14 13  1  0  0  0  0
 15 16  1  6  0  0  0
 15 14  1  0  0  0  0
 17 19  1  1  0  0  0
 17 28  1  0  0  0  0
 18 34  1  0  0  0  0
 19 32  1  0  0  0  0
 20 18  1  6  0  0  0
 20 17  1  0  0  0  0
 20 43  1  0  0  0  0
 21 12  1  0  0  0  0
 22 21  1  0  0  0  0
 22 23  1  0  0  0  0
 23 24  1  6  0  0  0
 23 46  1  0  0  0  0
 24 33  1  0  0  0  0
 25 34  1  6  0  0  0
 25  4  1  0  0  0  0
 26 25  1  0  0  0  0
 27 35  1  6  0  0  0
 27 26  1  0  0  0  0
 27  2  1  0  0  0  0
 29 16  1  0  0  0  0
 40  8  1  0  0  0  0
 40  5  1  0  0  0  0
 41  9  1  0  0  0  0
 44 18  2  0  0  0  0
 45 15  1  0  0  0  0
 45 10  1  0  0  0  0
 46  1  1  0  0  0  0
M  END
>  <CHROM.1>
-58.35716062,166.67750025,-178.51747029,170.85977769,138.80447321,-61.43553029
76.75271294,-64.69809781,-178.78714122,-66.17019176,171.59802438,62.68297364
163.84777445,13.00479385,-14.01885332,7.93273158,2.62276644,-0.12742141,2.44050086

>  <Name>
lig.pdb

>  <RI>
0

>  <Rbt.Current_Directory>
/home/afrankz/demos/rdock_decoys_rna/rnas/3wru

>  <Rbt.Executable>
rbdock ($Id: //depot/dev/client3/rdock/2013.1/src/exe/rbdock.cxx#4 $)

>  <Rbt.Library>
libRbt.so (2013.1, Build901 2013/11/27)

>  <Rbt.Parameter_File>
/export/apps/rDock/src/rDock_2013.1_src/data/scripts/dock_solv.prm

>  <Rbt.Receptor>
prm/pocket_docking_3.prm

>  <SCORE>
6.54227

>  <SCORE.INTER>
6.32471

>  <SCORE.INTER.CONST>
1

>  <SCORE.INTER.POLAR>
0

>  <SCORE.INTER.ROT>
13

>  <SCORE.INTER.SOLV>
17.1915

>  <SCORE.INTER.VDW>
-13.7807

>  <SCORE.INTER.norm>
0.137494

>  <SCORE.INTRA>
0.124905

>  <SCORE.INTRA.DIHEDRAL>
-10.0119

>  <SCORE.INTRA.DIHEDRAL.0>
19.7146

>  <SCORE.INTRA.POLAR>
0

>  <SCORE.INTRA.POLAR.0>
0

>  <SCORE.INTRA.REPUL>
0

>  <SCORE.INTRA.REPUL.0>
0

>  <SCORE.INTRA.SOLV>
5.61989

>  <SCORE.INTRA.SOLV.lig_0>
-116.697

>  <SCORE.INTRA.VDW>
2.32092

>  <SCORE.INTRA.VDW.0>
-7.06424

>  <SCORE.INTRA.norm>
0.00271533

>  <SCORE.RESTR>
0.0926624

>  <SCORE.RESTR.CAVITY>
0.0926624

>  <SCORE.RESTR.norm>
0.0020144

>  <SCORE.SYSTEM>
0

>  <SCORE.SYSTEM.CONST>
0

>  <SCORE.SYSTEM.DIHEDRAL>
0

>  <SCORE.SYSTEM.SOLV>
0

>  <SCORE.SYSTEM.norm>
0

>  <SCORE.heavy>
46

>  <SCORE.norm>
0.142223

>  <RMSD>
8.762

$$$$
lig.pdb
 OpenBabel03061811583D
libRbt.so/2013.1/901 2013/11/27
 46 49  0  0  0  0  0  0  0  0999 V2000
   11.1045  -11.4257    4.9691 C   0  0  1  0  0  0  0  0  0  0  0  0
    9.6831  -12.9225    6.4345 C   0  0  1  0  0  0  0  0  0  0  0  0
   10.0559  -12.4329    7.8667 C   0  0  1  0  0  0  0  0  0  0  0  0
    9.8060  -13.6376    8.9103 C   0  0  2  0  0  0  0  0  0  0  0  0
   12.5421  -12.7586    7.4789 C   0  0  2  0  0  0  0  0  0  0  0  0
   13.8966  -12.1084    7.8806 C   0  0  1  0  0  0  0  0  0  0  0  0
   14.7201  -13.3715    7.9534 C   0  0  1  0  0  0  0  0  0  0  0  0
   13.8313  -14.3795    8.7490 C   0  0  1  0  0  0  0  0  0  0  0  0
   13.8559  -14.2644   10.3136 C   0  0  0  0  0  0  0  0  0  0  0  0
   15.9770  -13.2049    5.8377 C   0  0  1  0  0  0  0  0  0  0  0  0
   16.2361  -13.7686    4.4724 C   0  0  1  0  0  0  0  0  0  0  0  0
   10.9018  -10.2841    3.9450 C   0  0  1  0  0  0  0  0  0  0  0  0
   17.4066  -12.9569    3.8125 C   0  0  0  0  0  0  0  0  0  0  0  0
   18.6484  -13.0027    4.5299 C   0  0  0  0  0  0  0  0  0  0  0  0
   18.4457  -12.4324    5.8447 C   0  0  2  0  0  0  0  0  0  0  0  0
   19.7808  -12.4636    6.6882 C   0  0  0  0  0  0  0  0  0  0  0  0
    8.7567  -16.7073   12.2026 C   0  0  2  0  0  0  0  0  0  0  0  0
    7.8664  -14.7394   11.2604 C   0  0  0  0  0  0  0  0  0  0  0  0
    8.6377  -17.7423   13.1107 C   0  0  0  0  0  0  0  0  0  0  0  0
    7.5617  -16.0737   12.1030 C   0  0  1  0  0  0  0  0  0  0  0  0
   10.1523  -10.8125    2.6385 C   0  0  0  0  0  0  0  0  0  0  0  0
   11.0258  -11.9990    2.0049 C   0  0  0  0  0  0  0  0  0  0  0  0
   11.1658  -13.1490    3.1067 C   0  0  1  0  0  0  0  0  0  0  0  0
   12.0003  -14.3305    2.5976 C   0  0  0  0  0  0  0  0  0  0  0  0
    8.2559  -13.9947    8.8894 C   0  0  1  0  0  0  0  0  0  0  0  0
    7.9347  -14.5174    7.3895 C   0  0  0  0  0  0  0  0  0  0  0  0
    8.2006  -13.3626    6.3485 C   0  0  2  0  0  0  0  0  0  0  0  0
    9.2311  -17.2256   10.9393 F   0  0  0  0  0  0  0  0  0  0  0  0
   20.9058  -11.5753    6.0837 N   0  0  0  0  0  0  0  0  0  0  0  0
   10.1433   -9.1706    4.6263 N   0  0  0  0  0  0  0  0  0  0  0  0
   16.6632  -15.0994    4.4742 N   0  0  0  0  0  0  0  0  0  0  0  0
    7.8987  -18.9477   13.0644 N   0  0  0  0  0  0  0  0  0  0  0  0
   11.3732  -14.9594    1.5011 N   0  0  0  0  0  0  0  0  0  0  0  0
    7.9821  -15.0855    9.8421 N   0  0  0  0  0  0  0  0  0  0  0  0
    7.9233  -13.8297    4.9721 N   0  0  0  0  0  0  0  0  0  0  0  0
    9.8525  -11.8727    5.4908 O   0  0  0  0  0  0  0  0  0  0  0  0
   11.5029  -12.0365    7.8247 O   0  0  0  0  0  0  0  0  0  0  0  0
   10.1415  -13.1808   10.1652 O   0  0  0  0  0  0  0  0  0  0  0  0
   14.2810  -11.2339    6.8634 O   0  0  0  0  0  0  0  0  0  0  0  0
   12.5989  -14.1090    8.0606 O   0  0  0  0  0  0  0  0  0  0  0  0
   13.1810  -13.0401   10.6653 O   0  0  0  0  0  0  0  0  0  0  0  0
   14.9972  -13.8666    6.5455 O   0  0  0  0  0  0  0  0  0  0  0  0
    6.5599  -16.8605   11.4223 O   0  0  0  0  0  0  0  0  0  0  0  0
    7.9681  -13.6026   11.7502 O   0  0  0  0  0  0  0  0  0  0  0  0
   17.3408  -13.1638    6.5700 O   0  0  0  0  0  0  0  0  0  0  0  0
   11.8293  -12.5886    4.3540 O   0  0  0  0  0  0  0  0  0  0  0  0
  1 36  1  6  0  0  0
  2 36  1  6  0  0  0
  2  3  1  0  0  0  0
  3 37  1  6  0  0  0
  3  4  1  0  0  0  0
  4 38  1  1  0  0  0
  5 37  1  1  0  0  0
  5  6  1  0  0  0  0
  6  7  1  0  0  0  0
  6 39  1  6  0  0  0
  7 42  1  6  0  0  0
  8  9  1  1  0  0  0
  8  7  1  0  0  0  0
 10 42  1  1  0  0  0
 10 11  1  0  0  0  0
 11 31  1  1  0  0  0
 11 13  1  0  0  0  0
 12 30  1  1  0  0  0
 12  1  1  0  0  0  0
 14 13  1  0  0  0  0
 15 16  1  1  0  0  0
 15 14  1  0  0  0  0
 17 19  1  1  0  0  0
 17 28  1  0  0  0  0
 18 34  1  0  0  0  0
 19 32  1  0  0  0  0
 20 18  1  6  0  0  0
 20 17  1  0  0  0  0
 20 43  1  0  0  0  0
 21 12  1  0  0  0  0
 22 21  1  0  0  0  0
 22 23  1  0  0  0  0
 23 24  1  6  0  0  0
 23 46  1  0  0  0  0
 24 33  1  0  0  0  0
 25 34  1  1  0  0  0
 25  4  1  0  0  0  0
 26 25  1  0  0  0  0
 27 35  1  6  0  0  0
 27 26  1  0  0  0  0
 27  2  1  0  0  0  0
 29 16  1  0  0  0  0
 40  8  1  0  0  0  0
 40  5  1  0  0  0  0
 41  9  1  0  0  0  0
 44 18  2  0  0  0  0
 45 15  1  0  0  0  0
 45 10  1  0  0  0  0
 46  1  1  0  0  0  0
M  END
>  <CHROM.1>
178.89817734,76.81744510,-57.11201223,-166.44696285,77.26642274,69.93615986
178.05972578,64.46023917,66.96875699,77.75460172,169.49920694,-63.37655648
79.86564095,11.96556180,-13.59164363,7.27608028,0.68912407,-0.03783607,-1.13755230

>  <Name>
lig.pdb

>  <RI>
0

>  <Rbt.Current_Directory>
/home/afrankz/demos/rdock_decoys_rna/rnas/3wru

>  <Rbt.Executable>
rbdock ($Id: //depot/dev/client3/rdock/2013.1/src/exe/rbdock.cxx#4 $)

>  <Rbt.Library>
libRbt.so (2013.1, Build901 2013/11/27)

>  <Rbt.Parameter_File>
/export/apps/rDock/src/rDock_2013.1_src/data/scripts/dock_solv.prm

>  <Rbt.Receptor>
prm/pocket_docking_5.prm

>  <SCORE>
-3.63709

>  <SCORE.INTER>
2.61574

>  <SCORE.INTER.CONST>
1

>  <SCORE.INTER.POLAR>
0

>  <SCORE.INTER.ROT>
13

>  <SCORE.INTER.SOLV>
23.5277

>  <SCORE.INTER.VDW>
-18.3654

>  <SCORE.INTER.norm>
0.0568638

>  <SCORE.INTRA>
-6.25283

>  <SCORE.INTRA.DIHEDRAL>
-13.4914

>  <SCORE.INTRA.DIHEDRAL.0>
19.7146

>  <SCORE.INTRA.POLAR>
0

>  <SCORE.INTRA.POLAR.0>
0

>  <SCORE.INTRA.REPUL>
0

>  <SCORE.INTRA.REPUL.0>
0

>  <SCORE.INTRA.SOLV>
0.138744

>  <SCORE.INTRA.SOLV.lig_0>
-116.697

>  <SCORE.INTRA.VDW>
0.423527

>  <SCORE.INTRA.VDW.0>
-7.06424

>  <SCORE.INTRA.norm>
-0.135931

>  <SCORE.RESTR>
0

>  <SCORE.RESTR.CAVITY>
0

>  <SCORE.RESTR.norm>
0

>  <SCORE.SYSTEM>
0

>  <SCORE.SYSTEM.CONST>
0

>  <SCORE.SYSTEM.DIHEDRAL>
0

>  <SCORE.SYSTEM.SOLV>
0

>  <SCORE.SYSTEM.norm>
0

>  <SCORE.heavy>
46

>  <SCORE.norm>
-0.0790671

>  <RMSD>
8.764

$$$$
lig.pdb
 OpenBabel03061811583D
libRbt.so/2013.1/901 2013/11/27
 46 49  0  0  0  0  0  0  0  0999 V2000
    9.7433  -11.3820    4.7517 C   0  0  1  0  0  0  0  0  0  0  0  0
   10.5853  -13.5633    5.7216 C   0  0  1  0  0  0  0  0  0  0  0  0
   10.6206  -13.0685    7.1993 C   0  0  1  0  0  0  0  0  0  0  0  0
   10.4711  -14.3418    8.1786 C   0  0  2  0  0  0  0  0  0  0  0  0
   13.1492  -12.8828    7.2994 C   0  0  2  0  0  0  0  0  0  0  0  0
   14.2569  -11.8940    7.7621 C   0  0  1  0  0  0  0  0  0  0  0  0
   15.3040  -12.9151    8.1359 C   0  0  1  0  0  0  0  0  0  0  0  0
   14.5311  -13.9925    8.9611 C   0  0  1  0  0  0  0  0  0  0  0  0
   14.2834  -13.6799   10.4786 C   0  0  0  0  0  0  0  0  0  0  0  0
   16.9062  -12.7876    6.2650 C   0  0  1  0  0  0  0  0  0  0  0  0
   17.4802  -13.4424    5.0441 C   0  0  1  0  0  0  0  0  0  0  0  0
    9.2412  -11.1832    3.3020 C   0  0  1  0  0  0  0  0  0  0  0  0
   18.6482  -12.5454    4.5004 C   0  0  0  0  0  0  0  0  0  0  0  0
   19.7310  -12.3465    5.4205 C   0  0  0  0  0  0  0  0  0  0  0  0
   19.2207  -11.6823    6.6009 C   0  0  2  0  0  0  0  0  0  0  0  0
   20.3694  -11.4437    7.6585 C   0  0  0  0  0  0  0  0  0  0  0  0
    7.2213  -18.1048   10.1457 C   0  0  2  0  0  0  0  0  0  0  0  0
    8.1864  -15.9563   10.0699 C   0  0  0  0  0  0  0  0  0  0  0  0
    7.2519  -19.4003   10.6262 C   0  0  0  0  0  0  0  0  0  0  0  0
    8.0955  -17.3531   10.8599 C   0  0  1  0  0  0  0  0  0  0  0  0
   10.4221  -10.6878    2.3493 C   0  0  0  0  0  0  0  0  0  0  0  0
   11.0047   -9.3171    2.9444 C   0  0  0  0  0  0  0  0  0  0  0  0
   11.5291   -9.6080    4.4264 C   0  0  1  0  0  0  0  0  0  0  0  0
   12.0978   -8.3477    5.0896 C   0  0  0  0  0  0  0  0  0  0  0  0
    9.0530  -15.0095    7.9065 C   0  0  1  0  0  0  0  0  0  0  0  0
    9.0849  -15.5233    6.3700 C   0  0  0  0  0  0  0  0  0  0  0  0
    9.2600  -14.2955    5.3953 C   0  0  2  0  0  0  0  0  0  0  0  0
    5.8669  -17.6025   10.1974 F   0  0  0  0  0  0  0  0  0  0  0  0
   21.0655  -12.7593    8.1111 N   0  0  0  0  0  0  0  0  0  0  0  0
    8.6367  -12.4842    2.8314 N   0  0  0  0  0  0  0  0  0  0  0  0
   18.0546  -14.6941    5.2824 N   0  0  0  0  0  0  0  0  0  0  0  0
    8.2890  -20.3618   10.6597 N   0  0  0  0  0  0  0  0  0  0  0  0
   13.1879   -7.8355    4.3546 N   0  0  0  0  0  0  0  0  0  0  0  0
    8.8706  -16.1726    8.7933 N   0  0  0  0  0  0  0  0  0  0  0  0
    9.3035  -14.7511    3.9882 N   0  0  0  0  0  0  0  0  0  0  0  0
   10.6743  -12.4622    4.8266 O   0  0  0  0  0  0  0  0  0  0  0  0
   11.9407  -12.3809    7.3932 O   0  0  0  0  0  0  0  0  0  0  0  0
   10.5047  -13.8792    9.4751 O   0  0  0  0  0  0  0  0  0  0  0  0
   14.6060  -11.0891    6.6770 O   0  0  0  0  0  0  0  0  0  0  0  0
   13.3941  -14.1004    8.0885 O   0  0  0  0  0  0  0  0  0  0  0  0
   15.5739  -13.5230   11.1015 O   0  0  0  0  0  0  0  0  0  0  0  0
   15.8975  -13.5057    6.8697 O   0  0  0  0  0  0  0  0  0  0  0  0
    7.6604  -17.1168   12.2168 O   0  0  0  0  0  0  0  0  0  0  0  0
    7.7291  -14.8789   10.4854 O   0  0  0  0  0  0  0  0  0  0  0  0
   18.0950  -12.4848    7.2099 O   0  0  0  0  0  0  0  0  0  0  0  0
   10.3881  -10.1335    5.2820 O   0  0  0  0  0  0  0  0  0  0  0  0
  1 36  1  6  0  0  0
  2 36  1  6  0  0  0
  2  3  1  0  0  0  0
  3 37  1  1  0  0  0
  3  4  1  0  0  0  0
  4 38  1  1  0  0  0
  5 37  1  1  0  0  0
  5  6  1  0  0  0  0
  6  7  1  0  0  0  0
  6 39  1  6  0  0  0
  7 42  1  6  0  0  0
  8  9  1  1  0  0  0
  8  7  1  0  0  0  0
 10 42  1  1  0  0  0
 10 11  1  0  0  0  0
 11 31  1  1  0  0  0
 11 13  1  0  0  0  0
 12 30  1  6  0  0  0
 12  1  1  0  0  0  0
 14 13  1  0  0  0  0
 15 16  1  1  0  0  0
 15 14  1  0  0  0  0
 17 19  1  1  0  0  0
 17 28  1  0  0  0  0
 18 34  1  0  0  0  0
 19 32  1  0  0  0  0
 20 18  1  6  0  0  0
 20 17  1  0  0  0  0
 20 43  1  0  0  0  0
 21 12  1  0  0  0  0
 22 21  1  0  0  0  0
 22 23  1  0  0  0  0
 23 24  1  1  0  0  0
 23 46  1  0  0  0  0
 24 33  1  0  0  0  0
 25 34  1  1  0  0  0
 25  4  1  0  0  0  0
 26 25  1  0  0  0  0
 27 35  1  6  0  0  0
 27 26  1  0  0  0  0
 27  2  1  0  0  0  0
 29 16  1  0  0  0  0
 40  8  1  0  0  0  0
 40  5  1  0  0  0  0
 41  9  1  0  0  0  0
 44 18  2  0  0  0  0
 45 15  1  0  0  0  0
 45 10  1  0  0  0  0
 46  1  1  0  0  0  0
M  END
>  <CHROM.1>
-127.34062608,-60.40042828,-62.20218582,-172.14321167,83.14397974,-60.09796045
178.19489109,-58.43297090,-63.07938549,-69.17831071,170.10030028,-60.24797498
93.28006270,12.30719890,-13.47405608,7.16886472,2.60599127,0.13763448,2.31916376

>  <Name>
lig.pdb

>  <RI>
0

>  <Rbt.Current_Directory>
/home/afrankz/demos/rdock_decoys_rna/rnas/3wru

>  <Rbt.Executable>
rbdock ($Id: //depot/dev/client3/rdock/2013.1/src/exe/rbdock.cxx#4 $)

>  <Rbt.Library>
libRbt.so (2013.1, Build901 2013/11/27)

>  <Rbt.Parameter_File>
/export/apps/rDock/src/rDock_2013.1_src/data/scripts/dock_solv.prm

>  <Rbt.Receptor>
prm/pocket_docking_3.prm

>  <SCORE>
-0.496242

>  <SCORE.INTER>
0.767977

>  <SCORE.INTER.CONST>
1

>  <SCORE.INTER.POLAR>
0

>  <SCORE.INTER.ROT>
13

>  <SCORE.INTER.SOLV>
22.3049

>  <SCORE.INTER.VDW>
-19.1897

>  <SCORE.INTER.norm>
0.0166951

>  <SCORE.INTRA>
-1.26422

>  <SCORE.INTRA.DIHEDRAL>
-7.99956

>  <SCORE.INTRA.DIHEDRAL.0>
19.7146

>  <SCORE.INTRA.POLAR>
0

>  <SCORE.INTRA.POLAR.0>
0

>  <SCORE.INTRA.REPUL>
0

>  <SCORE.INTRA.REPUL.0>
0

>  <SCORE.INTRA.SOLV>
2.09402

>  <SCORE.INTRA.SOLV.lig_0>
-116.697

>  <SCORE.INTRA.VDW>
1.68855

>  <SCORE.INTRA.VDW.0>
-7.06424

>  <SCORE.INTRA.norm>
-0.027483

>  <SCORE.RESTR>
0

>  <SCORE.RESTR.CAVITY>
0

>  <SCORE.RESTR.norm>
0

>  <SCORE.SYSTEM>
0

>  <SCORE.SYSTEM.CONST>
0

>  <SCORE.SYSTEM.DIHEDRAL>
0

>  <SCORE.SYSTEM.SOLV>
0

>  <SCORE.SYSTEM.norm>
0

>  <SCORE.heavy>
46

>  <SCORE.norm>
-0.0107879

>  <RMSD>
8.806

$$$$
lig.pdb
 OpenBabel03061811583D
libRbt.so/2013.1/901 2013/11/27
 46 49  0  0  0  0  0  0  0  0999 V2000
    7.7271  -14.9492   12.2916 C   0  0  1  0  0  0  0  0  0  0  0  0
    8.4312  -13.6102   10.2620 C   0  0  1  0  0  0  0  0  0  0  0  0
    8.1064  -14.6485    9.1456 C   0  0  1  0  0  0  0  0  0  0  0  0
    9.0198  -14.3281    7.8549 C   0  0  2  0  0  0  0  0  0  0  0  0
    7.9206  -17.1690    9.3699 C   0  0  2  0  0  0  0  0  0  0  0  0
    6.3750  -17.2437    9.5258 C   0  0  1  0  0  0  0  0  0  0  0  0
    6.1160  -18.3306    8.5107 C   0  0  1  0  0  0  0  0  0  0  0  0
    6.9670  -17.9226    7.2663 C   0  0  1  0  0  0  0  0  0  0  0  0
    6.3412  -16.8586    6.2978 C   0  0  0  0  0  0  0  0  0  0  0  0
    6.2737  -20.7862    8.3406 C   0  0  1  0  0  0  0  0  0  0  0  0
    6.7150  -22.0725    8.9727 C   0  0  1  0  0  0  0  0  0  0  0  0
    6.7266  -14.8247   13.4649 C   0  0  1  0  0  0  0  0  0  0  0  0
    6.3664  -23.2520    7.9972 C   0  0  0  0  0  0  0  0  0  0  0  0
    6.9991  -23.1754    6.7117 C   0  0  0  0  0  0  0  0  0  0  0  0
    6.5681  -21.9600    6.0544 C   0  0  2  0  0  0  0  0  0  0  0  0
    7.2413  -21.8149    4.6329 C   0  0  0  0  0  0  0  0  0  0  0  0
    9.5379  -11.4094    3.2939 C   0  0  2  0  0  0  0  0  0  0  0  0
    9.0035  -13.1013    4.8446 C   0  0  0  0  0  0  0  0  0  0  0  0
   10.2280  -10.4097    3.9532 C   0  0  0  0  0  0  0  0  0  0  0  0
   10.0180  -12.6116    3.6982 C   0  0  1  0  0  0  0  0  0  0  0  0
    7.0994  -13.5918   14.4077 C   0  0  0  0  0  0  0  0  0  0  0  0
    8.5924  -13.8102   14.9515 C   0  0  0  0  0  0  0  0  0  0  0  0
    9.5679  -13.8988   13.6880 C   0  0  1  0  0  0  0  0  0  0  0  0
   11.0265  -14.1209   14.1060 C   0  0  0  0  0  0  0  0  0  0  0  0
    8.6310  -12.8802    7.3226 C   0  0  1  0  0  0  0  0  0  0  0  0
    9.0116  -11.8466    8.5112 C   0  0  0  0  0  0  0  0  0  0  0  0
    8.1498  -12.1607    9.7943 C   0  0  2  0  0  0  0  0  0  0  0  0
    9.6424  -11.2076    1.8664 F   0  0  0  0  0  0  0  0  0  0  0  0
    6.7680  -22.8965    3.6199 N   0  0  0  0  0  0  0  0  0  0  0  0
    5.3374  -14.7008   12.8869 N   0  0  0  0  0  0  0  0  0  0  0  0
    8.0935  -22.1626    9.1850 N   0  0  0  0  0  0  0  0  0  0  0  0
   10.1309   -9.0003    3.8797 N   0  0  0  0  0  0  0  0  0  0  0  0
   11.5426  -12.9871   14.7687 N   0  0  0  0  0  0  0  0  0  0  0  0
    9.4361  -12.5534    6.1320 N   0  0  0  0  0  0  0  0  0  0  0  0
    8.4959  -11.2320   10.8930 N   0  0  0  0  0  0  0  0  0  0  0  0
    7.6146  -13.8365   11.4037 O   0  0  0  0  0  0  0  0  0  0  0  0
    8.4158  -16.0034    9.7124 O   0  0  0  0  0  0  0  0  0  0  0  0
    8.7144  -15.2566    6.8850 O   0  0  0  0  0  0  0  0  0  0  0  0
    6.0850  -17.6096   10.8408 O   0  0  0  0  0  0  0  0  0  0  0  0
    8.1673  -17.5797    7.9786 O   0  0  0  0  0  0  0  0  0  0  0  0
    5.2090  -17.4765    5.6539 O   0  0  0  0  0  0  0  0  0  0  0  0
    6.5693  -19.6624    9.0811 O   0  0  0  0  0  0  0  0  0  0  0  0
   10.0600  -13.5895    2.6361 O   0  0  0  0  0  0  0  0  0  0  0  0
    8.0077  -13.8171    4.6478 O   0  0  0  0  0  0  0  0  0  0  0  0
    6.8788  -20.7584    6.9155 O   0  0  0  0  0  0  0  0  0  0  0  0
    9.1412  -15.0469   12.7881 O   0  0  0  0  0  0  0  0  0  0  0  0
  1 36  1  6  0  0  0
  2 36  1  1  0  0  0
  2  3  1  0  0  0  0
  3 37  1  1  0  0  0
  3  4  1  0  0  0  0
  4 38  1  6  0  0  0
  5 37  1  6  0  0  0
  5  6  1  0  0  0  0
  6  7  1  0  0  0  0
  6 39  1  1  0  0  0
  7 42  1  1  0  0  0
  8  9  1  1  0  0  0
  8  7  1  0  0  0  0
 10 42  1  1  0  0  0
 10 11  1  0  0  0  0
 11 31  1  6  0  0  0
 11 13  1  0  0  0  0
 12 30  1  6  0  0  0
 12  1  1  0  0  0  0
 14 13  1  0  0  0  0
 15 16  1  6  0  0  0
 15 14  1  0  0  0  0
 17 19  1  1  0  0  0
 17 28  1  0  0  0  0
 18 34  1  0  0  0  0
 19 32  1  0  0  0  0
 20 18  1  1  0  0  0
 20 17  1  0  0  0  0
 20 43  1  0  0  0  0
 21 12  1  0  0  0  0
 22 21  1  0  0  0  0
 22 23  1  0  0  0  0
 23 24  1  1  0  0  0
 23 46  1  0  0  0  0
 24 33  1  0  0  0  0
 25 34  1  6  0  0  0
 25  4  1  0  0  0  0
 26 25  1  0  0  0  0
 27 35  1  1  0  0  0
 27 26  1  0  0  0  0
 27  2  1  0  0  0  0
 29 16  1  0  0  0  0
 40  8  1  0  0  0  0
 40  5  1  0  0  0  0
 41  9  1  0  0  0  0
 44 18  2  0  0  0  0
 45 15  1  0  0  0  0
 45 10  1  0  0  0  0
 46  1  1  0  0  0  0
M  END
>  <CHROM.1>
176.83241616,70.17749499,155.03871577,-59.09668683,173.24003742,-68.01537273
-178.47871921,66.79075344,179.00380426,-86.87857654,97.02362154,-67.82959853
80.88539469,8.02768619,-15.86309771,8.35397399,0.24469851,1.28621704,1.41845282

>  <Name>
lig.pdb

>  <RI>
0

>  <Rbt.Current_Directory>
/home/afrankz/demos/rdock_decoys_rna/rnas/3wru

>  <Rbt.Executable>
rbdock ($Id: //depot/dev/client3/rdock/2013.1/src/exe/rbdock.cxx#4 $)

>  <Rbt.Library>
libRbt.so (2013.1, Build901 2013/11/27)

>  <Rbt.Parameter_File>
/export/apps/rDock/src/rDock_2013.1_src/data/scripts/dock_solv.prm

>  <Rbt.Receptor>
prm/pocket_docking_8.prm

>  <SCORE>
-3.3216

>  <SCORE.INTER>
2.396

>  <SCORE.INTER.CONST>
1

>  <SCORE.INTER.POLAR>
0

>  <SCORE.INTER.ROT>
13

>  <SCORE.INTER.SOLV>
25.8231

>  <SCORE.INTER.VDW>
-19.277

>  <SCORE.INTER.norm>
0.052087

>  <SCORE.INTRA>
-5.7176

>  <SCORE.INTRA.DIHEDRAL>
-10.4348

>  <SCORE.INTRA.DIHEDRAL.0>
19.7146

>  <SCORE.INTRA.POLAR>
0

>  <SCORE.INTRA.POLAR.0>
0

>  <SCORE.INTRA.REPUL>
0

>  <SCORE.INTRA.REPUL.0>
0

>  <SCORE.INTRA.SOLV>
-1.73315

>  <SCORE.INTRA.SOLV.lig_0>
-116.697

>  <SCORE.INTRA.VDW>
0.366358

>  <SCORE.INTRA.VDW.0>
-7.06424

>  <SCORE.INTRA.norm>
-0.124296

>  <SCORE.RESTR>
0

>  <SCORE.RESTR.CAVITY>
0

>  <SCORE.RESTR.norm>
0

>  <SCORE.SYSTEM>
0

>  <SCORE.SYSTEM.CONST>
0

>  <SCORE.SYSTEM.DIHEDRAL>
0

>  <SCORE.SYSTEM.SOLV>
0

>  <SCORE.SYSTEM.norm>
0

>  <SCORE.heavy>
46

>  <SCORE.norm>
-0.0722087

>  <RMSD>
8.808

$$$$
lig.pdb
 OpenBabel03061811583D
libRbt.so/2013.1/901 2013/11/27
 46 49  0  0  0  0  0  0  0  0999 V2000
   11.2882   -6.5278    0.0157 C   0  0  1  0  0  0  0  0  0  0  0  0
   11.3359   -5.1663    2.1491 C   0  0  1  0  0  0  0  0  0  0  0  0
   12.8848   -5.3156    2.0584 C   0  0  1  0  0  0  0  0  0  0  0  0
   13.5415   -4.7727    3.4284 C   0  0  2  0  0  0  0  0  0  0  0  0
   12.8762   -7.7842    2.6445 C   0  0  2  0  0  0  0  0  0  0  0  0
   13.6523   -7.7486    3.9917 C   0  0  1  0  0  0  0  0  0  0  0  0
   12.6753   -8.5518    4.8159 C   0  0  1  0  0  0  0  0  0  0  0  0
   11.2753   -7.9558    4.4639 C   0  0  1  0  0  0  0  0  0  0  0  0
   10.8508   -6.6487    5.2208 C   0  0  0  0  0  0  0  0  0  0  0  0
   11.9053  -10.8841    5.0416 C   0  0  1  0  0  0  0  0  0  0  0  0
   12.5791  -12.0225    5.7479 C   0  0  1  0  0  0  0  0  0  0  0  0
   10.4913   -6.5428   -1.3103 C   0  0  1  0  0  0  0  0  0  0  0  0
   11.4730  -12.9555    6.3567 C   0  0  0  0  0  0  0  0  0  0  0  0
   10.5747  -13.5282    5.3956 C   0  0  0  0  0  0  0  0  0  0  0  0
    9.8776  -12.4570    4.7162 C   0  0  2  0  0  0  0  0  0  0  0  0
    8.8772  -13.0275    3.6353 C   0  0  0  0  0  0  0  0  0  0  0  0
   15.7384   -2.0703    6.5599 C   0  0  2  0  0  0  0  0  0  0  0  0
   14.1162   -3.6332    5.8679 C   0  0  0  0  0  0  0  0  0  0  0  0
   16.3368   -1.3306    7.5623 C   0  0  0  0  0  0  0  0  0  0  0  0
   14.7543   -2.8283    7.1041 C   0  0  1  0  0  0  0  0  0  0  0  0
    9.0218   -7.1253   -1.0892 C   0  0  0  0  0  0  0  0  0  0  0  0
    9.1548   -8.6057   -0.4866 C   0  0  0  0  0  0  0  0  0  0  0  0
    9.9597   -8.5054    0.8910 C   0  0  1  0  0  0  0  0  0  0  0  0
   10.1508   -9.8800    1.5433 C   0  0  0  0  0  0  0  0  0  0  0  0
   13.1932   -3.2264    3.5635 C   0  0  1  0  0  0  0  0  0  0  0  0
   11.5791   -3.1369    3.6773 C   0  0  0  0  0  0  0  0  0  0  0  0
   10.9149   -3.6904    2.3581 C   0  0  2  0  0  0  0  0  0  0  0  0
   16.7415   -2.8514    5.8719 F   0  0  0  0  0  0  0  0  0  0  0  0
    7.7777  -13.9441    4.2446 N   0  0  0  0  0  0  0  0  0  0  0  0
   10.4706   -5.1376   -1.8620 N   0  0  0  0  0  0  0  0  0  0  0  0
   13.3388  -12.8456    4.9119 N   0  0  0  0  0  0  0  0  0  0  0  0
   17.0281   -1.7258    8.7316 N   0  0  0  0  0  0  0  0  0  0  0  0
   10.9910  -10.7004    0.7610 N   0  0  0  0  0  0  0  0  0  0  0  0
   13.7878   -2.6869    4.7995 N   0  0  0  0  0  0  0  0  0  0  0  0
    9.4397   -3.6266    2.4527 N   0  0  0  0  0  0  0  0  0  0  0  0
   10.7235   -5.5982    0.9410 O   0  0  0  0  0  0  0  0  0  0  0  0
   13.1671   -6.7760    1.8572 O   0  0  0  0  0  0  0  0  0  0  0  0
   14.9071   -4.9147    3.3232 O   0  0  0  0  0  0  0  0  0  0  0  0
   14.8866   -8.3714    3.8022 O   0  0  0  0  0  0  0  0  0  0  0  0
   11.4632   -7.8938    3.0403 O   0  0  0  0  0  0  0  0  0  0  0  0
   11.8532   -5.6492    4.9482 O   0  0  0  0  0  0  0  0  0  0  0  0
   12.7726  -10.0135    4.4182 O   0  0  0  0  0  0  0  0  0  0  0  0
   15.2413   -3.7620    8.0927 O   0  0  0  0  0  0  0  0  0  0  0  0
   13.9509   -4.8637    5.8363 O   0  0  0  0  0  0  0  0  0  0  0  0
   10.8656  -11.5086    4.0789 O   0  0  0  0  0  0  0  0  0  0  0  0
   11.3279   -7.8915    0.6440 O   0  0  0  0  0  0  0  0  0  0  0  0
  1 36  1  1  0  0  0
  2 36  1  6  0  0  0
  2  3  1  0  0  0  0
  3 37  1  1  0  0  0
  3  4  1  0  0  0  0
  4 38  1  6  0  0  0
  5 37  1  1  0  0  0
  5  6  1  0  0  0  0
  6  7  1  0  0  0  0
  6 39  1  6  0  0  0
  7 42  1  6  0  0  0
  8  9  1  1  0  0  0
  8  7  1  0  0  0  0
 10 42  1  6  0  0  0
 10 11  1  0  0  0  0
 11 31  1  6  0  0  0
 11 13  1  0  0  0  0
 12 30  1  1  0  0  0
 12  1  1  0  0  0  0
 14 13  1  0  0  0  0
 15 16  1  6  0  0  0
 15 14  1  0  0  0  0
 17 19  1  1  0  0  0
 17 28  1  0  0  0  0
 18 34  1  0  0  0  0
 19 32  1  0  0  0  0
 20 18  1  6  0  0  0
 20 17  1  0  0  0  0
 20 43  1  0  0  0  0
 21 12  1  0  0  0  0
 22 21  1  0  0  0  0
 22 23  1  0  0  0  0
 23 24  1  6  0  0  0
 23 46  1  0  0  0  0
 24 33  1  0  0  0  0
 25 34  1  1  0  0  0
 25  4  1  0  0  0  0
 26 25  1  0  0  0  0
 27 35  1  1  0  0  0
 27 26  1  0  0  0  0
 27  2  1  0  0  0  0
 29 16  1  0  0  0  0
 40  8  1  0  0  0  0
 40  5  1  0  0  0  0
 41  9  1  0  0  0  0
 44 18  2  0  0  0  0
 45 15  1  0  0  0  0
 45 10  1  0  0  0  0
 46  1  1  0  0  0  0
M  END
>  <CHROM.1>
-168.35207284,24.61758407,-61.03858457,-66.21030160,-177.54359029,58.02994940
-123.70587360,60.67849958,60.79654667,-50.88996339,179.48321724,66.25844098
-21.82164062,12.26056943,-7.08468598,3.64523441,2.49615041,0.95806685,2.64158807

>  <Name>
lig.pdb

>  <RI>
0

>  <Rbt.Current_Directory>
/home/afrankz/demos/rdock_decoys_rna/rnas/3wru

>  <Rbt.Executable>
rbdock ($Id: //depot/dev/client3/rdock/2013.1/src/exe/rbdock.cxx#4 $)

>  <Rbt.Library>
libRbt.so (2013.1, Build901 2013/11/27)

>  <Rbt.Parameter_File>
/export/apps/rDock/src/rDock_2013.1_src/data/scripts/dock_solv.prm

>  <Rbt.Receptor>
prm/blind_docking_20.prm

>  <SCORE>
33.8528

>  <SCORE.INTER>
14.6755

>  <SCORE.INTER.CONST>
1

>  <SCORE.INTER.POLAR>
0

>  <SCORE.INTER.ROT>
13

>  <SCORE.INTER.SOLV>
38.511

>  <SCORE.INTER.VDW>
-15.32

>  <SCORE.INTER.norm>
0.319032

>  <SCORE.INTRA>
13.5859

>  <SCORE.INTRA.DIHEDRAL>
-5.01747

>  <SCORE.INTRA.DIHEDRAL.0>
19.7146

>  <SCORE.INTRA.POLAR>
0

>  <SCORE.INTRA.POLAR.0>
0

>  <SCORE.INTRA.REPUL>
0

>  <SCORE.INTRA.REPUL.0>
0

>  <SCORE.INTRA.SOLV>
6.01005

>  <SCORE.INTRA.SOLV.lig_0>
-116.697

>  <SCORE.INTRA.VDW>
13.0896

>  <SCORE.INTRA.VDW.0>
-7.06424

>  <SCORE.INTRA.norm>
0.295346

>  <SCORE.RESTR>
5.59138

>  <SCORE.RESTR.CAVITY>
5.59138

>  <SCORE.RESTR.norm>
0.121552

>  <SCORE.SYSTEM>
0

>  <SCORE.SYSTEM.CONST>
0

>  <SCORE.SYSTEM.DIHEDRAL>
0

>  <SCORE.SYSTEM.SOLV>
0

>  <SCORE.SYSTEM.norm>
0

>  <SCORE.heavy>
46

>  <SCORE.norm>
0.73593

>  <RMSD>
8.834

$$$$
lig.pdb
 OpenBabel03061811583D
libRbt.so/2013.1/901 2013/11/27
 46 49  0  0  0  0  0  0  0  0999 V2000
    9.9928   -5.3319    1.4450 C   0  0  1  0  0  0  0  0  0  0  0  0
   10.8574   -5.0028    3.8013 C   0  0  1  0  0  0  0  0  0  0  0  0
   12.0193   -6.0131    4.0442 C   0  0  1  0  0  0  0  0  0  0  0  0
   13.0679   -5.3609    5.0825 C   0  0  2  0  0  0  0  0  0  0  0  0
   11.6722   -8.5111    4.3223 C   0  0  2  0  0  0  0  0  0  0  0  0
   13.1973   -8.8156    4.3231 C   0  0  1  0  0  0  0  0  0  0  0  0
   13.1142  -10.2933    4.6205 C   0  0  1  0  0  0  0  0  0  0  0  0
   12.0815  -10.4059    5.7867 C   0  0  1  0  0  0  0  0  0  0  0  0
   12.6176  -10.1367    7.2365 C   0  0  0  0  0  0  0  0  0  0  0  0
   11.7058  -12.0254    3.5717 C   0  0  1  0  0  0  0  0  0  0  0  0
   10.7801  -12.2364    2.4109 C   0  0  1  0  0  0  0  0  0  0  0  0
    8.5785   -5.3699    0.8192 C   0  0  1  0  0  0  0  0  0  0  0  0
    9.7508  -13.3587    2.7924 C   0  0  0  0  0  0  0  0  0  0  0  0
    8.9342  -13.0617    3.9342 C   0  0  0  0  0  0  0  0  0  0  0  0
    9.7932  -12.8860    5.0858 C   0  0  2  0  0  0  0  0  0  0  0  0
    8.9485  -12.5465    6.3766 C   0  0  0  0  0  0  0  0  0  0  0  0
   14.8764   -2.0022    8.6584 C   0  0  2  0  0  0  0  0  0  0  0  0
   14.1904   -3.0634    6.6694 C   0  0  0  0  0  0  0  0  0  0  0  0
   14.0124   -0.9533    8.4069 C   0  0  0  0  0  0  0  0  0  0  0  0
   15.4150   -2.4159    7.4845 C   0  0  1  0  0  0  0  0  0  0  0  0
    7.9379   -6.8270    0.9386 C   0  0  0  0  0  0  0  0  0  0  0  0
    8.9148   -7.8658    0.2046 C   0  0  0  0  0  0  0  0  0  0  0  0
   10.3412   -7.7912    0.9228 C   0  0  1  0  0  0  0  0  0  0  0  0
   11.3555   -8.7454    0.2810 C   0  0  0  0  0  0  0  0  0  0  0  0
   13.6735   -4.0505    4.4141 C   0  0  1  0  0  0  0  0  0  0  0  0
   12.4286   -3.0336    4.2088 C   0  0  0  0  0  0  0  0  0  0  0  0
   11.3756   -3.6646    3.2184 C   0  0  2  0  0  0  0  0  0  0  0  0
   14.1712   -3.0511    9.3600 F   0  0  0  0  0  0  0  0  0  0  0  0
    9.8044  -12.5148    7.6754 N   0  0  0  0  0  0  0  0  0  0  0  0
    7.7350   -4.3187    1.4996 N   0  0  0  0  0  0  0  0  0  0  0  0
   10.0061  -11.1190    2.0856 N   0  0  0  0  0  0  0  0  0  0  0  0
   13.3679   -0.0424    9.2766 N   0  0  0  0  0  0  0  0  0  0  0  0
   11.7378   -8.2931   -0.9997 N   0  0  0  0  0  0  0  0  0  0  0  0
   14.6493   -3.4295    5.3278 N   0  0  0  0  0  0  0  0  0  0  0  0
   10.2263   -2.7518    3.0311 N   0  0  0  0  0  0  0  0  0  0  0  0
    9.9318   -5.5275    2.8583 O   0  0  0  0  0  0  0  0  0  0  0  0
   11.3981   -7.2595    4.6041 O   0  0  0  0  0  0  0  0  0  0  0  0
   14.0826   -6.2706    5.2797 O   0  0  0  0  0  0  0  0  0  0  0  0
   13.7041   -8.5154    3.0580 O   0  0  0  0  0  0  0  0  0  0  0  0
   11.1005   -9.5087    5.2405 O   0  0  0  0  0  0  0  0  0  0  0  0
   12.0900  -11.1723    8.0893 O   0  0  0  0  0  0  0  0  0  0  0  0
   12.6329  -11.0242    3.3801 O   0  0  0  0  0  0  0  0  0  0  0  0
   15.9936   -1.3376    6.7171 O   0  0  0  0  0  0  0  0  0  0  0  0
   13.0483   -3.2326    7.1272 O   0  0  0  0  0  0  0  0  0  0  0  0
   10.8149  -11.8059    4.8191 O   0  0  0  0  0  0  0  0  0  0  0  0
   10.8866   -6.3750    0.8378 O   0  0  0  0  0  0  0  0  0  0  0  0
  1 36  1  1  0  0  0
  2 36  1  6  0  0  0
  2  3  1  0  0  0  0
  3 37  1  1  0  0  0
  3  4  1  0  0  0  0
  4 38  1  6  0  0  0
  5 37  1  1  0  0  0
  5  6  1  0  0  0  0
  6  7  1  0  0  0  0
  6 39  1  6  0  0  0
  7 42  1  6  0  0  0
  8  9  1  1  0  0  0
  8  7  1  0  0  0  0
 10 42  1  6  0  0  0
 10 11  1  0  0  0  0
 11 31  1  1  0  0  0
 11 13  1  0  0  0  0
 12 30  1  1  0  0  0
 12  1  1  0  0  0  0
 14 13  1  0  0  0  0
 15 16  1  1  0  0  0
 15 14  1  0  0  0  0
 17 19  1  6  0  0  0
 17 28  1  0  0  0  0
 18 34  1  0  0  0  0
 19 32  1  0  0  0  0
 20 18  1  6  0  0  0
 20 17  1  0  0  0  0
 20 43  1  0  0  0  0
 21 12  1  0  0  0  0
 22 21  1  0  0  0  0
 22 23  1  0  0  0  0
 23 24  1  6  0  0  0
 23 46  1  0  0  0  0
 24 33  1  0  0  0  0
 25 34  1  1  0  0  0
 25  4  1  0  0  0  0
 26 25  1  0  0  0  0
 27 35  1  1  0  0  0
 27 26  1  0  0  0  0
 27  2  1  0  0  0  0
 29 16  1  0  0  0  0
 40  8  1  0  0  0  0
 40  5  1  0  0  0  0
 41  9  1  0  0  0  0
 44 18  2  0  0  0  0
 45 15  1  0  0  0  0
 45 10  1  0  0  0  0
 46  1  1  0  0  0  0
M  END
>  <CHROM.1>
-150.88422976,-90.68850870,138.61820499,47.15460154,-138.12193027,-134.87663658
150.86068097,173.13478221,-168.75249958,174.75599697,-67.73576973,70.76355154
-56.79675376,11.74425114,-7.14987409,4.40463741,2.34926565,1.05882191,2.79835786

>  <Name>
lig.pdb

>  <RI>
0

>  <Rbt.Current_Directory>
/home/afrankz/demos/rdock_decoys_rna/rnas/3wru

>  <Rbt.Executable>
rbdock ($Id: //depot/dev/client3/rdock/2013.1/src/exe/rbdock.cxx#4 $)

>  <Rbt.Library>
libRbt.so (2013.1, Build901 2013/11/27)

>  <Rbt.Parameter_File>
/export/apps/rDock/src/rDock_2013.1_src/data/scripts/dock_solv.prm

>  <Rbt.Receptor>
prm/blind_docking_20.prm

>  <SCORE>
52.1709

>  <SCORE.INTER>
18.3939

>  <SCORE.INTER.CONST>
1

>  <SCORE.INTER.POLAR>
0

>  <SCORE.INTER.ROT>
13

>  <SCORE.INTER.SOLV>
41.4066

>  <SCORE.INTER.VDW>
-13.8062

>  <SCORE.INTER.norm>
0.399868

>  <SCORE.INTRA>
30.5951

>  <SCORE.INTRA.DIHEDRAL>
9.56068

>  <SCORE.INTRA.DIHEDRAL.0>
19.7146

>  <SCORE.INTRA.POLAR>
0

>  <SCORE.INTRA.POLAR.0>
0

>  <SCORE.INTRA.REPUL>
0.0449744

>  <SCORE.INTRA.REPUL.0>
0

>  <SCORE.INTRA.SOLV>
8.22119

>  <SCORE.INTRA.SOLV.lig_0>
-116.697

>  <SCORE.INTRA.VDW>
21.4793

>  <SCORE.INTRA.VDW.0>
-7.06424

>  <SCORE.INTRA.norm>
0.665111

>  <SCORE.RESTR>
3.18191

>  <SCORE.RESTR.CAVITY>
3.18191

>  <SCORE.RESTR.norm>
0.069172

>  <SCORE.SYSTEM>
0

>  <SCORE.SYSTEM.CONST>
0

>  <SCORE.SYSTEM.DIHEDRAL>
0

>  <SCORE.SYSTEM.SOLV>
0

>  <SCORE.SYSTEM.norm>
0

>  <SCORE.heavy>
46

>  <SCORE.norm>
1.13415

>  <RMSD>
8.843

$$$$
lig.pdb
 OpenBabel03061811583D
libRbt.so/2013.1/901 2013/11/27
 46 49  0  0  0  0  0  0  0  0999 V2000
   10.9030  -10.7856    5.1830 C   0  0  1  0  0  0  0  0  0  0  0  0
   10.6807  -13.1328    4.2616 C   0  0  1  0  0  0  0  0  0  0  0  0
   11.1226  -14.0153    5.4681 C   0  0  1  0  0  0  0  0  0  0  0  0
   10.3608  -15.4348    5.3817 C   0  0  2  0  0  0  0  0  0  0  0  0
   13.4236  -14.8339    6.1560 C   0  0  2  0  0  0  0  0  0  0  0  0
   14.8789  -14.9090    5.6125 C   0  0  1  0  0  0  0  0  0  0  0  0
   15.5862  -15.0806    6.9351 C   0  0  1  0  0  0  0  0  0  0  0  0
   14.9340  -14.0173    7.8748 C   0  0  1  0  0  0  0  0  0  0  0  0
   15.4758  -12.5487    7.7671 C   0  0  0  0  0  0  0  0  0  0  0  0
   16.1430  -17.4833    6.9085 C   0  0  1  0  0  0  0  0  0  0  0  0
   15.6720  -18.8749    7.2088 C   0  0  1  0  0  0  0  0  0  0  0  0
   12.0423   -9.7518    5.3457 C   0  0  1  0  0  0  0  0  0  0  0  0
   16.6943  -19.8916    6.5879 C   0  0  0  0  0  0  0  0  0  0  0  0
   18.0328  -19.7816    7.0930 C   0  0  0  0  0  0  0  0  0  0  0  0
   18.5358  -18.4588    6.7894 C   0  0  2  0  0  0  0  0  0  0  0  0
   20.0080  -18.2739    7.3311 C   0  0  0  0  0  0  0  0  0  0  0  0
    6.8834  -18.8103    6.7955 C   0  0  2  0  0  0  0  0  0  0  0  0
    6.8014  -16.5376    6.1781 C   0  0  0  0  0  0  0  0  0  0  0  0
    6.2594  -20.0420    6.8555 C   0  0  0  0  0  0  0  0  0  0  0  0
    6.1795  -18.0039    5.9626 C   0  0  1  0  0  0  0  0  0  0  0  0
   13.2794  -10.3816    6.1336 C   0  0  0  0  0  0  0  0  0  0  0  0
   12.7582  -10.8863    7.5639 C   0  0  0  0  0  0  0  0  0  0  0  0
   11.6087  -11.9690    7.3145 C   0  0  1  0  0  0  0  0  0  0  0  0
   11.0338  -12.5064    8.6306 C   0  0  0  0  0  0  0  0  0  0  0  0
    8.7979  -15.1640    5.5036 C   0  0  1  0  0  0  0  0  0  0  0  0
    8.3949  -14.2667    4.2158 C   0  0  0  0  0  0  0  0  0  0  0  0
    9.1520  -12.8838    4.2649 C   0  0  2  0  0  0  0  0  0  0  0  0
    8.2591  -18.9853    6.3873 F   0  0  0  0  0  0  0  0  0  0  0  0
   20.6036  -16.8721    7.0143 N   0  0  0  0  0  0  0  0  0  0  0  0
   12.4314   -9.2611    3.9719 N   0  0  0  0  0  0  0  0  0  0  0  0
   15.6256  -19.1820    8.5716 N   0  0  0  0  0  0  0  0  0  0  0  0
    6.5913  -21.2262    7.5546 N   0  0  0  0  0  0  0  0  0  0  0  0
   10.4039  -11.4799    9.3658 N   0  0  0  0  0  0  0  0  0  0  0  0
    8.0639  -16.4407    5.4424 N   0  0  0  0  0  0  0  0  0  0  0  0
    8.8031  -12.0583    3.0876 N   0  0  0  0  0  0  0  0  0  0  0  0
   11.3023  -11.8558    4.3260 O   0  0  0  0  0  0  0  0  0  0  0  0
   12.6099  -14.1847    5.3576 O   0  0  0  0  0  0  0  0  0  0  0  0
   10.7669  -16.1941    6.4563 O   0  0  0  0  0  0  0  0  0  0  0  0
   14.9736  -16.0148    4.7666 O   0  0  0  0  0  0  0  0  0  0  0  0
   13.5678  -14.2730    7.5086 O   0  0  0  0  0  0  0  0  0  0  0  0
   16.9082  -12.6068    7.9177 O   0  0  0  0  0  0  0  0  0  0  0  0
   15.3519  -16.4909    7.4453 O   0  0  0  0  0  0  0  0  0  0  0  0
    6.2989  -18.3833    4.5741 O   0  0  0  0  0  0  0  0  0  0  0  0
    6.2725  -15.6382    6.8520 O   0  0  0  0  0  0  0  0  0  0  0  0
   17.6206  -17.4038    7.3650 O   0  0  0  0  0  0  0  0  0  0  0  0
   10.4796  -11.3448    6.5111 O   0  0  0  0  0  0  0  0  0  0  0  0
  1 36  1  6  0  0  0
  2 36  1  1  0  0  0
  2  3  1  0  0  0  0
  3 37  1  6  0  0  0
  3  4  1  0  0  0  0
  4 38  1  1  0  0  0
  5 37  1  6  0  0  0
  5  6  1  0  0  0  0
  6  7  1  0  0  0  0
  6 39  1  6  0  0  0
  7 42  1  1  0  0  0
  8  9  1  6  0  0  0
  8  7  1  0  0  0  0
 10 42  1  1  0  0  0
 10 11  1  0  0  0  0
 11 31  1  1  0  0  0
 11 13  1  0  0  0  0
 12 30  1  6  0  0  0
 12  1  1  0  0  0  0
 14 13  1  0  0  0  0
 15 16  1  1  0  0  0
 15 14  1  0  0  0  0
 17 19  1  6  0  0  0
 17 28  1  0  0  0  0
 18 34  1  0  0  0  0
 19 32  1  0  0  0  0
 20 18  1  6  0  0  0
 20 17  1  0  0  0  0
 20 43  1  0  0  0  0
 21 12  1  0  0  0  0
 22 21  1  0  0  0  0
 22 23  1  0  0  0  0
 23 24  1  1  0  0  0
 23 46  1  0  0  0  0
 24 33  1  0  0  0  0
 25 34  1  6  0  0  0
 25  4  1  0  0  0  0
 26 25  1  0  0  0  0
 27 35  1  6  0  0  0
 27 26  1  0  0  0  0
 27  2  1  0  0  0  0
 29 16  1  0  0  0  0
 40  8  1  0  0  0  0
 40  5  1  0  0  0  0
 41  9  1  0  0  0  0
 44 18  2  0  0  0  0
 45 15  1  0  0  0  0
 45 10  1  0  0  0  0
 46  1  1  0  0  0  0
M  END
>  <CHROM.1>
160.92276081,-77.69752487,179.07248440,173.61404574,80.60251464,-52.85220948
-166.94846689,179.26272197,179.02574021,78.35679560,169.29909505,63.43229088
149.36906775,12.22300405,-15.21116204,6.34968898,-3.02851312,0.13038661,3.02516218

>  <Name>
lig.pdb

>  <RI>
0

>  <Rbt.Current_Directory>
/home/afrankz/demos/rdock_decoys_rna/rnas/3wru

>  <Rbt.Executable>
rbdock ($Id: //depot/dev/client3/rdock/2013.1/src/exe/rbdock.cxx#4 $)

>  <Rbt.Library>
libRbt.so (2013.1, Build901 2013/11/27)

>  <Rbt.Parameter_File>
/export/apps/rDock/src/rDock_2013.1_src/data/scripts/dock_solv.prm

>  <Rbt.Receptor>
prm/pocket_docking_7.prm

>  <SCORE>
-4.15093

>  <SCORE.INTER>
0.768263

>  <SCORE.INTER.CONST>
1

>  <SCORE.INTER.POLAR>
0

>  <SCORE.INTER.ROT>
13

>  <SCORE.INTER.SOLV>
26.0437

>  <SCORE.INTER.VDW>
-20.4357

>  <SCORE.INTER.norm>
0.0167014

>  <SCORE.INTRA>
-4.91919

>  <SCORE.INTRA.DIHEDRAL>
-11.1836

>  <SCORE.INTRA.DIHEDRAL.0>
19.7146

>  <SCORE.INTRA.POLAR>
0

>  <SCORE.INTRA.POLAR.0>
0

>  <SCORE.INTRA.REPUL>
0

>  <SCORE.INTRA.REPUL.0>
0

>  <SCORE.INTRA.SOLV>
-1.88438

>  <SCORE.INTRA.SOLV.lig_0>
-116.697

>  <SCORE.INTRA.VDW>
1.61479

>  <SCORE.INTRA.VDW.0>
-7.06424

>  <SCORE.INTRA.norm>
-0.106939

>  <SCORE.RESTR>
0

>  <SCORE.RESTR.CAVITY>
0

>  <SCORE.RESTR.norm>
0

>  <SCORE.SYSTEM>
0

>  <SCORE.SYSTEM.CONST>
0

>  <SCORE.SYSTEM.DIHEDRAL>
0

>  <SCORE.SYSTEM.SOLV>
0

>  <SCORE.SYSTEM.norm>
0

>  <SCORE.heavy>
46

>  <SCORE.norm>
-0.0902375

>  <RMSD>
8.847

$$$$
lig.pdb
 OpenBabel03061811583D
libRbt.so/2013.1/901 2013/11/27
 46 49  0  0  0  0  0  0  0  0999 V2000
   11.2231  -11.1256    5.0129 C   0  0  1  0  0  0  0  0  0  0  0  0
    9.9171  -12.6536    6.5515 C   0  0  1  0  0  0  0  0  0  0  0  0
   10.3035  -12.2312    8.0014 C   0  0  1  0  0  0  0  0  0  0  0  0
   10.1234  -13.5016    8.9794 C   0  0  2  0  0  0  0  0  0  0  0  0
   12.8078  -12.4760    7.6751 C   0  0  2  0  0  0  0  0  0  0  0  0
   14.1243  -11.6690    7.8605 C   0  0  1  0  0  0  0  0  0  0  0  0
   15.0503  -12.8356    8.1067 C   0  0  1  0  0  0  0  0  0  0  0  0
   14.2894  -13.7373    9.1299 C   0  0  1  0  0  0  0  0  0  0  0  0
   14.3871  -13.3310   10.6423 C   0  0  0  0  0  0  0  0  0  0  0  0
   16.1894  -12.9878    5.9242 C   0  0  1  0  0  0  0  0  0  0  0  0
   16.3780  -13.7483    4.6456 C   0  0  1  0  0  0  0  0  0  0  0  0
   10.9964   -9.8073    4.2357 C   0  0  1  0  0  0  0  0  0  0  0  0
   17.4620  -13.0102    3.7825 C   0  0  0  0  0  0  0  0  0  0  0  0
   18.7514  -12.9015    4.4024 C   0  0  0  0  0  0  0  0  0  0  0  0
   18.6151  -12.1404    5.6260 C   0  0  2  0  0  0  0  0  0  0  0  0
   20.0057  -11.9945    6.3608 C   0  0  0  0  0  0  0  0  0  0  0  0
    8.1966  -16.2368   12.5621 C   0  0  2  0  0  0  0  0  0  0  0  0
    7.2399  -15.0203   10.7850 C   0  0  0  0  0  0  0  0  0  0  0  0
    8.0790  -17.2417   13.5035 C   0  0  0  0  0  0  0  0  0  0  0  0
    7.2039  -16.3754   11.6485 C   0  0  1  0  0  0  0  0  0  0  0  0
    9.9954  -10.0282    3.0121 C   0  0  0  0  0  0  0  0  0  0  0  0
   10.6154  -11.1556    2.0546 C   0  0  0  0  0  0  0  0  0  0  0  0
   10.7919  -12.4904    2.9168 C   0  0  1  0  0  0  0  0  0  0  0  0
   11.3937  -13.6315    2.0878 C   0  0  0  0  0  0  0  0  0  0  0  0
    8.5879  -13.9175    8.9700 C   0  0  1  0  0  0  0  0  0  0  0  0
    8.2527  -14.3671    7.4496 C   0  0  0  0  0  0  0  0  0  0  0  0
    8.4508  -13.1460    6.4710 C   0  0  2  0  0  0  0  0  0  0  0  0
    9.5172  -16.2769   11.9755 F   0  0  0  0  0  0  0  0  0  0  0  0
   21.0997  -11.3362    5.4720 N   0  0  0  0  0  0  0  0  0  0  0  0
   10.4881   -8.7700    5.2079 N   0  0  0  0  0  0  0  0  0  0  0  0
   16.8639  -15.0473    4.8186 N   0  0  0  0  0  0  0  0  0  0  0  0
    7.0433  -17.5532   14.4156 N   0  0  0  0  0  0  0  0  0  0  0  0
   11.6894  -14.7471    2.8996 N   0  0  0  0  0  0  0  0  0  0  0  0
    8.3775  -15.0701    9.8642 N   0  0  0  0  0  0  0  0  0  0  0  0
    8.1602  -13.5453    5.0762 N   0  0  0  0  0  0  0  0  0  0  0  0
   10.0250  -11.5465    5.6661 O   0  0  0  0  0  0  0  0  0  0  0  0
   11.7332  -11.7765    7.9523 O   0  0  0  0  0  0  0  0  0  0  0  0
   10.4698  -13.1034   10.2512 O   0  0  0  0  0  0  0  0  0  0  0  0
   14.3823  -10.9749    6.6778 O   0  0  0  0  0  0  0  0  0  0  0  0
   13.0046  -13.6869    8.4877 O   0  0  0  0  0  0  0  0  0  0  0  0
   13.5952  -14.2733   11.3926 O   0  0  0  0  0  0  0  0  0  0  0  0
   15.2921  -13.5640    6.7970 O   0  0  0  0  0  0  0  0  0  0  0  0
    7.3922  -17.5121   10.7775 O   0  0  0  0  0  0  0  0  0  0  0  0
    6.4159  -14.0965   10.8860 O   0  0  0  0  0  0  0  0  0  0  0  0
   17.5975  -12.7869    6.5362 O   0  0  0  0  0  0  0  0  0  0  0  0
   11.7029  -12.2200    4.1030 O   0  0  0  0  0  0  0  0  0  0  0  0
  1 36  1  6  0  0  0
  2 36  1  6  0  0  0
  2  3  1  0  0  0  0
  3 37  1  6  0  0  0
  3  4  1  0  0  0  0
  4 38  1  1  0  0  0
  5 37  1  1  0  0  0
  5  6  1  0  0  0  0
  6  7  1  0  0  0  0
  6 39  1  6  0  0  0
  7 42  1  6  0  0  0
  8  9  1  1  0  0  0
  8  7  1  0  0  0  0
 10 42  1  1  0  0  0
 10 11  1  0  0  0  0
 11 31  1  1  0  0  0
 11 13  1  0  0  0  0
 12 30  1  1  0  0  0
 12  1  1  0  0  0  0
 14 13  1  0  0  0  0
 15 16  1  1  0  0  0
 15 14  1  0  0  0  0
 17 19  1  1  0  0  0
 17 28  1  0  0  0  0
 18 34  1  0  0  0  0
 19 32  1  0  0  0  0
 20 18  1  6  0  0  0
 20 17  1  0  0  0  0
 20 43  1  0  0  0  0
 21 12  1  0  0  0  0
 22 21  1  0  0  0  0
 22 23  1  0  0  0  0
 23 24  1  6  0  0  0
 23 46  1  0  0  0  0
 24 33  1  0  0  0  0
 25 34  1  1  0  0  0
 25  4  1  0  0  0  0
 26 25  1  0  0  0  0
 27 35  1  6  0  0  0
 27 26  1  0  0  0  0
 27  2  1  0  0  0  0
 29 16  1  0  0  0  0
 40  8  1  0  0  0  0
 40  5  1  0  0  0  0
 41  9  1  0  0  0  0
 44 18  2  0  0  0  0
 45 15  1  0  0  0  0
 45 10  1  0  0  0  0
 46  1  1  0  0  0  0
M  END
>  <CHROM.1>
-174.47029122,85.16691811,-64.80716569,-174.52592844,78.07873372,178.77135656
-179.59095818,57.00463733,-61.63655397,75.64917750,168.96914788,173.00567919
134.10463588,12.04481877,-13.31946895,7.39237564,0.68186745,-0.02670079,-1.11350817

>  <Name>
lig.pdb

>  <RI>
0

>  <Rbt.Current_Directory>
/home/afrankz/demos/rdock_decoys_rna/rnas/3wru

>  <Rbt.Executable>
rbdock ($Id: //depot/dev/client3/rdock/2013.1/src/exe/rbdock.cxx#4 $)

>  <Rbt.Library>
libRbt.so (2013.1, Build901 2013/11/27)

>  <Rbt.Parameter_File>
/export/apps/rDock/src/rDock_2013.1_src/data/scripts/dock_solv.prm

>  <Rbt.Receptor>
prm/pocket_docking_4.prm

>  <SCORE>
-7.23061

>  <SCORE.INTER>
-1.40436

>  <SCORE.INTER.CONST>
1

>  <SCORE.INTER.POLAR>
0

>  <SCORE.INTER.ROT>
13

>  <SCORE.INTER.SOLV>
24.8503

>  <SCORE.INTER.VDW>
-21.4863

>  <SCORE.INTER.norm>
-0.0305295

>  <SCORE.INTRA>
-5.82625

>  <SCORE.INTRA.DIHEDRAL>
-12.2017

>  <SCORE.INTRA.DIHEDRAL.0>
19.7146

>  <SCORE.INTRA.POLAR>
0

>  <SCORE.INTRA.POLAR.0>
0

>  <SCORE.INTRA.REPUL>
0

>  <SCORE.INTRA.REPUL.0>
0

>  <SCORE.INTRA.SOLV>
-1.1359

>  <SCORE.INTRA.SOLV.lig_0>
-116.697

>  <SCORE.INTRA.VDW>
0.842549

>  <SCORE.INTRA.VDW.0>
-7.06424

>  <SCORE.INTRA.norm>
-0.126658

>  <SCORE.RESTR>
0

>  <SCORE.RESTR.CAVITY>
0

>  <SCORE.RESTR.norm>
0

>  <SCORE.SYSTEM>
0

>  <SCORE.SYSTEM.CONST>
0

>  <SCORE.SYSTEM.DIHEDRAL>
0

>  <SCORE.SYSTEM.SOLV>
0

>  <SCORE.SYSTEM.norm>
0

>  <SCORE.heavy>
46

>  <SCORE.norm>
-0.157187

>  <RMSD>
8.887

$$$$
lig.pdb
 OpenBabel03061811583D
libRbt.so/2013.1/901 2013/11/27
 46 49  0  0  0  0  0  0  0  0999 V2000
    6.0518  -16.1613    9.5907 C   0  0  1  0  0  0  0  0  0  0  0  0
    8.2262  -15.1583    8.7697 C   0  0  1  0  0  0  0  0  0  0  0  0
    8.2538  -15.9038    7.4010 C   0  0  1  0  0  0  0  0  0  0  0  0
    9.1080  -15.0287    6.3486 C   0  0  2  0  0  0  0  0  0  0  0  0
   10.0973  -17.5015    8.0987 C   0  0  2  0  0  0  0  0  0  0  0  0
   11.2221  -17.0715    7.1146 C   0  0  1  0  0  0  0  0  0  0  0  0
   12.3291  -16.8996    8.1265 C   0  0  1  0  0  0  0  0  0  0  0  0
   11.6765  -16.0963    9.2961 C   0  0  1  0  0  0  0  0  0  0  0  0
   11.5840  -14.5397    9.1217 C   0  0  0  0  0  0  0  0  0  0  0  0
   13.9620  -18.7452    8.0224 C   0  0  1  0  0  0  0  0  0  0  0  0
   15.2123  -18.1288    8.5752 C   0  0  1  0  0  0  0  0  0  0  0  0
    5.5042  -16.8227   10.8775 C   0  0  1  0  0  0  0  0  0  0  0  0
   16.4436  -18.7226    7.8035 C   0  0  0  0  0  0  0  0  0  0  0  0
   16.4420  -18.4767    6.3899 C   0  0  0  0  0  0  0  0  0  0  0  0
   15.2640  -19.0896    5.8139 C   0  0  2  0  0  0  0  0  0  0  0  0
   15.2019  -18.8439    4.2548 C   0  0  0  0  0  0  0  0  0  0  0  0
   11.0267  -12.1843    3.3802 C   0  0  2  0  0  0  0  0  0  0  0  0
    8.8636  -13.0409    3.7545 C   0  0  0  0  0  0  0  0  0  0  0  0
   11.6252  -13.2493    2.7340 C   0  0  0  0  0  0  0  0  0  0  0  0
    9.7697  -12.0292    2.8951 C   0  0  1  0  0  0  0  0  0  0  0  0
    6.1307  -18.2759   11.0861 C   0  0  0  0  0  0  0  0  0  0  0  0
    5.7815  -19.1623    9.7959 C   0  0  0  0  0  0  0  0  0  0  0  0
    6.4030  -18.4336    8.5158 C   0  0  1  0  0  0  0  0  0  0  0  0
    6.1105  -19.2025    7.2217 C   0  0  0  0  0  0  0  0  0  0  0  0
    8.3652  -13.6364    6.1472 C   0  0  1  0  0  0  0  0  0  0  0  0
    8.3890  -12.9008    7.5909 C   0  0  0  0  0  0  0  0  0  0  0  0
    7.5829  -13.7550    8.6437 C   0  0  2  0  0  0  0  0  0  0  0  0
   11.8450  -11.0030    3.2239 F   0  0  0  0  0  0  0  0  0  0  0  0
   16.4175  -19.4458    3.4930 N   0  0  0  0  0  0  0  0  0  0  0  0
    5.7963  -15.9038   12.0392 N   0  0  0  0  0  0  0  0  0  0  0  0
   15.2955  -16.7450    8.3967 N   0  0  0  0  0  0  0  0  0  0  0  0
   11.9532  -13.4537    1.3731 N   0  0  0  0  0  0  0  0  0  0  0  0
    6.8092  -18.6437    6.1305 N   0  0  0  0  0  0  0  0  0  0  0  0
    9.1086  -12.8096    5.1797 N   0  0  0  0  0  0  0  0  0  0  0  0
    7.6066  -13.1013    9.9709 N   0  0  0  0  0  0  0  0  0  0  0  0
    7.4467  -15.8814    9.7136 O   0  0  0  0  0  0  0  0  0  0  0  0
    8.8932  -17.2389    7.6489 O   0  0  0  0  0  0  0  0  0  0  0  0
    9.1170  -15.7068    5.1501 O   0  0  0  0  0  0  0  0  0  0  0  0
   11.4328  -18.1122    6.2091 O   0  0  0  0  0  0  0  0  0  0  0  0
   10.4561  -16.8521    9.3693 O   0  0  0  0  0  0  0  0  0  0  0  0
   12.9258  -14.0476    8.9340 O   0  0  0  0  0  0  0  0  0  0  0  0
   12.7993  -18.2675    8.5868 O   0  0  0  0  0  0  0  0  0  0  0  0
    9.2690  -10.6825    3.0432 O   0  0  0  0  0  0  0  0  0  0  0  0
    8.0752  -13.8689    3.2693 O   0  0  0  0  0  0  0  0  0  0  0  0
   14.0170  -18.5645    6.4854 O   0  0  0  0  0  0  0  0  0  0  0  0
    5.8247  -17.0337    8.3893 O   0  0  0  0  0  0  0  0  0  0  0  0
  1 36  1  1  0  0  0
  2 36  1  1  0  0  0
  2  3  1  0  0  0  0
  3 37  1  1  0  0  0
  3  4  1  0  0  0  0
  4 38  1  6  0  0  0
  5 37  1  6  0  0  0
  5  6  1  0  0  0  0
  6  7  1  0  0  0  0
  6 39  1  6  0  0  0
  7 42  1  1  0  0  0
  8  9  1  6  0  0  0
  8  7  1  0  0  0  0
 10 42  1  1  0  0  0
 10 11  1  0  0  0  0
 11 31  1  6  0  0  0
 11 13  1  0  0  0  0
 12 30  1  1  0  0  0
 12  1  1  0  0  0  0
 14 13  1  0  0  0  0
 15 16  1  6  0  0  0
 15 14  1  0  0  0  0
 17 19  1  6  0  0  0
 17 28  1  0  0  0  0
 18 34  1  0  0  0  0
 19 32  1  0  0  0  0
 20 18  1  1  0  0  0
 20 17  1  0  0  0  0
 20 43  1  0  0  0  0
 21 12  1  0  0  0  0
 22 21  1  0  0  0  0
 22 23  1  0  0  0  0
 23 24  1  6  0  0  0
 23 46  1  0  0  0  0
 24 33  1  0  0  0  0
 25 34  1  6  0  0  0
 25  4  1  0  0  0  0
 26 25  1  0  0  0  0
 27 35  1  1  0  0  0
 27 26  1  0  0  0  0
 27  2  1  0  0  0  0
 29 16  1  0  0  0  0
 40  8  1  0  0  0  0
 40  5  1  0  0  0  0
 41  9  1  0  0  0  0
 44 18  2  0  0  0  0
 45 15  1  0  0  0  0
 45 10  1  0  0  0  0
 46  1  1  0  0  0  0
M  END
>  <CHROM.1>
-173.37151155,-62.41584102,-60.38808978,-66.39992504,100.74369854,-58.44824497
76.89683401,60.85983903,62.67486674,51.37678036,85.33267530,-172.33706256
83.47318587,10.26997042,-15.97999230,7.00988542,-2.91997936,0.37053217,-0.77082677

>  <Name>
lig.pdb

>  <RI>
0

>  <Rbt.Current_Directory>
/home/afrankz/demos/rdock_decoys_rna/rnas/3wru

>  <Rbt.Executable>
rbdock ($Id: //depot/dev/client3/rdock/2013.1/src/exe/rbdock.cxx#4 $)

>  <Rbt.Library>
libRbt.so (2013.1, Build901 2013/11/27)

>  <Rbt.Parameter_File>
/export/apps/rDock/src/rDock_2013.1_src/data/scripts/dock_solv.prm

>  <Rbt.Receptor>
prm/pocket_docking_7.prm

>  <SCORE>
-0.202494

>  <SCORE.INTER>
1.80348

>  <SCORE.INTER.CONST>
1

>  <SCORE.INTER.POLAR>
0

>  <SCORE.INTER.ROT>
13

>  <SCORE.INTER.SOLV>
23.7845

>  <SCORE.INTER.VDW>
-18.9925

>  <SCORE.INTER.norm>
0.0392061

>  <SCORE.INTRA>
-2.00598

>  <SCORE.INTRA.DIHEDRAL>
-9.01694

>  <SCORE.INTRA.DIHEDRAL.0>
19.7146

>  <SCORE.INTRA.POLAR>
0

>  <SCORE.INTRA.POLAR.0>
0

>  <SCORE.INTRA.REPUL>
0

>  <SCORE.INTRA.REPUL.0>
0

>  <SCORE.INTRA.SOLV>
4.75934

>  <SCORE.INTRA.SOLV.lig_0>
-116.697

>  <SCORE.INTRA.VDW>
0.122824

>  <SCORE.INTRA.VDW.0>
-7.06424

>  <SCORE.INTRA.norm>
-0.0436082

>  <SCORE.RESTR>
0

>  <SCORE.RESTR.CAVITY>
0

>  <SCORE.RESTR.norm>
0

>  <SCORE.SYSTEM>
0

>  <SCORE.SYSTEM.CONST>
0

>  <SCORE.SYSTEM.DIHEDRAL>
0

>  <SCORE.SYSTEM.SOLV>
0

>  <SCORE.SYSTEM.norm>
0

>  <SCORE.heavy>
46

>  <SCORE.norm>
-0.00440205

>  <RMSD>
8.919

$$$$
lig.pdb
 OpenBabel03061811583D
libRbt.so/2013.1/901 2013/11/27
 46 49  0  0  0  0  0  0  0  0999 V2000
    9.5697   -7.1756    1.2106 C   0  0  1  0  0  0  0  0  0  0  0  0
   10.9476   -5.3880    2.3568 C   0  0  1  0  0  0  0  0  0  0  0  0
   12.4716   -5.4636    2.0385 C   0  0  1  0  0  0  0  0  0  0  0  0
   13.2943   -4.8445    3.2806 C   0  0  2  0  0  0  0  0  0  0  0  0
   12.6430   -7.9160    2.6662 C   0  0  2  0  0  0  0  0  0  0  0  0
   13.5010   -7.7755    3.9557 C   0  0  1  0  0  0  0  0  0  0  0  0
   12.6486   -8.6260    4.8663 C   0  0  1  0  0  0  0  0  0  0  0  0
   11.1848   -8.1542    4.5948 C   0  0  1  0  0  0  0  0  0  0  0  0
   10.7068   -6.8607    5.3432 C   0  0  0  0  0  0  0  0  0  0  0  0
   11.9643  -10.9864    5.0759 C   0  0  1  0  0  0  0  0  0  0  0  0
   12.6325  -12.1358    5.7695 C   0  0  1  0  0  0  0  0  0  0  0  0
    9.8061   -7.8452   -0.1638 C   0  0  1  0  0  0  0  0  0  0  0  0
   11.5219  -13.0994    6.3194 C   0  0  0  0  0  0  0  0  0  0  0  0
   10.6594  -13.6560    5.3169 C   0  0  0  0  0  0  0  0  0  0  0  0
    9.9680  -12.5747    4.6476 C   0  0  2  0  0  0  0  0  0  0  0  0
    9.0069  -13.1269    3.5224 C   0  0  0  0  0  0  0  0  0  0  0  0
   15.7032   -1.9381    6.0168 C   0  0  2  0  0  0  0  0  0  0  0  0
   14.0591   -3.5831    5.6373 C   0  0  0  0  0  0  0  0  0  0  0  0
   16.4005   -1.1219    6.8871 C   0  0  0  0  0  0  0  0  0  0  0  0
   14.8491   -2.7113    6.7323 C   0  0  1  0  0  0  0  0  0  0  0  0
    9.0521   -7.0513   -1.3253 C   0  0  0  0  0  0  0  0  0  0  0  0
    7.4883   -7.0112   -0.9716 C   0  0  0  0  0  0  0  0  0  0  0  0
    7.3222   -6.2817    0.4413 C   0  0  1  0  0  0  0  0  0  0  0  0
    5.8537   -6.2041    0.8759 C   0  0  0  0  0  0  0  0  0  0  0  0
   12.8874   -3.3136    3.4277 C   0  0  1  0  0  0  0  0  0  0  0  0
   11.3058   -3.3002    3.7800 C   0  0  0  0  0  0  0  0  0  0  0  0
   10.4837   -3.9286    2.5895 C   0  0  2  0  0  0  0  0  0  0  0  0
   16.6358   -2.7069    5.2238 F   0  0  0  0  0  0  0  0  0  0  0  0
    7.8615  -14.0190    4.0815 N   0  0  0  0  0  0  0  0  0  0  0  0
   11.2955   -7.9217   -0.3994 N   0  0  0  0  0  0  0  0  0  0  0  0
   13.4270  -12.9253    4.9334 N   0  0  0  0  0  0  0  0  0  0  0  0
   15.9740   -0.3589    7.9995 N   0  0  0  0  0  0  0  0  0  0  0  0
    5.6667   -5.2061    1.8558 N   0  0  0  0  0  0  0  0  0  0  0  0
   13.6293   -2.7053    4.5467 N   0  0  0  0  0  0  0  0  0  0  0  0
    9.0376   -3.9346    2.9028 N   0  0  0  0  0  0  0  0  0  0  0  0
   10.1866   -5.8889    1.2653 O   0  0  0  0  0  0  0  0  0  0  0  0
   12.7988   -6.9141    1.8338 O   0  0  0  0  0  0  0  0  0  0  0  0
   14.6348   -4.9223    2.9753 O   0  0  0  0  0  0  0  0  0  0  0  0
   14.7664   -8.3048    3.6992 O   0  0  0  0  0  0  0  0  0  0  0  0
   11.2727   -8.1238    3.1605 O   0  0  0  0  0  0  0  0  0  0  0  0
   11.6653   -5.8216    5.0609 O   0  0  0  0  0  0  0  0  0  0  0  0
   12.8374  -10.0877    4.5026 O   0  0  0  0  0  0  0  0  0  0  0  0
   15.5237   -3.5902    7.6590 O   0  0  0  0  0  0  0  0  0  0  0  0
   13.8677   -4.8079    5.7139 O   0  0  0  0  0  0  0  0  0  0  0  0
   10.9612  -11.5964    4.0661 O   0  0  0  0  0  0  0  0  0  0  0  0
    8.1035   -7.0359    1.5047 O   0  0  0  0  0  0  0  0  0  0  0  0
  1 36  1  6  0  0  0
  2 36  1  6  0  0  0
  2  3  1  0  0  0  0
  3 37  1  1  0  0  0
  3  4  1  0  0  0  0
  4 38  1  6  0  0  0
  5 37  1  6  0  0  0
  5  6  1  0  0  0  0
  6  7  1  0  0  0  0
  6 39  1  6  0  0  0
  7 42  1  6  0  0  0
  8  9  1  1  0  0  0
  8  7  1  0  0  0  0
 10 42  1  6  0  0  0
 10 11  1  0  0  0  0
 11 31  1  6  0  0  0
 11 13  1  0  0  0  0
 12 30  1  6  0  0  0
 12  1  1  0  0  0  0
 14 13  1  0  0  0  0
 15 16  1  6  0  0  0
 15 14  1  0  0  0  0
 17 19  1  1  0  0  0
 17 28  1  0  0  0  0
 18 34  1  0  0  0  0
 19 32  1  0  0  0  0
 20 18  1  6  0  0  0
 20 17  1  0  0  0  0
 20 43  1  0  0  0  0
 21 12  1  0  0  0  0
 22 21  1  0  0  0  0
 22 23  1  0  0  0  0
 23 24  1  1  0  0  0
 23 46  1  0  0  0  0
 24 33  1  0  0  0  0
 25 34  1  1  0  0  0
 25  4  1  0  0  0  0
 26 25  1  0  0  0  0
 27 35  1  1  0  0  0
 27 26  1  0  0  0  0
 27  2  1  0  0  0  0
 29 16  1  0  0  0  0
 40  8  1  0  0  0  0
 40  5  1  0  0  0  0
 41  9  1  0  0  0  0
 44 18  2  0  0  0  0
 45 15  1  0  0  0  0
 45 10  1  0  0  0  0
 46  1  1  0  0  0  0
M  END
>  <CHROM.1>
-135.75838879,102.75686580,-58.64965278,-63.06529340,-169.14493617,53.53339691
-127.71060160,63.44841502,-44.02713659,-45.97011229,178.27413873,-160.48930971
-27.17936085,11.74716353,-6.91553351,3.65458033,2.32604437,0.69378220,2.91650778

>  <Name>
lig.pdb

>  <RI>
0

>  <Rbt.Current_Directory>
/home/afrankz/demos/rdock_decoys_rna/rnas/3wru

>  <Rbt.Executable>
rbdock ($Id: //depot/dev/client3/rdock/2013.1/src/exe/rbdock.cxx#4 $)

>  <Rbt.Library>
libRbt.so (2013.1, Build901 2013/11/27)

>  <Rbt.Parameter_File>
/export/apps/rDock/src/rDock_2013.1_src/data/scripts/dock_solv.prm

>  <Rbt.Receptor>
prm/blind_docking_20.prm

>  <SCORE>
22.3447

>  <SCORE.INTER>
5.06295

>  <SCORE.INTER.CONST>
1

>  <SCORE.INTER.POLAR>
0

>  <SCORE.INTER.ROT>
13

>  <SCORE.INTER.SOLV>
35.6483

>  <SCORE.INTER.VDW>
-20.7741

>  <SCORE.INTER.norm>
0.110064

>  <SCORE.INTRA>
10.3844

>  <SCORE.INTRA.DIHEDRAL>
3.86145

>  <SCORE.INTRA.DIHEDRAL.0>
19.7146

>  <SCORE.INTRA.POLAR>
0

>  <SCORE.INTRA.POLAR.0>
0

>  <SCORE.INTRA.REPUL>
0.032387

>  <SCORE.INTRA.REPUL.0>
0

>  <SCORE.INTRA.SOLV>
6.45301

>  <SCORE.INTRA.SOLV.lig_0>
-116.697

>  <SCORE.INTRA.VDW>
5.06525

>  <SCORE.INTRA.VDW.0>
-7.06424

>  <SCORE.INTRA.norm>
0.225748

>  <SCORE.RESTR>
6.89738

>  <SCORE.RESTR.CAVITY>
6.89738

>  <SCORE.RESTR.norm>
0.149943

>  <SCORE.SYSTEM>
0

>  <SCORE.SYSTEM.CONST>
0

>  <SCORE.SYSTEM.DIHEDRAL>
0

>  <SCORE.SYSTEM.SOLV>
0

>  <SCORE.SYSTEM.norm>
0

>  <SCORE.heavy>
46

>  <SCORE.norm>
0.485755

>  <RMSD>
8.920

$$$$
lig.pdb
 OpenBabel03061811583D
libRbt.so/2013.1/901 2013/11/27
 46 49  0  0  0  0  0  0  0  0999 V2000
   10.6062  -13.8670    5.0029 C   0  0  1  0  0  0  0  0  0  0  0  0
    8.8901  -15.5540    5.7883 C   0  0  1  0  0  0  0  0  0  0  0  0
    7.3420  -15.6138    5.9597 C   0  0  1  0  0  0  0  0  0  0  0  0
    6.9508  -17.0046    6.6777 C   0  0  2  0  0  0  0  0  0  0  0  0
    7.2665  -14.1810    8.0524 C   0  0  2  0  0  0  0  0  0  0  0  0
    6.6508  -12.8524    8.5763 C   0  0  1  0  0  0  0  0  0  0  0  0
    6.6334  -13.1967   10.0460 C   0  0  1  0  0  0  0  0  0  0  0  0
    6.0568  -14.6469   10.1071 C   0  0  1  0  0  0  0  0  0  0  0  0
    4.4957  -14.7920   10.0469 C   0  0  0  0  0  0  0  0  0  0  0  0
    8.5709  -11.8863   10.8285 C   0  0  1  0  0  0  0  0  0  0  0  0
   10.0017  -11.8911   11.2778 C   0  0  1  0  0  0  0  0  0  0  0  0
   11.0063  -13.0437    6.2500 C   0  0  1  0  0  0  0  0  0  0  0  0
   10.4376  -10.4111   11.5677 C   0  0  0  0  0  0  0  0  0  0  0  0
    9.6772   -9.7502   12.5893 C   0  0  0  0  0  0  0  0  0  0  0  0
    8.2919   -9.6945   12.1736 C   0  0  2  0  0  0  0  0  0  0  0  0
    7.4003   -8.9832   13.2663 C   0  0  0  0  0  0  0  0  0  0  0  0
    7.6476  -22.1268    7.2054 C   0  0  2  0  0  0  0  0  0  0  0  0
    7.0049  -20.6676    5.4702 C   0  0  0  0  0  0  0  0  0  0  0  0
    7.2405  -22.9489    8.2391 C   0  0  0  0  0  0  0  0  0  0  0  0
    6.6091  -21.9527    6.3506 C   0  0  1  0  0  0  0  0  0  0  0  0
   10.1522  -11.6988    6.3471 C   0  0  0  0  0  0  0  0  0  0  0  0
   10.3924  -10.8545    5.0048 C   0  0  0  0  0  0  0  0  0  0  0  0
    9.9299  -11.7554    3.7678 C   0  0  1  0  0  0  0  0  0  0  0  0
   10.1328  -11.0361    2.4288 C   0  0  0  0  0  0  0  0  0  0  0  0
    7.3965  -18.1956    5.7218 C   0  0  1  0  0  0  0  0  0  0  0  0
    9.0095  -18.0964    5.6013 C   0  0  0  0  0  0  0  0  0  0  0  0
    9.4160  -16.7294    4.9275 C   0  0  2  0  0  0  0  0  0  0  0  0
    8.8165  -22.6924    6.5703 F   0  0  0  0  0  0  0  0  0  0  0  0
    7.8743   -7.5384   13.5951 N   0  0  0  0  0  0  0  0  0  0  0  0
   10.8312  -13.9194    7.4674 N   0  0  0  0  0  0  0  0  0  0  0  0
   10.2244  -12.5834   12.4715 N   0  0  0  0  0  0  0  0  0  0  0  0
    7.9068  -23.3792    9.4105 N   0  0  0  0  0  0  0  0  0  0  0  0
    9.5339   -9.7585    2.4432 N   0  0  0  0  0  0  0  0  0  0  0  0
    7.0440  -19.4878    6.3368 N   0  0  0  0  0  0  0  0  0  0  0  0
   10.8878  -16.6192    4.8223 N   0  0  0  0  0  0  0  0  0  0  0  0
    9.2703  -14.3575    5.1211 O   0  0  0  0  0  0  0  0  0  0  0  0
    6.9548  -14.4344    6.8035 O   0  0  0  0  0  0  0  0  0  0  0  0
    5.5812  -17.0333    6.8169 O   0  0  0  0  0  0  0  0  0  0  0  0
    7.5156  -11.8087    8.2446 O   0  0  0  0  0  0  0  0  0  0  0  0
    6.8385  -15.1926    9.0315 O   0  0  0  0  0  0  0  0  0  0  0  0
    3.9508  -14.0350   11.1460 O   0  0  0  0  0  0  0  0  0  0  0  0
    8.0503  -13.1392   10.5874 O   0  0  0  0  0  0  0  0  0  0  0  0
    6.3939  -23.0881    5.4842 O   0  0  0  0  0  0  0  0  0  0  0  0
    7.2504  -20.6940    4.2530 O   0  0  0  0  0  0  0  0  0  0  0  0
    7.7736  -11.0839   11.8859 O   0  0  0  0  0  0  0  0  0  0  0  0
   10.7257  -13.0501    3.7482 O   0  0  0  0  0  0  0  0  0  0  0  0
  1 36  1  1  0  0  0
  2 36  1  6  0  0  0
  2  3  1  0  0  0  0
  3 37  1  1  0  0  0
  3  4  1  0  0  0  0
  4 38  1  6  0  0  0
  5 37  1  6  0  0  0
  5  6  1  0  0  0  0
  6  7  1  0  0  0  0
  6 39  1  1  0  0  0
  7 42  1  6  0  0  0
  8  9  1  6  0  0  0
  8  7  1  0  0  0  0
 10 42  1  1  0  0  0
 10 11  1  0  0  0  0
 11 31  1  1  0  0  0
 11 13  1  0  0  0  0
 12 30  1  1  0  0  0
 12  1  1  0  0  0  0
 14 13  1  0  0  0  0
 15 16  1  1  0  0  0
 15 14  1  0  0  0  0
 17 19  1  1  0  0  0
 17 28  1  0  0  0  0
 18 34  1  0  0  0  0
 19 32  1  0  0  0  0
 20 18  1  6  0  0  0
 20 17  1  0  0  0  0
 20 43  1  0  0  0  0
 21 12  1  0  0  0  0
 22 21  1  0  0  0  0
 22 23  1  0  0  0  0
 23 24  1  6  0  0  0
 23 46  1  0  0  0  0
 24 33  1  0  0  0  0
 25 34  1  1  0  0  0
 25  4  1  0  0  0  0
 26 25  1  0  0  0  0
 27 35  1  1  0  0  0
 27 26  1  0  0  0  0
 27  2  1  0  0  0  0
 29 16  1  0  0  0  0
 40  8  1  0  0  0  0
 40  5  1  0  0  0  0
 41  9  1  0  0  0  0
 44 18  2  0  0  0  0
 45 15  1  0  0  0  0
 45 10  1  0  0  0  0
 46  1  1  0  0  0  0
M  END
>  <CHROM.1>
-84.86593649,168.58280719,-64.74043956,-179.28458276,77.07735713,-57.86442810
-176.27368808,57.79793631,-176.25077085,-65.76630442,162.99163767,-52.29755717
162.37215319,8.20928252,-14.99372499,7.72505833,-1.32306971,-1.14687400,-2.53644811

>  <Name>
lig.pdb

>  <RI>
0

>  <Rbt.Current_Directory>
/home/afrankz/demos/rdock_decoys_rna/rnas/3wru

>  <Rbt.Executable>
rbdock ($Id: //depot/dev/client3/rdock/2013.1/src/exe/rbdock.cxx#4 $)

>  <Rbt.Library>
libRbt.so (2013.1, Build901 2013/11/27)

>  <Rbt.Parameter_File>
/export/apps/rDock/src/rDock_2013.1_src/data/scripts/dock_solv.prm

>  <Rbt.Receptor>
prm/pocket_docking_8.prm

>  <SCORE>
-3.32151

>  <SCORE.INTER>
0.542659

>  <SCORE.INTER.CONST>
1

>  <SCORE.INTER.POLAR>
0

>  <SCORE.INTER.ROT>
13

>  <SCORE.INTER.SOLV>
20.2227

>  <SCORE.INTER.VDW>
-18.6458

>  <SCORE.INTER.norm>
0.0117969

>  <SCORE.INTRA>
-3.88204

>  <SCORE.INTRA.DIHEDRAL>
-12.452

>  <SCORE.INTRA.DIHEDRAL.0>
19.7146

>  <SCORE.INTRA.POLAR>
0

>  <SCORE.INTRA.POLAR.0>
0

>  <SCORE.INTRA.REPUL>
0

>  <SCORE.INTRA.REPUL.0>
0

>  <SCORE.INTRA.SOLV>
1.00541

>  <SCORE.INTRA.SOLV.lig_0>
-116.697

>  <SCORE.INTRA.VDW>
1.84124

>  <SCORE.INTRA.VDW.0>
-7.06424

>  <SCORE.INTRA.norm>
-0.0843922

>  <SCORE.RESTR>
0.0178743

>  <SCORE.RESTR.CAVITY>
0.0178743

>  <SCORE.RESTR.norm>
0.000388572

>  <SCORE.SYSTEM>
0

>  <SCORE.SYSTEM.CONST>
0

>  <SCORE.SYSTEM.DIHEDRAL>
0

>  <SCORE.SYSTEM.SOLV>
0

>  <SCORE.SYSTEM.norm>
0

>  <SCORE.heavy>
46

>  <SCORE.norm>
-0.0722067

>  <RMSD>
8.920

$$$$
lig.pdb
 OpenBabel03061811583D
libRbt.so/2013.1/901 2013/11/27
 46 49  0  0  0  0  0  0  0  0999 V2000
   10.0353   -6.8867    1.3860 C   0  0  1  0  0  0  0  0  0  0  0  0
   11.6307   -5.2887    2.5299 C   0  0  1  0  0  0  0  0  0  0  0  0
   13.1136   -5.2628    2.0502 C   0  0  1  0  0  0  0  0  0  0  0  0
   14.0493   -4.7882    3.2758 C   0  0  2  0  0  0  0  0  0  0  0  0
   13.4066   -7.7698    2.3086 C   0  0  2  0  0  0  0  0  0  0  0  0
   14.3148   -7.7346    3.5707 C   0  0  1  0  0  0  0  0  0  0  0  0
   13.5699   -8.7595    4.3914 C   0  0  1  0  0  0  0  0  0  0  0  0
   12.0650   -8.3690    4.2434 C   0  0  1  0  0  0  0  0  0  0  0  0
   11.5345   -7.2250    5.1769 C   0  0  0  0  0  0  0  0  0  0  0  0
   13.5479  -11.2130    4.6432 C   0  0  1  0  0  0  0  0  0  0  0  0
   13.1934  -12.4691    3.9046 C   0  0  1  0  0  0  0  0  0  0  0  0
   10.2624   -7.5846    0.0241 C   0  0  1  0  0  0  0  0  0  0  0  0
   12.8283  -13.5778    4.9542 C   0  0  0  0  0  0  0  0  0  0  0  0
   11.7155  -13.2592    5.8020 C   0  0  0  0  0  0  0  0  0  0  0  0
   12.0358  -12.0683    6.5598 C   0  0  2  0  0  0  0  0  0  0  0  0
   10.8402  -11.6613    7.5083 C   0  0  0  0  0  0  0  0  0  0  0  0
   14.9701   -3.0006    8.0647 C   0  0  2  0  0  0  0  0  0  0  0  0
   14.8008   -3.7829    5.8483 C   0  0  0  0  0  0  0  0  0  0  0  0
   15.7633   -2.5805    9.1157 C   0  0  0  0  0  0  0  0  0  0  0  0
   15.7257   -3.0501    6.9396 C   0  0  1  0  0  0  0  0  0  0  0  0
    9.6359   -6.7298   -1.1695 C   0  0  0  0  0  0  0  0  0  0  0  0
    8.0699   -6.5382   -0.8806 C   0  0  0  0  0  0  0  0  0  0  0  0
    7.9170   -5.7871    0.5224 C   0  0  1  0  0  0  0  0  0  0  0  0
    6.4461   -5.5668    0.8959 C   0  0  0  0  0  0  0  0  0  0  0  0
   13.6250   -3.3081    3.6758 C   0  0  1  0  0  0  0  0  0  0  0  0
   12.0900   -3.4023    4.1863 C   0  0  0  0  0  0  0  0  0  0  0  0
   11.1606   -3.8932    3.0101 C   0  0  2  0  0  0  0  0  0  0  0  0
   13.8268   -2.1245    7.9424 F   0  0  0  0  0  0  0  0  0  0  0  0
    9.4558  -11.7083    6.8002 N   0  0  0  0  0  0  0  0  0  0  0  0
   11.7459   -7.8046   -0.1497 N   0  0  0  0  0  0  0  0  0  0  0  0
   12.0687  -12.3519    3.0831 N   0  0  0  0  0  0  0  0  0  0  0  0
   15.7423   -1.3959    9.8887 N   0  0  0  0  0  0  0  0  0  0  0  0
    6.3318   -4.8729    2.1192 N   0  0  0  0  0  0  0  0  0  0  0  0
   14.4674   -2.8305    4.7870 N   0  0  0  0  0  0  0  0  0  0  0  0
    9.7566   -3.9962    3.4656 N   0  0  0  0  0  0  0  0  0  0  0  0
   10.7698   -5.6645    1.4628 O   0  0  0  0  0  0  0  0  0  0  0  0
   13.4506   -6.6585    1.6128 O   0  0  0  0  0  0  0  0  0  0  0  0
   15.3511   -4.7732    2.8273 O   0  0  0  0  0  0  0  0  0  0  0  0
   15.6002   -8.1277    3.1960 O   0  0  0  0  0  0  0  0  0  0  0  0
   12.0802   -8.1444    2.8238 O   0  0  0  0  0  0  0  0  0  0  0  0
   10.3717   -6.6566    4.5422 O   0  0  0  0  0  0  0  0  0  0  0  0
   13.8430  -10.1422    3.8277 O   0  0  0  0  0  0  0  0  0  0  0  0
   16.1056   -1.7431    6.4560 O   0  0  0  0  0  0  0  0  0  0  0  0
   14.4487   -4.9725    5.9055 O   0  0  0  0  0  0  0  0  0  0  0  0
   12.3870  -10.9319    5.6287 O   0  0  0  0  0  0  0  0  0  0  0  0
    8.5784   -6.6057    1.6190 O   0  0  0  0  0  0  0  0  0  0  0  0
  1 36  1  6  0  0  0
  2 36  1  6  0  0  0
  2  3  1  0  0  0  0
  3 37  1  1  0  0  0
  3  4  1  0  0  0  0
  4 38  1  6  0  0  0
  5 37  1  1  0  0  0
  5  6  1  0  0  0  0
  6  7  1  0  0  0  0
  6 39  1  6  0  0  0
  7 42  1  6  0  0  0
  8  9  1  1  0  0  0
  8  7  1  0  0  0  0
 10 42  1  6  0  0  0
 10 11  1  0  0  0  0
 11 31  1  6  0  0  0
 11 13  1  0  0  0  0
 12 30  1  6  0  0  0
 12  1  1  0  0  0  0
 14 13  1  0  0  0  0
 15 16  1  6  0  0  0
 15 14  1  0  0  0  0
 17 19  1  1  0  0  0
 17 28  1  0  0  0  0
 18 34  1  0  0  0  0
 19 32  1  0  0  0  0
 20 18  1  6  0  0  0
 20 17  1  0  0  0  0
 20 43  1  0  0  0  0
 21 12  1  0  0  0  0
 22 21  1  0  0  0  0
 22 23  1  0  0  0  0
 23 24  1  1  0  0  0
 23 46  1  0  0  0  0
 24 33  1  0  0  0  0
 25 34  1  1  0  0  0
 25  4  1  0  0  0  0
 26 25  1  0  0  0  0
 27 35  1  1  0  0  0
 27 26  1  0  0  0  0
 27  2  1  0  0  0  0
 29 16  1  0  0  0  0
 40  8  1  0  0  0  0
 40  5  1  0  0  0  0
 41  9  1  0  0  0  0
 44 18  2  0  0  0  0
 45 15  1  0  0  0  0
 45 10  1  0  0  0  0
 46  1  1  0  0  0  0
M  END
>  <CHROM.1>
-129.45474405,111.88088845,-58.59520609,-58.83769298,163.14930335,156.82660436
151.95076539,-45.57506221,113.13856288,113.64254189,170.43825190,-178.49316136
-39.63168177,12.29580437,-6.77576246,3.94463310,2.32185335,0.83757293,3.01323972

>  <Name>
lig.pdb

>  <RI>
0

>  <Rbt.Current_Directory>
/home/afrankz/demos/rdock_decoys_rna/rnas/3wru

>  <Rbt.Executable>
rbdock ($Id: //depot/dev/client3/rdock/2013.1/src/exe/rbdock.cxx#4 $)

>  <Rbt.Library>
libRbt.so (2013.1, Build901 2013/11/27)

>  <Rbt.Parameter_File>
/export/apps/rDock/src/rDock_2013.1_src/data/scripts/dock_solv.prm

>  <Rbt.Receptor>
prm/blind_docking_20.prm

>  <SCORE>
23.7943

>  <SCORE.INTER>
9.14369

>  <SCORE.INTER.CONST>
1

>  <SCORE.INTER.POLAR>
0

>  <SCORE.INTER.ROT>
13

>  <SCORE.INTER.SOLV>
41.1442

>  <SCORE.INTER.VDW>
-19.8856

>  <SCORE.INTER.norm>
0.198776

>  <SCORE.INTRA>
9.26871

>  <SCORE.INTRA.DIHEDRAL>
9.09367

>  <SCORE.INTRA.DIHEDRAL.0>
19.7146

>  <SCORE.INTRA.POLAR>
0

>  <SCORE.INTRA.POLAR.0>
0

>  <SCORE.INTRA.REPUL>
0

>  <SCORE.INTRA.REPUL.0>
0

>  <SCORE.INTRA.SOLV>
8.21934

>  <SCORE.INTRA.SOLV.lig_0>
-116.697

>  <SCORE.INTRA.VDW>
0.612209

>  <SCORE.INTRA.VDW.0>
-7.06424

>  <SCORE.INTRA.norm>
0.201494

>  <SCORE.RESTR>
5.38187

>  <SCORE.RESTR.CAVITY>
5.38187

>  <SCORE.RESTR.norm>
0.116997

>  <SCORE.SYSTEM>
0

>  <SCORE.SYSTEM.CONST>
0

>  <SCORE.SYSTEM.DIHEDRAL>
0

>  <SCORE.SYSTEM.SOLV>
0

>  <SCORE.SYSTEM.norm>
0

>  <SCORE.heavy>
46

>  <SCORE.norm>
0.517267

>  <RMSD>
8.945

$$$$
lig.pdb
 OpenBabel03061811583D
libRbt.so/2013.1/901 2013/11/27
 46 49  0  0  0  0  0  0  0  0999 V2000
    8.6326   -4.5566    0.8718 C   0  0  1  0  0  0  0  0  0  0  0  0
   10.5306   -4.5647    2.5468 C   0  0  1  0  0  0  0  0  0  0  0  0
   11.2840   -5.9226    2.6820 C   0  0  1  0  0  0  0  0  0  0  0  0
   12.8242   -5.6280    3.0615 C   0  0  2  0  0  0  0  0  0  0  0  0
   10.4505   -7.9936    3.8879 C   0  0  2  0  0  0  0  0  0  0  0  0
   11.4758   -8.7991    3.0401 C   0  0  1  0  0  0  0  0  0  0  0  0
   11.4778  -10.0645    3.8633 C   0  0  1  0  0  0  0  0  0  0  0  0
   11.5837   -9.5753    5.3427 C   0  0  1  0  0  0  0  0  0  0  0  0
   13.0178   -9.2205    5.8710 C   0  0  0  0  0  0  0  0  0  0  0  0
    9.9847  -11.9638    4.3599 C   0  0  1  0  0  0  0  0  0  0  0  0
    9.4176  -13.1111    3.5782 C   0  0  1  0  0  0  0  0  0  0  0  0
    7.0875   -4.4957    0.9205 C   0  0  1  0  0  0  0  0  0  0  0  0
    9.1927  -14.3177    4.5570 C   0  0  0  0  0  0  0  0  0  0  0  0
    8.2854  -14.0541    5.6368 C   0  0  0  0  0  0  0  0  0  0  0  0
    8.8186  -12.9723    6.4370 C   0  0  2  0  0  0  0  0  0  0  0  0
    7.8551  -12.6292    7.6407 C   0  0  0  0  0  0  0  0  0  0  0  0
   17.7733   -4.5106    1.3158 C   0  0  2  0  0  0  0  0  0  0  0  0
   15.6046   -3.5891    1.2979 C   0  0  0  0  0  0  0  0  0  0  0  0
   17.7437   -4.4465   -0.0644 C   0  0  0  0  0  0  0  0  0  0  0  0
   17.1177   -3.4346    1.8174 C   0  0  1  0  0  0  0  0  0  0  0  0
    6.4700   -5.9150    1.3105 C   0  0  0  0  0  0  0  0  0  0  0  0
    6.9649   -6.9912    0.2292 C   0  0  0  0  0  0  0  0  0  0  0  0
    8.5631   -7.0185    0.2585 C   0  0  1  0  0  0  0  0  0  0  0  0
    9.1369   -8.0149   -0.7562 C   0  0  0  0  0  0  0  0  0  0  0  0
   13.4785   -4.8077    1.8658 C   0  0  1  0  0  0  0  0  0  0  0  0
   12.6733   -3.4035    1.7898 C   0  0  0  0  0  0  0  0  0  0  0  0
   11.1567   -3.6703    1.4482 C   0  0  2  0  0  0  0  0  0  0  0  0
   19.1441   -4.6003    1.7658 F   0  0  0  0  0  0  0  0  0  0  0  0
    8.5431  -11.7857    8.7522 N   0  0  0  0  0  0  0  0  0  0  0  0
    6.6902   -3.4137    1.8956 N   0  0  0  0  0  0  0  0  0  0  0  0
    8.1655  -12.8549    3.0123 N   0  0  0  0  0  0  0  0  0  0  0  0
   18.1485   -3.4317   -0.9631 N   0  0  0  0  0  0  0  0  0  0  0  0
   10.5412   -8.0982   -0.6471 N   0  0  0  0  0  0  0  0  0  0  0  0
   14.8939   -4.5287    2.1678 N   0  0  0  0  0  0  0  0  0  0  0  0
   10.4057   -2.3968    1.3879 N   0  0  0  0  0  0  0  0  0  0  0  0
    9.1764   -4.7830    2.1727 O   0  0  0  0  0  0  0  0  0  0  0  0
   10.5911   -6.6950    3.7666 O   0  0  0  0  0  0  0  0  0  0  0  0
   13.4668   -6.8406    3.1745 O   0  0  0  0  0  0  0  0  0  0  0  0
   10.9547   -8.9547    1.7550 O   0  0  0  0  0  0  0  0  0  0  0  0
   10.6070   -8.5248    5.2512 O   0  0  0  0  0  0  0  0  0  0  0  0
   13.8362  -10.3972    5.7168 O   0  0  0  0  0  0  0  0  0  0  0  0
   10.1835  -10.8190    3.6191 O   0  0  0  0  0  0  0  0  0  0  0  0
   17.1336   -3.3855    3.2609 O   0  0  0  0  0  0  0  0  0  0  0  0
   15.1281   -2.9868    0.3218 O   0  0  0  0  0  0  0  0  0  0  0  0
    9.0544  -11.7513    5.5794 O   0  0  0  0  0  0  0  0  0  0  0  0
    9.1073   -5.6354   -0.0592 O   0  0  0  0  0  0  0  0  0  0  0  0
  1 36  1  1  0  0  0
  2 36  1  6  0  0  0
  2  3  1  0  0  0  0
  3 37  1  1  0  0  0
  3  4  1  0  0  0  0
  4 38  1  6  0  0  0
  5 37  1  1  0  0  0
  5  6  1  0  0  0  0
  6  7  1  0  0  0  0
  6 39  1  6  0  0  0
  7 42  1  1  0  0  0
  8  9  1  6  0  0  0
  8  7  1  0  0  0  0
 10 42  1  6  0  0  0
 10 11  1  0  0  0  0
 11 31  1  1  0  0  0
 11 13  1  0  0  0  0
 12 30  1  1  0  0  0
 12  1  1  0  0  0  0
 14 13  1  0  0  0  0
 15 16  1  1  0  0  0
 15 14  1  0  0  0  0
 17 19  1  6  0  0  0
 17 28  1  0  0  0  0
 18 34  1  0  0  0  0
 19 32  1  0  0  0  0
 20 18  1  1  0  0  0
 20 17  1  0  0  0  0
 20 43  1  0  0  0  0
 21 12  1  0  0  0  0
 22 21  1  0  0  0  0
 22 23  1  0  0  0  0
 23 24  1  6  0  0  0
 23 46  1  0  0  0  0
 24 33  1  0  0  0  0
 25 34  1  1  0  0  0
 25  4  1  0  0  0  0
 26 25  1  0  0  0  0
 27 35  1  1  0  0  0
 27 26  1  0  0  0  0
 27  2  1  0  0  0  0
 29 16  1  0  0  0  0
 40  8  1  0  0  0  0
 40  5  1  0  0  0  0
 41  9  1  0  0  0  0
 44 18  2  0  0  0  0
 45 15  1  0  0  0  0
 45 10  1  0  0  0  0
 46  1  1  0  0  0  0
M  END
>  <CHROM.1>
-163.36205448,-105.10643800,148.71525328,19.46921386,-176.12306748,-57.84574618
-137.66555673,163.30281093,54.81241211,81.21055908,62.51069661,-175.62243607
-169.69331970,11.46040059,-7.33172977,2.76443540,0.92571913,-0.15284254,-0.56342887

>  <Name>
lig.pdb

>  <RI>
0

>  <Rbt.Current_Directory>
/home/afrankz/demos/rdock_decoys_rna/rnas/3wru

>  <Rbt.Executable>
rbdock ($Id: //depot/dev/client3/rdock/2013.1/src/exe/rbdock.cxx#4 $)

>  <Rbt.Library>
libRbt.so (2013.1, Build901 2013/11/27)

>  <Rbt.Parameter_File>
/export/apps/rDock/src/rDock_2013.1_src/data/scripts/dock_solv.prm

>  <Rbt.Receptor>
prm/blind_docking_20.prm

>  <SCORE>
21.5104

>  <SCORE.INTER>
0.20015

>  <SCORE.INTER.CONST>
1

>  <SCORE.INTER.POLAR>
0

>  <SCORE.INTER.ROT>
13

>  <SCORE.INTER.SOLV>
40.4889

>  <SCORE.INTER.VDW>
-25.6295

>  <SCORE.INTER.norm>
0.00435109

>  <SCORE.INTRA>
9.6599

>  <SCORE.INTRA.DIHEDRAL>
5.56075

>  <SCORE.INTRA.DIHEDRAL.0>
19.7146

>  <SCORE.INTRA.POLAR>
0

>  <SCORE.INTRA.POLAR.0>
0

>  <SCORE.INTRA.REPUL>
0

>  <SCORE.INTRA.REPUL.0>
0

>  <SCORE.INTRA.SOLV>
2.65767

>  <SCORE.INTRA.SOLV.lig_0>
-116.697

>  <SCORE.INTRA.VDW>
5.55069

>  <SCORE.INTRA.VDW.0>
-7.06424

>  <SCORE.INTRA.norm>
0.209998

>  <SCORE.RESTR>
11.6504

>  <SCORE.RESTR.CAVITY>
11.6504

>  <SCORE.RESTR.norm>
0.253269

>  <SCORE.SYSTEM>
0

>  <SCORE.SYSTEM.CONST>
0

>  <SCORE.SYSTEM.DIHEDRAL>
0

>  <SCORE.SYSTEM.SOLV>
0

>  <SCORE.SYSTEM.norm>
0

>  <SCORE.heavy>
46

>  <SCORE.norm>
0.467618

>  <RMSD>
8.952

$$$$
lig.pdb
 OpenBabel03061811583D
libRbt.so/2013.1/901 2013/11/27
 46 49  0  0  0  0  0  0  0  0999 V2000
   10.7450  -10.9011    4.1023 C   0  0  1  0  0  0  0  0  0  0  0  0
   10.0420  -12.6875    5.7523 C   0  0  1  0  0  0  0  0  0  0  0  0
    9.9224  -12.8272    7.3002 C   0  0  1  0  0  0  0  0  0  0  0  0
    9.5501  -14.3558    7.6578 C   0  0  2  0  0  0  0  0  0  0  0  0
   12.4345  -12.9594    7.6312 C   0  0  2  0  0  0  0  0  0  0  0  0
   13.5898  -12.2104    8.3544 C   0  0  1  0  0  0  0  0  0  0  0  0
   14.5752  -13.3526    8.4103 C   0  0  1  0  0  0  0  0  0  0  0  0
   13.7355  -14.5781    8.8920 C   0  0  1  0  0  0  0  0  0  0  0  0
   13.4890  -14.7054   10.4363 C   0  0  0  0  0  0  0  0  0  0  0  0
   16.2521  -12.8332    6.6777 C   0  0  1  0  0  0  0  0  0  0  0  0
   16.8022  -13.1410    5.3170 C   0  0  1  0  0  0  0  0  0  0  0  0
   12.1954  -11.3489    3.8034 C   0  0  1  0  0  0  0  0  0  0  0  0
   18.0800  -12.2591    5.0853 C   0  0  0  0  0  0  0  0  0  0  0  0
   19.1397  -12.4777    6.0276 C   0  0  0  0  0  0  0  0  0  0  0  0
   18.6555  -12.1557    7.3530 C   0  0  2  0  0  0  0  0  0  0  0  0
   19.7792  -12.3865    8.4388 C   0  0  0  0  0  0  0  0  0  0  0  0
    6.1144  -18.0095    8.8748 C   0  0  2  0  0  0  0  0  0  0  0  0
    6.3511  -16.4545    7.1201 C   0  0  0  0  0  0  0  0  0  0  0  0
    5.6626  -19.2463    9.2945 C   0  0  0  0  0  0  0  0  0  0  0  0
    6.1673  -18.0004    7.5196 C   0  0  1  0  0  0  0  0  0  0  0  0
   13.2326  -10.6128    4.7678 C   0  0  0  0  0  0  0  0  0  0  0  0
   13.0705   -9.0302    4.5639 C   0  0  0  0  0  0  0  0  0  0  0  0
   11.5611   -8.6407    4.9188 C   0  0  1  0  0  0  0  0  0  0  0  0
   11.3009   -7.1399    4.7417 C   0  0  0  0  0  0  0  0  0  0  0  0
    8.1328  -14.6820    7.0132 C   0  0  1  0  0  0  0  0  0  0  0  0
    8.3252  -14.5444    5.4101 C   0  0  0  0  0  0  0  0  0  0  0  0
    8.7186  -13.0623    5.0403 C   0  0  2  0  0  0  0  0  0  0  0  0
    7.3893  -17.7255    9.4942 F   0  0  0  0  0  0  0  0  0  0  0  0
   21.0658  -11.5535    8.1724 N   0  0  0  0  0  0  0  0  0  0  0  0
   12.2603  -12.8513    3.9367 N   0  0  0  0  0  0  0  0  0  0  0  0
   17.2301  -14.4621    5.1581 N   0  0  0  0  0  0  0  0  0  0  0  0
    6.2261  -20.5384    9.1754 N   0  0  0  0  0  0  0  0  0  0  0  0
   11.4962   -6.7458    3.4010 N   0  0  0  0  0  0  0  0  0  0  0  0
    7.7485  -16.0695    7.3288 N   0  0  0  0  0  0  0  0  0  0  0  0
    8.9100  -12.9245    3.5796 N   0  0  0  0  0  0  0  0  0  0  0  0
   10.3303  -11.3417    5.3958 O   0  0  0  0  0  0  0  0  0  0  0  0
   11.2545  -12.4398    7.8732 O   0  0  0  0  0  0  0  0  0  0  0  0
    9.4499  -14.4528    9.0277 O   0  0  0  0  0  0  0  0  0  0  0  0
   13.9942  -11.1463    7.5474 O   0  0  0  0  0  0  0  0  0  0  0  0
   12.6038  -14.3651    8.0320 O   0  0  0  0  0  0  0  0  0  0  0  0
   14.7728  -14.6144   11.0856 O   0  0  0  0  0  0  0  0  0  0  0  0
   15.1491  -13.5830    7.0240 O   0  0  0  0  0  0  0  0  0  0  0  0
    7.2675  -18.7732    6.9918 O   0  0  0  0  0  0  0  0  0  0  0  0
    5.4438  -15.7237    6.6896 O   0  0  0  0  0  0  0  0  0  0  0  0
   17.4271  -12.9732    7.6765 O   0  0  0  0  0  0  0  0  0  0  0  0
   10.6065   -9.4079    4.0186 O   0  0  0  0  0  0  0  0  0  0  0  0
  1 36  1  1  0  0  0
  2 36  1  1  0  0  0
  2  3  1  0  0  0  0
  3 37  1  1  0  0  0
  3  4  1  0  0  0  0
  4 38  1  1  0  0  0
  5 37  1  1  0  0  0
  5  6  1  0  0  0  0
  6  7  1  0  0  0  0
  6 39  1  6  0  0  0
  7 42  1  6  0  0  0
  8  9  1  1  0  0  0
  8  7  1  0  0  0  0
 10 42  1  1  0  0  0
 10 11  1  0  0  0  0
 11 31  1  1  0  0  0
 11 13  1  0  0  0  0
 12 30  1  1  0  0  0
 12  1  1  0  0  0  0
 14 13  1  0  0  0  0
 15 16  1  1  0  0  0
 15 14  1  0  0  0  0
 17 19  1  1  0  0  0
 17 28  1  0  0  0  0
 18 34  1  0  0  0  0
 19 32  1  0  0  0  0
 20 18  1  1  0  0  0
 20 17  1  0  0  0  0
 20 43  1  0  0  0  0
 21 12  1  0  0  0  0
 22 21  1  0  0  0  0
 22 23  1  0  0  0  0
 23 24  1  6  0  0  0
 23 46  1  0  0  0  0
 24 33  1  0  0  0  0
 25 34  1  6  0  0  0
 25  4  1  0  0  0  0
 26 25  1  0  0  0  0
 27 35  1  6  0  0  0
 27 26  1  0  0  0  0
 27  2  1  0  0  0  0
 29 16  1  0  0  0  0
 40  8  1  0  0  0  0
 40  5  1  0  0  0  0
 41  9  1  0  0  0  0
 44 18  2  0  0  0  0
 45 15  1  0  0  0  0
 45 10  1  0  0  0  0
 46  1  1  0  0  0  0
M  END
>  <CHROM.1>
-71.45392365,167.84837184,-57.91668049,176.02445962,86.88873792,-52.00539971
177.88944653,57.97566177,64.40384375,78.10352974,166.79004914,61.90632306
164.96043879,11.89795103,-13.42867026,6.82632449,0.47962751,-0.19521102,-0.59566435

>  <Name>
lig.pdb

>  <RI>
0

>  <Rbt.Current_Directory>
/home/afrankz/demos/rdock_decoys_rna/rnas/3wru

>  <Rbt.Executable>
rbdock ($Id: //depot/dev/client3/rdock/2013.1/src/exe/rbdock.cxx#4 $)

>  <Rbt.Library>
libRbt.so (2013.1, Build901 2013/11/27)

>  <Rbt.Parameter_File>
/export/apps/rDock/src/rDock_2013.1_src/data/scripts/dock_solv.prm

>  <Rbt.Receptor>
prm/pocket_docking_3.prm

>  <SCORE>
-6.08854

>  <SCORE.INTER>
-2.73495

>  <SCORE.INTER.CONST>
1

>  <SCORE.INTER.POLAR>
0

>  <SCORE.INTER.ROT>
13

>  <SCORE.INTER.SOLV>
22.6769

>  <SCORE.INTER.VDW>
-21.6489

>  <SCORE.INTER.norm>
-0.0594554

>  <SCORE.INTRA>
-3.38595

>  <SCORE.INTRA.DIHEDRAL>
-12.8876

>  <SCORE.INTRA.DIHEDRAL.0>
19.7146

>  <SCORE.INTRA.POLAR>
0

>  <SCORE.INTRA.POLAR.0>
0

>  <SCORE.INTRA.REPUL>
0

>  <SCORE.INTRA.REPUL.0>
0

>  <SCORE.INTRA.SOLV>
3.70604

>  <SCORE.INTRA.SOLV.lig_0>
-116.697

>  <SCORE.INTRA.VDW>
1.20484

>  <SCORE.INTRA.VDW.0>
-7.06424

>  <SCORE.INTRA.norm>
-0.0736077

>  <SCORE.RESTR>
0.0323596

>  <SCORE.RESTR.CAVITY>
0.0323596

>  <SCORE.RESTR.norm>
0.000703471

>  <SCORE.SYSTEM>
0

>  <SCORE.SYSTEM.CONST>
0

>  <SCORE.SYSTEM.DIHEDRAL>
0

>  <SCORE.SYSTEM.SOLV>
0

>  <SCORE.SYSTEM.norm>
0

>  <SCORE.heavy>
46

>  <SCORE.norm>
-0.13236

>  <RMSD>
8.972

$$$$
lig.pdb
 OpenBabel03061811583D
libRbt.so/2013.1/901 2013/11/27
 46 49  0  0  0  0  0  0  0  0999 V2000
    6.4092  -15.3834   11.5252 C   0  0  1  0  0  0  0  0  0  0  0  0
    7.3144  -14.4555    9.3509 C   0  0  1  0  0  0  0  0  0  0  0  0
    6.3320  -15.2290    8.4200 C   0  0  1  0  0  0  0  0  0  0  0  0
    6.9824  -15.3320    6.9472 C   0  0  2  0  0  0  0  0  0  0  0  0
    7.0415  -17.4952    9.3137 C   0  0  2  0  0  0  0  0  0  0  0  0
    6.4274  -18.8118    9.8686 C   0  0  1  0  0  0  0  0  0  0  0  0
    7.5435  -19.7465    9.4691 C   0  0  1  0  0  0  0  0  0  0  0  0
    7.8801  -19.3554    7.9950 C   0  0  1  0  0  0  0  0  0  0  0  0
    6.9629  -19.9594    6.8744 C   0  0  0  0  0  0  0  0  0  0  0  0
    9.5271  -18.4321   10.1181 C   0  0  1  0  0  0  0  0  0  0  0  0
   10.5474  -18.6648    9.0440 C   0  0  1  0  0  0  0  0  0  0  0  0
    4.9745  -15.2071   12.0763 C   0  0  1  0  0  0  0  0  0  0  0  0
   11.4114  -17.3635    8.8875 C   0  0  0  0  0  0  0  0  0  0  0  0
   12.1250  -16.9707   10.0686 C   0  0  0  0  0  0  0  0  0  0  0  0
   11.1681  -16.7021   11.1209 C   0  0  2  0  0  0  0  0  0  0  0  0
   11.8975  -16.2723   12.4544 C   0  0  0  0  0  0  0  0  0  0  0  0
   10.6298  -15.1946    3.2497 C   0  0  2  0  0  0  0  0  0  0  0  0
    9.0333  -14.5651    4.8647 C   0  0  0  0  0  0  0  0  0  0  0  0
   10.3484  -16.5270    3.0141 C   0  0  0  0  0  0  0  0  0  0  0  0
    9.4628  -14.5068    3.3170 C   0  0  1  0  0  0  0  0  0  0  0  0
    4.8817  -13.9357   13.0368 C   0  0  0  0  0  0  0  0  0  0  0  0
    5.9320  -14.1332   14.2327 C   0  0  0  0  0  0  0  0  0  0  0  0
    7.3884  -14.2775   13.5893 C   0  0  1  0  0  0  0  0  0  0  0  0
    8.4682  -14.4841   14.6583 C   0  0  0  0  0  0  0  0  0  0  0  0
    7.1547  -13.8558    6.3797 C   0  0  1  0  0  0  0  0  0  0  0  0
    8.1998  -13.1121    7.3700 C   0  0  0  0  0  0  0  0  0  0  0  0
    7.5953  -13.0262    8.8244 C   0  0  2  0  0  0  0  0  0  0  0  0
   11.5212  -14.7008    2.2245 F   0  0  0  0  0  0  0  0  0  0  0  0
   12.7050  -14.9505   12.3098 N   0  0  0  0  0  0  0  0  0  0  0  0
    4.0296  -15.1055   10.9031 N   0  0  0  0  0  0  0  0  0  0  0  0
   11.4603  -19.6831    9.3327 N   0  0  0  0  0  0  0  0  0  0  0  0
    9.7782  -17.1797    1.8960 N   0  0  0  0  0  0  0  0  0  0  0  0
    8.2222  -15.6535   15.4086 N   0  0  0  0  0  0  0  0  0  0  0  0
    7.7355  -13.9061    5.0260 N   0  0  0  0  0  0  0  0  0  0  0  0
    8.5448  -12.3602    9.7433 N   0  0  0  0  0  0  0  0  0  0  0  0
    6.7563  -14.3094   10.6503 O   0  0  0  0  0  0  0  0  0  0  0  0
    6.1385  -16.5871    9.0291 O   0  0  0  0  0  0  0  0  0  0  0  0
    6.0972  -16.0174    6.1455 O   0  0  0  0  0  0  0  0  0  0  0  0
    6.2657  -18.6721   11.2476 O   0  0  0  0  0  0  0  0  0  0  0  0
    7.8812  -17.9309    8.1866 O   0  0  0  0  0  0  0  0  0  0  0  0
    5.6298  -19.4559    7.0921 O   0  0  0  0  0  0  0  0  0  0  0  0
    8.7314  -19.5243   10.3876 O   0  0  0  0  0  0  0  0  0  0  0  0
    9.5935  -13.1300    2.9003 O   0  0  0  0  0  0  0  0  0  0  0  0
    9.7016  -15.1022    5.7633 O   0  0  0  0  0  0  0  0  0  0  0  0
   10.2949  -17.9117   11.3581 O   0  0  0  0  0  0  0  0  0  0  0  0
    7.4153  -15.4623   12.6376 O   0  0  0  0  0  0  0  0  0  0  0  0
  1 36  1  6  0  0  0
  2 36  1  1  0  0  0
  2  3  1  0  0  0  0
  3 37  1  1  0  0  0
  3  4  1  0  0  0  0
  4 38  1  6  0  0  0
  5 37  1  6  0  0  0
  5  6  1  0  0  0  0
  6  7  1  0  0  0  0
  6 39  1  1  0  0  0
  7 42  1  1  0  0  0
  8  9  1  6  0  0  0
  8  7  1  0  0  0  0
 10 42  1  1  0  0  0
 10 11  1  0  0  0  0
 11 31  1  1  0  0  0
 11 13  1  0  0  0  0
 12 30  1  6  0  0  0
 12  1  1  0  0  0  0
 14 13  1  0  0  0  0
 15 16  1  1  0  0  0
 15 14  1  0  0  0  0
 17 19  1  6  0  0  0
 17 28  1  0  0  0  0
 18 34  1  0  0  0  0
 19 32  1  0  0  0  0
 20 18  1  1  0  0  0
 20 17  1  0  0  0  0
 20 43  1  0  0  0  0
 21 12  1  0  0  0  0
 22 21  1  0  0  0  0
 22 23  1  0  0  0  0
 23 24  1  1  0  0  0
 23 46  1  0  0  0  0
 24 33  1  0  0  0  0
 25 34  1  6  0  0  0
 25  4  1  0  0  0  0
 26 25  1  0  0  0  0
 27 35  1  1  0  0  0
 27 26  1  0  0  0  0
 27  2  1  0  0  0  0
 29 16  1  0  0  0  0
 40  8  1  0  0  0  0
 40  5  1  0  0  0  0
 41  9  1  0  0  0  0
 44 18  2  0  0  0  0
 45 15  1  0  0  0  0
 45 10  1  0  0  0  0
 46  1  1  0  0  0  0
M  END
>  <CHROM.1>
-130.45516737,61.69569157,-57.63130218,-176.84620757,-79.11293010,62.81174771
-82.38331129,62.68634168,66.17263847,-176.91771498,89.44758557,60.05913155
-58.09130892,8.31930443,-16.11320728,8.83168076,1.93552246,-0.88272164,1.89281992

>  <Name>
lig.pdb

>  <RI>
0

>  <Rbt.Current_Directory>
/home/afrankz/demos/rdock_decoys_rna/rnas/3wru

>  <Rbt.Executable>
rbdock ($Id: //depot/dev/client3/rdock/2013.1/src/exe/rbdock.cxx#4 $)

>  <Rbt.Library>
libRbt.so (2013.1, Build901 2013/11/27)

>  <Rbt.Parameter_File>
/export/apps/rDock/src/rDock_2013.1_src/data/scripts/dock_solv.prm

>  <Rbt.Receptor>
prm/pocket_docking_6.prm

>  <SCORE>
7.81506

>  <SCORE.INTER>
4.43499

>  <SCORE.INTER.CONST>
1

>  <SCORE.INTER.POLAR>
0

>  <SCORE.INTER.ROT>
13

>  <SCORE.INTER.SOLV>
21.5006

>  <SCORE.INTER.VDW>
-16.4769

>  <SCORE.INTER.norm>
0.0964129

>  <SCORE.INTRA>
3.38007

>  <SCORE.INTRA.DIHEDRAL>
-5.69964

>  <SCORE.INTRA.DIHEDRAL.0>
19.7146

>  <SCORE.INTRA.POLAR>
0

>  <SCORE.INTRA.POLAR.0>
0

>  <SCORE.INTRA.REPUL>
0

>  <SCORE.INTRA.REPUL.0>
0

>  <SCORE.INTRA.SOLV>
2.61549

>  <SCORE.INTRA.SOLV.lig_0>
-116.697

>  <SCORE.INTRA.VDW>
4.92214

>  <SCORE.INTRA.VDW.0>
-7.06424

>  <SCORE.INTRA.norm>
0.0734798

>  <SCORE.RESTR>
0

>  <SCORE.RESTR.CAVITY>
0

>  <SCORE.RESTR.norm>
0

>  <SCORE.SYSTEM>
0

>  <SCORE.SYSTEM.CONST>
0

>  <SCORE.SYSTEM.DIHEDRAL>
0

>  <SCORE.SYSTEM.SOLV>
0

>  <SCORE.SYSTEM.norm>
0

>  <SCORE.heavy>
46

>  <SCORE.norm>
0.169893

>  <RMSD>
8.972

$$$$
lig.pdb
 OpenBabel03061811583D
libRbt.so/2013.1/901 2013/11/27
 46 49  0  0  0  0  0  0  0  0999 V2000
   11.7453  -11.5128    4.9863 C   0  0  1  0  0  0  0  0  0  0  0  0
   11.2370  -13.3429    6.6597 C   0  0  1  0  0  0  0  0  0  0  0  0
   12.0101  -12.8495    7.9201 C   0  0  1  0  0  0  0  0  0  0  0  0
   12.3729  -14.1239    8.8405 C   0  0  2  0  0  0  0  0  0  0  0  0
   14.2529  -12.6655    6.7481 C   0  0  2  0  0  0  0  0  0  0  0  0
   15.4740  -11.7059    6.6643 C   0  0  1  0  0  0  0  0  0  0  0  0
   16.5445  -12.7495    6.4549 C   0  0  1  0  0  0  0  0  0  0  0  0
   16.2280  -13.8595    7.5070 C   0  0  1  0  0  0  0  0  0  0  0  0
   16.7406  -13.6163    8.9698 C   0  0  0  0  0  0  0  0  0  0  0  0
   17.4399  -12.9002    4.1616 C   0  0  1  0  0  0  0  0  0  0  0  0
   17.2997  -13.4749    2.7836 C   0  0  1  0  0  0  0  0  0  0  0  0
   11.0570  -10.2416    4.4354 C   0  0  1  0  0  0  0  0  0  0  0  0
   18.5219  -13.0013    1.9198 C   0  0  0  0  0  0  0  0  0  0  0  0
   19.8039  -13.4095    2.4182 C   0  0  0  0  0  0  0  0  0  0  0  0
   19.9909  -12.8426    3.7368 C   0  0  2  0  0  0  0  0  0  0  0  0
   21.3864  -13.2663    4.3435 C   0  0  0  0  0  0  0  0  0  0  0  0
    9.6584  -18.2486   12.4422 C   0  0  2  0  0  0  0  0  0  0  0  0
   10.2375  -16.4225   11.0699 C   0  0  0  0  0  0  0  0  0  0  0  0
    9.1093  -19.1355   11.5355 C   0  0  0  0  0  0  0  0  0  0  0  0
   10.7691  -17.6955   11.8946 C   0  0  1  0  0  0  0  0  0  0  0  0
    9.8562  -10.6195    3.4541 C   0  0  0  0  0  0  0  0  0  0  0  0
   10.4471  -11.5117    2.2594 C   0  0  0  0  0  0  0  0  0  0  0  0
   11.1123  -12.8156    2.9020 C   0  0  1  0  0  0  0  0  0  0  0  0
   11.7206  -13.7329    1.8343 C   0  0  0  0  0  0  0  0  0  0  0  0
   11.0101  -14.7922    9.3170 C   0  0  1  0  0  0  0  0  0  0  0  0
   10.2656  -15.3044    7.9718 C   0  0  0  0  0  0  0  0  0  0  0  0
    9.9273  -14.0756    7.0426 C   0  0  2  0  0  0  0  0  0  0  0  0
    9.9206  -18.9325   13.6884 F   0  0  0  0  0  0  0  0  0  0  0  0
   22.5960  -12.6831    3.5580 N   0  0  0  0  0  0  0  0  0  0  0  0
   10.5948   -9.4115    5.6087 N   0  0  0  0  0  0  0  0  0  0  0  0
   17.3341  -14.8715    2.7397 N   0  0  0  0  0  0  0  0  0  0  0  0
    8.5576  -18.9363   10.2481 N   0  0  0  0  0  0  0  0  0  0  0  0
   12.1794  -14.9397    2.4037 N   0  0  0  0  0  0  0  0  0  0  0  0
   11.2979  -15.9563   10.1740 N   0  0  0  0  0  0  0  0  0  0  0  0
    9.2579  -14.5298    5.8036 N   0  0  0  0  0  0  0  0  0  0  0  0
   10.8643  -12.2409    5.8424 O   0  0  0  0  0  0  0  0  0  0  0  0
   13.2488  -12.1613    7.4253 O   0  0  0  0  0  0  0  0  0  0  0  0
   13.0533  -13.6625    9.9451 O   0  0  0  0  0  0  0  0  0  0  0  0
   15.2868  -10.8535    5.5755 O   0  0  0  0  0  0  0  0  0  0  0  0
   14.8103  -13.9199    7.2781 O   0  0  0  0  0  0  0  0  0  0  0  0
   16.4126  -14.7893    9.7409 O   0  0  0  0  0  0  0  0  0  0  0  0
   16.4478  -13.2841    5.0375 O   0  0  0  0  0  0  0  0  0  0  0  0
   11.7327  -17.2675   12.8817 O   0  0  0  0  0  0  0  0  0  0  0  0
    9.0997  -15.9362   11.1778 O   0  0  0  0  0  0  0  0  0  0  0  0
   18.8640  -13.2593    4.6524 O   0  0  0  0  0  0  0  0  0  0  0  0
   12.2084  -12.4087    3.8732 O   0  0  0  0  0  0  0  0  0  0  0  0
  1 36  1  1  0  0  0
  2 36  1  6  0  0  0
  2  3  1  0  0  0  0
  3 37  1  6  0  0  0
  3  4  1  0  0  0  0
  4 38  1  1  0  0  0
  5 37  1  1  0  0  0
  5  6  1  0  0  0  0
  6  7  1  0  0  0  0
  6 39  1  6  0  0  0
  7 42  1  6  0  0  0
  8  9  1  1  0  0  0
  8  7  1  0  0  0  0
 10 42  1  1  0  0  0
 10 11  1  0  0  0  0
 11 31  1  1  0  0  0
 11 13  1  0  0  0  0
 12 30  1  1  0  0  0
 12  1  1  0  0  0  0
 14 13  1  0  0  0  0
 15 16  1  1  0  0  0
 15 14  1  0  0  0  0
 17 19  1  6  0  0  0
 17 28  1  0  0  0  0
 18 34  1  0  0  0  0
 19 32  1  0  0  0  0
 20 18  1  1  0  0  0
 20 17  1  0  0  0  0
 20 43  1  0  0  0  0
 21 12  1  0  0  0  0
 22 21  1  0  0  0  0
 22 23  1  0  0  0  0
 23 24  1  6  0  0  0
 23 46  1  0  0  0  0
 24 33  1  0  0  0  0
 25 34  1  1  0  0  0
 25  4  1  0  0  0  0
 26 25  1  0  0  0  0
 27 35  1  6  0  0  0
 27 26  1  0  0  0  0
 27  2  1  0  0  0  0
 29 16  1  0  0  0  0
 40  8  1  0  0  0  0
 40  5  1  0  0  0  0
 41  9  1  0  0  0  0
 44 18  2  0  0  0  0
 45 15  1  0  0  0  0
 45 10  1  0  0  0  0
 46  1  1  0  0  0  0
M  END
>  <CHROM.1>
-170.45556851,76.03030310,-62.96256890,-168.57886534,107.85822702,-176.57039869
179.20820993,65.68069064,-63.32871204,-165.85937945,87.28646296,-173.95343923
159.43380123,13.47386956,-13.94291936,6.76255842,0.82291665,0.06355417,-0.99900013

>  <Name>
lig.pdb

>  <RI>
0

>  <Rbt.Current_Directory>
/home/afrankz/demos/rdock_decoys_rna/rnas/3wru

>  <Rbt.Executable>
rbdock ($Id: //depot/dev/client3/rdock/2013.1/src/exe/rbdock.cxx#4 $)

>  <Rbt.Library>
libRbt.so (2013.1, Build901 2013/11/27)

>  <Rbt.Parameter_File>
/export/apps/rDock/src/rDock_2013.1_src/data/scripts/dock_solv.prm

>  <Rbt.Receptor>
prm/pocket_docking_5.prm

>  <SCORE>
-4.45601

>  <SCORE.INTER>
-1.63463

>  <SCORE.INTER.CONST>
1

>  <SCORE.INTER.POLAR>
0

>  <SCORE.INTER.ROT>
13

>  <SCORE.INTER.SOLV>
21.6346

>  <SCORE.INTER.VDW>
-20.568

>  <SCORE.INTER.norm>
-0.0355353

>  <SCORE.INTRA>
-2.82139

>  <SCORE.INTRA.DIHEDRAL>
-7.19107

>  <SCORE.INTRA.DIHEDRAL.0>
19.7146

>  <SCORE.INTRA.POLAR>
0

>  <SCORE.INTRA.POLAR.0>
0

>  <SCORE.INTRA.REPUL>
0

>  <SCORE.INTRA.REPUL.0>
0

>  <SCORE.INTRA.SOLV>
-0.990212

>  <SCORE.INTRA.SOLV.lig_0>
-116.697

>  <SCORE.INTRA.VDW>
1.26925

>  <SCORE.INTRA.VDW.0>
-7.06424

>  <SCORE.INTRA.norm>
-0.0613345

>  <SCORE.RESTR>
0

>  <SCORE.RESTR.CAVITY>
0

>  <SCORE.RESTR.norm>
0

>  <SCORE.SYSTEM>
0

>  <SCORE.SYSTEM.CONST>
0

>  <SCORE.SYSTEM.DIHEDRAL>
0

>  <SCORE.SYSTEM.SOLV>
0

>  <SCORE.SYSTEM.norm>
0

>  <SCORE.heavy>
46

>  <SCORE.norm>
-0.0968698

>  <RMSD>
8.977

$$$$
lig.pdb
 OpenBabel03061811583D
libRbt.so/2013.1/901 2013/11/27
 46 49  0  0  0  0  0  0  0  0999 V2000
   16.5321  -12.4314    5.0689 C   0  0  1  0  0  0  0  0  0  0  0  0
   15.7074  -13.2301    7.3250 C   0  0  1  0  0  0  0  0  0  0  0  0
   14.3720  -12.4269    7.2907 C   0  0  1  0  0  0  0  0  0  0  0  0
   13.8398  -12.2365    8.8018 C   0  0  2  0  0  0  0  0  0  0  0  0
   13.8470  -10.2249    6.1447 C   0  0  2  0  0  0  0  0  0  0  0  0
   13.4549  -10.5302    4.6710 C   0  0  1  0  0  0  0  0  0  0  0  0
   12.1257   -9.8147    4.6571 C   0  0  1  0  0  0  0  0  0  0  0  0
   11.4233  -10.2564    5.9802 C   0  0  1  0  0  0  0  0  0  0  0  0
   10.6865  -11.6415    5.9633 C   0  0  0  0  0  0  0  0  0  0  0  0
   12.4505   -7.7246    3.3883 C   0  0  1  0  0  0  0  0  0  0  0  0
   12.6403   -6.2376    3.4274 C   0  0  1  0  0  0  0  0  0  0  0  0
   17.1593  -13.0395    3.7922 C   0  0  1  0  0  0  0  0  0  0  0  0
   12.6592   -5.6991    1.9530 C   0  0  0  0  0  0  0  0  0  0  0  0
   11.4605   -5.9514    1.2059 C   0  0  0  0  0  0  0  0  0  0  0  0
   11.2626   -7.3824    1.1161 C   0  0  2  0  0  0  0  0  0  0  0  0
    9.9480   -7.7234    0.3095 C   0  0  0  0  0  0  0  0  0  0  0  0
   11.4797  -14.3941   13.0001 C   0  0  2  0  0  0  0  0  0  0  0  0
   11.6271  -13.2117   10.9671 C   0  0  0  0  0  0  0  0  0  0  0  0
   11.3935  -14.3814   14.3794 C   0  0  0  0  0  0  0  0  0  0  0  0
   11.3053  -13.1304   12.5397 C   0  0  1  0  0  0  0  0  0  0  0  0
   18.5736  -13.7074    4.1107 C   0  0  0  0  0  0  0  0  0  0  0  0
   19.5300  -12.5819    4.7360 C   0  0  0  0  0  0  0  0  0  0  0  0
   18.8321  -12.0249    6.0621 C   0  0  1  0  0  0  0  0  0  0  0  0
   19.6690  -10.9280    6.7314 C   0  0  0  0  0  0  0  0  0  0  0  0
   13.5433  -13.6782    9.4056 C   0  0  1  0  0  0  0  0  0  0  0  0
   14.9658  -14.4537    9.4382 C   0  0  0  0  0  0  0  0  0  0  0  0
   15.5193  -14.6251    7.9712 C   0  0  2  0  0  0  0  0  0  0  0  0
   10.5176  -15.3309   12.4648 F   0  0  0  0  0  0  0  0  0  0  0  0
    9.9685   -7.1812   -1.1486 N   0  0  0  0  0  0  0  0  0  0  0  0
   16.1786  -14.0302    3.2126 N   0  0  0  0  0  0  0  0  0  0  0  0
   11.6051   -5.5449    4.0615 N   0  0  0  0  0  0  0  0  0  0  0  0
   10.3380  -14.0165   15.2479 N   0  0  0  0  0  0  0  0  0  0  0  0
   20.8892  -11.4451    7.2157 N   0  0  0  0  0  0  0  0  0  0  0  0
   13.0408  -13.5478   10.7850 N   0  0  0  0  0  0  0  0  0  0  0  0
   16.8250  -15.3211    7.9863 N   0  0  0  0  0  0  0  0  0  0  0  0
   16.1873  -13.4529    6.0054 O   0  0  0  0  0  0  0  0  0  0  0  0
   14.6789  -11.1057    6.6479 O   0  0  0  0  0  0  0  0  0  0  0  0
   12.6616  -11.5262    8.7444 O   0  0  0  0  0  0  0  0  0  0  0  0
   14.4176   -9.9626    3.8354 O   0  0  0  0  0  0  0  0  0  0  0  0
   12.5597  -10.0945    6.8453 O   0  0  0  0  0  0  0  0  0  0  0  0
    9.6725  -11.5766    4.9407 O   0  0  0  0  0  0  0  0  0  0  0  0
   12.3673   -8.3163    4.6300 O   0  0  0  0  0  0  0  0  0  0  0  0
    9.9618  -12.6377   12.7362 O   0  0  0  0  0  0  0  0  0  0  0  0
   10.7926  -13.0308   10.0652 O   0  0  0  0  0  0  0  0  0  0  0  0
   11.2134   -7.9936    2.4966 O   0  0  0  0  0  0  0  0  0  0  0  0
   17.4653  -11.4531    5.7229 O   0  0  0  0  0  0  0  0  0  0  0  0
  1 36  1  1  0  0  0
  2 36  1  6  0  0  0
  2  3  1  0  0  0  0
  3 37  1  1  0  0  0
  3  4  1  0  0  0  0
  4 38  1  6  0  0  0
  5 37  1  1  0  0  0
  5  6  1  0  0  0  0
  6  7  1  0  0  0  0
  6 39  1  6  0  0  0
  7 42  1  1  0  0  0
  8  9  1  6  0  0  0
  8  7  1  0  0  0  0
 10 42  1  1  0  0  0
 10 11  1  0  0  0  0
 11 31  1  1  0  0  0
 11 13  1  0  0  0  0
 12 30  1  1  0  0  0
 12  1  1  0  0  0  0
 14 13  1  0  0  0  0
 15 16  1  1  0  0  0
 15 14  1  0  0  0  0
 17 19  1  1  0  0  0
 17 28  1  0  0  0  0
 18 34  1  0  0  0  0
 19 32  1  0  0  0  0
 20 18  1  6  0  0  0
 20 17  1  0  0  0  0
 20 43  1  0  0  0  0
 21 12  1  0  0  0  0
 22 21  1  0  0  0  0
 22 23  1  0  0  0  0
 23 24  1  6  0  0  0
 23 46  1  0  0  0  0
 24 33  1  0  0  0  0
 25 34  1  1  0  0  0
 25  4  1  0  0  0  0
 26 25  1  0  0  0  0
 27 35  1  1  0  0  0
 27 26  1  0  0  0  0
 27  2  1  0  0  0  0
 29 16  1  0  0  0  0
 40  8  1  0  0  0  0
 40  5  1  0  0  0  0
 41  9  1  0  0  0  0
 44 18  2  0  0  0  0
 45 15  1  0  0  0  0
 45 10  1  0  0  0  0
 46  1  1  0  0  0  0
M  END
>  <CHROM.1>
173.85926264,60.35208563,163.83428132,-84.91826552,90.76809394,-59.50610482
177.90318751,60.01411708,61.28548999,-65.37091553,172.23280081,-65.81837748
80.41910472,13.59040929,-11.34406620,6.61940973,-1.57367312,-0.35471027,2.14286124

>  <Name>
lig.pdb

>  <RI>
0

>  <Rbt.Current_Directory>
/home/afrankz/demos/rdock_decoys_rna/rnas/3wru

>  <Rbt.Executable>
rbdock ($Id: //depot/dev/client3/rdock/2013.1/src/exe/rbdock.cxx#4 $)

>  <Rbt.Library>
libRbt.so (2013.1, Build901 2013/11/27)

>  <Rbt.Parameter_File>
/export/apps/rDock/src/rDock_2013.1_src/data/scripts/dock_solv.prm

>  <Rbt.Receptor>
prm/pocket_docking_8.prm

>  <SCORE>
-7.91689

>  <SCORE.INTER>
-4.47845

>  <SCORE.INTER.CONST>
1

>  <SCORE.INTER.POLAR>
0

>  <SCORE.INTER.ROT>
13

>  <SCORE.INTER.SOLV>
31.4275

>  <SCORE.INTER.VDW>
-25.7281

>  <SCORE.INTER.norm>
-0.0973576

>  <SCORE.INTRA>
-3.43844

>  <SCORE.INTRA.DIHEDRAL>
-10.243

>  <SCORE.INTRA.DIHEDRAL.0>
19.7146

>  <SCORE.INTRA.POLAR>
0

>  <SCORE.INTRA.POLAR.0>
0

>  <SCORE.INTRA.REPUL>
0

>  <SCORE.INTRA.REPUL.0>
0

>  <SCORE.INTRA.SOLV>
-1.27123

>  <SCORE.INTRA.SOLV.lig_0>
-116.697

>  <SCORE.INTRA.VDW>
2.31866

>  <SCORE.INTRA.VDW.0>
-7.06424

>  <SCORE.INTRA.norm>
-0.0747486

>  <SCORE.RESTR>
0

>  <SCORE.RESTR.CAVITY>
0

>  <SCORE.RESTR.norm>
0

>  <SCORE.SYSTEM>
0

>  <SCORE.SYSTEM.CONST>
0

>  <SCORE.SYSTEM.DIHEDRAL>
0

>  <SCORE.SYSTEM.SOLV>
0

>  <SCORE.SYSTEM.norm>
0

>  <SCORE.heavy>
46

>  <SCORE.norm>
-0.172106

>  <RMSD>
8.993

$$$$
lig.pdb
 OpenBabel03061811583D
libRbt.so/2013.1/901 2013/11/27
 46 49  0  0  0  0  0  0  0  0999 V2000
    8.8408  -15.8695    5.0822 C   0  0  1  0  0  0  0  0  0  0  0  0
   10.2122  -17.0829    6.8300 C   0  0  1  0  0  0  0  0  0  0  0  0
   10.0330  -16.0969    8.0239 C   0  0  1  0  0  0  0  0  0  0  0  0
   10.1611  -16.9219    9.4044 C   0  0  2  0  0  0  0  0  0  0  0  0
   12.4178  -15.2382    7.9066 C   0  0  2  0  0  0  0  0  0  0  0  0
   13.2076  -13.9208    7.6631 C   0  0  1  0  0  0  0  0  0  0  0  0
   14.4914  -14.3179    8.3508 C   0  0  1  0  0  0  0  0  0  0  0  0
   14.0366  -14.9650    9.6975 C   0  0  1  0  0  0  0  0  0  0  0  0
   13.6994  -13.9857   10.8760 C   0  0  0  0  0  0  0  0  0  0  0  0
   16.3866  -15.8583    8.0054 C   0  0  1  0  0  0  0  0  0  0  0  0
   17.5347  -14.8978    8.0970 C   0  0  1  0  0  0  0  0  0  0  0  0
    9.0446  -15.2615    3.6743 C   0  0  1  0  0  0  0  0  0  0  0  0
   18.7840  -15.6670    8.6555 C   0  0  0  0  0  0  0  0  0  0  0  0
   19.2206  -16.7699    7.8483 C   0  0  0  0  0  0  0  0  0  0  0  0
   18.1476  -17.7378    7.7659 C   0  0  2  0  0  0  0  0  0  0  0  0
   18.5673  -18.9754    6.8788 C   0  0  0  0  0  0  0  0  0  0  0  0
    7.5154  -18.9535   13.9746 C   0  0  2  0  0  0  0  0  0  0  0  0
    8.2755  -18.2739   11.8501 C   0  0  0  0  0  0  0  0  0  0  0  0
    7.4035  -19.9759   14.8977 C   0  0  0  0  0  0  0  0  0  0  0  0
    8.5010  -19.2637   13.0961 C   0  0  1  0  0  0  0  0  0  0  0  0
    9.9779  -13.9683    3.7381 C   0  0  0  0  0  0  0  0  0  0  0  0
    9.2945  -12.9050    4.7253 C   0  0  0  0  0  0  0  0  0  0  0  0
    9.1451  -13.5923    6.1610 C   0  0  1  0  0  0  0  0  0  0  0  0
    8.4863  -12.6535    7.1789 C   0  0  0  0  0  0  0  0  0  0  0  0
    8.9818  -17.9886    9.4527 C   0  0  1  0  0  0  0  0  0  0  0  0
    9.2341  -18.9952    8.2081 C   0  0  0  0  0  0  0  0  0  0  0  0
    9.1422  -18.2026    6.8475 C   0  0  2  0  0  0  0  0  0  0  0  0
    7.7426  -17.7033   14.6639 F   0  0  0  0  0  0  0  0  0  0  0  0
   17.3825  -19.9352    6.5701 N   0  0  0  0  0  0  0  0  0  0  0  0
    9.6160  -16.3334    2.7777 N   0  0  0  0  0  0  0  0  0  0  0  0
   17.9419  -14.3735    6.8671 N   0  0  0  0  0  0  0  0  0  0  0  0
    8.3059  -20.4572   15.8752 N   0  0  0  0  0  0  0  0  0  0  0  0
    8.3753  -13.2723    8.4421 N   0  0  0  0  0  0  0  0  0  0  0  0
    9.0550  -18.7569   10.7084 N   0  0  0  0  0  0  0  0  0  0  0  0
    9.3832  -19.1073    5.7017 N   0  0  0  0  0  0  0  0  0  0  0  0
   10.0654  -16.3973    5.5931 O   0  0  0  0  0  0  0  0  0  0  0  0
   11.1172  -15.0663    7.8996 O   0  0  0  0  0  0  0  0  0  0  0  0
    9.9991  -16.0307   10.4414 O   0  0  0  0  0  0  0  0  0  0  0  0
   13.3318  -13.7333    6.2859 O   0  0  0  0  0  0  0  0  0  0  0  0
   12.9805  -15.7755    9.1556 O   0  0  0  0  0  0  0  0  0  0  0  0
   14.8606  -13.1598   11.0944 O   0  0  0  0  0  0  0  0  0  0  0  0
   15.2352  -15.3138    7.4794 O   0  0  0  0  0  0  0  0  0  0  0  0
    9.8248  -19.0675   13.6396 O   0  0  0  0  0  0  0  0  0  0  0  0
    7.5406  -17.2727   11.8675 O   0  0  0  0  0  0  0  0  0  0  0  0
   16.8971  -17.0906    7.2189 O   0  0  0  0  0  0  0  0  0  0  0  0
    8.3002  -14.8503    6.0438 O   0  0  0  0  0  0  0  0  0  0  0  0
  1 36  1  1  0  0  0
  2 36  1  6  0  0  0
  2  3  1  0  0  0  0
  3 37  1  1  0  0  0
  3  4  1  0  0  0  0
  4 38  1  1  0  0  0
  5 37  1  1  0  0  0
  5  6  1  0  0  0  0
  6  7  1  0  0  0  0
  6 39  1  6  0  0  0
  7 42  1  6  0  0  0
  8  9  1  1  0  0  0
  8  7  1  0  0  0  0
 10 42  1  6  0  0  0
 10 11  1  0  0  0  0
 11 31  1  6  0  0  0
 11 13  1  0  0  0  0
 12 30  1  6  0  0  0
 12  1  1  0  0  0  0
 14 13  1  0  0  0  0
 15 16  1  6  0  0  0
 15 14  1  0  0  0  0
 17 19  1  1  0  0  0
 17 28  1  0  0  0  0
 18 34  1  0  0  0  0
 19 32  1  0  0  0  0
 20 18  1  6  0  0  0
 20 17  1  0  0  0  0
 20 43  1  0  0  0  0
 21 12  1  0  0  0  0
 22 21  1  0  0  0  0
 22 23  1  0  0  0  0
 23 24  1  1  0  0  0
 23 46  1  0  0  0  0
 24 33  1  0  0  0  0
 25 34  1  1  0  0  0
 25  4  1  0  0  0  0
 26 25  1  0  0  0  0
 27 35  1  6  0  0  0
 27 26  1  0  0  0  0
 27  2  1  0  0  0  0
 29 16  1  0  0  0  0
 40  8  1  0  0  0  0
 40  5  1  0  0  0  0
 41  9  1  0  0  0  0
 44 18  2  0  0  0  0
 45 15  1  0  0  0  0
 45 10  1  0  0  0  0
 46  1  1  0  0  0  0
M  END
>  <CHROM.1>
-176.74368064,-70.09171755,-60.06615524,176.41109486,-175.31236429,-56.00858385
-71.06108968,-170.85517841,64.38213193,-165.21567540,163.92174655,-179.40880473
92.71504744,11.69727739,-16.33707895,8.60092551,2.56014076,-0.00164216,2.02036125

>  <Name>
lig.pdb

>  <RI>
0

>  <Rbt.Current_Directory>
/home/afrankz/demos/rdock_decoys_rna/rnas/3wru

>  <Rbt.Executable>
rbdock ($Id: //depot/dev/client3/rdock/2013.1/src/exe/rbdock.cxx#4 $)

>  <Rbt.Library>
libRbt.so (2013.1, Build901 2013/11/27)

>  <Rbt.Parameter_File>
/export/apps/rDock/src/rDock_2013.1_src/data/scripts/dock_solv.prm

>  <Rbt.Receptor>
prm/pocket_docking_7.prm

>  <SCORE>
-1.17689

>  <SCORE.INTER>
4.74617

>  <SCORE.INTER.CONST>
1

>  <SCORE.INTER.POLAR>
0

>  <SCORE.INTER.ROT>
13

>  <SCORE.INTER.SOLV>
15.4031

>  <SCORE.INTER.VDW>
-14.2369

>  <SCORE.INTER.norm>
0.103178

>  <SCORE.INTRA>
-5.92306

>  <SCORE.INTRA.DIHEDRAL>
-15.2602

>  <SCORE.INTRA.DIHEDRAL.0>
19.7146

>  <SCORE.INTRA.POLAR>
0

>  <SCORE.INTRA.POLAR.0>
0

>  <SCORE.INTRA.REPUL>
0

>  <SCORE.INTRA.REPUL.0>
0

>  <SCORE.INTRA.SOLV>
1.39411

>  <SCORE.INTRA.SOLV.lig_0>
-116.697

>  <SCORE.INTRA.VDW>
1.01

>  <SCORE.INTRA.VDW.0>
-7.06424

>  <SCORE.INTRA.norm>
-0.128762

>  <SCORE.RESTR>
0

>  <SCORE.RESTR.CAVITY>
0

>  <SCORE.RESTR.norm>
0

>  <SCORE.SYSTEM>
0

>  <SCORE.SYSTEM.CONST>
0

>  <SCORE.SYSTEM.DIHEDRAL>
0

>  <SCORE.SYSTEM.SOLV>
0

>  <SCORE.SYSTEM.norm>
0

>  <SCORE.heavy>
46

>  <SCORE.norm>
-0.0255846

>  <RMSD>
9.001

$$$$
lig.pdb
 OpenBabel03061811583D
libRbt.so/2013.1/901 2013/11/27
 46 49  0  0  0  0  0  0  0  0999 V2000
   10.8920  -11.6089    5.1232 C   0  0  1  0  0  0  0  0  0  0  0  0
    9.3816  -12.9591    6.6411 C   0  0  1  0  0  0  0  0  0  0  0  0
    9.5746  -12.4105    8.0873 C   0  0  1  0  0  0  0  0  0  0  0  0
    9.2504  -13.5900    9.1392 C   0  0  2  0  0  0  0  0  0  0  0  0
   12.0985  -12.6668    8.0414 C   0  0  2  0  0  0  0  0  0  0  0  0
   13.3838  -11.8896    8.4448 C   0  0  1  0  0  0  0  0  0  0  0  0
   14.2527  -13.0801    8.7715 C   0  0  1  0  0  0  0  0  0  0  0  0
   13.3441  -14.0086    9.6383 C   0  0  1  0  0  0  0  0  0  0  0  0
   13.2297  -13.6638   11.1647 C   0  0  0  0  0  0  0  0  0  0  0  0
   16.0231  -13.9334    7.2811 C   0  0  1  0  0  0  0  0  0  0  0  0
   16.7947  -12.6537    7.1552 C   0  0  1  0  0  0  0  0  0  0  0  0
   10.7574  -10.5001    4.0529 C   0  0  1  0  0  0  0  0  0  0  0  0
   18.2991  -13.0047    6.8759 C   0  0  0  0  0  0  0  0  0  0  0  0
   18.5278  -13.7546    5.6743 C   0  0  0  0  0  0  0  0  0  0  0  0
   17.8252  -15.0162    5.7741 C   0  0  2  0  0  0  0  0  0  0  0  0
   18.0326  -15.8852    4.4716 C   0  0  0  0  0  0  0  0  0  0  0  0
    6.5390  -17.6186   10.6403 C   0  0  2  0  0  0  0  0  0  0  0  0
    5.9674  -15.3973   10.1000 C   0  0  0  0  0  0  0  0  0  0  0  0
    6.6486  -18.6183   11.5882 C   0  0  0  0  0  0  0  0  0  0  0  0
    5.8357  -16.5878   11.1716 C   0  0  1  0  0  0  0  0  0  0  0  0
    9.9434  -11.0242    2.7838 C   0  0  0  0  0  0  0  0  0  0  0  0
   10.7099  -12.3014    2.1892 C   0  0  0  0  0  0  0  0  0  0  0  0
   10.7829  -13.4103    3.3385 C   0  0  1  0  0  0  0  0  0  0  0  0
   11.5134  -14.6740    2.8686 C   0  0  0  0  0  0  0  0  0  0  0  0
    7.7255  -14.0060    8.9593 C   0  0  1  0  0  0  0  0  0  0  0  0
    7.5925  -14.5879    7.4527 C   0  0  0  0  0  0  0  0  0  0  0  0
    7.9340  -13.4575    6.4069 C   0  0  2  0  0  0  0  0  0  0  0  0
    5.9393  -18.1553    9.4395 F   0  0  0  0  0  0  0  0  0  0  0  0
   19.5188  -16.2754    4.2282 N   0  0  0  0  0  0  0  0  0  0  0  0
   10.1008   -9.3026    4.6966 N   0  0  0  0  0  0  0  0  0  0  0  0
   16.3972  -11.8486    6.0840 N   0  0  0  0  0  0  0  0  0  0  0  0
    7.2755  -18.6412   12.8562 N   0  0  0  0  0  0  0  0  0  0  0  0
   10.5995  -15.6517    2.4214 N   0  0  0  0  0  0  0  0  0  0  0  0
    7.3839  -15.0756    9.9142 N   0  0  0  0  0  0  0  0  0  0  0  0
    7.8290  -13.9782    5.0259 N   0  0  0  0  0  0  0  0  0  0  0  0
    9.6200  -11.9341    5.6850 O   0  0  0  0  0  0  0  0  0  0  0  0
   11.0029  -11.9611    8.1920 O   0  0  0  0  0  0  0  0  0  0  0  0
    9.4272  -13.0812   10.4065 O   0  0  0  0  0  0  0  0  0  0  0  0
   13.8151  -11.1538    7.3404 O   0  0  0  0  0  0  0  0  0  0  0  0
   12.1644  -13.9118    8.8229 O   0  0  0  0  0  0  0  0  0  0  0  0
   12.1634  -12.7046   11.3101 O   0  0  0  0  0  0  0  0  0  0  0  0
   14.6706  -13.7603    7.4804 O   0  0  0  0  0  0  0  0  0  0  0  0
    4.4415  -16.9027   11.3797 O   0  0  0  0  0  0  0  0  0  0  0  0
    5.0094  -14.8595    9.5206 O   0  0  0  0  0  0  0  0  0  0  0  0
   16.3550  -14.7800    6.0278 O   0  0  0  0  0  0  0  0  0  0  0  0
   11.5125  -12.8501    4.5484 O   0  0  0  0  0  0  0  0  0  0  0  0
  1 36  1  6  0  0  0
  2 36  1  6  0  0  0
  2  3  1  0  0  0  0
  3 37  1  6  0  0  0
  3  4  1  0  0  0  0
  4 38  1  1  0  0  0
  5 37  1  1  0  0  0
  5  6  1  0  0  0  0
  6  7  1  0  0  0  0
  6 39  1  6  0  0  0
  7 42  1  6  0  0  0
  8  9  1  1  0  0  0
  8  7  1  0  0  0  0
 10 42  1  6  0  0  0
 10 11  1  0  0  0  0
 11 31  1  6  0  0  0
 11 13  1  0  0  0  0
 12 30  1  1  0  0  0
 12  1  1  0  0  0  0
 14 13  1  0  0  0  0
 15 16  1  6  0  0  0
 15 14  1  0  0  0  0
 17 19  1  1  0  0  0
 17 28  1  0  0  0  0
 18 34  1  0  0  0  0
 19 32  1  0  0  0  0
 20 18  1  6  0  0  0
 20 17  1  0  0  0  0
 20 43  1  0  0  0  0
 21 12  1  0  0  0  0
 22 21  1  0  0  0  0
 22 23  1  0  0  0  0
 23 24  1  6  0  0  0
 23 46  1  0  0  0  0
 24 33  1  0  0  0  0
 25 34  1  1  0  0  0
 25  4  1  0  0  0  0
 26 25  1  0  0  0  0
 27 35  1  6  0  0  0
 27 26  1  0  0  0  0
 27  2  1  0  0  0  0
 29 16  1  0  0  0  0
 40  8  1  0  0  0  0
 40  5  1  0  0  0  0
 41  9  1  0  0  0  0
 44 18  2  0  0  0  0
 45 15  1  0  0  0  0
 45 10  1  0  0  0  0
 46  1  1  0  0  0  0
M  END
>  <CHROM.1>
176.44975792,87.94801422,-60.09102154,-171.07317113,125.10526699,87.03256522
-64.28038250,62.47145074,-63.00277106,-59.08203374,171.03697043,-95.90351462
167.39778252,11.22588820,-13.91755681,7.40567049,0.49014506,-0.00920286,-1.06753552

>  <Name>
lig.pdb

>  <RI>
0

>  <Rbt.Current_Directory>
/home/afrankz/demos/rdock_decoys_rna/rnas/3wru

>  <Rbt.Executable>
rbdock ($Id: //depot/dev/client3/rdock/2013.1/src/exe/rbdock.cxx#4 $)

>  <Rbt.Library>
libRbt.so (2013.1, Build901 2013/11/27)

>  <Rbt.Parameter_File>
/export/apps/rDock/src/rDock_2013.1_src/data/scripts/dock_solv.prm

>  <Rbt.Receptor>
prm/pocket_docking_4.prm

>  <SCORE>
1.56656

>  <SCORE.INTER>
1.57373

>  <SCORE.INTER.CONST>
1

>  <SCORE.INTER.POLAR>
0

>  <SCORE.INTER.ROT>
13

>  <SCORE.INTER.SOLV>
21.5254

>  <SCORE.INTER.VDW>
-18.3927

>  <SCORE.INTER.norm>
0.0342116

>  <SCORE.INTRA>
-0.0132098

>  <SCORE.INTRA.DIHEDRAL>
-1.95814

>  <SCORE.INTRA.DIHEDRAL.0>
19.7146

>  <SCORE.INTRA.POLAR>
0

>  <SCORE.INTRA.POLAR.0>
0

>  <SCORE.INTRA.REPUL>
0

>  <SCORE.INTRA.REPUL.0>
0

>  <SCORE.INTRA.SOLV>
0.778215

>  <SCORE.INTRA.SOLV.lig_0>
-116.697

>  <SCORE.INTRA.VDW>
0.576754

>  <SCORE.INTRA.VDW.0>
-7.06424

>  <SCORE.INTRA.norm>
-0.00028717

>  <SCORE.RESTR>
0.00603826

>  <SCORE.RESTR.CAVITY>
0.00603826

>  <SCORE.RESTR.norm>
0.000131266

>  <SCORE.SYSTEM>
0

>  <SCORE.SYSTEM.CONST>
0

>  <SCORE.SYSTEM.DIHEDRAL>
0

>  <SCORE.SYSTEM.SOLV>
0

>  <SCORE.SYSTEM.norm>
0

>  <SCORE.heavy>
46

>  <SCORE.norm>
0.0340557

>  <RMSD>
9.011

$$$$
lig.pdb
 OpenBabel03061811583D
libRbt.so/2013.1/901 2013/11/27
 46 49  0  0  0  0  0  0  0  0999 V2000
    9.8077   -7.6821    1.0508 C   0  0  1  0  0  0  0  0  0  0  0  0
   11.0237   -6.1100    2.6184 C   0  0  1  0  0  0  0  0  0  0  0  0
   12.3961   -6.8032    2.8751 C   0  0  1  0  0  0  0  0  0  0  0  0
   12.9601   -6.3265    4.3095 C   0  0  2  0  0  0  0  0  0  0  0  0
   11.7707   -9.0683    3.8321 C   0  0  2  0  0  0  0  0  0  0  0  0
   10.3352   -8.7608    4.3457 C   0  0  1  0  0  0  0  0  0  0  0  0
   10.0191  -10.1255    4.9084 C   0  0  1  0  0  0  0  0  0  0  0  0
   10.4817  -11.1275    3.8034 C   0  0  1  0  0  0  0  0  0  0  0  0
    9.4892  -11.3794    2.6147 C   0  0  0  0  0  0  0  0  0  0  0  0
   11.8672  -11.1879    6.1492 C   0  0  1  0  0  0  0  0  0  0  0  0
   12.2463  -11.7730    7.4769 C   0  0  1  0  0  0  0  0  0  0  0  0
   10.0305   -8.1123   -0.4184 C   0  0  1  0  0  0  0  0  0  0  0  0
   13.5087  -12.6844    7.2773 C   0  0  0  0  0  0  0  0  0  0  0  0
   14.6661  -12.0048    6.7703 C   0  0  0  0  0  0  0  0  0  0  0  0
   14.3486  -11.4553    5.4694 C   0  0  2  0  0  0  0  0  0  0  0  0
   15.5862  -10.6842    4.8622 C   0  0  0  0  0  0  0  0  0  0  0  0
   14.0943   -1.2430    7.4841 C   0  0  2  0  0  0  0  0  0  0  0  0
   13.4870   -2.8798    5.9013 C   0  0  0  0  0  0  0  0  0  0  0  0
   13.7148   -0.9462    8.7794 C   0  0  0  0  0  0  0  0  0  0  0  0
   14.1415   -2.5908    7.3405 C   0  0  1  0  0  0  0  0  0  0  0  0
    9.3650   -7.0703   -1.4279 C   0  0  0  0  0  0  0  0  0  0  0  0
    7.7995   -6.9768   -1.0919 C   0  0  0  0  0  0  0  0  0  0  0  0
    7.6501   -6.4999    0.4267 C   0  0  1  0  0  0  0  0  0  0  0  0
    6.1803   -6.3911    0.8502 C   0  0  0  0  0  0  0  0  0  0  0  0
   13.1951   -4.7542    4.2493 C   0  0  1  0  0  0  0  0  0  0  0  0
   11.7372   -4.0903    4.0056 C   0  0  0  0  0  0  0  0  0  0  0  0
   11.1535   -4.5666    2.6198 C   0  0  2  0  0  0  0  0  0  0  0  0
   15.3533   -0.5966    7.1896 F   0  0  0  0  0  0  0  0  0  0  0  0
   15.1963   -9.7166    3.7081 N   0  0  0  0  0  0  0  0  0  0  0  0
   11.5161   -8.2569   -0.6457 N   0  0  0  0  0  0  0  0  0  0  0  0
   12.6210  -10.8256    8.4338 N   0  0  0  0  0  0  0  0  0  0  0  0
   13.3312    0.2728    9.3862 N   0  0  0  0  0  0  0  0  0  0  0  0
    6.0567   -5.7217    2.0862 N   0  0  0  0  0  0  0  0  0  0  0  0
   13.7246   -4.2790    5.5402 N   0  0  0  0  0  0  0  0  0  0  0  0
    9.8158   -3.9777    2.3893 N   0  0  0  0  0  0  0  0  0  0  0  0
   10.5133   -6.4755    1.3428 O   0  0  0  0  0  0  0  0  0  0  0  0
   12.1442   -8.2826    2.8501 O   0  0  0  0  0  0  0  0  0  0  0  0
   14.1706   -6.9509    4.5120 O   0  0  0  0  0  0  0  0  0  0  0  0
   10.4209   -7.7527    5.3067 O   0  0  0  0  0  0  0  0  0  0  0  0
   11.7467  -10.5063    3.5209 O   0  0  0  0  0  0  0  0  0  0  0  0
   10.0439  -12.4378    1.8083 O   0  0  0  0  0  0  0  0  0  0  0  0
   10.7949  -10.3239    6.1980 O   0  0  0  0  0  0  0  0  0  0  0  0
   15.4865   -3.1162    7.3773 O   0  0  0  0  0  0  0  0  0  0  0  0
   12.8682   -2.0412    5.2257 O   0  0  0  0  0  0  0  0  0  0  0  0
   13.1476  -10.5439    5.5630 O   0  0  0  0  0  0  0  0  0  0  0  0
    8.3482   -7.4876    1.3472 O   0  0  0  0  0  0  0  0  0  0  0  0
  1 36  1  6  0  0  0
  2 36  1  6  0  0  0
  2  3  1  0  0  0  0
  3 37  1  1  0  0  0
  3  4  1  0  0  0  0
  4 38  1  6  0  0  0
  5 37  1  6  0  0  0
  5  6  1  0  0  0  0
  6  7  1  0  0  0  0
  6 39  1  1  0  0  0
  7 42  1  1  0  0  0
  8  9  1  6  0  0  0
  8  7  1  0  0  0  0
 10 42  1  1  0  0  0
 10 11  1  0  0  0  0
 11 31  1  1  0  0  0
 11 13  1  0  0  0  0
 12 30  1  6  0  0  0
 12  1  1  0  0  0  0
 14 13  1  0  0  0  0
 15 16  1  1  0  0  0
 15 14  1  0  0  0  0
 17 19  1  1  0  0  0
 17 28  1  0  0  0  0
 18 34  1  0  0  0  0
 19 32  1  0  0  0  0
 20 18  1  6  0  0  0
 20 17  1  0  0  0  0
 20 43  1  0  0  0  0
 21 12  1  0  0  0  0
 22 21  1  0  0  0  0
 22 23  1  0  0  0  0
 23 24  1  1  0  0  0
 23 46  1  0  0  0  0
 24 33  1  0  0  0  0
 25 34  1  1  0  0  0
 25  4  1  0  0  0  0
 26 25  1  0  0  0  0
 27 35  1  1  0  0  0
 27 26  1  0  0  0  0
 27  2  1  0  0  0  0
 29 16  1  0  0  0  0
 40  8  1  0  0  0  0
 40  5  1  0  0  0  0
 41  9  1  0  0  0  0
 44 18  2  0  0  0  0
 45 15  1  0  0  0  0
 45 10  1  0  0  0  0
 46  1  1  0  0  0  0
M  END
>  <CHROM.1>
-150.77969604,81.80083294,-86.83461087,66.12964863,-106.75528643,-173.49892025
-156.65761514,-162.10929137,-169.49138931,169.16115688,138.28523477,-168.24543466
-154.77662252,11.77371950,-7.19861240,4.15440478,2.20652071,0.87351111,-3.13156381

>  <Name>
lig.pdb

>  <RI>
0

>  <Rbt.Current_Directory>
/home/afrankz/demos/rdock_decoys_rna/rnas/3wru

>  <Rbt.Executable>
rbdock ($Id: //depot/dev/client3/rdock/2013.1/src/exe/rbdock.cxx#4 $)

>  <Rbt.Library>
libRbt.so (2013.1, Build901 2013/11/27)

>  <Rbt.Parameter_File>
/export/apps/rDock/src/rDock_2013.1_src/data/scripts/dock_solv.prm

>  <Rbt.Receptor>
prm/blind_docking_20.prm

>  <SCORE>
14.5541

>  <SCORE.INTER>
1.26238

>  <SCORE.INTER.CONST>
1

>  <SCORE.INTER.POLAR>
0

>  <SCORE.INTER.ROT>
13

>  <SCORE.INTER.SOLV>
49.877

>  <SCORE.INTER.VDW>
-28.0508

>  <SCORE.INTER.norm>
0.027443

>  <SCORE.INTRA>
8.94251

>  <SCORE.INTRA.DIHEDRAL>
4.97563

>  <SCORE.INTRA.DIHEDRAL.0>
19.7146

>  <SCORE.INTRA.POLAR>
0

>  <SCORE.INTRA.POLAR.0>
0

>  <SCORE.INTRA.REPUL>
0

>  <SCORE.INTRA.REPUL.0>
0

>  <SCORE.INTRA.SOLV>
2.61664

>  <SCORE.INTRA.SOLV.lig_0>
-116.697

>  <SCORE.INTRA.VDW>
5.14638

>  <SCORE.INTRA.VDW.0>
-7.06424

>  <SCORE.INTRA.norm>
0.194402

>  <SCORE.RESTR>
4.34923

>  <SCORE.RESTR.CAVITY>
4.34923

>  <SCORE.RESTR.norm>
0.0945485

>  <SCORE.SYSTEM>
0

>  <SCORE.SYSTEM.CONST>
0

>  <SCORE.SYSTEM.DIHEDRAL>
0

>  <SCORE.SYSTEM.SOLV>
0

>  <SCORE.SYSTEM.norm>
0

>  <SCORE.heavy>
46

>  <SCORE.norm>
0.316394

>  <RMSD>
9.018

$$$$
lig.pdb
 OpenBabel03061811583D
libRbt.so/2013.1/901 2013/11/27
 46 49  0  0  0  0  0  0  0  0999 V2000
   10.0034  -11.0777    3.9471 C   0  0  1  0  0  0  0  0  0  0  0  0
    9.5399  -12.9057    5.6357 C   0  0  1  0  0  0  0  0  0  0  0  0
    9.3523  -13.0065    7.1799 C   0  0  1  0  0  0  0  0  0  0  0  0
    9.2695  -14.5636    7.5938 C   0  0  2  0  0  0  0  0  0  0  0  0
   11.8036  -12.6916    7.7543 C   0  0  2  0  0  0  0  0  0  0  0  0
   12.7565  -11.6456    8.3996 C   0  0  1  0  0  0  0  0  0  0  0  0
   13.8879  -12.5822    8.7483 C   0  0  1  0  0  0  0  0  0  0  0  0
   13.1922  -13.8207    9.3973 C   0  0  1  0  0  0  0  0  0  0  0  0
   12.8105  -13.7049   10.9147 C   0  0  0  0  0  0  0  0  0  0  0  0
   15.9147  -12.4881    7.3458 C   0  0  1  0  0  0  0  0  0  0  0  0
   15.9994  -11.0520    6.9225 C   0  0  1  0  0  0  0  0  0  0  0  0
   11.3997  -11.6396    3.5898 C   0  0  1  0  0  0  0  0  0  0  0  0
   17.5131  -10.6700    6.7574 C   0  0  0  0  0  0  0  0  0  0  0  0
   18.2236  -11.4407    5.7777 C   0  0  0  0  0  0  0  0  0  0  0  0
   18.1939  -12.8331    6.1721 C   0  0  2  0  0  0  0  0  0  0  0  0
   18.9552  -13.7359    5.1232 C   0  0  0  0  0  0  0  0  0  0  0  0
    5.7454  -19.4856    6.7027 C   0  0  2  0  0  0  0  0  0  0  0  0
    6.6297  -17.3101    6.8973 C   0  0  0  0  0  0  0  0  0  0  0  0
    6.2596  -19.9390    5.5026 C   0  0  0  0  0  0  0  0  0  0  0  0
    6.7255  -18.8396    7.3818 C   0  0  1  0  0  0  0  0  0  0  0  0
   12.5203  -11.0512    4.5624 C   0  0  0  0  0  0  0  0  0  0  0  0
   12.5005   -9.4522    4.4406 C   0  0  0  0  0  0  0  0  0  0  0  0
   11.0411   -8.9456    4.8524 C   0  0  1  0  0  0  0  0  0  0  0  0
   10.9166   -7.4203    4.7559 C   0  0  0  0  0  0  0  0  0  0  0  0
    7.9892  -15.1936    6.8903 C   0  0  1  0  0  0  0  0  0  0  0  0
    8.2518  -15.0823    5.2952 C   0  0  0  0  0  0  0  0  0  0  0  0
    8.3653  -13.5669    4.8726 C   0  0  2  0  0  0  0  0  0  0  0  0
    5.1832  -20.5962    7.4375 F   0  0  0  0  0  0  0  0  0  0  0  0
   20.4861  -13.4628    5.0800 N   0  0  0  0  0  0  0  0  0  0  0  0
   11.3287  -13.1466    3.6476 N   0  0  0  0  0  0  0  0  0  0  0  0
   15.4126  -10.7852    5.6824 N   0  0  0  0  0  0  0  0  0  0  0  0
    6.8798  -19.2538    4.4316 N   0  0  0  0  0  0  0  0  0  0  0  0
   11.1687   -6.9728    3.4416 N   0  0  0  0  0  0  0  0  0  0  0  0
    7.8692  -16.6167    7.2546 N   0  0  0  0  0  0  0  0  0  0  0  0
    8.6180  -13.4500    3.4194 N   0  0  0  0  0  0  0  0  0  0  0  0
    9.5769  -11.5443    5.2276 O   0  0  0  0  0  0  0  0  0  0  0  0
   10.5416  -12.3367    7.8042 O   0  0  0  0  0  0  0  0  0  0  0  0
    9.1037  -14.6256    8.9594 O   0  0  0  0  0  0  0  0  0  0  0  0
   13.0808  -10.6936    7.4322 O   0  0  0  0  0  0  0  0  0  0  0  0
   12.1353  -13.9547    8.4324 O   0  0  0  0  0  0  0  0  0  0  0  0
   11.7232  -12.7635   11.0140 O   0  0  0  0  0  0  0  0  0  0  0  0
   14.6279  -12.9629    7.4788 O   0  0  0  0  0  0  0  0  0  0  0  0
    6.5589  -18.9069    8.8150 O   0  0  0  0  0  0  0  0  0  0  0  0
    5.6573  -16.8174    6.3021 O   0  0  0  0  0  0  0  0  0  0  0  0
   16.7675  -13.3009    6.3409 O   0  0  0  0  0  0  0  0  0  0  0  0
   10.0013   -9.5757    3.9403 O   0  0  0  0  0  0  0  0  0  0  0  0
  1 36  1  1  0  0  0
  2 36  1  6  0  0  0
  2  3  1  0  0  0  0
  3 37  1  1  0  0  0
  3  4  1  0  0  0  0
  4 38  1  1  0  0  0
  5 37  1  1  0  0  0
  5  6  1  0  0  0  0
  6  7  1  0  0  0  0
  6 39  1  6  0  0  0
  7 42  1  6  0  0  0
  8  9  1  1  0  0  0
  8  7  1  0  0  0  0
 10 42  1  6  0  0  0
 10 11  1  0  0  0  0
 11 31  1  6  0  0  0
 11 13  1  0  0  0  0
 12 30  1  1  0  0  0
 12  1  1  0  0  0  0
 14 13  1  0  0  0  0
 15 16  1  6  0  0  0
 15 14  1  0  0  0  0
 17 19  1  6  0  0  0
 17 28  1  0  0  0  0
 18 34  1  0  0  0  0
 19 32  1  0  0  0  0
 20 18  1  6  0  0  0
 20 17  1  0  0  0  0
 20 43  1  0  0  0  0
 21 12  1  0  0  0  0
 22 21  1  0  0  0  0
 22 23  1  0  0  0  0
 23 24  1  6  0  0  0
 23 46  1  0  0  0  0
 24 33  1  0  0  0  0
 25 34  1  1  0  0  0
 25  4  1  0  0  0  0
 26 25  1  0  0  0  0
 27 35  1  6  0  0  0
 27 26  1  0  0  0  0
 27  2  1  0  0  0  0
 29 16  1  0  0  0  0
 40  8  1  0  0  0  0
 40  5  1  0  0  0  0
 41  9  1  0  0  0  0
 44 18  2  0  0  0  0
 45 15  1  0  0  0  0
 45 10  1  0  0  0  0
 46  1  1  0  0  0  0
M  END
>  <CHROM.1>
-52.39068631,166.47236686,-64.97663256,173.53270330,112.02314083,70.23263283
-78.61501783,66.84703558,-57.48220722,-163.37555429,89.31875974,59.70963813
169.52922692,11.31312220,-13.47771660,6.45876703,0.58619388,-0.24810787,-0.46141147

>  <Name>
lig.pdb

>  <RI>
0

>  <Rbt.Current_Directory>
/home/afrankz/demos/rdock_decoys_rna/rnas/3wru

>  <Rbt.Executable>
rbdock ($Id: //depot/dev/client3/rdock/2013.1/src/exe/rbdock.cxx#4 $)

>  <Rbt.Library>
libRbt.so (2013.1, Build901 2013/11/27)

>  <Rbt.Parameter_File>
/export/apps/rDock/src/rDock_2013.1_src/data/scripts/dock_solv.prm

>  <Rbt.Receptor>
prm/pocket_docking_5.prm

>  <SCORE>
-3.15232

>  <SCORE.INTER>
-6.37754

>  <SCORE.INTER.CONST>
1

>  <SCORE.INTER.POLAR>
0

>  <SCORE.INTER.ROT>
13

>  <SCORE.INTER.SOLV>
25.8775

>  <SCORE.INTER.VDW>
-25.1442

>  <SCORE.INTER.norm>
-0.138642

>  <SCORE.INTRA>
3.22522

>  <SCORE.INTRA.DIHEDRAL>
-5.75011

>  <SCORE.INTRA.DIHEDRAL.0>
19.7146

>  <SCORE.INTRA.POLAR>
0

>  <SCORE.INTRA.POLAR.0>
0

>  <SCORE.INTRA.REPUL>
0

>  <SCORE.INTRA.REPUL.0>
0

>  <SCORE.INTRA.SOLV>
8.96514

>  <SCORE.INTRA.SOLV.lig_0>
-116.697

>  <SCORE.INTRA.VDW>
1.6177

>  <SCORE.INTRA.VDW.0>
-7.06424

>  <SCORE.INTRA.norm>
0.0701134

>  <SCORE.RESTR>
0

>  <SCORE.RESTR.CAVITY>
0

>  <SCORE.RESTR.norm>
0

>  <SCORE.SYSTEM>
0

>  <SCORE.SYSTEM.CONST>
0

>  <SCORE.SYSTEM.DIHEDRAL>
0

>  <SCORE.SYSTEM.SOLV>
0

>  <SCORE.SYSTEM.norm>
0

>  <SCORE.heavy>
46

>  <SCORE.norm>
-0.0685287

>  <RMSD>
9.020

$$$$
lig.pdb
 OpenBabel03061811583D
libRbt.so/2013.1/901 2013/11/27
 46 49  0  0  0  0  0  0  0  0999 V2000
   10.0422  -14.9034   11.0993 C   0  0  1  0  0  0  0  0  0  0  0  0
   11.1147  -13.1346    9.6402 C   0  0  1  0  0  0  0  0  0  0  0  0
   11.4364  -13.7917    8.2638 C   0  0  1  0  0  0  0  0  0  0  0  0
   11.3406  -12.6645    7.1135 C   0  0  2  0  0  0  0  0  0  0  0  0
   13.9628  -13.7097    8.4836 C   0  0  2  0  0  0  0  0  0  0  0  0
   15.0609  -14.2344    7.5153 C   0  0  1  0  0  0  0  0  0  0  0  0
   15.8894  -12.9748    7.4384 C   0  0  1  0  0  0  0  0  0  0  0  0
   14.8499  -11.8283    7.2284 C   0  0  1  0  0  0  0  0  0  0  0  0
   14.3414  -11.5923    5.7629 C   0  0  0  0  0  0  0  0  0  0  0  0
   18.0264  -12.7417    8.6477 C   0  0  1  0  0  0  0  0  0  0  0  0
   18.5326  -11.7963    7.5994 C   0  0  1  0  0  0  0  0  0  0  0  0
   10.4476  -16.3902   11.2351 C   0  0  1  0  0  0  0  0  0  0  0  0
   20.1001  -11.8768    7.5716 C   0  0  0  0  0  0  0  0  0  0  0  0
   20.6296  -13.1736    7.2607 C   0  0  0  0  0  0  0  0  0  0  0  0
   20.1901  -14.1091    8.2739 C   0  0  2  0  0  0  0  0  0  0  0  0
   20.7360  -15.5617    7.9794 C   0  0  0  0  0  0  0  0  0  0  0  0
   10.4318   -9.8885    3.5658 C   0  0  2  0  0  0  0  0  0  0  0  0
   10.7933  -10.1237    5.8825 C   0  0  0  0  0  0  0  0  0  0  0  0
   10.1880   -9.0838    2.4690 C   0  0  0  0  0  0  0  0  0  0  0  0
   10.4379   -9.1169    4.6811 C   0  0  1  0  0  0  0  0  0  0  0  0
   10.8009  -17.0202    9.8117 C   0  0  0  0  0  0  0  0  0  0  0  0
    9.5182  -16.8631    8.8618 C   0  0  0  0  0  0  0  0  0  0  0  0
    9.1798  -15.3049    8.7461 C   0  0  1  0  0  0  0  0  0  0  0  0
    7.9529  -15.0500    7.8623 C   0  0  0  0  0  0  0  0  0  0  0  0
    9.8445  -12.1250    7.0750 C   0  0  1  0  0  0  0  0  0  0  0  0
    9.5775  -11.4352    8.5168 C   0  0  0  0  0  0  0  0  0  0  0  0
    9.6952  -12.5153    9.6604 C   0  0  2  0  0  0  0  0  0  0  0  0
   11.6681  -10.6113    3.3692 F   0  0  0  0  0  0  0  0  0  0  0  0
   19.6292  -16.6534    8.0378 N   0  0  0  0  0  0  0  0  0  0  0  0
   11.6061  -16.4752   12.1995 N   0  0  0  0  0  0  0  0  0  0  0  0
   18.1225  -12.1092    6.3004 N   0  0  0  0  0  0  0  0  0  0  0  0
    9.9881   -9.3974    1.1040 N   0  0  0  0  0  0  0  0  0  0  0  0
    8.2453  -15.2985    6.5044 N   0  0  0  0  0  0  0  0  0  0  0  0
    9.7106  -11.0994    6.0249 N   0  0  0  0  0  0  0  0  0  0  0  0
    9.4661  -11.8968   10.9849 N   0  0  0  0  0  0  0  0  0  0  0  0
   11.1500  -14.1081   10.6758 O   0  0  0  0  0  0  0  0  0  0  0  0
   12.8250  -14.3522    8.3666 O   0  0  0  0  0  0  0  0  0  0  0  0
   11.6278  -13.2688    5.9101 O   0  0  0  0  0  0  0  0  0  0  0  0
   15.7088  -15.3074    8.1287 O   0  0  0  0  0  0  0  0  0  0  0  0
   13.9053  -12.2631    8.2206 O   0  0  0  0  0  0  0  0  0  0  0  0
   15.3774  -10.8800    5.0577 O   0  0  0  0  0  0  0  0  0  0  0  0
   16.6527  -12.8011    8.7389 O   0  0  0  0  0  0  0  0  0  0  0  0
   11.4174   -8.0566    4.6295 O   0  0  0  0  0  0  0  0  0  0  0  0
   11.8331  -10.0755    6.5600 O   0  0  0  0  0  0  0  0  0  0  0  0
   18.6822  -14.1155    8.3643 O   0  0  0  0  0  0  0  0  0  0  0  0
    8.9091  -14.7332   10.1281 O   0  0  0  0  0  0  0  0  0  0  0  0
  1 36  1  6  0  0  0
  2 36  1  1  0  0  0
  2  3  1  0  0  0  0
  3 37  1  1  0  0  0
  3  4  1  0  0  0  0
  4 38  1  6  0  0  0
  5 37  1  6  0  0  0
  5  6  1  0  0  0  0
  6  7  1  0  0  0  0
  6 39  1  1  0  0  0
  7 42  1  1  0  0  0
  8  9  1  6  0  0  0
  8  7  1  0  0  0  0
 10 42  1  6  0  0  0
 10 11  1  0  0  0  0
 11 31  1  6  0  0  0
 11 13  1  0  0  0  0
 12 30  1  1  0  0  0
 12  1  1  0  0  0  0
 14 13  1  0  0  0  0
 15 16  1  6  0  0  0
 15 14  1  0  0  0  0
 17 19  1  6  0  0  0
 17 28  1  0  0  0  0
 18 34  1  0  0  0  0
 19 32  1  0  0  0  0
 20 18  1  1  0  0  0
 20 17  1  0  0  0  0
 20 43  1  0  0  0  0
 21 12  1  0  0  0  0
 22 21  1  0  0  0  0
 22 23  1  0  0  0  0
 23 24  1  6  0  0  0
 23 46  1  0  0  0  0
 24 33  1  0  0  0  0
 25 34  1  6  0  0  0
 25  4  1  0  0  0  0
 26 25  1  0  0  0  0
 27 35  1  1  0  0  0
 27 26  1  0  0  0  0
 27  2  1  0  0  0  0
 29 16  1  0  0  0  0
 40  8  1  0  0  0  0
 40  5  1  0  0  0  0
 41  9  1  0  0  0  0
 44 18  2  0  0  0  0
 45 15  1  0  0  0  0
 45 10  1  0  0  0  0
 46  1  1  0  0  0  0
M  END
>  <CHROM.1>
133.19866074,-88.88704040,-67.46703997,-133.21725635,121.35195132,-77.48364496
48.36754317,-130.27922683,-174.86808767,-64.90996622,-177.48296709,-71.12564180
-41.38394509,13.09134008,-12.94911874,7.52175725,3.00657505,0.03741312,-0.80677027

>  <Name>
lig.pdb

>  <RI>
0

>  <Rbt.Current_Directory>
/home/afrankz/demos/rdock_decoys_rna/rnas/3wru

>  <Rbt.Executable>
rbdock ($Id: //depot/dev/client3/rdock/2013.1/src/exe/rbdock.cxx#4 $)

>  <Rbt.Library>
libRbt.so (2013.1, Build901 2013/11/27)

>  <Rbt.Parameter_File>
/export/apps/rDock/src/rDock_2013.1_src/data/scripts/dock_solv.prm

>  <Rbt.Receptor>
prm/pocket_docking_2.prm

>  <SCORE>
26.4472

>  <SCORE.INTER>
4.53063

>  <SCORE.INTER.CONST>
1

>  <SCORE.INTER.POLAR>
0

>  <SCORE.INTER.ROT>
13

>  <SCORE.INTER.SOLV>
18.3174

>  <SCORE.INTER.VDW>
-15.352

>  <SCORE.INTER.norm>
0.098492

>  <SCORE.INTRA>
17.5454

>  <SCORE.INTRA.DIHEDRAL>
12.1112

>  <SCORE.INTRA.DIHEDRAL.0>
19.7146

>  <SCORE.INTRA.POLAR>
0

>  <SCORE.INTRA.POLAR.0>
0

>  <SCORE.INTRA.REPUL>
0.0801987

>  <SCORE.INTRA.REPUL.0>
0

>  <SCORE.INTRA.SOLV>
5.3606

>  <SCORE.INTRA.SOLV.lig_0>
-116.697

>  <SCORE.INTRA.VDW>
8.40854

>  <SCORE.INTRA.VDW.0>
-7.06424

>  <SCORE.INTRA.norm>
0.381423

>  <SCORE.RESTR>
4.37113

>  <SCORE.RESTR.CAVITY>
4.37113

>  <SCORE.RESTR.norm>
0.0950246

>  <SCORE.SYSTEM>
0

>  <SCORE.SYSTEM.CONST>
0

>  <SCORE.SYSTEM.DIHEDRAL>
0

>  <SCORE.SYSTEM.SOLV>
0

>  <SCORE.SYSTEM.norm>
0

>  <SCORE.heavy>
46

>  <SCORE.norm>
0.574939

>  <RMSD>
9.029

$$$$
lig.pdb
 OpenBabel03061811583D
libRbt.so/2013.1/901 2013/11/27
 46 49  0  0  0  0  0  0  0  0999 V2000
    6.6328  -18.0528    9.9788 C   0  0  1  0  0  0  0  0  0  0  0  0
    6.9242  -16.1534    8.3310 C   0  0  1  0  0  0  0  0  0  0  0  0
    7.2943  -16.8686    6.9963 C   0  0  1  0  0  0  0  0  0  0  0  0
    8.1524  -15.8533    6.0821 C   0  0  2  0  0  0  0  0  0  0  0  0
    9.3301  -18.1509    7.8018 C   0  0  2  0  0  0  0  0  0  0  0  0
    9.9793  -19.5466    7.5800 C   0  0  1  0  0  0  0  0  0  0  0  0
   11.4223  -19.1036    7.5583 C   0  0  1  0  0  0  0  0  0  0  0  0
   11.4376  -17.8462    6.6321 C   0  0  1  0  0  0  0  0  0  0  0  0
   11.4862  -18.1058    5.0855 C   0  0  0  0  0  0  0  0  0  0  0  0
   12.9947  -17.9897    9.0979 C   0  0  1  0  0  0  0  0  0  0  0  0
   14.2561  -18.7817    9.2729 C   0  0  1  0  0  0  0  0  0  0  0  0
    5.4893  -18.9836   10.4471 C   0  0  1  0  0  0  0  0  0  0  0  0
   15.4505  -17.7806    9.4613 C   0  0  0  0  0  0  0  0  0  0  0  0
   15.3350  -16.9151   10.5998 C   0  0  0  0  0  0  0  0  0  0  0  0
   14.1438  -16.1067   10.4489 C   0  0  2  0  0  0  0  0  0  0  0  0
   13.9573  -15.1364   11.6812 C   0  0  0  0  0  0  0  0  0  0  0  0
   11.2537  -12.3913    4.3435 C   0  0  2  0  0  0  0  0  0  0  0  0
    9.2901  -13.2001    5.3648 C   0  0  0  0  0  0  0  0  0  0  0  0
   11.7242  -12.6234    3.0649 C   0  0  0  0  0  0  0  0  0  0  0  0
    9.9144  -12.1857    4.2857 C   0  0  1  0  0  0  0  0  0  0  0  0
    4.4894  -18.2153   11.4258 C   0  0  0  0  0  0  0  0  0  0  0  0
    5.3319  -17.6721   12.6777 C   0  0  0  0  0  0  0  0  0  0  0  0
    6.4702  -16.6983   12.1191 C   0  0  1  0  0  0  0  0  0  0  0  0
    7.3432  -16.1332   13.2461 C   0  0  0  0  0  0  0  0  0  0  0  0
    7.2341  -14.5995    5.7421 C   0  0  1  0  0  0  0  0  0  0  0  0
    6.9034  -13.8865    7.1592 C   0  0  0  0  0  0  0  0  0  0  0  0
    6.0887  -14.8734    8.0813 C   0  0  2  0  0  0  0  0  0  0  0  0
   11.9732  -11.2827    4.9290 F   0  0  0  0  0  0  0  0  0  0  0  0
   13.5449  -15.8778   12.9852 N   0  0  0  0  0  0  0  0  0  0  0  0
    4.7885  -19.5200    9.2222 N   0  0  0  0  0  0  0  0  0  0  0  0
   14.2694  -19.5927   10.4112 N   0  0  0  0  0  0  0  0  0  0  0  0
   11.4347  -13.6472    2.1325 N   0  0  0  0  0  0  0  0  0  0  0  0
    8.2780  -15.2022   12.7455 N   0  0  0  0  0  0  0  0  0  0  0  0
    7.9785  -13.6509    4.8945 N   0  0  0  0  0  0  0  0  0  0  0  0
    5.7902  -14.2397    9.3847 N   0  0  0  0  0  0  0  0  0  0  0  0
    6.1314  -17.0053    9.1478 O   0  0  0  0  0  0  0  0  0  0  0  0
    8.0950  -18.0835    7.3647 O   0  0  0  0  0  0  0  0  0  0  0  0
    8.4658  -16.5070    4.9114 O   0  0  0  0  0  0  0  0  0  0  0  0
    9.6482  -20.3605    8.6641 O   0  0  0  0  0  0  0  0  0  0  0  0
   10.2748  -17.2068    7.1841 O   0  0  0  0  0  0  0  0  0  0  0  0
   11.6098  -16.8237    4.4380 O   0  0  0  0  0  0  0  0  0  0  0  0
   11.8581  -18.7583    8.9708 O   0  0  0  0  0  0  0  0  0  0  0  0
    9.5358  -10.8314    4.6156 O   0  0  0  0  0  0  0  0  0  0  0  0
    9.8527  -13.5466    6.4164 O   0  0  0  0  0  0  0  0  0  0  0  0
   12.9292  -16.9881   10.2770 O   0  0  0  0  0  0  0  0  0  0  0  0
    7.3619  -17.4534   11.1472 O   0  0  0  0  0  0  0  0  0  0  0  0
  1 36  1  6  0  0  0
  2 36  1  1  0  0  0
  2  3  1  0  0  0  0
  3 37  1  1  0  0  0
  3  4  1  0  0  0  0
  4 38  1  6  0  0  0
  5 37  1  6  0  0  0
  5  6  1  0  0  0  0
  6  7  1  0  0  0  0
  6 39  1  1  0  0  0
  7 42  1  1  0  0  0
  8  9  1  6  0  0  0
  8  7  1  0  0  0  0
 10 42  1  1  0  0  0
 10 11  1  0  0  0  0
 11 31  1  1  0  0  0
 11 13  1  0  0  0  0
 12 30  1  6  0  0  0
 12  1  1  0  0  0  0
 14 13  1  0  0  0  0
 15 16  1  1  0  0  0
 15 14  1  0  0  0  0
 17 19  1  6  0  0  0
 17 28  1  0  0  0  0
 18 34  1  0  0  0  0
 19 32  1  0  0  0  0
 20 18  1  1  0  0  0
 20 17  1  0  0  0  0
 20 43  1  0  0  0  0
 21 12  1  0  0  0  0
 22 21  1  0  0  0  0
 22 23  1  0  0  0  0
 23 24  1  1  0  0  0
 23 46  1  0  0  0  0
 24 33  1  0  0  0  0
 25 34  1  6  0  0  0
 25  4  1  0  0  0  0
 26 25  1  0  0  0  0
 27 35  1  1  0  0  0
 27 26  1  0  0  0  0
 27  2  1  0  0  0  0
 29 16  1  0  0  0  0
 40  8  1  0  0  0  0
 40  5  1  0  0  0  0
 41  9  1  0  0  0  0
 44 18  2  0  0  0  0
 45 15  1  0  0  0  0
 45 10  1  0  0  0  0
 46  1  1  0  0  0  0
M  END
>  <CHROM.1>
-166.11044956,80.69270667,-73.01368899,-158.77077566,-162.18282330,-175.12841802
-93.21140882,-71.22725784,-61.96674436,-147.13846994,128.07877620,-175.71530992
-53.03238716,9.68081928,-16.28695757,8.10942777,1.96456931,-0.07585291,2.20615123

>  <Name>
lig.pdb

>  <RI>
0

>  <Rbt.Current_Directory>
/home/afrankz/demos/rdock_decoys_rna/rnas/3wru

>  <Rbt.Executable>
rbdock ($Id: //depot/dev/client3/rdock/2013.1/src/exe/rbdock.cxx#4 $)

>  <Rbt.Library>
libRbt.so (2013.1, Build901 2013/11/27)

>  <Rbt.Parameter_File>
/export/apps/rDock/src/rDock_2013.1_src/data/scripts/dock_solv.prm

>  <Rbt.Receptor>
prm/pocket_docking_5.prm

>  <SCORE>
3.38487

>  <SCORE.INTER>
2.60053

>  <SCORE.INTER.CONST>
1

>  <SCORE.INTER.POLAR>
0

>  <SCORE.INTER.ROT>
13

>  <SCORE.INTER.SOLV>
29.8818

>  <SCORE.INTER.VDW>
-20.4936

>  <SCORE.INTER.norm>
0.0565333

>  <SCORE.INTRA>
0.762255

>  <SCORE.INTRA.DIHEDRAL>
-1.41867

>  <SCORE.INTRA.DIHEDRAL.0>
19.7146

>  <SCORE.INTRA.POLAR>
0

>  <SCORE.INTRA.POLAR.0>
0

>  <SCORE.INTRA.REPUL>
0

>  <SCORE.INTRA.REPUL.0>
0

>  <SCORE.INTRA.SOLV>
-0.0645743

>  <SCORE.INTRA.SOLV.lig_0>
-116.697

>  <SCORE.INTRA.VDW>
1.50388

>  <SCORE.INTRA.VDW.0>
-7.06424

>  <SCORE.INTRA.norm>
0.0165708

>  <SCORE.RESTR>
0.022084

>  <SCORE.RESTR.CAVITY>
0.022084

>  <SCORE.RESTR.norm>
0.000480087

>  <SCORE.SYSTEM>
0

>  <SCORE.SYSTEM.CONST>
0

>  <SCORE.SYSTEM.DIHEDRAL>
0

>  <SCORE.SYSTEM.SOLV>
0

>  <SCORE.SYSTEM.norm>
0

>  <SCORE.heavy>
46

>  <SCORE.norm>
0.0735842

>  <RMSD>
9.032

$$$$
lig.pdb
 OpenBabel03061811583D
libRbt.so/2013.1/901 2013/11/27
 46 49  0  0  0  0  0  0  0  0999 V2000
   12.2300  -11.3369    5.4572 C   0  0  1  0  0  0  0  0  0  0  0  0
   11.1770  -12.8509    7.1914 C   0  0  1  0  0  0  0  0  0  0  0  0
   12.3889  -13.4392    7.9755 C   0  0  1  0  0  0  0  0  0  0  0  0
   11.9642  -14.8667    8.5959 C   0  0  2  0  0  0  0  0  0  0  0  0
   14.7983  -13.6963    7.2228 C   0  0  2  0  0  0  0  0  0  0  0  0
   15.4414  -12.3796    7.7437 C   0  0  1  0  0  0  0  0  0  0  0  0
   16.6101  -12.9943    8.4754 C   0  0  1  0  0  0  0  0  0  0  0  0
   15.9938  -14.1815    9.2815 C   0  0  1  0  0  0  0  0  0  0  0  0
   15.3119  -13.8304   10.6503 C   0  0  0  0  0  0  0  0  0  0  0  0
   18.5915  -12.5761    7.0672 C   0  0  1  0  0  0  0  0  0  0  0  0
   19.4587  -13.0530    5.9405 C   0  0  1  0  0  0  0  0  0  0  0  0
   12.4225   -9.8216    5.2125 C   0  0  1  0  0  0  0  0  0  0  0  0
   20.5347  -11.9503    5.6391 C   0  0  0  0  0  0  0  0  0  0  0  0
   21.4036  -11.6425    6.7386 C   0  0  0  0  0  0  0  0  0  0  0  0
   20.6033  -11.1438    7.8367 C   0  0  2  0  0  0  0  0  0  0  0  0
   21.5071  -10.7951    9.0844 C   0  0  0  0  0  0  0  0  0  0  0  0
    8.1935  -17.2473   12.7201 C   0  0  2  0  0  0  0  0  0  0  0  0
    9.6696  -15.8635   11.5122 C   0  0  0  0  0  0  0  0  0  0  0  0
    7.6026  -18.4914   12.8345 C   0  0  0  0  0  0  0  0  0  0  0  0
    9.3151  -17.3638   11.9667 C   0  0  1  0  0  0  0  0  0  0  0  0
   11.0264   -9.1069    4.9163 C   0  0  0  0  0  0  0  0  0  0  0  0
   10.3638   -9.8119    3.6371 C   0  0  0  0  0  0  0  0  0  0  0  0
   10.1693  -11.3622    3.9756 C   0  0  1  0  0  0  0  0  0  0  0  0
    9.5493  -12.1305    2.8023 C   0  0  0  0  0  0  0  0  0  0  0  0
   10.7727  -14.6238    9.6216 C   0  0  1  0  0  0  0  0  0  0  0  0
    9.5399  -14.0373    8.7486 C   0  0  0  0  0  0  0  0  0  0  0  0
    9.9441  -12.6538    8.1080 C   0  0  2  0  0  0  0  0  0  0  0  0
    8.4483  -16.7107   14.0380 F   0  0  0  0  0  0  0  0  0  0  0  0
   22.3318  -12.0096    9.5992 N   0  0  0  0  0  0  0  0  0  0  0  0
   13.1187   -9.2356    6.4172 N   0  0  0  0  0  0  0  0  0  0  0  0
   20.1861  -14.2112    6.2288 N   0  0  0  0  0  0  0  0  0  0  0  0
    8.0946  -19.7184   13.3383 N   0  0  0  0  0  0  0  0  0  0  0  0
    9.3393  -13.4851    3.1372 N   0  0  0  0  0  0  0  0  0  0  0  0
   10.3625  -15.9056   10.2227 N   0  0  0  0  0  0  0  0  0  0  0  0
    8.8316  -12.1118    7.2969 N   0  0  0  0  0  0  0  0  0  0  0  0
   11.5012  -11.5715    6.6627 O   0  0  0  0  0  0  0  0  0  0  0  0
   13.5122  -13.5830    6.9904 O   0  0  0  0  0  0  0  0  0  0  0  0
   13.0492  -15.3643    9.2825 O   0  0  0  0  0  0  0  0  0  0  0  0
   15.8021  -11.6030    6.6419 O   0  0  0  0  0  0  0  0  0  0  0  0
   15.1762  -14.7075    8.2229 O   0  0  0  0  0  0  0  0  0  0  0  0
   14.9625  -15.0749   11.2883 O   0  0  0  0  0  0  0  0  0  0  0  0
   17.6307  -13.4812    7.4627 O   0  0  0  0  0  0  0  0  0  0  0  0
   10.4285  -17.9273   12.6942 O   0  0  0  0  0  0  0  0  0  0  0  0
    9.3796  -14.8429   12.1577 O   0  0  0  0  0  0  0  0  0  0  0  0
   19.5421  -12.1507    8.2131 O   0  0  0  0  0  0  0  0  0  0  0  0
   11.5134  -11.9885    4.3093 O   0  0  0  0  0  0  0  0  0  0  0  0
  1 36  1  1  0  0  0
  2 36  1  1  0  0  0
  2  3  1  0  0  0  0
  3 37  1  6  0  0  0
  3  4  1  0  0  0  0
  4 38  1  1  0  0  0
  5 37  1  1  0  0  0
  5  6  1  0  0  0  0
  6  7  1  0  0  0  0
  6 39  1  6  0  0  0
  7 42  1  6  0  0  0
  8  9  1  1  0  0  0
  8  7  1  0  0  0  0
 10 42  1  1  0  0  0
 10 11  1  0  0  0  0
 11 31  1  1  0  0  0
 11 13  1  0  0  0  0
 12 30  1  1  0  0  0
 12  1  1  0  0  0  0
 14 13  1  0  0  0  0
 15 16  1  1  0  0  0
 15 14  1  0  0  0  0
 17 19  1  1  0  0  0
 17 28  1  0  0  0  0
 18 34  1  0  0  0  0
 19 32  1  0  0  0  0
 20 18  1  1  0  0  0
 20 17  1  0  0  0  0
 20 43  1  0  0  0  0
 21 12  1  0  0  0  0
 22 21  1  0  0  0  0
 22 23  1  0  0  0  0
 23 24  1  6  0  0  0
 23 46  1  0  0  0  0
 24 33  1  0  0  0  0
 25 34  1  6  0  0  0
 25  4  1  0  0  0  0
 26 25  1  0  0  0  0
 27 35  1  6  0  0  0
 27 26  1  0  0  0  0
 27  2  1  0  0  0  0
 29 16  1  0  0  0  0
 40  8  1  0  0  0  0
 40  5  1  0  0  0  0
 41  9  1  0  0  0  0
 44 18  2  0  0  0  0
 45 15  1  0  0  0  0
 45 10  1  0  0  0  0
 46  1  1  0  0  0  0
M  END
>  <CHROM.1>
-178.67685993,81.56163827,160.42086235,-70.76763629,89.04072641,-173.24573974
-172.48159840,-58.23726396,57.87462320,-150.98092791,163.03036293,-177.79959532
157.41318254,13.45869184,-13.49018399,8.20941974,0.51449710,-0.10112670,-0.93368870

>  <Name>
lig.pdb

>  <RI>
0

>  <Rbt.Current_Directory>
/home/afrankz/demos/rdock_decoys_rna/rnas/3wru

>  <Rbt.Executable>
rbdock ($Id: //depot/dev/client3/rdock/2013.1/src/exe/rbdock.cxx#4 $)

>  <Rbt.Library>
libRbt.so (2013.1, Build901 2013/11/27)

>  <Rbt.Parameter_File>
/export/apps/rDock/src/rDock_2013.1_src/data/scripts/dock_solv.prm

>  <Rbt.Receptor>
prm/pocket_docking_4.prm

>  <SCORE>
-3.80902

>  <SCORE.INTER>
-1.03859

>  <SCORE.INTER.CONST>
1

>  <SCORE.INTER.POLAR>
0

>  <SCORE.INTER.ROT>
13

>  <SCORE.INTER.SOLV>
25.2982

>  <SCORE.INTER.VDW>
-21.3918

>  <SCORE.INTER.norm>
-0.0225781

>  <SCORE.INTRA>
-2.77043

>  <SCORE.INTRA.DIHEDRAL>
-8.48728

>  <SCORE.INTRA.DIHEDRAL.0>
19.7146

>  <SCORE.INTRA.POLAR>
0

>  <SCORE.INTRA.POLAR.0>
0

>  <SCORE.INTRA.REPUL>
0

>  <SCORE.INTRA.REPUL.0>
0

>  <SCORE.INTRA.SOLV>
0.815915

>  <SCORE.INTRA.SOLV.lig_0>
-116.697

>  <SCORE.INTRA.VDW>
1.06526

>  <SCORE.INTRA.VDW.0>
-7.06424

>  <SCORE.INTRA.norm>
-0.0602267

>  <SCORE.RESTR>
0

>  <SCORE.RESTR.CAVITY>
0

>  <SCORE.RESTR.norm>
0

>  <SCORE.SYSTEM>
0

>  <SCORE.SYSTEM.CONST>
0

>  <SCORE.SYSTEM.DIHEDRAL>
0

>  <SCORE.SYSTEM.SOLV>
0

>  <SCORE.SYSTEM.norm>
0

>  <SCORE.heavy>
46

>  <SCORE.norm>
-0.0828048

>  <RMSD>
9.104

$$$$
lig.pdb
 OpenBabel03061811583D
libRbt.so/2013.1/901 2013/11/27
 46 49  0  0  0  0  0  0  0  0999 V2000
    9.0109  -13.0801    4.4657 C   0  0  1  0  0  0  0  0  0  0  0  0
    8.7451  -14.4238    6.5944 C   0  0  1  0  0  0  0  0  0  0  0  0
    9.4695  -14.5533    7.9685 C   0  0  1  0  0  0  0  0  0  0  0  0
    8.7684  -15.7324    8.8177 C   0  0  2  0  0  0  0  0  0  0  0  0
   11.9212  -14.0505    7.5514 C   0  0  2  0  0  0  0  0  0  0  0  0
   11.7695  -12.7649    8.4134 C   0  0  1  0  0  0  0  0  0  0  0  0
   13.2359  -12.4354    8.5552 C   0  0  1  0  0  0  0  0  0  0  0  0
   13.9151  -13.7948    8.9158 C   0  0  1  0  0  0  0  0  0  0  0  0
   13.8612  -14.2368   10.4203 C   0  0  0  0  0  0  0  0  0  0  0  0
   15.0768  -11.5087    7.2003 C   0  0  1  0  0  0  0  0  0  0  0  0
   15.5477  -11.0496    5.8525 C   0  0  1  0  0  0  0  0  0  0  0  0
    9.8962  -13.9225    3.5171 C   0  0  1  0  0  0  0  0  0  0  0  0
   17.0765  -10.7065    5.9495 C   0  0  0  0  0  0  0  0  0  0  0  0
   17.9150  -11.8043    6.3374 C   0  0  0  0  0  0  0  0  0  0  0  0
   17.5123  -12.2530    7.6533 C   0  0  2  0  0  0  0  0  0  0  0  0
   18.3968  -13.4709    8.1323 C   0  0  0  0  0  0  0  0  0  0  0  0
    6.5757  -18.6423   11.6071 C   0  0  2  0  0  0  0  0  0  0  0  0
    6.7022  -16.3057   11.3298 C   0  0  0  0  0  0  0  0  0  0  0  0
    6.3803  -19.6226   12.5616 C   0  0  0  0  0  0  0  0  0  0  0  0
    5.8874  -17.5326   11.9732 C   0  0  1  0  0  0  0  0  0  0  0  0
   11.4291  -13.4924    3.6311 C   0  0  0  0  0  0  0  0  0  0  0  0
   11.5394  -11.9317    3.2785 C   0  0  0  0  0  0  0  0  0  0  0  0
   10.6256  -11.1276    4.3151 C   0  0  1  0  0  0  0  0  0  0  0  0
   10.6547   -9.6173    4.0514 C   0  0  0  0  0  0  0  0  0  0  0  0
    7.2563  -15.3161    9.0845 C   0  0  1  0  0  0  0  0  0  0  0  0
    6.5522  -15.2209    7.6281 C   0  0  0  0  0  0  0  0  0  0  0  0
    7.2423  -14.0922    6.7692 C   0  0  2  0  0  0  0  0  0  0  0  0
    6.1884  -19.1480   10.3095 F   0  0  0  0  0  0  0  0  0  0  0  0
   18.2961  -14.7058    7.1916 N   0  0  0  0  0  0  0  0  0  0  0  0
    9.6868  -15.3802    3.8497 N   0  0  0  0  0  0  0  0  0  0  0  0
   15.4484  -12.0192    4.8507 N   0  0  0  0  0  0  0  0  0  0  0  0
    6.8871  -19.7644   13.8748 N   0  0  0  0  0  0  0  0  0  0  0  0
   11.9346   -9.0818    4.3089 N   0  0  0  0  0  0  0  0  0  0  0  0
    6.5816  -16.3639    9.8715 N   0  0  0  0  0  0  0  0  0  0  0  0
    6.6175  -14.0022    5.4310 N   0  0  0  0  0  0  0  0  0  0  0  0
    9.3108  -13.3652    5.8324 O   0  0  0  0  0  0  0  0  0  0  0  0
   10.9058  -14.8724    7.6714 O   0  0  0  0  0  0  0  0  0  0  0  0
    9.4246  -15.8263   10.0246 O   0  0  0  0  0  0  0  0  0  0  0  0
   11.0423  -11.8282    7.6779 O   0  0  0  0  0  0  0  0  0  0  0  0
   13.2306  -14.5980    7.9400 O   0  0  0  0  0  0  0  0  0  0  0  0
   14.6222  -15.4555   10.5379 O   0  0  0  0  0  0  0  0  0  0  0  0
   13.7528  -11.8889    7.2367 O   0  0  0  0  0  0  0  0  0  0  0  0
    4.5284  -17.5235   11.4840 O   0  0  0  0  0  0  0  0  0  0  0  0
    7.3167  -15.4462   11.9827 O   0  0  0  0  0  0  0  0  0  0  0  0
   16.0483  -12.6249    7.6563 O   0  0  0  0  0  0  0  0  0  0  0  0
    9.1877  -11.6097    4.2151 O   0  0  0  0  0  0  0  0  0  0  0  0
  1 36  1  1  0  0  0
  2 36  1  6  0  0  0
  2  3  1  0  0  0  0
  3 37  1  6  0  0  0
  3  4  1  0  0  0  0
  4 38  1  1  0  0  0
  5 37  1  1  0  0  0
  5  6  1  0  0  0  0
  6  7  1  0  0  0  0
  6 39  1  6  0  0  0
  7 42  1  6  0  0  0
  8  9  1  1  0  0  0
  8  7  1  0  0  0  0
 10 42  1  6  0  0  0
 10 11  1  0  0  0  0
 11 31  1  6  0  0  0
 11 13  1  0  0  0  0
 12 30  1  1  0  0  0
 12  1  1  0  0  0  0
 14 13  1  0  0  0  0
 15 16  1  6  0  0  0
 15 14  1  0  0  0  0
 17 19  1  1  0  0  0
 17 28  1  0  0  0  0
 18 34  1  0  0  0  0
 19 32  1  0  0  0  0
 20 18  1  6  0  0  0
 20 17  1  0  0  0  0
 20 43  1  0  0  0  0
 21 12  1  0  0  0  0
 22 21  1  0  0  0  0
 22 23  1  0  0  0  0
 23 24  1  6  0  0  0
 23 46  1  0  0  0  0
 24 33  1  0  0  0  0
 25 34  1  1  0  0  0
 25  4  1  0  0  0  0
 26 25  1  0  0  0  0
 27 35  1  6  0  0  0
 27 26  1  0  0  0  0
 27  2  1  0  0  0  0
 29 16  1  0  0  0  0
 40  8  1  0  0  0  0
 40  5  1  0  0  0  0
 41  9  1  0  0  0  0
 44 18  2  0  0  0  0
 45 15  1  0  0  0  0
 45 10  1  0  0  0  0
 46  1  1  0  0  0  0
M  END
>  <CHROM.1>
-85.77682571,171.38006828,93.60113171,29.65631881,178.66275736,-175.99882526
176.76231672,-60.21144893,-73.65035302,67.84946341,151.83288002,-66.63078853
85.96475876,10.93522035,-14.12790770,7.74109795,0.66065525,-0.20654860,-0.96173350

>  <Name>
lig.pdb

>  <RI>
0

>  <Rbt.Current_Directory>
/home/afrankz/demos/rdock_decoys_rna/rnas/3wru

>  <Rbt.Executable>
rbdock ($Id: //depot/dev/client3/rdock/2013.1/src/exe/rbdock.cxx#4 $)

>  <Rbt.Library>
libRbt.so (2013.1, Build901 2013/11/27)

>  <Rbt.Parameter_File>
/export/apps/rDock/src/rDock_2013.1_src/data/scripts/dock_solv.prm

>  <Rbt.Receptor>
prm/pocket_docking_4.prm

>  <SCORE>
-1.90319

>  <SCORE.INTER>
-1.59334

>  <SCORE.INTER.CONST>
1

>  <SCORE.INTER.POLAR>
0

>  <SCORE.INTER.ROT>
13

>  <SCORE.INTER.SOLV>
18.7033

>  <SCORE.INTER.VDW>
-19.5633

>  <SCORE.INTER.norm>
-0.0346379

>  <SCORE.INTRA>
-0.309843

>  <SCORE.INTRA.DIHEDRAL>
-4.04574

>  <SCORE.INTRA.DIHEDRAL.0>
19.7146

>  <SCORE.INTRA.POLAR>
0

>  <SCORE.INTRA.POLAR.0>
0

>  <SCORE.INTRA.REPUL>
0

>  <SCORE.INTRA.REPUL.0>
0

>  <SCORE.INTRA.SOLV>
2.13614

>  <SCORE.INTRA.SOLV.lig_0>
-116.697

>  <SCORE.INTRA.VDW>
0.644957

>  <SCORE.INTRA.VDW.0>
-7.06424

>  <SCORE.INTRA.norm>
-0.00673572

>  <SCORE.RESTR>
0

>  <SCORE.RESTR.CAVITY>
0

>  <SCORE.RESTR.norm>
0

>  <SCORE.SYSTEM>
0

>  <SCORE.SYSTEM.CONST>
0

>  <SCORE.SYSTEM.DIHEDRAL>
0

>  <SCORE.SYSTEM.SOLV>
0

>  <SCORE.SYSTEM.norm>
0

>  <SCORE.heavy>
46

>  <SCORE.norm>
-0.0413737

>  <RMSD>
9.123

$$$$
lig.pdb
 OpenBabel03061811583D
libRbt.so/2013.1/901 2013/11/27
 46 49  0  0  0  0  0  0  0  0999 V2000
   10.3288  -15.9877   11.2738 C   0  0  1  0  0  0  0  0  0  0  0  0
    9.5919  -14.7441    9.1958 C   0  0  1  0  0  0  0  0  0  0  0  0
   10.6979  -15.3133    8.2564 C   0  0  1  0  0  0  0  0  0  0  0  0
   10.8935  -14.3054    7.0119 C   0  0  2  0  0  0  0  0  0  0  0  0
   13.1657  -15.7180    8.6857 C   0  0  2  0  0  0  0  0  0  0  0  0
   14.2233  -15.5721    9.8165 C   0  0  1  0  0  0  0  0  0  0  0  0
   15.2427  -16.5448    9.2745 C   0  0  1  0  0  0  0  0  0  0  0  0
   14.4109  -17.7974    8.8525 C   0  0  1  0  0  0  0  0  0  0  0  0
   14.0341  -18.8132    9.9874 C   0  0  0  0  0  0  0  0  0  0  0  0
   16.8545  -16.7072    7.4146 C   0  0  1  0  0  0  0  0  0  0  0  0
   18.0653  -17.0694    8.2218 C   0  0  1  0  0  0  0  0  0  0  0  0
    9.7263  -16.9708   12.3051 C   0  0  1  0  0  0  0  0  0  0  0  0
   19.0314  -17.9150    7.3184 C   0  0  0  0  0  0  0  0  0  0  0  0
   19.4964  -17.2404    6.1405 C   0  0  0  0  0  0  0  0  0  0  0  0
   18.3545  -16.9054    5.3165 C   0  0  2  0  0  0  0  0  0  0  0  0
   18.8043  -16.1497    4.0045 C   0  0  0  0  0  0  0  0  0  0  0  0
   10.2655   -9.8705    4.2484 C   0  0  2  0  0  0  0  0  0  0  0  0
   10.0915  -11.9709    5.3023 C   0  0  0  0  0  0  0  0  0  0  0  0
   11.5955   -9.5400    4.4275 C   0  0  0  0  0  0  0  0  0  0  0  0
   10.1830  -11.1802    3.9060 C   0  0  1  0  0  0  0  0  0  0  0  0
    8.5900  -16.2637   13.1750 C   0  0  0  0  0  0  0  0  0  0  0  0
    9.2380  -14.9933   13.9087 C   0  0  0  0  0  0  0  0  0  0  0  0
    9.8097  -14.0135   12.7822 C   0  0  1  0  0  0  0  0  0  0  0  0
   10.4649  -12.7662   13.3877 C   0  0  0  0  0  0  0  0  0  0  0  0
    9.5256  -14.2510    6.2015 C   0  0  1  0  0  0  0  0  0  0  0  0
    8.4251  -13.6319    7.2172 C   0  0  0  0  0  0  0  0  0  0  0  0
    8.2391  -14.5884    8.4576 C   0  0  2  0  0  0  0  0  0  0  0  0
    9.6770   -8.9889    3.2655 F   0  0  0  0  0  0  0  0  0  0  0  0
   19.6228  -17.0477    3.0329 N   0  0  0  0  0  0  0  0  0  0  0  0
    9.2059  -18.1751   11.5581 N   0  0  0  0  0  0  0  0  0  0  0  0
   18.8202  -15.9719    8.6453 N   0  0  0  0  0  0  0  0  0  0  0  0
   12.5906  -10.0877    5.2707 N   0  0  0  0  0  0  0  0  0  0  0  0
   11.5222  -13.1181   14.2534 N   0  0  0  0  0  0  0  0  0  0  0  0
    9.6662  -13.3484    5.0448 N   0  0  0  0  0  0  0  0  0  0  0  0
    7.2455  -14.0292    9.4007 N   0  0  0  0  0  0  0  0  0  0  0  0
    9.3627  -15.6277   10.2858 O   0  0  0  0  0  0  0  0  0  0  0  0
   11.9500  -15.4186    9.0774 O   0  0  0  0  0  0  0  0  0  0  0  0
   11.8731  -14.8296    6.1985 O   0  0  0  0  0  0  0  0  0  0  0  0
   14.6566  -14.2459    9.8420 O   0  0  0  0  0  0  0  0  0  0  0  0
   13.3522  -17.0895    8.1863 O   0  0  0  0  0  0  0  0  0  0  0  0
   13.2848  -19.8823    9.3762 O   0  0  0  0  0  0  0  0  0  0  0  0
   15.9449  -15.9175    8.0839 O   0  0  0  0  0  0  0  0  0  0  0  0
    9.0230  -11.4815    3.0998 O   0  0  0  0  0  0  0  0  0  0  0  0
   10.3586  -11.4792    6.4111 O   0  0  0  0  0  0  0  0  0  0  0  0
   17.3684  -16.0711    6.0996 O   0  0  0  0  0  0  0  0  0  0  0  0
   10.8433  -14.7442   11.9409 O   0  0  0  0  0  0  0  0  0  0  0  0
  1 36  1  6  0  0  0
  2 36  1  1  0  0  0
  2  3  1  0  0  0  0
  3 37  1  1  0  0  0
  3  4  1  0  0  0  0
  4 38  1  6  0  0  0
  5 37  1  1  0  0  0
  5  6  1  0  0  0  0
  6  7  1  0  0  0  0
  6 39  1  6  0  0  0
  7 42  1  6  0  0  0
  8  9  1  1  0  0  0
  8  7  1  0  0  0  0
 10 42  1  1  0  0  0
 10 11  1  0  0  0  0
 11 31  1  6  0  0  0
 11 13  1  0  0  0  0
 12 30  1  6  0  0  0
 12  1  1  0  0  0  0
 14 13  1  0  0  0  0
 15 16  1  6  0  0  0
 15 14  1  0  0  0  0
 17 19  1  6  0  0  0
 17 28  1  0  0  0  0
 18 34  1  0  0  0  0
 19 32  1  0  0  0  0
 20 18  1  1  0  0  0
 20 17  1  0  0  0  0
 20 43  1  0  0  0  0
 21 12  1  0  0  0  0
 22 21  1  0  0  0  0
 22 23  1  0  0  0  0
 23 24  1  1  0  0  0
 23 46  1  0  0  0  0
 24 33  1  0  0  0  0
 25 34  1  6  0  0  0
 25  4  1  0  0  0  0
 26 25  1  0  0  0  0
 27 35  1  1  0  0  0
 27 26  1  0  0  0  0
 27  2  1  0  0  0  0
 29 16  1  0  0  0  0
 40  8  1  0  0  0  0
 40  5  1  0  0  0  0
 41  9  1  0  0  0  0
 44 18  2  0  0  0  0
 45 15  1  0  0  0  0
 45 10  1  0  0  0  0
 46  1  1  0  0  0  0
M  END
>  <CHROM.1>
-179.93282117,62.15238017,-172.53737984,173.69051638,-176.11855174,-179.60219673
-65.89529931,67.10518900,-56.31274640,165.99856306,88.51323048,58.58023390
-56.06289476,12.50739751,-14.84430490,8.11994462,3.12077581,0.45679000,-1.00300795

>  <Name>
lig.pdb

>  <RI>
0

>  <Rbt.Current_Directory>
/home/afrankz/demos/rdock_decoys_rna/rnas/3wru

>  <Rbt.Executable>
rbdock ($Id: //depot/dev/client3/rdock/2013.1/src/exe/rbdock.cxx#4 $)

>  <Rbt.Library>
libRbt.so (2013.1, Build901 2013/11/27)

>  <Rbt.Parameter_File>
/export/apps/rDock/src/rDock_2013.1_src/data/scripts/dock_solv.prm

>  <Rbt.Receptor>
prm/pocket_docking_5.prm

>  <SCORE>
-4.4873

>  <SCORE.INTER>
0.103534

>  <SCORE.INTER.CONST>
1

>  <SCORE.INTER.POLAR>
0

>  <SCORE.INTER.ROT>
13

>  <SCORE.INTER.SOLV>
16.3528

>  <SCORE.INTER.VDW>
-17.6486

>  <SCORE.INTER.norm>
0.00225073

>  <SCORE.INTRA>
-4.59084

>  <SCORE.INTRA.DIHEDRAL>
-15.3271

>  <SCORE.INTRA.DIHEDRAL.0>
19.7146

>  <SCORE.INTRA.POLAR>
0

>  <SCORE.INTRA.POLAR.0>
0

>  <SCORE.INTRA.REPUL>
0

>  <SCORE.INTRA.REPUL.0>
0

>  <SCORE.INTRA.SOLV>
-0.604208

>  <SCORE.INTRA.SOLV.lig_0>
-116.697

>  <SCORE.INTRA.VDW>
3.37483

>  <SCORE.INTRA.VDW.0>
-7.06424

>  <SCORE.INTRA.norm>
-0.0998008

>  <SCORE.RESTR>
0

>  <SCORE.RESTR.CAVITY>
0

>  <SCORE.RESTR.norm>
0

>  <SCORE.SYSTEM>
0

>  <SCORE.SYSTEM.CONST>
0

>  <SCORE.SYSTEM.DIHEDRAL>
0

>  <SCORE.SYSTEM.SOLV>
0

>  <SCORE.SYSTEM.norm>
0

>  <SCORE.heavy>
46

>  <SCORE.norm>
-0.0975501

>  <RMSD>
9.132

$$$$
lig.pdb
 OpenBabel03061811583D
libRbt.so/2013.1/901 2013/11/27
 46 49  0  0  0  0  0  0  0  0999 V2000
   11.0414  -15.2764    3.8856 C   0  0  1  0  0  0  0  0  0  0  0  0
   12.0476  -16.7268    5.6999 C   0  0  1  0  0  0  0  0  0  0  0  0
   11.1735  -16.1640    6.8614 C   0  0  1  0  0  0  0  0  0  0  0  0
   11.0548  -17.2861    8.0146 C   0  0  2  0  0  0  0  0  0  0  0  0
   13.1493  -14.7301    7.5528 C   0  0  2  0  0  0  0  0  0  0  0  0
   13.4650  -13.3276    8.1460 C   0  0  1  0  0  0  0  0  0  0  0  0
   14.7825  -13.6698    8.7988 C   0  0  1  0  0  0  0  0  0  0  0  0
   14.5205  -15.0209    9.5371 C   0  0  1  0  0  0  0  0  0  0  0  0
   13.8355  -14.9374   10.9462 C   0  0  0  0  0  0  0  0  0  0  0  0
   16.7493  -12.7879    7.5998 C   0  0  1  0  0  0  0  0  0  0  0  0
   16.1744  -11.5363    7.0067 C   0  0  1  0  0  0  0  0  0  0  0  0
   11.5334  -14.3901    2.7170 C   0  0  1  0  0  0  0  0  0  0  0  0
   17.3238  -10.4756    6.8718 C   0  0  0  0  0  0  0  0  0  0  0  0
   18.4158  -10.8768    6.0322 C   0  0  0  0  0  0  0  0  0  0  0  0
   19.0205  -12.0658    6.5940 C   0  0  2  0  0  0  0  0  0  0  0  0
   20.2277  -12.5624    5.7047 C   0  0  0  0  0  0  0  0  0  0  0  0
   10.2707  -22.3792    9.2653 C   0  0  2  0  0  0  0  0  0  0  0  0
    9.1182  -20.5966    8.2421 C   0  0  0  0  0  0  0  0  0  0  0  0
   10.5774  -23.0512   10.4334 C   0  0  0  0  0  0  0  0  0  0  0  0
    9.1570  -21.6329    9.4700 C   0  0  1  0  0  0  0  0  0  0  0  0
   12.2170  -13.0537    3.2597 C   0  0  0  0  0  0  0  0  0  0  0  0
   11.1432  -12.2702    4.1572 C   0  0  0  0  0  0  0  0  0  0  0  0
   10.7066  -13.2344    5.3554 C   0  0  1  0  0  0  0  0  0  0  0  0
    9.6658  -12.5762    6.2691 C   0  0  0  0  0  0  0  0  0  0  0  0
   10.3148  -18.5517    7.3970 C   0  0  1  0  0  0  0  0  0  0  0  0
   11.2777  -19.1044    6.2166 C   0  0  0  0  0  0  0  0  0  0  0  0
   11.4313  -18.0105    5.0907 C   0  0  2  0  0  0  0  0  0  0  0  0
   10.1266  -23.3292    8.1853 F   0  0  0  0  0  0  0  0  0  0  0  0
   21.4001  -11.5416    5.6419 N   0  0  0  0  0  0  0  0  0  0  0  0
   12.4771  -15.2099    1.8704 N   0  0  0  0  0  0  0  0  0  0  0  0
   15.6649  -11.6965    5.7150 N   0  0  0  0  0  0  0  0  0  0  0  0
    9.8952  -24.0760   11.1303 N   0  0  0  0  0  0  0  0  0  0  0  0
   10.1705  -11.3887    6.8402 N   0  0  0  0  0  0  0  0  0  0  0  0
   10.1739  -19.5984    8.4252 N   0  0  0  0  0  0  0  0  0  0  0  0
   12.3189  -18.4968    4.0112 N   0  0  0  0  0  0  0  0  0  0  0  0
   12.1417  -15.7786    4.6447 O   0  0  0  0  0  0  0  0  0  0  0  0
   11.8665  -14.9319    7.3659 O   0  0  0  0  0  0  0  0  0  0  0  0
   10.2793  -16.7660    9.0266 O   0  0  0  0  0  0  0  0  0  0  0  0
   13.5691  -12.4197    7.0915 O   0  0  0  0  0  0  0  0  0  0  0  0
   13.8135  -15.6714    8.4681 O   0  0  0  0  0  0  0  0  0  0  0  0
   14.8677  -14.6465   11.9095 O   0  0  0  0  0  0  0  0  0  0  0  0
   15.8453  -13.8203    7.7256 O   0  0  0  0  0  0  0  0  0  0  0  0
    7.9448  -22.4182    9.4820 O   0  0  0  0  0  0  0  0  0  0  0  0
    8.3223  -20.6586    7.2906 O   0  0  0  0  0  0  0  0  0  0  0  0
   17.9880  -13.1578    6.7474 O   0  0  0  0  0  0  0  0  0  0  0  0
   10.1168  -14.5179    4.7942 O   0  0  0  0  0  0  0  0  0  0  0  0
  1 36  1  1  0  0  0
  2 36  1  6  0  0  0
  2  3  1  0  0  0  0
  3 37  1  1  0  0  0
  3  4  1  0  0  0  0
  4 38  1  1  0  0  0
  5 37  1  1  0  0  0
  5  6  1  0  0  0  0
  6  7  1  0  0  0  0
  6 39  1  6  0  0  0
  7 42  1  6  0  0  0
  8  9  1  1  0  0  0
  8  7  1  0  0  0  0
 10 42  1  6  0  0  0
 10 11  1  0  0  0  0
 11 31  1  6  0  0  0
 11 13  1  0  0  0  0
 12 30  1  1  0  0  0
 12  1  1  0  0  0  0
 14 13  1  0  0  0  0
 15 16  1  6  0  0  0
 15 14  1  0  0  0  0
 17 19  1  1  0  0  0
 17 28  1  0  0  0  0
 18 34  1  0  0  0  0
 19 32  1  0  0  0  0
 20 18  1  6  0  0  0
 20 17  1  0  0  0  0
 20 43  1  0  0  0  0
 21 12  1  0  0  0  0
 22 21  1  0  0  0  0
 22 23  1  0  0  0  0
 23 24  1  1  0  0  0
 23 46  1  0  0  0  0
 24 33  1  0  0  0  0
 25 34  1  1  0  0  0
 25  4  1  0  0  0  0
 26 25  1  0  0  0  0
 27 35  1  6  0  0  0
 27 26  1  0  0  0  0
 27  2  1  0  0  0  0
 29 16  1  0  0  0  0
 40  8  1  0  0  0  0
 40  5  1  0  0  0  0
 41  9  1  0  0  0  0
 44 18  2  0  0  0  0
 45 15  1  0  0  0  0
 45 10  1  0  0  0  0
 46  1  1  0  0  0  0
M  END
>  <CHROM.1>
-173.39659597,-61.48522318,-40.66520122,-177.69991172,104.81757464,-82.34132753
-71.69688516,63.67322576,66.33631668,-71.95992517,164.50210960,-59.75358857
157.36008011,12.79265417,-15.84007042,7.06021923,0.79867350,-0.54344480,-0.70750857

>  <Name>
lig.pdb

>  <RI>
0

>  <Rbt.Current_Directory>
/home/afrankz/demos/rdock_decoys_rna/rnas/3wru

>  <Rbt.Executable>
rbdock ($Id: //depot/dev/client3/rdock/2013.1/src/exe/rbdock.cxx#4 $)

>  <Rbt.Library>
libRbt.so (2013.1, Build901 2013/11/27)

>  <Rbt.Parameter_File>
/export/apps/rDock/src/rDock_2013.1_src/data/scripts/dock_solv.prm

>  <Rbt.Receptor>
prm/pocket_docking_7.prm

>  <SCORE>
2.71134

>  <SCORE.INTER>
3.85488

>  <SCORE.INTER.CONST>
1

>  <SCORE.INTER.POLAR>
0

>  <SCORE.INTER.ROT>
13

>  <SCORE.INTER.SOLV>
16.3487

>  <SCORE.INTER.VDW>
-15.1463

>  <SCORE.INTER.norm>
0.0838017

>  <SCORE.INTRA>
-1.14354

>  <SCORE.INTRA.DIHEDRAL>
-6.99361

>  <SCORE.INTRA.DIHEDRAL.0>
19.7146

>  <SCORE.INTRA.POLAR>
0

>  <SCORE.INTRA.POLAR.0>
0

>  <SCORE.INTRA.REPUL>
0

>  <SCORE.INTRA.REPUL.0>
0

>  <SCORE.INTRA.SOLV>
2.21004

>  <SCORE.INTRA.SOLV.lig_0>
-116.697

>  <SCORE.INTRA.VDW>
1.24824

>  <SCORE.INTRA.VDW.0>
-7.06424

>  <SCORE.INTRA.norm>
-0.0248595

>  <SCORE.RESTR>
0

>  <SCORE.RESTR.CAVITY>
0

>  <SCORE.RESTR.norm>
0

>  <SCORE.SYSTEM>
0

>  <SCORE.SYSTEM.CONST>
0

>  <SCORE.SYSTEM.DIHEDRAL>
0

>  <SCORE.SYSTEM.SOLV>
0

>  <SCORE.SYSTEM.norm>
0

>  <SCORE.heavy>
46

>  <SCORE.norm>
0.0589422

>  <RMSD>
9.144

$$$$
lig.pdb
 OpenBabel03061811583D
libRbt.so/2013.1/901 2013/11/27
 46 49  0  0  0  0  0  0  0  0999 V2000
   11.2633  -11.2593    5.6992 C   0  0  1  0  0  0  0  0  0  0  0  0
    9.8476  -12.8242    7.0975 C   0  0  1  0  0  0  0  0  0  0  0  0
   10.2860  -12.4764    8.5523 C   0  0  1  0  0  0  0  0  0  0  0  0
   10.0324  -13.7617    9.4939 C   0  0  2  0  0  0  0  0  0  0  0  0
   12.7461  -12.8437    8.0516 C   0  0  2  0  0  0  0  0  0  0  0  0
   14.1313  -12.1888    8.3184 C   0  0  1  0  0  0  0  0  0  0  0  0
   14.9609  -13.4500    8.3188 C   0  0  1  0  0  0  0  0  0  0  0  0
   14.1546  -14.4552    9.2012 C   0  0  1  0  0  0  0  0  0  0  0  0
   14.3286  -14.3314   10.7556 C   0  0  0  0  0  0  0  0  0  0  0  0
   15.9808  -13.2688    6.0803 C   0  0  1  0  0  0  0  0  0  0  0  0
   16.0619  -13.7993    4.6800 C   0  0  1  0  0  0  0  0  0  0  0  0
   11.0691   -9.9986    4.8240 C   0  0  1  0  0  0  0  0  0  0  0  0
   17.1344  -12.9657    3.8931 C   0  0  0  0  0  0  0  0  0  0  0  0
   18.4589  -13.0207    4.4419 C   0  0  0  0  0  0  0  0  0  0  0  0
   18.4272  -12.4820    5.7850 C   0  0  2  0  0  0  0  0  0  0  0  0
   19.8606  -12.5248    6.4470 C   0  0  0  0  0  0  0  0  0  0  0  0
    5.6228  -17.5921   11.1220 C   0  0  2  0  0  0  0  0  0  0  0  0
    6.7977  -15.6357   10.5344 C   0  0  0  0  0  0  0  0  0  0  0  0
    5.6484  -18.8515   11.6906 C   0  0  0  0  0  0  0  0  0  0  0  0
    6.7381  -16.9192   11.4999 C   0  0  1  0  0  0  0  0  0  0  0  0
   10.2183  -10.3344    3.5159 C   0  0  0  0  0  0  0  0  0  0  0  0
   10.9854  -11.4827    2.7002 C   0  0  0  0  0  0  0  0  0  0  0  0
   11.1211  -12.7575    3.6554 C   0  0  1  0  0  0  0  0  0  0  0  0
   11.8565  -13.9131    2.9661 C   0  0  0  0  0  0  0  0  0  0  0  0
    8.4715  -14.0687    9.4996 C   0  0  1  0  0  0  0  0  0  0  0  0
    8.0813  -14.4449    7.9725 C   0  0  0  0  0  0  0  0  0  0  0  0
    8.3492  -13.2100    7.0285 C   0  0  2  0  0  0  0  0  0  0  0  0
    4.3997  -16.9183   11.4957 F   0  0  0  0  0  0  0  0  0  0  0  0
   20.8803  -11.5736    5.7573 N   0  0  0  0  0  0  0  0  0  0  0  0
   10.4151   -8.9341    5.6718 N   0  0  0  0  0  0  0  0  0  0  0  0
   16.4893  -15.1273    4.5949 N   0  0  0  0  0  0  0  0  0  0  0  0
    6.5336  -19.9407   11.5132 N   0  0  0  0  0  0  0  0  0  0  0  0
   11.0561  -14.4963    1.9610 N   0  0  0  0  0  0  0  0  0  0  0  0
    8.1947  -15.2317   10.3617 N   0  0  0  0  0  0  0  0  0  0  0  0
    8.0090  -13.5433    5.6276 N   0  0  0  0  0  0  0  0  0  0  0  0
   10.0192  -11.6996    6.2447 O   0  0  0  0  0  0  0  0  0  0  0  0
   11.7431  -12.1215    8.4914 O   0  0  0  0  0  0  0  0  0  0  0  0
   10.4262  -13.4295   10.7709 O   0  0  0  0  0  0  0  0  0  0  0  0
   14.4145  -11.3193    7.2644 O   0  0  0  0  0  0  0  0  0  0  0  0
   12.8614  -14.1907    8.6324 O   0  0  0  0  0  0  0  0  0  0  0  0
   13.7034  -13.0974   11.1613 O   0  0  0  0  0  0  0  0  0  0  0  0
   15.1031  -13.9525    6.8935 O   0  0  0  0  0  0  0  0  0  0  0  0
    6.6988  -16.4893   12.8783 O   0  0  0  0  0  0  0  0  0  0  0  0
    5.8070  -15.0965   10.0144 O   0  0  0  0  0  0  0  0  0  0  0  0
   17.4280  -13.2365    6.6301 O   0  0  0  0  0  0  0  0  0  0  0  0
   11.8846  -12.3787    4.9138 O   0  0  0  0  0  0  0  0  0  0  0  0
  1 36  1  6  0  0  0
  2 36  1  6  0  0  0
  2  3  1  0  0  0  0
  3 37  1  6  0  0  0
  3  4  1  0  0  0  0
  4 38  1  1  0  0  0
  5 37  1  1  0  0  0
  5  6  1  0  0  0  0
  6  7  1  0  0  0  0
  6 39  1  6  0  0  0
  7 42  1  6  0  0  0
  8  9  1  1  0  0  0
  8  7  1  0  0  0  0
 10 42  1  1  0  0  0
 10 11  1  0  0  0  0
 11 31  1  1  0  0  0
 11 13  1  0  0  0  0
 12 30  1  1  0  0  0
 12  1  1  0  0  0  0
 14 13  1  0  0  0  0
 15 16  1  1  0  0  0
 15 14  1  0  0  0  0
 17 19  1  1  0  0  0
 17 28  1  0  0  0  0
 18 34  1  0  0  0  0
 19 32  1  0  0  0  0
 20 18  1  6  0  0  0
 20 17  1  0  0  0  0
 20 43  1  0  0  0  0
 21 12  1  0  0  0  0
 22 21  1  0  0  0  0
 22 23  1  0  0  0  0
 23 24  1  6  0  0  0
 23 46  1  0  0  0  0
 24 33  1  0  0  0  0
 25 34  1  1  0  0  0
 25  4  1  0  0  0  0
 26 25  1  0  0  0  0
 27 35  1  6  0  0  0
 27 26  1  0  0  0  0
 27  2  1  0  0  0  0
 29 16  1  0  0  0  0
 40  8  1  0  0  0  0
 40  5  1  0  0  0  0
 41  9  1  0  0  0  0
 44 18  2  0  0  0  0
 45 15  1  0  0  0  0
 45 10  1  0  0  0  0
 46  1  1  0  0  0  0
M  END
>  <CHROM.1>
-179.63750410,77.97340211,-57.55507176,-172.85656532,75.45189867,69.17002480
-179.12039500,66.73286290,-64.03749994,-151.70303321,166.93826595,-71.24872749
177.66965839,11.67395987,-13.66077136,7.54717290,0.57718279,-0.05604155,-1.04381013

>  <Name>
lig.pdb

>  <RI>
0

>  <Rbt.Current_Directory>
/home/afrankz/demos/rdock_decoys_rna/rnas/3wru

>  <Rbt.Executable>
rbdock ($Id: //depot/dev/client3/rdock/2013.1/src/exe/rbdock.cxx#4 $)

>  <Rbt.Library>
libRbt.so (2013.1, Build901 2013/11/27)

>  <Rbt.Parameter_File>
/export/apps/rDock/src/rDock_2013.1_src/data/scripts/dock_solv.prm

>  <Rbt.Receptor>
prm/pocket_docking_4.prm

>  <SCORE>
-3.19002

>  <SCORE.INTER>
3.13659

>  <SCORE.INTER.CONST>
1

>  <SCORE.INTER.POLAR>
0

>  <SCORE.INTER.ROT>
13

>  <SCORE.INTER.SOLV>
24.5722

>  <SCORE.INTER.VDW>
-18.3663

>  <SCORE.INTER.norm>
0.0681867

>  <SCORE.INTRA>
-6.3269

>  <SCORE.INTRA.DIHEDRAL>
-13.6035

>  <SCORE.INTRA.DIHEDRAL.0>
19.7146

>  <SCORE.INTRA.POLAR>
0

>  <SCORE.INTRA.POLAR.0>
0

>  <SCORE.INTRA.REPUL>
0

>  <SCORE.INTRA.REPUL.0>
0

>  <SCORE.INTRA.SOLV>
-1.59976

>  <SCORE.INTRA.SOLV.lig_0>
-116.697

>  <SCORE.INTRA.VDW>
1.27475

>  <SCORE.INTRA.VDW.0>
-7.06424

>  <SCORE.INTRA.norm>
-0.137541

>  <SCORE.RESTR>
0.000288102

>  <SCORE.RESTR.CAVITY>
0.000288102

>  <SCORE.RESTR.norm>
6.26308e-06

>  <SCORE.SYSTEM>
0

>  <SCORE.SYSTEM.CONST>
0

>  <SCORE.SYSTEM.DIHEDRAL>
0

>  <SCORE.SYSTEM.SOLV>
0

>  <SCORE.SYSTEM.norm>
0

>  <SCORE.heavy>
46

>  <SCORE.norm>
-0.0693483

>  <RMSD>
9.233

$$$$
lig.pdb
 OpenBabel03061811583D
libRbt.so/2013.1/901 2013/11/27
 46 49  0  0  0  0  0  0  0  0999 V2000
   10.7645   -5.8184   -0.1621 C   0  0  1  0  0  0  0  0  0  0  0  0
   11.1029   -5.3533    2.3031 C   0  0  1  0  0  0  0  0  0  0  0  0
   12.6268   -5.3473    1.9754 C   0  0  1  0  0  0  0  0  0  0  0  0
   13.4255   -4.7105    3.2242 C   0  0  2  0  0  0  0  0  0  0  0  0
   12.8910   -7.8059    2.5437 C   0  0  2  0  0  0  0  0  0  0  0  0
   13.7423   -7.6838    3.8395 C   0  0  1  0  0  0  0  0  0  0  0  0
   12.9088   -8.5819    4.7212 C   0  0  1  0  0  0  0  0  0  0  0  0
   11.4346   -8.1376    4.4597 C   0  0  1  0  0  0  0  0  0  0  0  0
   10.9236   -6.8794    5.2455 C   0  0  0  0  0  0  0  0  0  0  0  0
   12.1857  -10.9401    4.7214 C   0  0  1  0  0  0  0  0  0  0  0  0
   12.5115  -11.6304    6.0122 C   0  0  1  0  0  0  0  0  0  0  0  0
    9.9904   -4.7177   -0.9252 C   0  0  1  0  0  0  0  0  0  0  0  0
   11.3800  -12.6747    6.3179 C   0  0  0  0  0  0  0  0  0  0  0  0
   11.2201  -13.6957    5.3226 C   0  0  0  0  0  0  0  0  0  0  0  0
   10.8689  -13.0681    4.0665 C   0  0  2  0  0  0  0  0  0  0  0  0
   10.6881  -14.1453    2.9255 C   0  0  0  0  0  0  0  0  0  0  0  0
   15.1798   -2.9849    7.2109 C   0  0  2  0  0  0  0  0  0  0  0  0
   13.2329   -2.9250    5.8846 C   0  0  0  0  0  0  0  0  0  0  0  0
   16.3611   -2.2676    7.2070 C   0  0  0  0  0  0  0  0  0  0  0  0
   14.1542   -2.1393    6.9415 C   0  0  1  0  0  0  0  0  0  0  0  0
    8.4398   -5.0798   -1.0364 C   0  0  0  0  0  0  0  0  0  0  0  0
    8.3074   -6.4928   -1.7834 C   0  0  0  0  0  0  0  0  0  0  0  0
    9.1037   -7.5802   -0.9236 C   0  0  1  0  0  0  0  0  0  0  0  0
    9.0464   -8.9713   -1.5662 C   0  0  0  0  0  0  0  0  0  0  0  0
   12.9441   -3.2046    3.4014 C   0  0  1  0  0  0  0  0  0  0  0  0
   11.3659   -3.2763    3.7624 C   0  0  0  0  0  0  0  0  0  0  0  0
   10.5686   -3.9233    2.5650 C   0  0  2  0  0  0  0  0  0  0  0  0
   15.0341   -3.6685    8.4762 F   0  0  0  0  0  0  0  0  0  0  0  0
   10.9887  -13.5864    1.5051 N   0  0  0  0  0  0  0  0  0  0  0  0
   10.2198   -3.4045   -0.2165 N   0  0  0  0  0  0  0  0  0  0  0  0
   13.6983  -12.3681    5.9831 N   0  0  0  0  0  0  0  0  0  0  0  0
   17.6872   -2.6466    7.5218 N   0  0  0  0  0  0  0  0  0  0  0  0
    8.7489   -8.8826   -2.9426 N   0  0  0  0  0  0  0  0  0  0  0  0
   13.6618   -2.5805    4.5274 N   0  0  0  0  0  0  0  0  0  0  0  0
    9.1266   -4.0068    2.8858 N   0  0  0  0  0  0  0  0  0  0  0  0
   10.3610   -5.8717    1.2067 O   0  0  0  0  0  0  0  0  0  0  0  0
   13.0243   -6.7758    1.7424 O   0  0  0  0  0  0  0  0  0  0  0  0
   14.7663   -4.7160    2.9104 O   0  0  0  0  0  0  0  0  0  0  0  0
   15.0208   -8.1743    3.5709 O   0  0  0  0  0  0  0  0  0  0  0  0
   11.5250   -8.0617    3.0273 O   0  0  0  0  0  0  0  0  0  0  0  0
   11.8652   -5.8136    5.0096 O   0  0  0  0  0  0  0  0  0  0  0  0
   13.1339  -10.0269    4.3142 O   0  0  0  0  0  0  0  0  0  0  0  0
   13.3754   -1.8049    8.1111 O   0  0  0  0  0  0  0  0  0  0  0  0
   12.3182   -3.7077    6.1899 O   0  0  0  0  0  0  0  0  0  0  0  0
   11.9154  -12.0508    3.6769 O   0  0  0  0  0  0  0  0  0  0  0  0
   10.5603   -7.1663   -0.7925 O   0  0  0  0  0  0  0  0  0  0  0  0
  1 36  1  1  0  0  0
  2 36  1  6  0  0  0
  2  3  1  0  0  0  0
  3 37  1  1  0  0  0
  3  4  1  0  0  0  0
  4 38  1  6  0  0  0
  5 37  1  1  0  0  0
  5  6  1  0  0  0  0
  6  7  1  0  0  0  0
  6 39  1  6  0  0  0
  7 42  1  6  0  0  0
  8  9  1  1  0  0  0
  8  7  1  0  0  0  0
 10 42  1  6  0  0  0
 10 11  1  0  0  0  0
 11 31  1  6  0  0  0
 11 13  1  0  0  0  0
 12 30  1  1  0  0  0
 12  1  1  0  0  0  0
 14 13  1  0  0  0  0
 15 16  1  6  0  0  0
 15 14  1  0  0  0  0
 17 19  1  1  0  0  0
 17 28  1  0  0  0  0
 18 34  1  0  0  0  0
 19 32  1  0  0  0  0
 20 18  1  6  0  0  0
 20 17  1  0  0  0  0
 20 43  1  0  0  0  0
 21 12  1  0  0  0  0
 22 21  1  0  0  0  0
 22 23  1  0  0  0  0
 23 24  1  6  0  0  0
 23 46  1  0  0  0  0
 24 33  1  0  0  0  0
 25 34  1  1  0  0  0
 25  4  1  0  0  0  0
 26 25  1  0  0  0  0
 27 35  1  1  0  0  0
 27 26  1  0  0  0  0
 27  2  1  0  0  0  0
 29 16  1  0  0  0  0
 40  8  1  0  0  0  0
 40  5  1  0  0  0  0
 41  9  1  0  0  0  0
 44 18  2  0  0  0  0
 45 15  1  0  0  0  0
 45 10  1  0  0  0  0
 46  1  1  0  0  0  0
M  END
>  <CHROM.1>
-103.29040349,-27.20158361,-56.63348828,-64.93669806,-161.32367500,52.90889944
-93.89039869,-152.33828220,174.75696909,-91.54458164,136.05518396,21.30539944
-76.91635356,12.08489965,-6.84404669,3.40777152,2.35258298,1.00383137,2.96261689

>  <Name>
lig.pdb

>  <RI>
0

>  <Rbt.Current_Directory>
/home/afrankz/demos/rdock_decoys_rna/rnas/3wru

>  <Rbt.Executable>
rbdock ($Id: //depot/dev/client3/rdock/2013.1/src/exe/rbdock.cxx#4 $)

>  <Rbt.Library>
libRbt.so (2013.1, Build901 2013/11/27)

>  <Rbt.Parameter_File>
/export/apps/rDock/src/rDock_2013.1_src/data/scripts/dock_solv.prm

>  <Rbt.Receptor>
prm/blind_docking_20.prm

>  <SCORE>
32.6987

>  <SCORE.INTER>
9.474

>  <SCORE.INTER.CONST>
1

>  <SCORE.INTER.POLAR>
0

>  <SCORE.INTER.ROT>
13

>  <SCORE.INTER.SOLV>
36.1209

>  <SCORE.INTER.VDW>
-17.991

>  <SCORE.INTER.norm>
0.205957

>  <SCORE.INTRA>
12.9039

>  <SCORE.INTRA.DIHEDRAL>
8.70764

>  <SCORE.INTRA.DIHEDRAL.0>
19.7146

>  <SCORE.INTRA.POLAR>
0

>  <SCORE.INTRA.POLAR.0>
0

>  <SCORE.INTRA.REPUL>
0.0544708

>  <SCORE.INTRA.REPUL.0>
0

>  <SCORE.INTRA.SOLV>
5.23117

>  <SCORE.INTRA.SOLV.lig_0>
-116.697

>  <SCORE.INTRA.VDW>
5.66211

>  <SCORE.INTRA.VDW.0>
-7.06424

>  <SCORE.INTRA.norm>
0.280519

>  <SCORE.RESTR>
10.3208

>  <SCORE.RESTR.CAVITY>
10.3208

>  <SCORE.RESTR.norm>
0.224366

>  <SCORE.SYSTEM>
0

>  <SCORE.SYSTEM.CONST>
0

>  <SCORE.SYSTEM.DIHEDRAL>
0

>  <SCORE.SYSTEM.SOLV>
0

>  <SCORE.SYSTEM.norm>
0

>  <SCORE.heavy>
46

>  <SCORE.norm>
0.710841

>  <RMSD>
9.244

$$$$
lig.pdb
 OpenBabel03061811583D
libRbt.so/2013.1/901 2013/11/27
 46 49  0  0  0  0  0  0  0  0999 V2000
   13.9786  -15.0794    5.4190 C   0  0  1  0  0  0  0  0  0  0  0  0
   13.4564  -14.4003    7.8011 C   0  0  1  0  0  0  0  0  0  0  0  0
   12.1553  -13.6336    7.4150 C   0  0  1  0  0  0  0  0  0  0  0  0
   11.7985  -12.5882    8.5908 C   0  0  2  0  0  0  0  0  0  0  0  0
   11.7941  -11.9215    5.5775 C   0  0  2  0  0  0  0  0  0  0  0  0
   12.1354  -11.7218    4.0734 C   0  0  1  0  0  0  0  0  0  0  0  0
   10.8593  -11.0288    3.6609 C   0  0  1  0  0  0  0  0  0  0  0  0
    9.7197  -11.8739    4.3138 C   0  0  1  0  0  0  0  0  0  0  0  0
    9.2717  -13.1694    3.5503 C   0  0  0  0  0  0  0  0  0  0  0  0
   11.6026   -8.6841    3.4778 C   0  0  1  0  0  0  0  0  0  0  0  0
   11.8607   -7.4022    4.2120 C   0  0  1  0  0  0  0  0  0  0  0  0
   14.4134  -16.3504    4.6517 C   0  0  1  0  0  0  0  0  0  0  0  0
   12.6481   -6.4332    3.2605 C   0  0  0  0  0  0  0  0  0  0  0  0
   11.9613   -6.0932    2.0475 C   0  0  0  0  0  0  0  0  0  0  0  0
   11.7256   -7.3055    1.2925 C   0  0  2  0  0  0  0  0  0  0  0  0
   10.9614   -6.9950   -0.0545 C   0  0  0  0  0  0  0  0  0  0  0  0
    8.5758  -11.8790   13.4595 C   0  0  2  0  0  0  0  0  0  0  0  0
   10.0013  -12.8183   11.8351 C   0  0  0  0  0  0  0  0  0  0  0  0
    8.6131  -12.9014   14.3887 C   0  0  0  0  0  0  0  0  0  0  0  0
    9.8252  -11.6906   12.9667 C   0  0  1  0  0  0  0  0  0  0  0  0
   15.8624  -16.8326    5.1160 C   0  0  0  0  0  0  0  0  0  0  0  0
   16.8952  -15.6319    4.8628 C   0  0  0  0  0  0  0  0  0  0  0  0
   16.3981  -14.3692    5.7080 C   0  0  1  0  0  0  0  0  0  0  0  0
   17.3193  -13.1575    5.5215 C   0  0  0  0  0  0  0  0  0  0  0  0
   11.5174  -13.4172    9.9192 C   0  0  1  0  0  0  0  0  0  0  0  0
   12.9058  -14.1699   10.2823 C   0  0  0  0  0  0  0  0  0  0  0  0
   13.2892  -15.1771    9.1306 C   0  0  2  0  0  0  0  0  0  0  0  0
    8.0217  -10.6916   14.0700 F   0  0  0  0  0  0  0  0  0  0  0  0
    9.5294   -6.4308    0.1721 N   0  0  0  0  0  0  0  0  0  0  0  0
   13.3626  -17.4126    4.8683 N   0  0  0  0  0  0  0  0  0  0  0  0
   10.7034   -6.7067    4.5737 N   0  0  0  0  0  0  0  0  0  0  0  0
    7.5831  -13.5441   15.1150 N   0  0  0  0  0  0  0  0  0  0  0  0
   16.9176  -12.0835    6.3438 N   0  0  0  0  0  0  0  0  0  0  0  0
   11.1736  -12.4972   11.0182 N   0  0  0  0  0  0  0  0  0  0  0  0
   14.5625  -15.8631    9.4427 N   0  0  0  0  0  0  0  0  0  0  0  0
   13.7809  -15.3614    6.8049 O   0  0  0  0  0  0  0  0  0  0  0  0
   12.4381  -12.9268    6.1214 O   0  0  0  0  0  0  0  0  0  0  0  0
   10.6477  -11.9254    8.2269 O   0  0  0  0  0  0  0  0  0  0  0  0
   13.2744  -10.9205    3.9858 O   0  0  0  0  0  0  0  0  0  0  0  0
   10.3260  -12.0162    5.6091 O   0  0  0  0  0  0  0  0  0  0  0  0
    8.1552  -13.7285    4.2705 O   0  0  0  0  0  0  0  0  0  0  0  0
   10.8708   -9.6071    4.1929 O   0  0  0  0  0  0  0  0  0  0  0  0
   10.0111  -10.3827   12.3827 O   0  0  0  0  0  0  0  0  0  0  0  0
    9.2602  -13.8059   11.7010 O   0  0  0  0  0  0  0  0  0  0  0  0
   10.9530   -8.3011    2.1254 O   0  0  0  0  0  0  0  0  0  0  0  0
   14.9935  -13.9815    5.2759 O   0  0  0  0  0  0  0  0  0  0  0  0
  1 36  1  1  0  0  0
  2 36  1  6  0  0  0
  2  3  1  0  0  0  0
  3 37  1  6  0  0  0
  3  4  1  0  0  0  0
  4 38  1  6  0  0  0
  5 37  1  6  0  0  0
  5  6  1  0  0  0  0
  6  7  1  0  0  0  0
  6 39  1  1  0  0  0
  7 42  1  1  0  0  0
  8  9  1  6  0  0  0
  8  7  1  0  0  0  0
 10 42  1  1  0  0  0
 10 11  1  0  0  0  0
 11 31  1  6  0  0  0
 11 13  1  0  0  0  0
 12 30  1  1  0  0  0
 12  1  1  0  0  0  0
 14 13  1  0  0  0  0
 15 16  1  6  0  0  0
 15 14  1  0  0  0  0
 17 19  1  1  0  0  0
 17 28  1  0  0  0  0
 18 34  1  0  0  0  0
 19 32  1  0  0  0  0
 20 18  1  6  0  0  0
 20 17  1  0  0  0  0
 20 43  1  0  0  0  0
 21 12  1  0  0  0  0
 22 21  1  0  0  0  0
 22 23  1  0  0  0  0
 23 24  1  6  0  0  0
 23 46  1  0  0  0  0
 24 33  1  0  0  0  0
 25 34  1  1  0  0  0
 25  4  1  0  0  0  0
 26 25  1  0  0  0  0
 27 35  1  1  0  0  0
 27 26  1  0  0  0  0
 27  2  1  0  0  0  0
 29 16  1  0  0  0  0
 40  8  1  0  0  0  0
 40  5  1  0  0  0  0
 41  9  1  0  0  0  0
 44 18  2  0  0  0  0
 45 15  1  0  0  0  0
 45 10  1  0  0  0  0
 46  1  1  0  0  0  0
M  END
>  <CHROM.1>
176.07069031,56.31989683,-161.68550363,-164.09071361,79.97104229,-175.72766528
-165.60339470,-64.42363421,-175.00731978,166.04413411,81.68771680,-175.99742979
132.61834234,11.86851327,-12.04598279,6.74696131,-1.33064136,-0.82386683
2.15187443

>  <Name>
lig.pdb

>  <RI>
0

>  <Rbt.Current_Directory>
/home/afrankz/demos/rdock_decoys_rna/rnas/3wru

>  <Rbt.Executable>
rbdock ($Id: //depot/dev/client3/rdock/2013.1/src/exe/rbdock.cxx#4 $)

>  <Rbt.Library>
libRbt.so (2013.1, Build901 2013/11/27)

>  <Rbt.Parameter_File>
/export/apps/rDock/src/rDock_2013.1_src/data/scripts/dock_solv.prm

>  <Rbt.Receptor>
prm/pocket_docking_6.prm

>  <SCORE>
-2.97781

>  <SCORE.INTER>
0.210196

>  <SCORE.INTER.CONST>
1

>  <SCORE.INTER.POLAR>
0

>  <SCORE.INTER.ROT>
13

>  <SCORE.INTER.SOLV>
17.7564

>  <SCORE.INTER.VDW>
-18.0453

>  <SCORE.INTER.norm>
0.00456948

>  <SCORE.INTRA>
-3.19284

>  <SCORE.INTRA.DIHEDRAL>
-10.1788

>  <SCORE.INTRA.DIHEDRAL.0>
19.7146

>  <SCORE.INTRA.POLAR>
0

>  <SCORE.INTRA.POLAR.0>
0

>  <SCORE.INTRA.REPUL>
0

>  <SCORE.INTRA.REPUL.0>
0

>  <SCORE.INTRA.SOLV>
-2.57128

>  <SCORE.INTRA.SOLV.lig_0>
-116.697

>  <SCORE.INTRA.VDW>
3.1822

>  <SCORE.INTRA.VDW.0>
-7.06424

>  <SCORE.INTRA.norm>
-0.0694095

>  <SCORE.RESTR>
0.00482631

>  <SCORE.RESTR.CAVITY>
0.00482631

>  <SCORE.RESTR.norm>
0.00010492

>  <SCORE.SYSTEM>
0

>  <SCORE.SYSTEM.CONST>
0

>  <SCORE.SYSTEM.DIHEDRAL>
0

>  <SCORE.SYSTEM.SOLV>
0

>  <SCORE.SYSTEM.norm>
0

>  <SCORE.heavy>
46

>  <SCORE.norm>
-0.0647351

>  <RMSD>
9.244

$$$$
lig.pdb
 OpenBabel03061811583D
libRbt.so/2013.1/901 2013/11/27
 46 49  0  0  0  0  0  0  0  0999 V2000
   12.2371  -14.2480    9.4801 C   0  0  1  0  0  0  0  0  0  0  0  0
   11.5112  -12.8278    7.5145 C   0  0  1  0  0  0  0  0  0  0  0  0
   12.8296  -12.2899    6.8803 C   0  0  1  0  0  0  0  0  0  0  0  0
   12.5159  -10.8968    6.1296 C   0  0  2  0  0  0  0  0  0  0  0  0
   15.1026  -11.9244    7.9469 C   0  0  2  0  0  0  0  0  0  0  0  0
   15.8723  -13.2169    7.5522 C   0  0  1  0  0  0  0  0  0  0  0  0
   17.0995  -12.5583    6.9698 C   0  0  1  0  0  0  0  0  0  0  0  0
   16.5435  -11.4195    6.0571 C   0  0  1  0  0  0  0  0  0  0  0  0
   16.0722  -11.8308    4.6182 C   0  0  0  0  0  0  0  0  0  0  0  0
   18.9428  -12.8197    8.5877 C   0  0  1  0  0  0  0  0  0  0  0  0
   20.0698  -12.0875    9.2530 C   0  0  1  0  0  0  0  0  0  0  0  0
   12.1642  -15.7316    9.9125 C   0  0  1  0  0  0  0  0  0  0  0  0
   21.1467  -13.1363    9.7054 C   0  0  0  0  0  0  0  0  0  0  0  0
   21.7172  -13.9093    8.6397 C   0  0  0  0  0  0  0  0  0  0  0  0
   20.6612  -14.6599    7.9944 C   0  0  2  0  0  0  0  0  0  0  0  0
   21.2288  -15.5266    6.8021 C   0  0  0  0  0  0  0  0  0  0  0  0
   10.9046   -7.7280    3.2315 C   0  0  2  0  0  0  0  0  0  0  0  0
   10.7517  -10.0467    2.8398 C   0  0  0  0  0  0  0  0  0  0  0  0
   12.2806   -7.6281    3.1500 C   0  0  0  0  0  0  0  0  0  0  0  0
   10.4697   -8.5729    2.2639 C   0  0  1  0  0  0  0  0  0  0  0  0
   10.6491  -16.2159   10.0460 C   0  0  0  0  0  0  0  0  0  0  0  0
    9.9139  -15.2731   11.1150 C   0  0  0  0  0  0  0  0  0  0  0  0
   10.0041  -13.7670   10.5867 C   0  0  1  0  0  0  0  0  0  0  0  0
    9.3357  -12.7810   11.5523 C   0  0  0  0  0  0  0  0  0  0  0  0
   11.4788  -11.1897    4.9594 C   0  0  1  0  0  0  0  0  0  0  0  0
   10.1271  -11.7206    5.6784 C   0  0  0  0  0  0  0  0  0  0  0  0
   10.4183  -13.0687    6.4437 C   0  0  2  0  0  0  0  0  0  0  0  0
   10.3185   -6.4099    3.1393 F   0  0  0  0  0  0  0  0  0  0  0  0
   20.1137  -16.2034    5.9544 N   0  0  0  0  0  0  0  0  0  0  0  0
   12.9388  -16.5521    8.9094 N   0  0  0  0  0  0  0  0  0  0  0  0
   20.7482  -11.1981    8.4150 N   0  0  0  0  0  0  0  0  0  0  0  0
   13.2246   -6.9950    3.9922 N   0  0  0  0  0  0  0  0  0  0  0  0
    7.9295  -12.8686   11.4741 N   0  0  0  0  0  0  0  0  0  0  0  0
   11.1748   -9.9410    4.2378 N   0  0  0  0  0  0  0  0  0  0  0  0
    9.1950  -13.5592    7.1163 N   0  0  0  0  0  0  0  0  0  0  0  0
   11.7404  -14.0776    8.1522 O   0  0  0  0  0  0  0  0  0  0  0  0
   13.8036  -12.0979    8.0061 O   0  0  0  0  0  0  0  0  0  0  0  0
   13.6936  -10.4436    5.5786 O   0  0  0  0  0  0  0  0  0  0  0  0
   16.1156  -13.9529    8.7125 O   0  0  0  0  0  0  0  0  0  0  0  0
   15.5652  -10.9150    6.9813 O   0  0  0  0  0  0  0  0  0  0  0  0
   15.0058  -12.7885    4.7725 O   0  0  0  0  0  0  0  0  0  0  0  0
   17.9482  -12.0012    8.0983 O   0  0  0  0  0  0  0  0  0  0  0  0
    9.0622   -8.4249    1.9752 O   0  0  0  0  0  0  0  0  0  0  0  0
   10.6121  -11.0969    2.1916 O   0  0  0  0  0  0  0  0  0  0  0  0
   19.5773  -13.7280    7.5060 O   0  0  0  0  0  0  0  0  0  0  0  0
   11.4608  -13.3676   10.4171 O   0  0  0  0  0  0  0  0  0  0  0  0
  1 36  1  6  0  0  0
  2 36  1  6  0  0  0
  2  3  1  0  0  0  0
  3 37  1  1  0  0  0
  3  4  1  0  0  0  0
  4 38  1  6  0  0  0
  5 37  1  6  0  0  0
  5  6  1  0  0  0  0
  6  7  1  0  0  0  0
  6 39  1  1  0  0  0
  7 42  1  1  0  0  0
  8  9  1  6  0  0  0
  8  7  1  0  0  0  0
 10 42  1  6  0  0  0
 10 11  1  0  0  0  0
 11 31  1  6  0  0  0
 11 13  1  0  0  0  0
 12 30  1  6  0  0  0
 12  1  1  0  0  0  0
 14 13  1  0  0  0  0
 15 16  1  6  0  0  0
 15 14  1  0  0  0  0
 17 19  1  6  0  0  0
 17 28  1  0  0  0  0
 18 34  1  0  0  0  0
 19 32  1  0  0  0  0
 20 18  1  1  0  0  0
 20 17  1  0  0  0  0
 20 43  1  0  0  0  0
 21 12  1  0  0  0  0
 22 21  1  0  0  0  0
 22 23  1  0  0  0  0
 23 24  1  1  0  0  0
 23 46  1  0  0  0  0
 24 33  1  0  0  0  0
 25 34  1  1  0  0  0
 25  4  1  0  0  0  0
 26 25  1  0  0  0  0
 27 35  1  1  0  0  0
 27 26  1  0  0  0  0
 27  2  1  0  0  0  0
 29 16  1  0  0  0  0
 40  8  1  0  0  0  0
 40  5  1  0  0  0  0
 41  9  1  0  0  0  0
 44 18  2  0  0  0  0
 45 15  1  0  0  0  0
 45 10  1  0  0  0  0
 46  1  1  0  0  0  0
M  END
>  <CHROM.1>
171.68101818,84.24104343,164.93266232,-72.10601871,92.93684824,60.57446769
156.10252264,-172.25825040,-172.87733919,8.24154282,79.22974946,-74.55307590
153.65418207,13.94551991,-12.20971793,6.95532057,2.66136268,0.06545823,-0.85357299

>  <Name>
lig.pdb

>  <RI>
0

>  <Rbt.Current_Directory>
/home/afrankz/demos/rdock_decoys_rna/rnas/3wru

>  <Rbt.Executable>
rbdock ($Id: //depot/dev/client3/rdock/2013.1/src/exe/rbdock.cxx#4 $)

>  <Rbt.Library>
libRbt.so (2013.1, Build901 2013/11/27)

>  <Rbt.Parameter_File>
/export/apps/rDock/src/rDock_2013.1_src/data/scripts/dock_solv.prm

>  <Rbt.Receptor>
prm/pocket_docking_2.prm

>  <SCORE>
10.9411

>  <SCORE.INTER>
0.995112

>  <SCORE.INTER.CONST>
1

>  <SCORE.INTER.POLAR>
0

>  <SCORE.INTER.ROT>
13

>  <SCORE.INTER.SOLV>
16.9438

>  <SCORE.INTER.VDW>
-17.2512

>  <SCORE.INTER.norm>
0.0216329

>  <SCORE.INTRA>
3.73077

>  <SCORE.INTRA.DIHEDRAL>
-3.27029

>  <SCORE.INTRA.DIHEDRAL.0>
19.7146

>  <SCORE.INTRA.POLAR>
0

>  <SCORE.INTRA.POLAR.0>
0

>  <SCORE.INTRA.REPUL>
0

>  <SCORE.INTRA.REPUL.0>
0

>  <SCORE.INTRA.SOLV>
0.635762

>  <SCORE.INTRA.SOLV.lig_0>
-116.697

>  <SCORE.INTRA.VDW>
5.04803

>  <SCORE.INTRA.VDW.0>
-7.06424

>  <SCORE.INTRA.norm>
0.0811037

>  <SCORE.RESTR>
6.21523

>  <SCORE.RESTR.CAVITY>
6.21523

>  <SCORE.RESTR.norm>
0.135114

>  <SCORE.SYSTEM>
0

>  <SCORE.SYSTEM.CONST>
0

>  <SCORE.SYSTEM.DIHEDRAL>
0

>  <SCORE.SYSTEM.SOLV>
0

>  <SCORE.SYSTEM.norm>
0

>  <SCORE.heavy>
46

>  <SCORE.norm>
0.23785

>  <RMSD>
9.246

$$$$
lig.pdb
 OpenBabel03061811583D
libRbt.so/2013.1/901 2013/11/27
 46 49  0  0  0  0  0  0  0  0999 V2000
    9.1585  -12.6079    4.9570 C   0  0  1  0  0  0  0  0  0  0  0  0
    9.9063  -14.8632    5.8303 C   0  0  1  0  0  0  0  0  0  0  0  0
   11.2262  -15.6454    5.5552 C   0  0  1  0  0  0  0  0  0  0  0  0
   10.9812  -17.2082    5.8724 C   0  0  2  0  0  0  0  0  0  0  0  0
   12.7465  -15.3582    3.5442 C   0  0  2  0  0  0  0  0  0  0  0  0
   13.0696  -16.5932    2.6559 C   0  0  1  0  0  0  0  0  0  0  0  0
   14.0648  -15.9314    1.7337 C   0  0  1  0  0  0  0  0  0  0  0  0
   13.3990  -14.5749    1.3389 C   0  0  1  0  0  0  0  0  0  0  0  0
   12.3413  -14.6152    0.1808 C   0  0  0  0  0  0  0  0  0  0  0  0
   16.2123  -14.7445    1.9852 C   0  0  1  0  0  0  0  0  0  0  0  0
   16.8781  -15.1125    0.6929 C   0  0  1  0  0  0  0  0  0  0  0  0
    9.1258  -12.8627    3.4314 C   0  0  1  0  0  0  0  0  0  0  0  0
   17.8465  -13.9471    0.2821 C   0  0  0  0  0  0  0  0  0  0  0  0
   18.8882  -13.6699    1.2290 C   0  0  0  0  0  0  0  0  0  0  0  0
   18.2824  -13.2754    2.4829 C   0  0  2  0  0  0  0  0  0  0  0  0
   19.3838  -12.9651    3.5718 C   0  0  0  0  0  0  0  0  0  0  0  0
    9.6939  -20.8666    9.5409 C   0  0  2  0  0  0  0  0  0  0  0  0
   11.3305  -19.3937    8.7013 C   0  0  0  0  0  0  0  0  0  0  0  0
    9.1793  -22.1456    9.6384 C   0  0  0  0  0  0  0  0  0  0  0  0
   10.8978  -20.9261    8.9194 C   0  0  1  0  0  0  0  0  0  0  0  0
   10.5070  -12.4427    2.7505 C   0  0  0  0  0  0  0  0  0  0  0  0
   10.7695  -10.8919    3.0645 C   0  0  0  0  0  0  0  0  0  0  0  0
   10.8199  -10.7134    4.6524 C   0  0  1  0  0  0  0  0  0  0  0  0
   11.0559   -9.2532    5.0567 C   0  0  0  0  0  0  0  0  0  0  0  0
   10.6271  -17.3483    7.4170 C   0  0  1  0  0  0  0  0  0  0  0  0
    9.2403  -16.5390    7.6360 C   0  0  0  0  0  0  0  0  0  0  0  0
    9.4499  -15.0116    7.3029 C   0  0  2  0  0  0  0  0  0  0  0  0
    9.7635  -20.2726   10.8569 F   0  0  0  0  0  0  0  0  0  0  0  0
   18.7850  -12.5037    4.9315 N   0  0  0  0  0  0  0  0  0  0  0  0
    8.7982  -14.3190    3.2050 N   0  0  0  0  0  0  0  0  0  0  0  0
   17.6823  -16.2532    0.7678 N   0  0  0  0  0  0  0  0  0  0  0  0
    8.9197  -23.1275    8.6536 N   0  0  0  0  0  0  0  0  0  0  0  0
   12.2422   -8.7524    4.4798 N   0  0  0  0  0  0  0  0  0  0  0  0
   10.4081  -18.7668    7.7522 N   0  0  0  0  0  0  0  0  0  0  0  0
    8.1877  -14.2617    7.4864 N   0  0  0  0  0  0  0  0  0  0  0  0
   10.0954  -13.4730    5.5997 O   0  0  0  0  0  0  0  0  0  0  0  0
   11.5646  -15.4269    4.1093 O   0  0  0  0  0  0  0  0  0  0  0  0
   12.1592  -17.8759    5.6227 O   0  0  0  0  0  0  0  0  0  0  0  0
   13.6174  -17.5860    3.4693 O   0  0  0  0  0  0  0  0  0  0  0  0
   12.9598  -14.2043    2.6564 O   0  0  0  0  0  0  0  0  0  0  0  0
   11.1982  -15.3463    0.6676 O   0  0  0  0  0  0  0  0  0  0  0  0
   15.3677  -15.7136    2.4816 O   0  0  0  0  0  0  0  0  0  0  0  0
   11.9035  -21.6089    9.6997 O   0  0  0  0  0  0  0  0  0  0  0  0
   12.2881  -18.8426    9.2686 O   0  0  0  0  0  0  0  0  0  0  0  0
   17.3390  -14.3493    2.9713 O   0  0  0  0  0  0  0  0  0  0  0  0
    9.5094  -11.1803    5.2645 O   0  0  0  0  0  0  0  0  0  0  0  0
  1 36  1  1  0  0  0
  2 36  1  1  0  0  0
  2  3  1  0  0  0  0
  3 37  1  6  0  0  0
  3  4  1  0  0  0  0
  4 38  1  1  0  0  0
  5 37  1  6  0  0  0
  5  6  1  0  0  0  0
  6  7  1  0  0  0  0
  6 39  1  1  0  0  0
  7 42  1  1  0  0  0
  8  9  1  6  0  0  0
  8  7  1  0  0  0  0
 10 42  1  1  0  0  0
 10 11  1  0  0  0  0
 11 31  1  1  0  0  0
 11 13  1  0  0  0  0
 12 30  1  1  0  0  0
 12  1  1  0  0  0  0
 14 13  1  0  0  0  0
 15 16  1  1  0  0  0
 15 14  1  0  0  0  0
 17 19  1  1  0  0  0
 17 28  1  0  0  0  0
 18 34  1  0  0  0  0
 19 32  1  0  0  0  0
 20 18  1  1  0  0  0
 20 17  1  0  0  0  0
 20 43  1  0  0  0  0
 21 12  1  0  0  0  0
 22 21  1  0  0  0  0
 22 23  1  0  0  0  0
 23 24  1  6  0  0  0
 23 46  1  0  0  0  0
 24 33  1  0  0  0  0
 25 34  1  6  0  0  0
 25  4  1  0  0  0  0
 26 25  1  0  0  0  0
 27 35  1  6  0  0  0
 27 26  1  0  0  0  0
 27  2  1  0  0  0  0
 29 16  1  0  0  0  0
 40  8  1  0  0  0  0
 40  5  1  0  0  0  0
 41  9  1  0  0  0  0
 44 18  2  0  0  0  0
 45 15  1  0  0  0  0
 45 10  1  0  0  0  0
 46  1  1  0  0  0  0
M  END
>  <CHROM.1>
-73.93372092,139.12327082,147.85384466,109.23199991,-158.47888778,67.74402976
-71.17015526,178.67227020,-55.73033495,-66.38954427,173.61180127,-56.79321055
116.31048791,12.38331928,-15.54753201,4.81879188,0.96058256,0.45647892,-0.50527977

>  <Name>
lig.pdb

>  <RI>
0

>  <Rbt.Current_Directory>
/home/afrankz/demos/rdock_decoys_rna/rnas/3wru

>  <Rbt.Executable>
rbdock ($Id: //depot/dev/client3/rdock/2013.1/src/exe/rbdock.cxx#4 $)

>  <Rbt.Library>
libRbt.so (2013.1, Build901 2013/11/27)

>  <Rbt.Parameter_File>
/export/apps/rDock/src/rDock_2013.1_src/data/scripts/dock_solv.prm

>  <Rbt.Receptor>
prm/pocket_docking_8.prm

>  <SCORE>
1.1802

>  <SCORE.INTER>
-2.20287

>  <SCORE.INTER.CONST>
1

>  <SCORE.INTER.POLAR>
0

>  <SCORE.INTER.ROT>
13

>  <SCORE.INTER.SOLV>
23.1269

>  <SCORE.INTER.VDW>
-21.4442

>  <SCORE.INTER.norm>
-0.0478886

>  <SCORE.INTRA>
3.38055

>  <SCORE.INTRA.DIHEDRAL>
2.70756

>  <SCORE.INTRA.DIHEDRAL.0>
19.7146

>  <SCORE.INTRA.POLAR>
0

>  <SCORE.INTRA.POLAR.0>
0

>  <SCORE.INTRA.REPUL>
0

>  <SCORE.INTRA.REPUL.0>
0

>  <SCORE.INTRA.SOLV>
1.88432

>  <SCORE.INTRA.SOLV.lig_0>
-116.697

>  <SCORE.INTRA.VDW>
1.0846

>  <SCORE.INTRA.VDW.0>
-7.06424

>  <SCORE.INTRA.norm>
0.0734901

>  <SCORE.RESTR>
0.00253031

>  <SCORE.RESTR.CAVITY>
0.00253031

>  <SCORE.RESTR.norm>
5.50068e-05

>  <SCORE.SYSTEM>
0

>  <SCORE.SYSTEM.CONST>
0

>  <SCORE.SYSTEM.DIHEDRAL>
0

>  <SCORE.SYSTEM.SOLV>
0

>  <SCORE.SYSTEM.norm>
0

>  <SCORE.heavy>
46

>  <SCORE.norm>
0.0256566

>  <RMSD>
9.267

$$$$
lig.pdb
 OpenBabel03061811583D
libRbt.so/2013.1/901 2013/11/27
 46 49  0  0  0  0  0  0  0  0999 V2000
    9.8650  -15.3847   10.0081 C   0  0  1  0  0  0  0  0  0  0  0  0
   10.5262  -13.4283    8.5442 C   0  0  1  0  0  0  0  0  0  0  0  0
   11.9107  -12.9414    8.0191 C   0  0  1  0  0  0  0  0  0  0  0  0
   11.7780  -11.4039    7.5487 C   0  0  2  0  0  0  0  0  0  0  0  0
   14.1833  -12.9443    9.1476 C   0  0  2  0  0  0  0  0  0  0  0  0
   14.9166  -14.1210    8.4432 C   0  0  1  0  0  0  0  0  0  0  0  0
   16.1703  -13.3783    8.0488 C   0  0  1  0  0  0  0  0  0  0  0  0
   15.6605  -12.0290    7.4499 C   0  0  1  0  0  0  0  0  0  0  0  0
   15.1929  -12.0501    5.9523 C   0  0  0  0  0  0  0  0  0  0  0  0
   18.3765  -12.9893    9.0808 C   0  0  1  0  0  0  0  0  0  0  0  0
   18.7236  -12.0092    8.0002 C   0  0  1  0  0  0  0  0  0  0  0  0
   10.5896  -16.6421   10.5439 C   0  0  1  0  0  0  0  0  0  0  0  0
   20.2852  -11.9729    7.8436 C   0  0  0  0  0  0  0  0  0  0  0  0
   20.8820  -13.2268    7.4828 C   0  0  0  0  0  0  0  0  0  0  0  0
   20.5976  -14.1922    8.5231 C   0  0  2  0  0  0  0  0  0  0  0  0
   21.2237  -15.6003    8.1763 C   0  0  0  0  0  0  0  0  0  0  0  0
   10.7659   -7.9678    3.4700 C   0  0  2  0  0  0  0  0  0  0  0  0
   11.7012   -9.3779    5.1100 C   0  0  0  0  0  0  0  0  0  0  0  0
   10.5579   -6.6953    2.9725 C   0  0  0  0  0  0  0  0  0  0  0  0
   11.3267   -7.8694    4.7009 C   0  0  1  0  0  0  0  0  0  0  0  0
   10.5978  -17.8074    9.4531 C   0  0  0  0  0  0  0  0  0  0  0  0
    9.0777  -18.1451    9.0689 C   0  0  0  0  0  0  0  0  0  0  0  0
    8.4070  -16.8111    8.4976 C   0  0  1  0  0  0  0  0  0  0  0  0
    6.9392  -17.0292    8.1108 C   0  0  0  0  0  0  0  0  0  0  0  0
   10.7362  -11.3437    6.3480 C   0  0  1  0  0  0  0  0  0  0  0  0
    9.3178  -11.8359    6.9577 C   0  0  0  0  0  0  0  0  0  0  0  0
    9.4332  -13.3296    7.4512 C   0  0  2  0  0  0  0  0  0  0  0  0
   11.5713   -8.7248    2.5384 F   0  0  0  0  0  0  0  0  0  0  0  0
   22.7697  -15.6396    8.3460 N   0  0  0  0  0  0  0  0  0  0  0  0
   11.9844  -16.2398   10.9589 N   0  0  0  0  0  0  0  0  0  0  0  0
   18.2326  -12.3520    6.7372 N   0  0  0  0  0  0  0  0  0  0  0  0
   11.4504   -5.6211    2.7469 N   0  0  0  0  0  0  0  0  0  0  0  0
    6.8119  -18.0749    7.1719 N   0  0  0  0  0  0  0  0  0  0  0  0
   10.5955   -9.9536    5.8785 N   0  0  0  0  0  0  0  0  0  0  0  0
    8.1479  -13.7889    8.0225 N   0  0  0  0  0  0  0  0  0  0  0  0
   10.5941  -14.7946    8.9313 O   0  0  0  0  0  0  0  0  0  0  0  0
   12.8789  -13.0840    9.1572 O   0  0  0  0  0  0  0  0  0  0  0  0
   13.0113  -10.9985    7.0898 O   0  0  0  0  0  0  0  0  0  0  0  0
   15.1236  -15.1324    9.3820 O   0  0  0  0  0  0  0  0  0  0  0  0
   14.6880  -11.7406    8.4682 O   0  0  0  0  0  0  0  0  0  0  0  0
   16.3658  -12.2499    5.1384 O   0  0  0  0  0  0  0  0  0  0  0  0
   17.0232  -13.1507    9.2837 O   0  0  0  0  0  0  0  0  0  0  0  0
   12.5172   -7.0518    4.7159 O   0  0  0  0  0  0  0  0  0  0  0  0
   12.7583   -9.9518    4.8005 O   0  0  0  0  0  0  0  0  0  0  0  0
   19.1069  -14.3106    8.7366 O   0  0  0  0  0  0  0  0  0  0  0  0
    8.4742  -15.7120    9.5452 O   0  0  0  0  0  0  0  0  0  0  0  0
  1 36  1  6  0  0  0
  2 36  1  6  0  0  0
  2  3  1  0  0  0  0
  3 37  1  1  0  0  0
  3  4  1  0  0  0  0
  4 38  1  6  0  0  0
  5 37  1  6  0  0  0
  5  6  1  0  0  0  0
  6  7  1  0  0  0  0
  6 39  1  1  0  0  0
  7 42  1  1  0  0  0
  8  9  1  6  0  0  0
  8  7  1  0  0  0  0
 10 42  1  6  0  0  0
 10 11  1  0  0  0  0
 11 31  1  6  0  0  0
 11 13  1  0  0  0  0
 12 30  1  6  0  0  0
 12  1  1  0  0  0  0
 14 13  1  0  0  0  0
 15 16  1  6  0  0  0
 15 14  1  0  0  0  0
 17 19  1  6  0  0  0
 17 28  1  0  0  0  0
 18 34  1  0  0  0  0
 19 32  1  0  0  0  0
 20 18  1  6  0  0  0
 20 17  1  0  0  0  0
 20 43  1  0  0  0  0
 21 12  1  0  0  0  0
 22 21  1  0  0  0  0
 22 23  1  0  0  0  0
 23 24  1  1  0  0  0
 23 46  1  0  0  0  0
 24 33  1  0  0  0  0
 25 34  1  1  0  0  0
 25  4  1  0  0  0  0
 26 25  1  0  0  0  0
 27 35  1  1  0  0  0
 27 26  1  0  0  0  0
 27  2  1  0  0  0  0
 29 16  1  0  0  0  0
 40  8  1  0  0  0  0
 40  5  1  0  0  0  0
 41  9  1  0  0  0  0
 44 18  2  0  0  0  0
 45 15  1  0  0  0  0
 45 10  1  0  0  0  0
 46  1  1  0  0  0  0
M  END
>  <CHROM.1>
-155.06136607,146.09289315,171.46316031,-72.78352215,154.92554926,-69.11519448
48.25026126,73.70488991,57.21524733,-93.19923656,-172.92322150,-56.57901975
73.16330107,13.35803737,-12.81909128,7.41667887,3.08207269,-0.06596932,-0.56601035

>  <Name>
lig.pdb

>  <RI>
0

>  <Rbt.Current_Directory>
/home/afrankz/demos/rdock_decoys_rna/rnas/3wru

>  <Rbt.Executable>
rbdock ($Id: //depot/dev/client3/rdock/2013.1/src/exe/rbdock.cxx#4 $)

>  <Rbt.Library>
libRbt.so (2013.1, Build901 2013/11/27)

>  <Rbt.Parameter_File>
/export/apps/rDock/src/rDock_2013.1_src/data/scripts/dock_solv.prm

>  <Rbt.Receptor>
prm/pocket_docking_2.prm

>  <SCORE>
15.0902

>  <SCORE.INTER>
2.81909

>  <SCORE.INTER.CONST>
1

>  <SCORE.INTER.POLAR>
0

>  <SCORE.INTER.ROT>
13

>  <SCORE.INTER.SOLV>
13.5399

>  <SCORE.INTER.VDW>
-14.9006

>  <SCORE.INTER.norm>
0.0612845

>  <SCORE.INTRA>
10.3737

>  <SCORE.INTRA.DIHEDRAL>
-5.00781

>  <SCORE.INTRA.DIHEDRAL.0>
19.7146

>  <SCORE.INTRA.POLAR>
0

>  <SCORE.INTRA.POLAR.0>
0

>  <SCORE.INTRA.REPUL>
0

>  <SCORE.INTRA.REPUL.0>
0

>  <SCORE.INTRA.SOLV>
7.64224

>  <SCORE.INTRA.SOLV.lig_0>
-116.697

>  <SCORE.INTRA.VDW>
9.05647

>  <SCORE.INTRA.VDW.0>
-7.06424

>  <SCORE.INTRA.norm>
0.225515

>  <SCORE.RESTR>
1.89745

>  <SCORE.RESTR.CAVITY>
1.89745

>  <SCORE.RESTR.norm>
0.0412488

>  <SCORE.SYSTEM>
0

>  <SCORE.SYSTEM.CONST>
0

>  <SCORE.SYSTEM.DIHEDRAL>
0

>  <SCORE.SYSTEM.SOLV>
0

>  <SCORE.SYSTEM.norm>
0

>  <SCORE.heavy>
46

>  <SCORE.norm>
0.328048

>  <RMSD>
9.342

$$$$
lig.pdb
 OpenBabel03061811583D
libRbt.so/2013.1/901 2013/11/27
 46 49  0  0  0  0  0  0  0  0999 V2000
    8.8185  -13.3932    4.1052 C   0  0  1  0  0  0  0  0  0  0  0  0
    8.5147  -14.3758    6.4182 C   0  0  1  0  0  0  0  0  0  0  0  0
    9.2815  -14.3456    7.7750 C   0  0  1  0  0  0  0  0  0  0  0  0
    8.5845  -15.3877    8.7904 C   0  0  2  0  0  0  0  0  0  0  0  0
   11.7806  -13.9930    7.5141 C   0  0  2  0  0  0  0  0  0  0  0  0
   11.8281  -13.0462    8.7470 C   0  0  1  0  0  0  0  0  0  0  0  0
   13.3269  -12.8839    8.8268 C   0  0  1  0  0  0  0  0  0  0  0  0
   13.8919  -14.3311    8.6676 C   0  0  1  0  0  0  0  0  0  0  0  0
   13.9131  -15.2292    9.9540 C   0  0  0  0  0  0  0  0  0  0  0  0
   15.1234  -11.6311    7.6925 C   0  0  1  0  0  0  0  0  0  0  0  0
   15.5585  -10.8881    6.4647 C   0  0  1  0  0  0  0  0  0  0  0  0
    9.7437  -14.3688    3.3401 C   0  0  1  0  0  0  0  0  0  0  0  0
   17.1000  -10.6107    6.5706 C   0  0  0  0  0  0  0  0  0  0  0  0
   17.9169  -11.7866    6.6634 C   0  0  0  0  0  0  0  0  0  0  0  0
   17.5491  -12.5138    7.8596 C   0  0  2  0  0  0  0  0  0  0  0  0
   18.4115  -13.8284    8.0117 C   0  0  0  0  0  0  0  0  0  0  0  0
    5.4641  -19.3101   10.3027 C   0  0  2  0  0  0  0  0  0  0  0  0
    6.3613  -17.2409    9.6198 C   0  0  0  0  0  0  0  0  0  0  0  0
    5.0242  -20.1297   11.3249 C   0  0  0  0  0  0  0  0  0  0  0  0
    5.5989  -18.0484   10.7816 C   0  0  1  0  0  0  0  0  0  0  0  0
   11.2671  -13.9002    3.4260 C   0  0  0  0  0  0  0  0  0  0  0  0
   11.3713  -12.4198    2.8179 C   0  0  0  0  0  0  0  0  0  0  0  0
   10.4152  -11.4676    3.6753 C   0  0  1  0  0  0  0  0  0  0  0  0
   10.4358  -10.0231    3.1609 C   0  0  0  0  0  0  0  0  0  0  0  0
    7.0912  -14.9028    9.0467 C   0  0  1  0  0  0  0  0  0  0  0  0
    6.3412  -14.9780    7.6122 C   0  0  0  0  0  0  0  0  0  0  0  0
    7.0259  -13.9868    6.5941 C   0  0  2  0  0  0  0  0  0  0  0  0
    4.5507  -19.3985    9.1858 F   0  0  0  0  0  0  0  0  0  0  0  0
   18.1692  -14.8533    6.8667 N   0  0  0  0  0  0  0  0  0  0  0  0
    9.5400  -15.7527    3.9082 N   0  0  0  0  0  0  0  0  0  0  0  0
   15.3916  -11.6018    5.2746 N   0  0  0  0  0  0  0  0  0  0  0  0
    5.6182  -20.4896   12.5573 N   0  0  0  0  0  0  0  0  0  0  0  0
   10.0894   -9.9663    1.7942 N   0  0  0  0  0  0  0  0  0  0  0  0
    6.4212  -15.8234    9.9827 N   0  0  0  0  0  0  0  0  0  0  0  0
    6.3589  -14.0540    5.2750 N   0  0  0  0  0  0  0  0  0  0  0  0
    9.0768  -13.4384    5.5089 O   0  0  0  0  0  0  0  0  0  0  0  0
   10.7001  -14.7361    7.4783 O   0  0  0  0  0  0  0  0  0  0  0  0
    9.2784  -15.3420    9.9789 O   0  0  0  0  0  0  0  0  0  0  0  0
   11.1432  -11.8738    8.4251 O   0  0  0  0  0  0  0  0  0  0  0  0
   13.0547  -14.7270    7.5684 O   0  0  0  0  0  0  0  0  0  0  0  0
   14.5974  -16.4515    9.6138 O   0  0  0  0  0  0  0  0  0  0  0  0
   13.7902  -11.9796    7.6991 O   0  0  0  0  0  0  0  0  0  0  0  0
    4.3330  -17.4132   11.0649 O   0  0  0  0  0  0  0  0  0  0  0  0
    6.8317  -17.7571    8.5927 O   0  0  0  0  0  0  0  0  0  0  0  0
   16.0750  -12.8435    7.8415 O   0  0  0  0  0  0  0  0  0  0  0  0
    8.9868  -11.9835    3.6149 O   0  0  0  0  0  0  0  0  0  0  0  0
  1 36  1  1  0  0  0
  2 36  1  6  0  0  0
  2  3  1  0  0  0  0
  3 37  1  6  0  0  0
  3  4  1  0  0  0  0
  4 38  1  1  0  0  0
  5 37  1  1  0  0  0
  5  6  1  0  0  0  0
  6  7  1  0  0  0  0
  6 39  1  6  0  0  0
  7 42  1  6  0  0  0
  8  9  1  1  0  0  0
  8  7  1  0  0  0  0
 10 42  1  6  0  0  0
 10 11  1  0  0  0  0
 11 31  1  6  0  0  0
 11 13  1  0  0  0  0
 12 30  1  1  0  0  0
 12  1  1  0  0  0  0
 14 13  1  0  0  0  0
 15 16  1  6  0  0  0
 15 14  1  0  0  0  0
 17 19  1  1  0  0  0
 17 28  1  0  0  0  0
 18 34  1  0  0  0  0
 19 32  1  0  0  0  0
 20 18  1  6  0  0  0
 20 17  1  0  0  0  0
 20 43  1  0  0  0  0
 21 12  1  0  0  0  0
 22 21  1  0  0  0  0
 22 23  1  0  0  0  0
 23 24  1  6  0  0  0
 23 46  1  0  0  0  0
 24 33  1  0  0  0  0
 25 34  1  1  0  0  0
 25  4  1  0  0  0  0
 26 25  1  0  0  0  0
 27 35  1  6  0  0  0
 27 26  1  0  0  0  0
 27  2  1  0  0  0  0
 29 16  1  0  0  0  0
 40  8  1  0  0  0  0
 40  5  1  0  0  0  0
 41  9  1  0  0  0  0
 44 18  2  0  0  0  0
 45 15  1  0  0  0  0
 45 10  1  0  0  0  0
 46  1  1  0  0  0  0
M  END
>  <CHROM.1>
-84.73122788,166.04713706,110.34537823,42.26324598,174.54502318,-173.94653729
172.45456495,-63.83612951,-62.67892686,173.71797711,169.86582141,56.10863828
-56.93261525,10.66096558,-14.37663640,7.37207941,2.60405443,0.25120958,2.21123586

>  <Name>
lig.pdb

>  <RI>
0

>  <Rbt.Current_Directory>
/home/afrankz/demos/rdock_decoys_rna/rnas/3wru

>  <Rbt.Executable>
rbdock ($Id: //depot/dev/client3/rdock/2013.1/src/exe/rbdock.cxx#4 $)

>  <Rbt.Library>
libRbt.so (2013.1, Build901 2013/11/27)

>  <Rbt.Parameter_File>
/export/apps/rDock/src/rDock_2013.1_src/data/scripts/dock_solv.prm

>  <Rbt.Receptor>
prm/pocket_docking_4.prm

>  <SCORE>
-1.98757

>  <SCORE.INTER>
-3.01544

>  <SCORE.INTER.CONST>
1

>  <SCORE.INTER.POLAR>
0

>  <SCORE.INTER.ROT>
13

>  <SCORE.INTER.SOLV>
25.6058

>  <SCORE.INTER.VDW>
-22.8122

>  <SCORE.INTER.norm>
-0.0655529

>  <SCORE.INTRA>
1.02786

>  <SCORE.INTRA.DIHEDRAL>
-5.89487

>  <SCORE.INTRA.DIHEDRAL.0>
19.7146

>  <SCORE.INTRA.POLAR>
0

>  <SCORE.INTRA.POLAR.0>
0

>  <SCORE.INTRA.REPUL>
0

>  <SCORE.INTRA.REPUL.0>
0

>  <SCORE.INTRA.SOLV>
2.06585

>  <SCORE.INTRA.SOLV.lig_0>
-116.697

>  <SCORE.INTRA.VDW>
2.94237

>  <SCORE.INTRA.VDW.0>
-7.06424

>  <SCORE.INTRA.norm>
0.0223448

>  <SCORE.RESTR>
0

>  <SCORE.RESTR.CAVITY>
0

>  <SCORE.RESTR.norm>
0

>  <SCORE.SYSTEM>
0

>  <SCORE.SYSTEM.CONST>
0

>  <SCORE.SYSTEM.DIHEDRAL>
0

>  <SCORE.SYSTEM.SOLV>
0

>  <SCORE.SYSTEM.norm>
0

>  <SCORE.heavy>
46

>  <SCORE.norm>
-0.0432081

>  <RMSD>
9.344

$$$$
lig.pdb
 OpenBabel03061811583D
libRbt.so/2013.1/901 2013/11/27
 46 49  0  0  0  0  0  0  0  0999 V2000
   10.7752   -6.2653   -0.1823 C   0  0  1  0  0  0  0  0  0  0  0  0
   11.4240   -4.6172    1.6262 C   0  0  1  0  0  0  0  0  0  0  0  0
   12.9533   -4.9097    1.5520 C   0  0  1  0  0  0  0  0  0  0  0  0
   13.6371   -4.4630    2.9433 C   0  0  2  0  0  0  0  0  0  0  0  0
   13.1238   -7.3570    2.1999 C   0  0  2  0  0  0  0  0  0  0  0  0
   14.5507   -7.6507    2.7445 C   0  0  1  0  0  0  0  0  0  0  0  0
   14.1478   -8.2536    4.0685 C   0  0  1  0  0  0  0  0  0  0  0  0
   13.0539   -7.2892    4.6274 C   0  0  1  0  0  0  0  0  0  0  0  0
   13.5566   -5.9963    5.3606 C   0  0  0  0  0  0  0  0  0  0  0  0
   12.5894  -10.0651    4.6799 C   0  0  1  0  0  0  0  0  0  0  0  0
   13.0803  -10.6957    5.9488 C   0  0  1  0  0  0  0  0  0  0  0  0
    9.4974   -6.4774   -1.0281 C   0  0  1  0  0  0  0  0  0  0  0  0
   11.8375  -11.1718    6.7814 C   0  0  0  0  0  0  0  0  0  0  0  0
   11.0085  -12.1401    6.1228 C   0  0  0  0  0  0  0  0  0  0  0  0
   10.4859  -11.5533    4.9073 C   0  0  2  0  0  0  0  0  0  0  0  0
    9.5696  -12.5792    4.1309 C   0  0  0  0  0  0  0  0  0  0  0  0
   15.1506   -2.7815    6.8920 C   0  0  2  0  0  0  0  0  0  0  0  0
   13.2284   -2.4293    5.5752 C   0  0  0  0  0  0  0  0  0  0  0  0
   16.2132   -2.1517    7.5120 C   0  0  0  0  0  0  0  0  0  0  0  0
   14.1126   -1.9122    6.8137 C   0  0  1  0  0  0  0  0  0  0  0  0
    8.1953   -6.4947   -0.1049 C   0  0  0  0  0  0  0  0  0  0  0  0
    8.3640   -7.6659    0.9777 C   0  0  0  0  0  0  0  0  0  0  0  0
    9.6829   -7.3626    1.8289 C   0  0  1  0  0  0  0  0  0  0  0  0
    9.9393   -8.4397    2.8898 C   0  0  0  0  0  0  0  0  0  0  0  0
   13.4335   -2.8942    3.1115 C   0  0  1  0  0  0  0  0  0  0  0  0
   11.8335   -2.6556    3.2065 C   0  0  0  0  0  0  0  0  0  0  0  0
   11.1404   -3.1134    1.8656 C   0  0  2  0  0  0  0  0  0  0  0  0
   14.8229   -3.9934    7.6085 F   0  0  0  0  0  0  0  0  0  0  0  0
    8.5859  -13.3449    5.0616 N   0  0  0  0  0  0  0  0  0  0  0  0
    9.4402   -5.3902   -2.0741 N   0  0  0  0  0  0  0  0  0  0  0  0
   13.8574  -11.8412    5.7554 N   0  0  0  0  0  0  0  0  0  0  0  0
   17.5549   -2.5549    7.7084 N   0  0  0  0  0  0  0  0  0  0  0  0
   10.1175   -9.7064    2.2941 N   0  0  0  0  0  0  0  0  0  0  0  0
   14.0573   -2.4419    4.3680 N   0  0  0  0  0  0  0  0  0  0  0  0
    9.6764   -2.9130    1.9426 N   0  0  0  0  0  0  0  0  0  0  0  0
   10.7922   -4.9615    0.4000 O   0  0  0  0  0  0  0  0  0  0  0  0
   13.1001   -6.3852    1.3189 O   0  0  0  0  0  0  0  0  0  0  0  0
   14.9847   -4.7306    2.8524 O   0  0  0  0  0  0  0  0  0  0  0  0
   15.1749   -8.5464    1.8754 O   0  0  0  0  0  0  0  0  0  0  0  0
   12.3102   -7.1401    3.4066 O   0  0  0  0  0  0  0  0  0  0  0  0
   12.4434   -5.0834    5.4340 O   0  0  0  0  0  0  0  0  0  0  0  0
   13.5922   -9.6464    3.8325 O   0  0  0  0  0  0  0  0  0  0  0  0
   13.3049   -1.8871    8.0109 O   0  0  0  0  0  0  0  0  0  0  0  0
   12.0377   -2.7740    5.6528 O   0  0  0  0  0  0  0  0  0  0  0  0
   11.6164  -11.0766    4.0259 O   0  0  0  0  0  0  0  0  0  0  0  0
   10.8876   -7.2957    0.9047 O   0  0  0  0  0  0  0  0  0  0  0  0
  1 36  1  1  0  0  0
  2 36  1  6  0  0  0
  2  3  1  0  0  0  0
  3 37  1  1  0  0  0
  3  4  1  0  0  0  0
  4 38  1  6  0  0  0
  5 37  1  6  0  0  0
  5  6  1  0  0  0  0
  6  7  1  0  0  0  0
  6 39  1  6  0  0  0
  7 42  1  6  0  0  0
  8  9  1  6  0  0  0
  8  7  1  0  0  0  0
 10 42  1  6  0  0  0
 10 11  1  0  0  0  0
 11 31  1  6  0  0  0
 11 13  1  0  0  0  0
 12 30  1  6  0  0  0
 12  1  1  0  0  0  0
 14 13  1  0  0  0  0
 15 16  1  6  0  0  0
 15 14  1  0  0  0  0
 17 19  1  1  0  0  0
 17 28  1  0  0  0  0
 18 34  1  0  0  0  0
 19 32  1  0  0  0  0
 20 18  1  6  0  0  0
 20 17  1  0  0  0  0
 20 43  1  0  0  0  0
 21 12  1  0  0  0  0
 22 21  1  0  0  0  0
 22 23  1  0  0  0  0
 23 24  1  1  0  0  0
 23 46  1  0  0  0  0
 24 33  1  0  0  0  0
 25 34  1  1  0  0  0
 25  4  1  0  0  0  0
 26 25  1  0  0  0  0
 27 35  1  1  0  0  0
 27 26  1  0  0  0  0
 27  2  1  0  0  0  0
 29 16  1  0  0  0  0
 40  8  1  0  0  0  0
 40  5  1  0  0  0  0
 41  9  1  0  0  0  0
 44 18  2  0  0  0  0
 45 15  1  0  0  0  0
 45 10  1  0  0  0  0
 46  1  1  0  0  0  0
M  END
>  <CHROM.1>
150.76929708,60.10154821,-85.75315992,-88.08320245,-146.97139140,163.25666629
-86.49332046,44.28288096,-172.25766164,-58.58533066,155.46603210,60.59918808
-90.71179114,12.30715948,-6.53691441,3.66826050,2.34728695,0.94283609,2.77339471

>  <Name>
lig.pdb

>  <RI>
0

>  <Rbt.Current_Directory>
/home/afrankz/demos/rdock_decoys_rna/rnas/3wru

>  <Rbt.Executable>
rbdock ($Id: //depot/dev/client3/rdock/2013.1/src/exe/rbdock.cxx#4 $)

>  <Rbt.Library>
libRbt.so (2013.1, Build901 2013/11/27)

>  <Rbt.Parameter_File>
/export/apps/rDock/src/rDock_2013.1_src/data/scripts/dock_solv.prm

>  <Rbt.Receptor>
prm/blind_docking_20.prm

>  <SCORE>
35.4669

>  <SCORE.INTER>
13.9651

>  <SCORE.INTER.CONST>
1

>  <SCORE.INTER.POLAR>
0

>  <SCORE.INTER.ROT>
13

>  <SCORE.INTER.SOLV>
31.4821

>  <SCORE.INTER.VDW>
-13.4507

>  <SCORE.INTER.norm>
0.303589

>  <SCORE.INTRA>
14.1734

>  <SCORE.INTRA.DIHEDRAL>
2.14483

>  <SCORE.INTRA.DIHEDRAL.0>
19.7146

>  <SCORE.INTRA.POLAR>
0

>  <SCORE.INTRA.POLAR.0>
0

>  <SCORE.INTRA.REPUL>
0

>  <SCORE.INTRA.REPUL.0>
0

>  <SCORE.INTRA.SOLV>
6.06541

>  <SCORE.INTRA.SOLV.lig_0>
-116.697

>  <SCORE.INTRA.VDW>
10.0682

>  <SCORE.INTRA.VDW.0>
-7.06424

>  <SCORE.INTRA.norm>
0.308117

>  <SCORE.RESTR>
7.32842

>  <SCORE.RESTR.CAVITY>
7.32842

>  <SCORE.RESTR.norm>
0.159314

>  <SCORE.SYSTEM>
0

>  <SCORE.SYSTEM.CONST>
0

>  <SCORE.SYSTEM.DIHEDRAL>
0

>  <SCORE.SYSTEM.SOLV>
0

>  <SCORE.SYSTEM.norm>
0

>  <SCORE.heavy>
46

>  <SCORE.norm>
0.771019

>  <RMSD>
9.360

$$$$
lig.pdb
 OpenBabel03061811583D
libRbt.so/2013.1/901 2013/11/27
 46 49  0  0  0  0  0  0  0  0999 V2000
   10.2501  -15.8750   11.2625 C   0  0  1  0  0  0  0  0  0  0  0  0
    9.6753  -14.1498    9.5015 C   0  0  1  0  0  0  0  0  0  0  0  0
   10.9978  -14.2754    8.6860 C   0  0  1  0  0  0  0  0  0  0  0  0
   11.2224  -12.9167    7.8455 C   0  0  2  0  0  0  0  0  0  0  0  0
   13.3895  -14.6039    9.4667 C   0  0  2  0  0  0  0  0  0  0  0  0
   14.2270  -14.6080   10.7772 C   0  0  1  0  0  0  0  0  0  0  0  0
   15.4263  -15.3616   10.2551 C   0  0  1  0  0  0  0  0  0  0  0  0
   14.8245  -16.5643    9.4611 C   0  0  1  0  0  0  0  0  0  0  0  0
   14.3904  -17.8192   10.2969 C   0  0  0  0  0  0  0  0  0  0  0  0
   17.1516  -15.0517    8.5198 C   0  0  1  0  0  0  0  0  0  0  0  0
   18.3994  -15.5115    9.2130 C   0  0  1  0  0  0  0  0  0  0  0  0
    9.7295  -17.2513   11.7397 C   0  0  1  0  0  0  0  0  0  0  0  0
   19.3688  -16.1224    8.1399 C   0  0  0  0  0  0  0  0  0  0  0  0
   19.7717  -15.2118    7.1069 C   0  0  0  0  0  0  0  0  0  0  0  0
   18.5933  -14.7724    6.3904 C   0  0  2  0  0  0  0  0  0  0  0  0
   18.9739  -13.7568    5.2420 C   0  0  0  0  0  0  0  0  0  0  0  0
    9.7705  -10.2990    2.6427 C   0  0  2  0  0  0  0  0  0  0  0  0
    9.7215  -11.5566    4.6350 C   0  0  0  0  0  0  0  0  0  0  0  0
    9.7954   -9.0665    2.0180 C   0  0  0  0  0  0  0  0  0  0  0  0
   10.0053  -10.1227    3.9668 C   0  0  1  0  0  0  0  0  0  0  0  0
    8.3153  -17.1088   12.4659 C   0  0  0  0  0  0  0  0  0  0  0  0
    8.4864  -16.1030   13.7034 C   0  0  0  0  0  0  0  0  0  0  0  0
    8.9958  -14.7002   13.1303 C   0  0  1  0  0  0  0  0  0  0  0  0
    9.2028  -13.6679   14.2451 C   0  0  0  0  0  0  0  0  0  0  0  0
   10.0140  -12.7644    6.8221 C   0  0  1  0  0  0  0  0  0  0  0  0
    8.6763  -12.6146    7.7243 C   0  0  0  0  0  0  0  0  0  0  0  0
    8.4531  -13.9224    8.5775 C   0  0  2  0  0  0  0  0  0  0  0  0
   10.7252  -11.1807    2.0096 F   0  0  0  0  0  0  0  0  0  0  0  0
   20.0069  -14.3355    4.2329 N   0  0  0  0  0  0  0  0  0  0  0  0
    9.6662  -18.1704   10.5436 N   0  0  0  0  0  0  0  0  0  0  0  0
   19.1246  -14.4860    9.8262 N   0  0  0  0  0  0  0  0  0  0  0  0
   10.8294   -8.1121    1.8718 N   0  0  0  0  0  0  0  0  0  0  0  0
    8.0039  -13.4382   14.9529 N   0  0  0  0  0  0  0  0  0  0  0  0
   10.1884  -11.5383    6.0229 N   0  0  0  0  0  0  0  0  0  0  0  0
    7.2411  -13.7950    9.4166 N   0  0  0  0  0  0  0  0  0  0  0  0
    9.4224  -15.3469   10.2255 O   0  0  0  0  0  0  0  0  0  0  0  0
   12.1002  -14.4918    9.6814 O   0  0  0  0  0  0  0  0  0  0  0  0
   12.3940  -13.0527    7.1350 O   0  0  0  0  0  0  0  0  0  0  0  0
   14.4936  -13.2845   11.1302 O   0  0  0  0  0  0  0  0  0  0  0  0
   13.8120  -15.8234    8.7599 O   0  0  0  0  0  0  0  0  0  0  0  0
   13.3511  -17.3949   11.2012 O   0  0  0  0  0  0  0  0  0  0  0  0
   16.2335  -14.4476    9.3511 O   0  0  0  0  0  0  0  0  0  0  0  0
   11.3613   -9.7138    4.2507 O   0  0  0  0  0  0  0  0  0  0  0  0
    9.1772  -12.5106    4.0552 O   0  0  0  0  0  0  0  0  0  0  0  0
   17.6006  -14.1500    7.3437 O   0  0  0  0  0  0  0  0  0  0  0  0
   10.3129  -14.8920   12.3963 O   0  0  0  0  0  0  0  0  0  0  0  0
  1 36  1  6  0  0  0
  2 36  1  6  0  0  0
  2  3  1  0  0  0  0
  3 37  1  1  0  0  0
  3  4  1  0  0  0  0
  4 38  1  6  0  0  0
  5 37  1  1  0  0  0
  5  6  1  0  0  0  0
  6  7  1  0  0  0  0
  6 39  1  6  0  0  0
  7 42  1  6  0  0  0
  8  9  1  1  0  0  0
  8  7  1  0  0  0  0
 10 42  1  1  0  0  0
 10 11  1  0  0  0  0
 11 31  1  6  0  0  0
 11 13  1  0  0  0  0
 12 30  1  6  0  0  0
 12  1  1  0  0  0  0
 14 13  1  0  0  0  0
 15 16  1  6  0  0  0
 15 14  1  0  0  0  0
 17 19  1  6  0  0  0
 17 28  1  0  0  0  0
 18 34  1  0  0  0  0
 19 32  1  0  0  0  0
 20 18  1  1  0  0  0
 20 17  1  0  0  0  0
 20 43  1  0  0  0  0
 21 12  1  0  0  0  0
 22 21  1  0  0  0  0
 22 23  1  0  0  0  0
 23 24  1  1  0  0  0
 23 46  1  0  0  0  0
 24 33  1  0  0  0  0
 25 34  1  1  0  0  0
 25  4  1  0  0  0  0
 26 25  1  0  0  0  0
 27 35  1  1  0  0  0
 27 26  1  0  0  0  0
 27  2  1  0  0  0  0
 29 16  1  0  0  0  0
 40  8  1  0  0  0  0
 40  5  1  0  0  0  0
 41  9  1  0  0  0  0
 44 18  2  0  0  0  0
 45 15  1  0  0  0  0
 45 10  1  0  0  0  0
 46  1  1  0  0  0  0
M  END
>  <CHROM.1>
-175.15947363,63.28188870,-177.28006438,171.36664106,-163.56847885,61.79041856
-75.66469872,56.54495036,62.61390094,169.44182360,171.07584193,-59.30723927
146.33470186,12.48136056,-14.02395262,8.40364194,-2.50207566,0.21027280,-1.03240765

>  <Name>
lig.pdb

>  <RI>
0

>  <Rbt.Current_Directory>
/home/afrankz/demos/rdock_decoys_rna/rnas/3wru

>  <Rbt.Executable>
rbdock ($Id: //depot/dev/client3/rdock/2013.1/src/exe/rbdock.cxx#4 $)

>  <Rbt.Library>
libRbt.so (2013.1, Build901 2013/11/27)

>  <Rbt.Parameter_File>
/export/apps/rDock/src/rDock_2013.1_src/data/scripts/dock_solv.prm

>  <Rbt.Receptor>
prm/pocket_docking_7.prm

>  <SCORE>
-7.88341

>  <SCORE.INTER>
-2.59293

>  <SCORE.INTER.CONST>
1

>  <SCORE.INTER.POLAR>
0

>  <SCORE.INTER.ROT>
13

>  <SCORE.INTER.SOLV>
16.2809

>  <SCORE.INTER.VDW>
-19.4223

>  <SCORE.INTER.norm>
-0.056368

>  <SCORE.INTRA>
-5.29048

>  <SCORE.INTRA.DIHEDRAL>
-14.5403

>  <SCORE.INTRA.DIHEDRAL.0>
19.7146

>  <SCORE.INTRA.POLAR>
0

>  <SCORE.INTRA.POLAR.0>
0

>  <SCORE.INTRA.REPUL>
0

>  <SCORE.INTRA.REPUL.0>
0

>  <SCORE.INTRA.SOLV>
-1.27319

>  <SCORE.INTRA.SOLV.lig_0>
-116.697

>  <SCORE.INTRA.VDW>
2.61627

>  <SCORE.INTRA.VDW.0>
-7.06424

>  <SCORE.INTRA.norm>
-0.115011

>  <SCORE.RESTR>
0

>  <SCORE.RESTR.CAVITY>
0

>  <SCORE.RESTR.norm>
0

>  <SCORE.SYSTEM>
0

>  <SCORE.SYSTEM.CONST>
0

>  <SCORE.SYSTEM.DIHEDRAL>
0

>  <SCORE.SYSTEM.SOLV>
0

>  <SCORE.SYSTEM.norm>
0

>  <SCORE.heavy>
46

>  <SCORE.norm>
-0.171379

>  <RMSD>
9.360

$$$$
lig.pdb
 OpenBabel03061811583D
libRbt.so/2013.1/901 2013/11/27
 46 49  0  0  0  0  0  0  0  0999 V2000
   17.1157  -16.9148    6.6086 C   0  0  1  0  0  0  0  0  0  0  0  0
   15.1194  -17.7389    7.9290 C   0  0  1  0  0  0  0  0  0  0  0  0
   14.4611  -18.6412    6.8417 C   0  0  1  0  0  0  0  0  0  0  0  0
   12.8879  -18.7870    7.1685 C   0  0  2  0  0  0  0  0  0  0  0  0
   14.1071  -16.8851    5.0449 C   0  0  2  0  0  0  0  0  0  0  0  0
   14.6199  -16.4954    3.6293 C   0  0  1  0  0  0  0  0  0  0  0  0
   13.3990  -15.7370    3.1675 C   0  0  1  0  0  0  0  0  0  0  0  0
   12.1928  -16.6444    3.5684 C   0  0  1  0  0  0  0  0  0  0  0  0
   11.8382  -17.8228    2.5951 C   0  0  0  0  0  0  0  0  0  0  0  0
   12.3433  -13.5327    3.4994 C   0  0  1  0  0  0  0  0  0  0  0  0
   12.4323  -12.1737    4.1273 C   0  0  1  0  0  0  0  0  0  0  0  0
   18.6532  -17.0864    6.6167 C   0  0  1  0  0  0  0  0  0  0  0  0
   11.2016  -11.3235    3.6509 C   0  0  0  0  0  0  0  0  0  0  0  0
    9.9222  -11.8683    4.0046 C   0  0  0  0  0  0  0  0  0  0  0  0
    9.7848  -13.1693    3.3854 C   0  0  2  0  0  0  0  0  0  0  0  0
    8.3943  -13.8255    3.7474 C   0  0  0  0  0  0  0  0  0  0  0  0
    8.7370  -21.1567    8.5893 C   0  0  2  0  0  0  0  0  0  0  0  0
   10.8963  -20.9443    9.5087 C   0  0  0  0  0  0  0  0  0  0  0  0
    7.4126  -21.4927    8.7965 C   0  0  0  0  0  0  0  0  0  0  0  0
    9.3144  -20.8956    9.7884 C   0  0  1  0  0  0  0  0  0  0  0  0
   19.3027  -16.3742    7.8889 C   0  0  0  0  0  0  0  0  0  0  0  0
   18.9020  -14.8216    7.8532 C   0  0  0  0  0  0  0  0  0  0  0  0
   17.3064  -14.7248    7.8774 C   0  0  1  0  0  0  0  0  0  0  0  0
   16.8207  -13.2710    7.8334 C   0  0  0  0  0  0  0  0  0  0  0  0
   12.7419  -19.5109    8.5776 C   0  0  1  0  0  0  0  0  0  0  0  0
   13.4197  -18.5192    9.6653 C   0  0  0  0  0  0  0  0  0  0  0  0
   14.9541  -18.3392    9.3471 C   0  0  2  0  0  0  0  0  0  0  0  0
    8.8148  -20.0453    7.6681 F   0  0  0  0  0  0  0  0  0  0  0  0
    8.2416  -14.1345    5.2644 N   0  0  0  0  0  0  0  0  0  0  0  0
   18.9614  -18.5636    6.5710 N   0  0  0  0  0  0  0  0  0  0  0  0
   12.3586  -12.1821    5.5230 N   0  0  0  0  0  0  0  0  0  0  0  0
    6.3940  -21.8829    7.8955 N   0  0  0  0  0  0  0  0  0  0  0  0
   17.1142  -12.6754    6.5883 N   0  0  0  0  0  0  0  0  0  0  0  0
   11.3151  -19.6759    8.9084 N   0  0  0  0  0  0  0  0  0  0  0  0
   15.5841  -17.4254   10.3257 N   0  0  0  0  0  0  0  0  0  0  0  0
   16.5169  -17.6199    7.6964 O   0  0  0  0  0  0  0  0  0  0  0  0
   14.6854  -17.9615    5.5224 O   0  0  0  0  0  0  0  0  0  0  0  0
   12.3307  -19.5871    6.1962 O   0  0  0  0  0  0  0  0  0  0  0  0
   15.7602  -15.7052    3.7791 O   0  0  0  0  0  0  0  0  0  0  0  0
   12.6454  -16.9629    4.8949 O   0  0  0  0  0  0  0  0  0  0  0  0
   12.9753  -18.7080    2.5593 O   0  0  0  0  0  0  0  0  0  0  0  0
   13.3468  -14.3972    3.8793 O   0  0  0  0  0  0  0  0  0  0  0  0
    8.9541  -19.6015   10.3192 O   0  0  0  0  0  0  0  0  0  0  0  0
   11.6322  -21.9073    9.7801 O   0  0  0  0  0  0  0  0  0  0  0  0
   10.9231  -14.0714    3.8003 O   0  0  0  0  0  0  0  0  0  0  0  0
   16.7278  -15.4657    6.6830 O   0  0  0  0  0  0  0  0  0  0  0  0
  1 36  1  1  0  0  0
  2 36  1  6  0  0  0
  2  3  1  0  0  0  0
  3 37  1  6  0  0  0
  3  4  1  0  0  0  0
  4 38  1  6  0  0  0
  5 37  1  6  0  0  0
  5  6  1  0  0  0  0
  6  7  1  0  0  0  0
  6 39  1  1  0  0  0
  7 42  1  1  0  0  0
  8  9  1  6  0  0  0
  8  7  1  0  0  0  0
 10 42  1  1  0  0  0
 10 11  1  0  0  0  0
 11 31  1  1  0  0  0
 11 13  1  0  0  0  0
 12 30  1  1  0  0  0
 12  1  1  0  0  0  0
 14 13  1  0  0  0  0
 15 16  1  1  0  0  0
 15 14  1  0  0  0  0
 17 19  1  1  0  0  0
 17 28  1  0  0  0  0
 18 34  1  0  0  0  0
 19 32  1  0  0  0  0
 20 18  1  6  0  0  0
 20 17  1  0  0  0  0
 20 43  1  0  0  0  0
 21 12  1  0  0  0  0
 22 21  1  0  0  0  0
 22 23  1  0  0  0  0
 23 24  1  6  0  0  0
 23 46  1  0  0  0  0
 24 33  1  0  0  0  0
 25 34  1  1  0  0  0
 25  4  1  0  0  0  0
 26 25  1  0  0  0  0
 27 35  1  1  0  0  0
 27 26  1  0  0  0  0
 27  2  1  0  0  0  0
 29 16  1  0  0  0  0
 40  8  1  0  0  0  0
 40  5  1  0  0  0  0
 41  9  1  0  0  0  0
 44 18  2  0  0  0  0
 45 15  1  0  0  0  0
 45 10  1  0  0  0  0
 46  1  1  0  0  0  0
M  END
>  <CHROM.1>
-175.77071709,69.28377087,-73.27128437,179.93227986,175.35650451,62.47278898
-173.66841562,-64.45373544,-178.05163960,79.99273853,163.90172271,67.63095588
138.72179743,13.09061402,-16.92535478,6.40500077,-0.79842462,0.19195997,2.49504046

>  <Name>
lig.pdb

>  <RI>
0

>  <Rbt.Current_Directory>
/home/afrankz/demos/rdock_decoys_rna/rnas/3wru

>  <Rbt.Executable>
rbdock ($Id: //depot/dev/client3/rdock/2013.1/src/exe/rbdock.cxx#4 $)

>  <Rbt.Library>
libRbt.so (2013.1, Build901 2013/11/27)

>  <Rbt.Parameter_File>
/export/apps/rDock/src/rDock_2013.1_src/data/scripts/dock_solv.prm

>  <Rbt.Receptor>
prm/pocket_docking_8.prm

>  <SCORE>
-4.50417

>  <SCORE.INTER>
3.1002

>  <SCORE.INTER.CONST>
1

>  <SCORE.INTER.POLAR>
0

>  <SCORE.INTER.ROT>
13

>  <SCORE.INTER.SOLV>
18.4514

>  <SCORE.INTER.VDW>
-16.3503

>  <SCORE.INTER.norm>
0.0673957

>  <SCORE.INTRA>
-7.60438

>  <SCORE.INTRA.DIHEDRAL>
-14.5915

>  <SCORE.INTRA.DIHEDRAL.0>
19.7146

>  <SCORE.INTRA.POLAR>
0

>  <SCORE.INTRA.POLAR.0>
0

>  <SCORE.INTRA.REPUL>
0

>  <SCORE.INTRA.REPUL.0>
0

>  <SCORE.INTRA.SOLV>
-0.794049

>  <SCORE.INTRA.SOLV.lig_0>
-116.697

>  <SCORE.INTRA.VDW>
0.0883929

>  <SCORE.INTRA.VDW.0>
-7.06424

>  <SCORE.INTRA.norm>
-0.165313

>  <SCORE.RESTR>
0

>  <SCORE.RESTR.CAVITY>
0

>  <SCORE.RESTR.norm>
0

>  <SCORE.SYSTEM>
0

>  <SCORE.SYSTEM.CONST>
0

>  <SCORE.SYSTEM.DIHEDRAL>
0

>  <SCORE.SYSTEM.SOLV>
0

>  <SCORE.SYSTEM.norm>
0

>  <SCORE.heavy>
46

>  <SCORE.norm>
-0.0979168

>  <RMSD>
9.416

$$$$
lig.pdb
 OpenBabel03061811583D
libRbt.so/2013.1/901 2013/11/27
 46 49  0  0  0  0  0  0  0  0999 V2000
    9.3495  -19.1431    6.8925 C   0  0  1  0  0  0  0  0  0  0  0  0
    9.3431  -18.3100    9.2828 C   0  0  1  0  0  0  0  0  0  0  0  0
    7.8278  -18.2255    9.6381 C   0  0  1  0  0  0  0  0  0  0  0  0
    7.6247  -17.1175   10.7932 C   0  0  2  0  0  0  0  0  0  0  0  0
    7.3630  -16.8469    7.5593 C   0  0  2  0  0  0  0  0  0  0  0  0
    6.0772  -16.1507    7.0295 C   0  0  1  0  0  0  0  0  0  0  0  0
    6.6817  -14.8013    6.7252 C   0  0  1  0  0  0  0  0  0  0  0  0
    7.5459  -14.4613    7.9808 C   0  0  1  0  0  0  0  0  0  0  0  0
    6.7929  -13.8537    9.2160 C   0  0  0  0  0  0  0  0  0  0  0  0
    8.0372  -13.7321    4.9636 C   0  0  1  0  0  0  0  0  0  0  0  0
    8.6143  -13.8573    3.5851 C   0  0  1  0  0  0  0  0  0  0  0  0
    9.4766  -20.4946    6.1506 C   0  0  1  0  0  0  0  0  0  0  0  0
    9.1934  -12.4617    3.1591 C   0  0  0  0  0  0  0  0  0  0  0  0
   10.2353  -11.9593    4.0081 C   0  0  0  0  0  0  0  0  0  0  0  0
    9.7043  -11.7912    5.3441 C   0  0  2  0  0  0  0  0  0  0  0  0
   10.8118  -11.2470    6.3301 C   0  0  0  0  0  0  0  0  0  0  0  0
    9.3681  -14.3156   14.8024 C   0  0  2  0  0  0  0  0  0  0  0  0
    8.4064  -15.2022   12.8423 C   0  0  0  0  0  0  0  0  0  0  0  0
   10.1661  -13.3419   14.2320 C   0  0  0  0  0  0  0  0  0  0  0  0
    8.1694  -14.3251   14.1681 C   0  0  1  0  0  0  0  0  0  0  0  0
   10.9756  -21.0401    6.2060 C   0  0  0  0  0  0  0  0  0  0  0  0
   11.9354  -19.9359    5.5488 C   0  0  0  0  0  0  0  0  0  0  0  0
   11.7722  -18.5825    6.3840 C   0  0  1  0  0  0  0  0  0  0  0  0
   12.6463  -17.4547    5.8224 C   0  0  0  0  0  0  0  0  0  0  0  0
    8.4171  -17.6010   12.0851 C   0  0  1  0  0  0  0  0  0  0  0  0
    9.9810  -17.6463   11.6630 C   0  0  0  0  0  0  0  0  0  0  0  0
   10.1978  -18.7039   10.5130 C   0  0  2  0  0  0  0  0  0  0  0  0
    9.2562  -14.0767   16.2237 F   0  0  0  0  0  0  0  0  0  0  0  0
   12.0343  -12.2002    6.4609 N   0  0  0  0  0  0  0  0  0  0  0  0
    8.4946  -21.4625    6.7656 N   0  0  0  0  0  0  0  0  0  0  0  0
    9.6877  -14.7476    3.4926 N   0  0  0  0  0  0  0  0  0  0  0  0
   11.5108  -12.9744   14.4730 N   0  0  0  0  0  0  0  0  0  0  0  0
   14.0156  -17.7848    5.9056 N   0  0  0  0  0  0  0  0  0  0  0  0
    8.2460  -16.6200   13.1718 N   0  0  0  0  0  0  0  0  0  0  0  0
   11.6204  -18.7472   10.1082 N   0  0  0  0  0  0  0  0  0  0  0  0
    9.5668  -19.3070    8.2943 O   0  0  0  0  0  0  0  0  0  0  0  0
    7.1093  -17.8402    8.3778 O   0  0  0  0  0  0  0  0  0  0  0  0
    6.2810  -17.0624   11.0889 O   0  0  0  0  0  0  0  0  0  0  0  0
    5.6358  -16.8458    5.9029 O   0  0  0  0  0  0  0  0  0  0  0  0
    8.1665  -15.7500    8.1217 O   0  0  0  0  0  0  0  0  0  0  0  0
    5.8130  -14.8218    9.6410 O   0  0  0  0  0  0  0  0  0  0  0  0
    7.5366  -14.9095    5.4754 O   0  0  0  0  0  0  0  0  0  0  0  0
    7.1157  -14.9158   14.9599 O   0  0  0  0  0  0  0  0  0  0  0  0
    8.6674  -14.7328   11.7224 O   0  0  0  0  0  0  0  0  0  0  0  0
    9.1348  -13.0952    5.8510 O   0  0  0  0  0  0  0  0  0  0  0  0
   10.3209  -18.1317    6.3546 O   0  0  0  0  0  0  0  0  0  0  0  0
  1 36  1  1  0  0  0
  2 36  1  6  0  0  0
  2  3  1  0  0  0  0
  3 37  1  6  0  0  0
  3  4  1  0  0  0  0
  4 38  1  1  0  0  0
  5 37  1  1  0  0  0
  5  6  1  0  0  0  0
  6  7  1  0  0  0  0
  6 39  1  6  0  0  0
  7 42  1  6  0  0  0
  8  9  1  1  0  0  0
  8  7  1  0  0  0  0
 10 42  1  1  0  0  0
 10 11  1  0  0  0  0
 11 31  1  1  0  0  0
 11 13  1  0  0  0  0
 12 30  1  1  0  0  0
 12  1  1  0  0  0  0
 14 13  1  0  0  0  0
 15 16  1  1  0  0  0
 15 14  1  0  0  0  0
 17 19  1  6  0  0  0
 17 28  1  0  0  0  0
 18 34  1  0  0  0  0
 19 32  1  0  0  0  0
 20 18  1  6  0  0  0
 20 17  1  0  0  0  0
 20 43  1  0  0  0  0
 21 12  1  0  0  0  0
 22 21  1  0  0  0  0
 22 23  1  0  0  0  0
 23 24  1  6  0  0  0
 23 46  1  0  0  0  0
 24 33  1  0  0  0  0
 25 34  1  1  0  0  0
 25  4  1  0  0  0  0
 26 25  1  0  0  0  0
 27 35  1  6  0  0  0
 27 26  1  0  0  0  0
 27  2  1  0  0  0  0
 29 16  1  0  0  0  0
 40  8  1  0  0  0  0
 40  5  1  0  0  0  0
 41  9  1  0  0  0  0
 44 18  2  0  0  0  0
 45 15  1  0  0  0  0
 45 10  1  0  0  0  0
 46  1  1  0  0  0  0
M  END
>  <CHROM.1>
-170.80561097,80.02493638,-51.08860517,-140.22234834,172.53224088,60.43991465
-167.40426980,-60.50429096,-176.31236105,84.57572177,82.16429807,-62.44740439
-45.83802768,9.03652581,-16.03851145,8.64601857,-0.82972210,-1.39302761,2.20636464

>  <Name>
lig.pdb

>  <RI>
0

>  <Rbt.Current_Directory>
/home/afrankz/demos/rdock_decoys_rna/rnas/3wru

>  <Rbt.Executable>
rbdock ($Id: //depot/dev/client3/rdock/2013.1/src/exe/rbdock.cxx#4 $)

>  <Rbt.Library>
libRbt.so (2013.1, Build901 2013/11/27)

>  <Rbt.Parameter_File>
/export/apps/rDock/src/rDock_2013.1_src/data/scripts/dock_solv.prm

>  <Rbt.Receptor>
prm/pocket_docking_8.prm

>  <SCORE>
-4.31554

>  <SCORE.INTER>
-1.49245

>  <SCORE.INTER.CONST>
1

>  <SCORE.INTER.POLAR>
0

>  <SCORE.INTER.ROT>
13

>  <SCORE.INTER.SOLV>
21.0312

>  <SCORE.INTER.VDW>
-20.272

>  <SCORE.INTER.norm>
-0.0324446

>  <SCORE.INTRA>
-2.82309

>  <SCORE.INTRA.DIHEDRAL>
-7.49966

>  <SCORE.INTRA.DIHEDRAL.0>
19.7146

>  <SCORE.INTRA.POLAR>
0

>  <SCORE.INTRA.POLAR.0>
0

>  <SCORE.INTRA.REPUL>
0.0300549

>  <SCORE.INTRA.REPUL.0>
0

>  <SCORE.INTRA.SOLV>
0.516538

>  <SCORE.INTRA.SOLV.lig_0>
-116.697

>  <SCORE.INTRA.VDW>
0.518195

>  <SCORE.INTRA.VDW.0>
-7.06424

>  <SCORE.INTRA.norm>
-0.0613716

>  <SCORE.RESTR>
0

>  <SCORE.RESTR.CAVITY>
0

>  <SCORE.RESTR.norm>
0

>  <SCORE.SYSTEM>
0

>  <SCORE.SYSTEM.CONST>
0

>  <SCORE.SYSTEM.DIHEDRAL>
0

>  <SCORE.SYSTEM.SOLV>
0

>  <SCORE.SYSTEM.norm>
0

>  <SCORE.heavy>
46

>  <SCORE.norm>
-0.0938162

>  <RMSD>
9.435

$$$$
lig.pdb
 OpenBabel03061811583D
libRbt.so/2013.1/901 2013/11/27
 46 49  0  0  0  0  0  0  0  0999 V2000
   11.0351  -13.7167   11.4580 C   0  0  1  0  0  0  0  0  0  0  0  0
   10.1289  -13.2463    9.1416 C   0  0  1  0  0  0  0  0  0  0  0  0
   11.3055  -13.7719    8.2645 C   0  0  1  0  0  0  0  0  0  0  0  0
   11.2693  -13.0179    6.8387 C   0  0  2  0  0  0  0  0  0  0  0  0
   13.8125  -13.6780    8.6439 C   0  0  2  0  0  0  0  0  0  0  0  0
   14.8462  -12.9293    9.5325 C   0  0  1  0  0  0  0  0  0  0  0  0
   16.0250  -13.8416    9.2937 C   0  0  1  0  0  0  0  0  0  0  0  0
   15.4479  -15.2846    9.4481 C   0  0  1  0  0  0  0  0  0  0  0  0
   15.3057  -15.8384   10.9092 C   0  0  0  0  0  0  0  0  0  0  0  0
   17.4140  -12.5349    7.7295 C   0  0  1  0  0  0  0  0  0  0  0  0
   17.6623  -12.1603    6.2987 C   0  0  1  0  0  0  0  0  0  0  0  0
   10.7945  -14.7279   12.6038 C   0  0  1  0  0  0  0  0  0  0  0  0
   18.6885  -10.9728    6.2657 C   0  0  0  0  0  0  0  0  0  0  0  0
   19.9648  -11.2654    6.8523 C   0  0  0  0  0  0  0  0  0  0  0  0
   19.7688  -11.5978    8.2473 C   0  0  2  0  0  0  0  0  0  0  0  0
   21.1430  -11.9399    8.9471 C   0  0  0  0  0  0  0  0  0  0  0  0
    9.9426   -9.4505    3.2953 C   0  0  2  0  0  0  0  0  0  0  0  0
   10.1487  -11.3015    4.7390 C   0  0  0  0  0  0  0  0  0  0  0  0
   11.2226   -8.9366    3.3822 C   0  0  0  0  0  0  0  0  0  0  0  0
   10.0188  -10.8023    3.2168 C   0  0  1  0  0  0  0  0  0  0  0  0
    9.3917  -14.4622   13.3176 C   0  0  0  0  0  0  0  0  0  0  0  0
    9.3895  -12.9580   13.8741 C   0  0  0  0  0  0  0  0  0  0  0  0
    9.6124  -11.9743   12.6337 C   0  0  1  0  0  0  0  0  0  0  0  0
    9.6382  -10.5037   13.0673 C   0  0  0  0  0  0  0  0  0  0  0  0
    9.9006  -13.3904    6.1184 C   0  0  1  0  0  0  0  0  0  0  0  0
    8.7213  -12.8004    7.0602 C   0  0  0  0  0  0  0  0  0  0  0  0
    8.7566  -13.5041    8.4714 C   0  0  2  0  0  0  0  0  0  0  0  0
    9.2583   -8.8544    2.1700 F   0  0  0  0  0  0  0  0  0  0  0  0
   21.9178  -13.0897    8.2415 N   0  0  0  0  0  0  0  0  0  0  0  0
   10.8867  -16.1207   12.0285 N   0  0  0  0  0  0  0  0  0  0  0  0
   18.2452  -13.1750    5.5344 N   0  0  0  0  0  0  0  0  0  0  0  0
   11.6939   -7.6042    3.4454 N   0  0  0  0  0  0  0  0  0  0  0  0
    9.4588   -9.6455   11.9617 N   0  0  0  0  0  0  0  0  0  0  0  0
    9.8335  -12.7302    4.8023 N   0  0  0  0  0  0  0  0  0  0  0  0
    7.6922  -12.9659    9.3472 N   0  0  0  0  0  0  0  0  0  0  0  0
   10.1041  -13.9186   10.3941 O   0  0  0  0  0  0  0  0  0  0  0  0
   12.5710  -13.4682    9.0123 O   0  0  0  0  0  0  0  0  0  0  0  0
   12.3157  -13.4989    6.0840 O   0  0  0  0  0  0  0  0  0  0  0  0
   15.0092  -11.6405    9.0230 O   0  0  0  0  0  0  0  0  0  0  0  0
   14.2550  -15.0810    8.6726 O   0  0  0  0  0  0  0  0  0  0  0  0
   14.4484  -14.9319   11.6312 O   0  0  0  0  0  0  0  0  0  0  0  0
   16.5616  -13.6050    7.8935 O   0  0  0  0  0  0  0  0  0  0  0  0
    8.8536  -11.3995    2.6070 O   0  0  0  0  0  0  0  0  0  0  0  0
   10.4804  -10.5790    5.6932 O   0  0  0  0  0  0  0  0  0  0  0  0
   18.8018  -12.7504    8.3818 O   0  0  0  0  0  0  0  0  0  0  0  0
   10.9290  -12.3009   11.9482 O   0  0  0  0  0  0  0  0  0  0  0  0
  1 36  1  6  0  0  0
  2 36  1  1  0  0  0
  2  3  1  0  0  0  0
  3 37  1  1  0  0  0
  3  4  1  0  0  0  0
  4 38  1  6  0  0  0
  5 37  1  1  0  0  0
  5  6  1  0  0  0  0
  6  7  1  0  0  0  0
  6 39  1  6  0  0  0
  7 42  1  6  0  0  0
  8  9  1  1  0  0  0
  8  7  1  0  0  0  0
 10 42  1  6  0  0  0
 10 11  1  0  0  0  0
 11 31  1  6  0  0  0
 11 13  1  0  0  0  0
 12 30  1  6  0  0  0
 12  1  1  0  0  0  0
 14 13  1  0  0  0  0
 15 16  1  6  0  0  0
 15 14  1  0  0  0  0
 17 19  1  6  0  0  0
 17 28  1  0  0  0  0
 18 34  1  0  0  0  0
 19 32  1  0  0  0  0
 20 18  1  1  0  0  0
 20 17  1  0  0  0  0
 20 43  1  0  0  0  0
 21 12  1  0  0  0  0
 22 21  1  0  0  0  0
 22 23  1  0  0  0  0
 23 24  1  1  0  0  0
 23 46  1  0  0  0  0
 24 33  1  0  0  0  0
 25 34  1  6  0  0  0
 25  4  1  0  0  0  0
 26 25  1  0  0  0  0
 27 35  1  1  0  0  0
 27 26  1  0  0  0  0
 27  2  1  0  0  0  0
 29 16  1  0  0  0  0
 40  8  1  0  0  0  0
 40  5  1  0  0  0  0
 41  9  1  0  0  0  0
 44 18  2  0  0  0  0
 45 15  1  0  0  0  0
 45 10  1  0  0  0  0
 46  1  1  0  0  0  0
M  END
>  <CHROM.1>
-173.72620178,72.71180540,-177.08817815,166.32504694,82.18048540,58.37970565
-166.77343761,-56.35771811,177.95019530,163.04069240,83.56493937,-163.53867484
-48.49591254,12.91784930,-12.54592133,8.19386015,3.07364593,0.07238883,-1.16150664

>  <Name>
lig.pdb

>  <RI>
0

>  <Rbt.Current_Directory>
/home/afrankz/demos/rdock_decoys_rna/rnas/3wru

>  <Rbt.Executable>
rbdock ($Id: //depot/dev/client3/rdock/2013.1/src/exe/rbdock.cxx#4 $)

>  <Rbt.Library>
libRbt.so (2013.1, Build901 2013/11/27)

>  <Rbt.Parameter_File>
/export/apps/rDock/src/rDock_2013.1_src/data/scripts/dock_solv.prm

>  <Rbt.Receptor>
prm/pocket_docking_5.prm

>  <SCORE>
-8.72391

>  <SCORE.INTER>
-5.49283

>  <SCORE.INTER.CONST>
1

>  <SCORE.INTER.POLAR>
0

>  <SCORE.INTER.ROT>
13

>  <SCORE.INTER.SOLV>
19.695

>  <SCORE.INTER.VDW>
-22.4935

>  <SCORE.INTER.norm>
-0.119409

>  <SCORE.INTRA>
-3.23109

>  <SCORE.INTRA.DIHEDRAL>
-10.8652

>  <SCORE.INTRA.DIHEDRAL.0>
19.7146

>  <SCORE.INTRA.POLAR>
0

>  <SCORE.INTRA.POLAR.0>
0

>  <SCORE.INTRA.REPUL>
0

>  <SCORE.INTRA.REPUL.0>
0

>  <SCORE.INTRA.SOLV>
-0.865556

>  <SCORE.INTRA.SOLV.lig_0>
-116.697

>  <SCORE.INTRA.VDW>
2.63431

>  <SCORE.INTRA.VDW.0>
-7.06424

>  <SCORE.INTRA.norm>
-0.070241

>  <SCORE.RESTR>
0

>  <SCORE.RESTR.CAVITY>
0

>  <SCORE.RESTR.norm>
0

>  <SCORE.SYSTEM>
0

>  <SCORE.SYSTEM.CONST>
0

>  <SCORE.SYSTEM.DIHEDRAL>
0

>  <SCORE.SYSTEM.SOLV>
0

>  <SCORE.SYSTEM.norm>
0

>  <SCORE.heavy>
46

>  <SCORE.norm>
-0.18965

>  <RMSD>
9.447

$$$$
lig.pdb
 OpenBabel03061811583D
libRbt.so/2013.1/901 2013/11/27
 46 49  0  0  0  0  0  0  0  0999 V2000
   11.6127  -19.4489    9.4461 C   0  0  1  0  0  0  0  0  0  0  0  0
   10.4424  -17.3034   10.1057 C   0  0  1  0  0  0  0  0  0  0  0  0
    8.9753  -16.7845   10.1957 C   0  0  1  0  0  0  0  0  0  0  0  0
    9.0002  -15.2119   10.5551 C   0  0  2  0  0  0  0  0  0  0  0  0
    8.7103  -16.5678    7.6816 C   0  0  2  0  0  0  0  0  0  0  0  0
    7.8164  -17.0868    6.5196 C   0  0  1  0  0  0  0  0  0  0  0  0
    8.0507  -15.9506    5.5536 C   0  0  1  0  0  0  0  0  0  0  0  0
    7.9000  -14.6581    6.4172 C   0  0  1  0  0  0  0  0  0  0  0  0
    6.4400  -14.1458    6.6774 C   0  0  0  0  0  0  0  0  0  0  0  0
    9.7246  -15.3073    3.8601 C   0  0  1  0  0  0  0  0  0  0  0  0
   11.1018  -15.5097    3.3022 C   0  0  1  0  0  0  0  0  0  0  0  0
   12.0927  -19.0437    8.0324 C   0  0  1  0  0  0  0  0  0  0  0  0
   11.2923  -14.5401    2.0824 C   0  0  0  0  0  0  0  0  0  0  0  0
   11.1660  -13.1461    2.3978 C   0  0  0  0  0  0  0  0  0  0  0  0
    9.8330  -12.9048    2.9076 C   0  0  2  0  0  0  0  0  0  0  0  0
    9.6362  -11.3831    3.2824 C   0  0  0  0  0  0  0  0  0  0  0  0
    8.9276  -11.0426   12.4061 C   0  0  2  0  0  0  0  0  0  0  0  0
   10.2977  -12.6749   11.4004 C   0  0  0  0  0  0  0  0  0  0  0  0
    8.8523   -9.9857   13.2934 C   0  0  0  0  0  0  0  0  0  0  0  0
   10.2164  -11.1902   12.0106 C   0  0  1  0  0  0  0  0  0  0  0  0
   11.0239  -19.4611    6.9227 C   0  0  0  0  0  0  0  0  0  0  0  0
   10.7975  -21.0462    7.0160 C   0  0  0  0  0  0  0  0  0  0  0  0
   10.2757  -21.3826    8.4892 C   0  0  1  0  0  0  0  0  0  0  0  0
   10.0398  -22.8853    8.6833 C   0  0  0  0  0  0  0  0  0  0  0  0
    9.6811  -15.0430   11.9830 C   0  0  1  0  0  0  0  0  0  0  0  0
   11.2035  -15.5741   11.8212 C   0  0  0  0  0  0  0  0  0  0  0  0
   11.2021  -17.1049   11.4407 C   0  0  2  0  0  0  0  0  0  0  0  0
    8.0189  -10.8146   11.3053 F   0  0  0  0  0  0  0  0  0  0  0  0
   10.6619  -10.8763    4.3366 N   0  0  0  0  0  0  0  0  0  0  0  0
   12.3611  -17.5580    8.0351 N   0  0  0  0  0  0  0  0  0  0  0  0
   12.1321  -15.1926    4.1919 N   0  0  0  0  0  0  0  0  0  0  0  0
    9.0393   -8.5953   13.1109 N   0  0  0  0  0  0  0  0  0  0  0  0
    9.0687  -23.3672    7.7801 N   0  0  0  0  0  0  0  0  0  0  0  0
    9.7116  -13.6174   12.3558 N   0  0  0  0  0  0  0  0  0  0  0  0
   12.5865  -17.6009   11.2773 N   0  0  0  0  0  0  0  0  0  0  0  0
   10.4602  -18.6979    9.8295 O   0  0  0  0  0  0  0  0  0  0  0  0
    8.3473  -17.0296    8.8547 O   0  0  0  0  0  0  0  0  0  0  0  0
    7.6953  -14.7787   10.6293 O   0  0  0  0  0  0  0  0  0  0  0  0
    8.3242  -18.3141    6.0915 O   0  0  0  0  0  0  0  0  0  0  0  0
    8.6807  -15.1036    7.5387 O   0  0  0  0  0  0  0  0  0  0  0  0
    5.8150  -13.9574    5.3921 O   0  0  0  0  0  0  0  0  0  0  0  0
    9.4482  -16.0710    4.9733 O   0  0  0  0  0  0  0  0  0  0  0  0
   10.6133  -10.2298   11.0074 O   0  0  0  0  0  0  0  0  0  0  0  0
   10.7712  -12.9559   10.2871 O   0  0  0  0  0  0  0  0  0  0  0  0
    9.5602  -13.7869    4.1031 O   0  0  0  0  0  0  0  0  0  0  0  0
   11.2950  -20.9153    9.5153 O   0  0  0  0  0  0  0  0  0  0  0  0
  1 36  1  6  0  0  0
  2 36  1  1  0  0  0
  2  3  1  0  0  0  0
  3 37  1  6  0  0  0
  3  4  1  0  0  0  0
  4 38  1  1  0  0  0
  5 37  1  1  0  0  0
  5  6  1  0  0  0  0
  6  7  1  0  0  0  0
  6 39  1  6  0  0  0
  7 42  1  1  0  0  0
  8  9  1  1  0  0  0
  8  7  1  0  0  0  0
 10 42  1  1  0  0  0
 10 11  1  0  0  0  0
 11 31  1  1  0  0  0
 11 13  1  0  0  0  0
 12 30  1  1  0  0  0
 12  1  1  0  0  0  0
 14 13  1  0  0  0  0
 15 16  1  1  0  0  0
 15 14  1  0  0  0  0
 17 19  1  1  0  0  0
 17 28  1  0  0  0  0
 18 34  1  0  0  0  0
 19 32  1  0  0  0  0
 20 18  1  6  0  0  0
 20 17  1  0  0  0  0
 20 43  1  0  0  0  0
 21 12  1  0  0  0  0
 22 21  1  0  0  0  0
 22 23  1  0  0  0  0
 23 24  1  6  0  0  0
 23 46  1  0  0  0  0
 24 33  1  0  0  0  0
 25 34  1  6  0  0  0
 25  4  1  0  0  0  0
 26 25  1  0  0  0  0
 27 35  1  6  0  0  0
 27 26  1  0  0  0  0
 27  2  1  0  0  0  0
 29 16  1  0  0  0  0
 40  8  1  0  0  0  0
 40  5  1  0  0  0  0
 41  9  1  0  0  0  0
 44 18  2  0  0  0  0
 45 15  1  0  0  0  0
 45 10  1  0  0  0  0
 46  1  1  0  0  0  0
M  END
>  <CHROM.1>
-68.24110458,168.12012820,-59.87301201,178.48443064,165.71273032,-55.87447219
-177.72484809,-57.98778113,67.69173129,-50.13098503,161.97137230,-60.40757251
-52.77486192,9.76796849,-15.52588787,8.16018030,-0.56465588,-1.43881476,1.42232026

>  <Name>
lig.pdb

>  <RI>
0

>  <Rbt.Current_Directory>
/home/afrankz/demos/rdock_decoys_rna/rnas/3wru

>  <Rbt.Executable>
rbdock ($Id: //depot/dev/client3/rdock/2013.1/src/exe/rbdock.cxx#4 $)

>  <Rbt.Library>
libRbt.so (2013.1, Build901 2013/11/27)

>  <Rbt.Parameter_File>
/export/apps/rDock/src/rDock_2013.1_src/data/scripts/dock_solv.prm

>  <Rbt.Receptor>
prm/pocket_docking_8.prm

>  <SCORE>
-4.41461

>  <SCORE.INTER>
-0.689423

>  <SCORE.INTER.CONST>
1

>  <SCORE.INTER.POLAR>
0

>  <SCORE.INTER.ROT>
13

>  <SCORE.INTER.SOLV>
19.8764

>  <SCORE.INTER.VDW>
-19.3518

>  <SCORE.INTER.norm>
-0.0149875

>  <SCORE.INTRA>
-3.72519

>  <SCORE.INTRA.DIHEDRAL>
-15.2734

>  <SCORE.INTRA.DIHEDRAL.0>
19.7146

>  <SCORE.INTRA.POLAR>
0

>  <SCORE.INTRA.POLAR.0>
0

>  <SCORE.INTRA.REPUL>
0.0255835

>  <SCORE.INTRA.REPUL.0>
0

>  <SCORE.INTRA.SOLV>
4.19014

>  <SCORE.INTRA.SOLV.lig_0>
-116.697

>  <SCORE.INTRA.VDW>
1.68851

>  <SCORE.INTRA.VDW.0>
-7.06424

>  <SCORE.INTRA.norm>
-0.0809824

>  <SCORE.RESTR>
0

>  <SCORE.RESTR.CAVITY>
0

>  <SCORE.RESTR.norm>
0

>  <SCORE.SYSTEM>
0

>  <SCORE.SYSTEM.CONST>
0

>  <SCORE.SYSTEM.DIHEDRAL>
0

>  <SCORE.SYSTEM.SOLV>
0

>  <SCORE.SYSTEM.norm>
0

>  <SCORE.heavy>
46

>  <SCORE.norm>
-0.0959698

>  <RMSD>
9.461

$$$$
lig.pdb
 OpenBabel03061811583D
libRbt.so/2013.1/901 2013/11/27
 46 49  0  0  0  0  0  0  0  0999 V2000
    9.4396  -20.4366   10.7615 C   0  0  1  0  0  0  0  0  0  0  0  0
    9.0656  -19.4896    8.4439 C   0  0  1  0  0  0  0  0  0  0  0  0
   10.5728  -19.3081    8.0903 C   0  0  1  0  0  0  0  0  0  0  0  0
   10.7048  -18.1961    6.9288 C   0  0  2  0  0  0  0  0  0  0  0  0
   11.2711  -17.6827    9.9092 C   0  0  2  0  0  0  0  0  0  0  0  0
   12.0913  -17.6388   11.2298 C   0  0  1  0  0  0  0  0  0  0  0  0
   12.4255  -16.1666   11.2181 C   0  0  1  0  0  0  0  0  0  0  0  0
   12.8884  -15.8763    9.7550 C   0  0  1  0  0  0  0  0  0  0  0  0
   14.3765  -16.2246    9.4002 C   0  0  0  0  0  0  0  0  0  0  0  0
   11.2550  -14.0046   11.4164 C   0  0  1  0  0  0  0  0  0  0  0  0
   10.1193  -13.2519   12.0429 C   0  0  1  0  0  0  0  0  0  0  0  0
    9.0843  -21.7149   11.5572 C   0  0  1  0  0  0  0  0  0  0  0  0
   10.3037  -11.7240   11.7336 C   0  0  0  0  0  0  0  0  0  0  0  0
   10.3115  -11.3904   10.3381 C   0  0  0  0  0  0  0  0  0  0  0  0
   11.4195  -12.0726    9.7043 C   0  0  2  0  0  0  0  0  0  0  0  0
   11.4746  -11.7502    8.1590 C   0  0  0  0  0  0  0  0  0  0  0  0
   11.1416  -15.3940    3.3577 C   0  0  2  0  0  0  0  0  0  0  0  0
    9.5714  -16.3965    4.8007 C   0  0  0  0  0  0  0  0  0  0  0  0
   11.4302  -14.8400    2.1249 C   0  0  0  0  0  0  0  0  0  0  0  0
    9.7957  -15.5036    3.4833 C   0  0  1  0  0  0  0  0  0  0  0  0
    7.5129  -21.8067   11.8222 C   0  0  0  0  0  0  0  0  0  0  0  0
    7.0620  -20.4924   12.6231 C   0  0  0  0  0  0  0  0  0  0  0  0
    7.4328  -19.2201   11.7288 C   0  0  1  0  0  0  0  0  0  0  0  0
    7.0496  -17.9050   12.4180 C   0  0  0  0  0  0  0  0  0  0  0  0
    9.9481  -18.7382    5.6387 C   0  0  1  0  0  0  0  0  0  0  0  0
    8.3898  -18.8835    6.0589 C   0  0  0  0  0  0  0  0  0  0  0  0
    8.2407  -19.9461    7.2150 C   0  0  2  0  0  0  0  0  0  0  0  0
   11.7454  -14.5944    4.3996 F   0  0  0  0  0  0  0  0  0  0  0  0
   10.2197  -12.2486    7.3862 N   0  0  0  0  0  0  0  0  0  0  0  0
    9.6034  -22.9063   10.7888 N   0  0  0  0  0  0  0  0  0  0  0  0
    8.8614  -13.5841   11.5320 N   0  0  0  0  0  0  0  0  0  0  0  0
   12.6627  -14.5833    1.4796 N   0  0  0  0  0  0  0  0  0  0  0  0
    5.6570  -17.8320   12.6332 N   0  0  0  0  0  0  0  0  0  0  0  0
   10.0565  -17.7546    4.5464 N   0  0  0  0  0  0  0  0  0  0  0  0
    6.8234  -20.0802    7.6180 N   0  0  0  0  0  0  0  0  0  0  0  0
    8.9060  -20.4933    9.4382 O   0  0  0  0  0  0  0  0  0  0  0  0
   11.2621  -18.8690    9.3492 O   0  0  0  0  0  0  0  0  0  0  0  0
   12.0426  -18.0548    6.6346 O   0  0  0  0  0  0  0  0  0  0  0  0
   11.2549  -18.0261   12.2775 O   0  0  0  0  0  0  0  0  0  0  0  0
   11.8379  -16.5987    9.0913 O   0  0  0  0  0  0  0  0  0  0  0  0
   14.6125  -15.7780    8.0501 O   0  0  0  0  0  0  0  0  0  0  0  0
   11.1828  -15.3715   11.5755 O   0  0  0  0  0  0  0  0  0  0  0  0
    9.1372  -14.2279    3.6426 O   0  0  0  0  0  0  0  0  0  0  0  0
    9.0781  -15.9788    5.8613 O   0  0  0  0  0  0  0  0  0  0  0  0
   11.3198  -13.5623    9.9339 O   0  0  0  0  0  0  0  0  0  0  0  0
    8.9270  -19.2045   11.4509 O   0  0  0  0  0  0  0  0  0  0  0  0
  1 36  1  6  0  0  0
  2 36  1  1  0  0  0
  2  3  1  0  0  0  0
  3 37  1  1  0  0  0
  3  4  1  0  0  0  0
  4 38  1  6  0  0  0
  5 37  1  6  0  0  0
  5  6  1  0  0  0  0
  6  7  1  0  0  0  0
  6 39  1  1  0  0  0
  7 42  1  6  0  0  0
  8  9  1  1  0  0  0
  8  7  1  0  0  0  0
 10 42  1  6  0  0  0
 10 11  1  0  0  0  0
 11 31  1  6  0  0  0
 11 13  1  0  0  0  0
 12 30  1  6  0  0  0
 12  1  1  0  0  0  0
 14 13  1  0  0  0  0
 15 16  1  6  0  0  0
 15 14  1  0  0  0  0
 17 19  1  6  0  0  0
 17 28  1  0  0  0  0
 18 34  1  0  0  0  0
 19 32  1  0  0  0  0
 20 18  1  1  0  0  0
 20 17  1  0  0  0  0
 20 43  1  0  0  0  0
 21 12  1  0  0  0  0
 22 21  1  0  0  0  0
 22 23  1  0  0  0  0
 23 24  1  1  0  0  0
 23 46  1  0  0  0  0
 24 33  1  0  0  0  0
 25 34  1  6  0  0  0
 25  4  1  0  0  0  0
 26 25  1  0  0  0  0
 27 35  1  1  0  0  0
 27 26  1  0  0  0  0
 27  2  1  0  0  0  0
 29 16  1  0  0  0  0
 40  8  1  0  0  0  0
 40  5  1  0  0  0  0
 41  9  1  0  0  0  0
 44 18  2  0  0  0  0
 45 15  1  0  0  0  0
 45 10  1  0  0  0  0
 46  1  1  0  0  0  0
M  END
>  <CHROM.1>
-179.10665702,62.10641093,-77.24003266,179.08874087,-170.53862799,-175.37429443
-168.00743676,-62.99324636,-176.20048300,-67.14078702,169.67035921,-61.94104687
-56.71078757,10.23871936,-16.83910284,8.66536297,2.58465725,1.19624937,1.30996250

>  <Name>
lig.pdb

>  <RI>
0

>  <Rbt.Current_Directory>
/home/afrankz/demos/rdock_decoys_rna/rnas/3wru

>  <Rbt.Executable>
rbdock ($Id: //depot/dev/client3/rdock/2013.1/src/exe/rbdock.cxx#4 $)

>  <Rbt.Library>
libRbt.so (2013.1, Build901 2013/11/27)

>  <Rbt.Parameter_File>
/export/apps/rDock/src/rDock_2013.1_src/data/scripts/dock_solv.prm

>  <Rbt.Receptor>
prm/pocket_docking_7.prm

>  <SCORE>
2.14094

>  <SCORE.INTER>
9.24822

>  <SCORE.INTER.CONST>
1

>  <SCORE.INTER.POLAR>
0

>  <SCORE.INTER.ROT>
13

>  <SCORE.INTER.SOLV>
13.6108

>  <SCORE.INTER.VDW>
-10.6381

>  <SCORE.INTER.norm>
0.201048

>  <SCORE.INTRA>
-7.10727

>  <SCORE.INTRA.DIHEDRAL>
-15.5565

>  <SCORE.INTRA.DIHEDRAL.0>
19.7146

>  <SCORE.INTRA.POLAR>
0

>  <SCORE.INTRA.POLAR.0>
0

>  <SCORE.INTRA.REPUL>
0.000638577

>  <SCORE.INTRA.REPUL.0>
0

>  <SCORE.INTRA.SOLV>
-1.49441

>  <SCORE.INTRA.SOLV.lig_0>
-116.697

>  <SCORE.INTRA.VDW>
1.415

>  <SCORE.INTRA.VDW.0>
-7.06424

>  <SCORE.INTRA.norm>
-0.154506

>  <SCORE.RESTR>
0

>  <SCORE.RESTR.CAVITY>
0

>  <SCORE.RESTR.norm>
0

>  <SCORE.SYSTEM>
0

>  <SCORE.SYSTEM.CONST>
0

>  <SCORE.SYSTEM.DIHEDRAL>
0

>  <SCORE.SYSTEM.SOLV>
0

>  <SCORE.SYSTEM.norm>
0

>  <SCORE.heavy>
46

>  <SCORE.norm>
0.0465423

>  <RMSD>
9.463

$$$$
lig.pdb
 OpenBabel03061811583D
libRbt.so/2013.1/901 2013/11/27
 46 49  0  0  0  0  0  0  0  0999 V2000
   15.9735  -18.4112    6.3591 C   0  0  1  0  0  0  0  0  0  0  0  0
   14.0347  -18.3828    7.9864 C   0  0  1  0  0  0  0  0  0  0  0  0
   12.8432  -18.6450    7.0161 C   0  0  1  0  0  0  0  0  0  0  0  0
   11.4971  -18.0416    7.6694 C   0  0  2  0  0  0  0  0  0  0  0  0
   13.2350  -16.6741    5.4670 C   0  0  2  0  0  0  0  0  0  0  0  0
   13.7929  -16.3599    4.0497 C   0  0  1  0  0  0  0  0  0  0  0  0
   13.1374  -15.0130    3.8621 C   0  0  1  0  0  0  0  0  0  0  0  0
   11.6591  -15.2239    4.3198 C   0  0  1  0  0  0  0  0  0  0  0  0
   10.6764  -15.8564    3.2729 C   0  0  0  0  0  0  0  0  0  0  0  0
   13.5999  -12.6627    4.4500 C   0  0  1  0  0  0  0  0  0  0  0  0
   14.2982  -11.7012    5.3649 C   0  0  1  0  0  0  0  0  0  0  0  0
   17.1512  -19.3428    5.9872 C   0  0  1  0  0  0  0  0  0  0  0  0
   13.8806  -10.2415    4.9657 C   0  0  0  0  0  0  0  0  0  0  0  0
   12.4750   -9.9709    5.0634 C   0  0  0  0  0  0  0  0  0  0  0  0
   11.7682  -10.8586    4.1648 C   0  0  2  0  0  0  0  0  0  0  0  0
   10.2094  -10.6133    4.2352 C   0  0  0  0  0  0  0  0  0  0  0  0
    8.6292  -16.8515   11.9078 C   0  0  2  0  0  0  0  0  0  0  0  0
    9.9069  -16.8687    9.9279 C   0  0  0  0  0  0  0  0  0  0  0  0
    7.5223  -16.3977   12.5999 C   0  0  0  0  0  0  0  0  0  0  0  0
    8.4829  -16.5388   10.5962 C   0  0  1  0  0  0  0  0  0  0  0  0
   18.2438  -19.3776    7.1503 C   0  0  0  0  0  0  0  0  0  0  0  0
   18.7583  -17.8791    7.3998 C   0  0  0  0  0  0  0  0  0  0  0  0
   17.4956  -16.9870    7.8071 C   0  0  1  0  0  0  0  0  0  0  0  0
   17.8847  -15.5249    8.0563 C   0  0  0  0  0  0  0  0  0  0  0  0
   11.2176  -18.8186    9.0292 C   0  0  1  0  0  0  0  0  0  0  0  0
   12.4720  -18.4902   10.0012 C   0  0  0  0  0  0  0  0  0  0  0  0
   13.8047  -19.0465    9.3668 C   0  0  2  0  0  0  0  0  0  0  0  0
    8.7949  -18.2689   12.1381 F   0  0  0  0  0  0  0  0  0  0  0  0
    9.4013  -11.5453    3.2874 N   0  0  0  0  0  0  0  0  0  0  0  0
   16.5910  -20.7129    5.6900 N   0  0  0  0  0  0  0  0  0  0  0  0
   13.9449  -11.8325    6.7108 N   0  0  0  0  0  0  0  0  0  0  0  0
    7.2267  -16.3781   13.9832 N   0  0  0  0  0  0  0  0  0  0  0  0
   16.7705  -14.7679    8.4764 N   0  0  0  0  0  0  0  0  0  0  0  0
    9.9851  -18.3050    9.6533 N   0  0  0  0  0  0  0  0  0  0  0  0
   14.9614  -18.7426   10.2381 N   0  0  0  0  0  0  0  0  0  0  0  0
   15.2340  -18.9373    7.4617 O   0  0  0  0  0  0  0  0  0  0  0  0
   13.1794  -17.9593    5.7239 O   0  0  0  0  0  0  0  0  0  0  0  0
   10.4616  -18.2859    6.7953 O   0  0  0  0  0  0  0  0  0  0  0  0
   15.1853  -16.3112    4.1284 O   0  0  0  0  0  0  0  0  0  0  0  0
   11.9496  -15.9598    5.5198 O   0  0  0  0  0  0  0  0  0  0  0  0
   10.6249  -14.9670    2.1395 O   0  0  0  0  0  0  0  0  0  0  0  0
   13.8467  -13.9892    4.7298 O   0  0  0  0  0  0  0  0  0  0  0  0
    7.4496  -17.3085    9.9436 O   0  0  0  0  0  0  0  0  0  0  0  0
   10.7822  -16.0239    9.6775 O   0  0  0  0  0  0  0  0  0  0  0  0
   12.0953  -12.2984    4.4837 O   0  0  0  0  0  0  0  0  0  0  0  0
   16.4562  -17.0302    6.6991 O   0  0  0  0  0  0  0  0  0  0  0  0
  1 36  1  1  0  0  0
  2 36  1  6  0  0  0
  2  3  1  0  0  0  0
  3 37  1  6  0  0  0
  3  4  1  0  0  0  0
  4 38  1  6  0  0  0
  5 37  1  6  0  0  0
  5  6  1  0  0  0  0
  6  7  1  0  0  0  0
  6 39  1  1  0  0  0
  7 42  1  1  0  0  0
  8  9  1  6  0  0  0
  8  7  1  0  0  0  0
 10 42  1  1  0  0  0
 10 11  1  0  0  0  0
 11 31  1  1  0  0  0
 11 13  1  0  0  0  0
 12 30  1  1  0  0  0
 12  1  1  0  0  0  0
 14 13  1  0  0  0  0
 15 16  1  1  0  0  0
 15 14  1  0  0  0  0
 17 19  1  1  0  0  0
 17 28  1  0  0  0  0
 18 34  1  0  0  0  0
 19 32  1  0  0  0  0
 20 18  1  6  0  0  0
 20 17  1  0  0  0  0
 20 43  1  0  0  0  0
 21 12  1  0  0  0  0
 22 21  1  0  0  0  0
 22 23  1  0  0  0  0
 23 24  1  6  0  0  0
 23 46  1  0  0  0  0
 24 33  1  0  0  0  0
 25 34  1  1  0  0  0
 25  4  1  0  0  0  0
 26 25  1  0  0  0  0
 27 35  1  1  0  0  0
 27 26  1  0  0  0  0
 27  2  1  0  0  0  0
 29 16  1  0  0  0  0
 40  8  1  0  0  0  0
 40  5  1  0  0  0  0
 41  9  1  0  0  0  0
 44 18  2  0  0  0  0
 45 15  1  0  0  0  0
 45 10  1  0  0  0  0
 46  1  1  0  0  0  0
M  END
>  <CHROM.1>
-174.90837435,72.89387564,-70.01407634,172.82660603,164.83553322,-60.86560465
178.35840595,-179.92885129,-174.59018879,81.48309119,170.46051369,-177.18298818
-55.87649925,12.77699802,-16.10684379,7.08247882,-0.96846747,-0.43191917
2.40074064

>  <Name>
lig.pdb

>  <RI>
0

>  <Rbt.Current_Directory>
/home/afrankz/demos/rdock_decoys_rna/rnas/3wru

>  <Rbt.Executable>
rbdock ($Id: //depot/dev/client3/rdock/2013.1/src/exe/rbdock.cxx#4 $)

>  <Rbt.Library>
libRbt.so (2013.1, Build901 2013/11/27)

>  <Rbt.Parameter_File>
/export/apps/rDock/src/rDock_2013.1_src/data/scripts/dock_solv.prm

>  <Rbt.Receptor>
prm/pocket_docking_8.prm

>  <SCORE>
-3.63917

>  <SCORE.INTER>
4.23751

>  <SCORE.INTER.CONST>
1

>  <SCORE.INTER.POLAR>
0

>  <SCORE.INTER.ROT>
13

>  <SCORE.INTER.SOLV>
23.7959

>  <SCORE.INTER.VDW>
-17.3736

>  <SCORE.INTER.norm>
0.0921197

>  <SCORE.INTRA>
-7.87668

>  <SCORE.INTRA.DIHEDRAL>
-15.0339

>  <SCORE.INTRA.DIHEDRAL.0>
19.7146

>  <SCORE.INTRA.POLAR>
0

>  <SCORE.INTRA.POLAR.0>
0

>  <SCORE.INTRA.REPUL>
0

>  <SCORE.INTRA.REPUL.0>
0

>  <SCORE.INTRA.SOLV>
-1.58025

>  <SCORE.INTRA.SOLV.lig_0>
-116.697

>  <SCORE.INTRA.VDW>
0.430384

>  <SCORE.INTRA.VDW.0>
-7.06424

>  <SCORE.INTRA.norm>
-0.171232

>  <SCORE.RESTR>
0

>  <SCORE.RESTR.CAVITY>
0

>  <SCORE.RESTR.norm>
0

>  <SCORE.SYSTEM>
0

>  <SCORE.SYSTEM.CONST>
0

>  <SCORE.SYSTEM.DIHEDRAL>
0

>  <SCORE.SYSTEM.SOLV>
0

>  <SCORE.SYSTEM.norm>
0

>  <SCORE.heavy>
46

>  <SCORE.norm>
-0.0791124

>  <RMSD>
9.469

$$$$
lig.pdb
 OpenBabel03061811583D
libRbt.so/2013.1/901 2013/11/27
 46 49  0  0  0  0  0  0  0  0999 V2000
   15.7572  -16.6747    6.0133 C   0  0  1  0  0  0  0  0  0  0  0  0
   14.1973  -17.7220    7.7097 C   0  0  1  0  0  0  0  0  0  0  0  0
   13.3159  -18.6519    6.8220 C   0  0  1  0  0  0  0  0  0  0  0  0
   11.8940  -18.8735    7.5514 C   0  0  2  0  0  0  0  0  0  0  0  0
   12.6094  -16.7910    5.2486 C   0  0  2  0  0  0  0  0  0  0  0  0
   12.3732  -16.5441    3.7313 C   0  0  1  0  0  0  0  0  0  0  0  0
   11.2459  -15.5479    3.8558 C   0  0  1  0  0  0  0  0  0  0  0  0
   10.2845  -16.1673    4.9194 C   0  0  1  0  0  0  0  0  0  0  0  0
    9.2756  -17.2572    4.4136 C   0  0  0  0  0  0  0  0  0  0  0  0
   10.9605  -13.1316    4.2605 C   0  0  1  0  0  0  0  0  0  0  0  0
   10.3610  -12.8962    2.9062 C   0  0  1  0  0  0  0  0  0  0  0  0
   17.2018  -16.8846    5.5009 C   0  0  1  0  0  0  0  0  0  0  0  0
    9.4722  -11.6040    2.9728 C   0  0  0  0  0  0  0  0  0  0  0  0
   10.1772  -10.4081    3.3352 C   0  0  0  0  0  0  0  0  0  0  0  0
   10.7416  -10.5847    4.6563 C   0  0  2  0  0  0  0  0  0  0  0  0
   11.5408   -9.2993    5.1079 C   0  0  0  0  0  0  0  0  0  0  0  0
    8.1908  -20.8109    9.7602 C   0  0  2  0  0  0  0  0  0  0  0  0
   10.5048  -21.2266    9.9204 C   0  0  0  0  0  0  0  0  0  0  0  0
    6.9194  -21.1370   10.1930 C   0  0  0  0  0  0  0  0  0  0  0  0
    9.0893  -21.2386   10.6817 C   0  0  1  0  0  0  0  0  0  0  0  0
   18.2700  -16.4114    6.5884 C   0  0  0  0  0  0  0  0  0  0  0  0
   18.0000  -14.8648    6.9164 C   0  0  0  0  0  0  0  0  0  0  0  0
   16.5047  -14.7326    7.4664 C   0  0  1  0  0  0  0  0  0  0  0  0
   16.1439  -13.2798    7.7992 C   0  0  0  0  0  0  0  0  0  0  0  0
   12.1599  -19.6072    8.9376 C   0  0  1  0  0  0  0  0  0  0  0  0
   13.0562  -18.5872    9.8221 C   0  0  0  0  0  0  0  0  0  0  0  0
   14.4415  -18.3333    9.1117 C   0  0  2  0  0  0  0  0  0  0  0  0
    8.2662  -19.3888    9.5116 F   0  0  0  0  0  0  0  0  0  0  0  0
   10.6778   -8.0051    5.0868 N   0  0  0  0  0  0  0  0  0  0  0  0
   17.3647  -18.3410    5.1378 N   0  0  0  0  0  0  0  0  0  0  0  0
   11.2992  -12.6490    1.9001 N   0  0  0  0  0  0  0  0  0  0  0  0
    5.6495  -20.9357    9.6030 N   0  0  0  0  0  0  0  0  0  0  0  0
   16.1650  -12.4738    6.6413 N   0  0  0  0  0  0  0  0  0  0  0  0
   10.8809  -19.8411    9.6319 N   0  0  0  0  0  0  0  0  0  0  0  0
   15.2663  -17.3931    9.9023 N   0  0  0  0  0  0  0  0  0  0  0  0
   15.4763  -17.5358    7.1173 O   0  0  0  0  0  0  0  0  0  0  0  0
   13.1512  -17.9588    5.5008 O   0  0  0  0  0  0  0  0  0  0  0  0
   11.1358  -19.6968    6.7493 O   0  0  0  0  0  0  0  0  0  0  0  0
   13.5443  -16.0160    3.1864 O   0  0  0  0  0  0  0  0  0  0  0  0
   11.2948  -16.5542    5.8657 O   0  0  0  0  0  0  0  0  0  0  0  0
   10.0517  -18.3849    3.9619 O   0  0  0  0  0  0  0  0  0  0  0  0
   11.8071  -14.2170    4.3226 O   0  0  0  0  0  0  0  0  0  0  0  0
    9.1556  -20.3850   11.8449 O   0  0  0  0  0  0  0  0  0  0  0  0
   11.1665  -22.2407    9.6440 O   0  0  0  0  0  0  0  0  0  0  0  0
   11.6329  -11.8039    4.6880 O   0  0  0  0  0  0  0  0  0  0  0  0
   15.5257  -15.2489    6.4247 O   0  0  0  0  0  0  0  0  0  0  0  0
  1 36  1  1  0  0  0
  2 36  1  6  0  0  0
  2  3  1  0  0  0  0
  3 37  1  6  0  0  0
  3  4  1  0  0  0  0
  4 38  1  6  0  0  0
  5 37  1  6  0  0  0
  5  6  1  0  0  0  0
  6  7  1  0  0  0  0
  6 39  1  1  0  0  0
  7 42  1  1  0  0  0
  8  9  1  6  0  0  0
  8  7  1  0  0  0  0
 10 42  1  6  0  0  0
 10 11  1  0  0  0  0
 11 31  1  6  0  0  0
 11 13  1  0  0  0  0
 12 30  1  1  0  0  0
 12  1  1  0  0  0  0
 14 13  1  0  0  0  0
 15 16  1  6  0  0  0
 15 14  1  0  0  0  0
 17 19  1  1  0  0  0
 17 28  1  0  0  0  0
 18 34  1  0  0  0  0
 19 32  1  0  0  0  0
 20 18  1  6  0  0  0
 20 17  1  0  0  0  0
 20 43  1  0  0  0  0
 21 12  1  0  0  0  0
 22 21  1  0  0  0  0
 22 23  1  0  0  0  0
 23 24  1  6  0  0  0
 23 46  1  0  0  0  0
 24 33  1  0  0  0  0
 25 34  1  1  0  0  0
 25  4  1  0  0  0  0
 26 25  1  0  0  0  0
 27 35  1  1  0  0  0
 27 26  1  0  0  0  0
 27  2  1  0  0  0  0
 29 16  1  0  0  0  0
 40  8  1  0  0  0  0
 40  5  1  0  0  0  0
 41  9  1  0  0  0  0
 44 18  2  0  0  0  0
 45 15  1  0  0  0  0
 45 10  1  0  0  0  0
 46  1  1  0  0  0  0
M  END
>  <CHROM.1>
-171.37512101,77.05075135,-60.48163229,-168.59638301,168.71529321,64.30413544
-54.57914336,56.71610694,-178.99646148,67.67315422,163.50986075,63.73132543
119.29808461,12.23284827,-16.51191285,6.59208516,-1.29063650,0.05064675,2.56817936

>  <Name>
lig.pdb

>  <RI>
0

>  <Rbt.Current_Directory>
/home/afrankz/demos/rdock_decoys_rna/rnas/3wru

>  <Rbt.Executable>
rbdock ($Id: //depot/dev/client3/rdock/2013.1/src/exe/rbdock.cxx#4 $)

>  <Rbt.Library>
libRbt.so (2013.1, Build901 2013/11/27)

>  <Rbt.Parameter_File>
/export/apps/rDock/src/rDock_2013.1_src/data/scripts/dock_solv.prm

>  <Rbt.Receptor>
prm/pocket_docking_6.prm

>  <SCORE>
-3.02936

>  <SCORE.INTER>
3.05415

>  <SCORE.INTER.CONST>
1

>  <SCORE.INTER.POLAR>
0

>  <SCORE.INTER.ROT>
13

>  <SCORE.INTER.SOLV>
23.9705

>  <SCORE.INTER.VDW>
-18.2207

>  <SCORE.INTER.norm>
0.0663945

>  <SCORE.INTRA>
-6.08351

>  <SCORE.INTRA.DIHEDRAL>
-13.3661

>  <SCORE.INTRA.DIHEDRAL.0>
19.7146

>  <SCORE.INTRA.POLAR>
0

>  <SCORE.INTRA.POLAR.0>
0

>  <SCORE.INTRA.REPUL>
0.00648146

>  <SCORE.INTRA.REPUL.0>
0

>  <SCORE.INTRA.SOLV>
-0.542108

>  <SCORE.INTRA.SOLV.lig_0>
-116.697

>  <SCORE.INTRA.VDW>
0.838167

>  <SCORE.INTRA.VDW.0>
-7.06424

>  <SCORE.INTRA.norm>
-0.13225

>  <SCORE.RESTR>
0

>  <SCORE.RESTR.CAVITY>
0

>  <SCORE.RESTR.norm>
0

>  <SCORE.SYSTEM>
0

>  <SCORE.SYSTEM.CONST>
0

>  <SCORE.SYSTEM.DIHEDRAL>
0

>  <SCORE.SYSTEM.SOLV>
0

>  <SCORE.SYSTEM.norm>
0

>  <SCORE.heavy>
46

>  <SCORE.norm>
-0.0658557

>  <RMSD>
9.478

$$$$
lig.pdb
 OpenBabel03061811583D
libRbt.so/2013.1/901 2013/11/27
 46 49  0  0  0  0  0  0  0  0999 V2000
    8.5159  -14.9230    7.1600 C   0  0  1  0  0  0  0  0  0  0  0  0
    9.7828  -13.5312    5.4671 C   0  0  1  0  0  0  0  0  0  0  0  0
   11.2853  -13.3293    5.1049 C   0  0  1  0  0  0  0  0  0  0  0  0
   11.4201  -12.0438    4.1394 C   0  0  2  0  0  0  0  0  0  0  0  0
   13.2883  -12.8572    6.5892 C   0  0  2  0  0  0  0  0  0  0  0  0
   13.6711  -12.7597    8.0934 C   0  0  1  0  0  0  0  0  0  0  0  0
   15.1345  -13.1048    7.9583 C   0  0  1  0  0  0  0  0  0  0  0  0
   15.1641  -14.3435    7.0075 C   0  0  1  0  0  0  0  0  0  0  0  0
   14.8863  -15.7436    7.6588 C   0  0  0  0  0  0  0  0  0  0  0  0
   17.2332  -12.0564    7.1966 C   0  0  1  0  0  0  0  0  0  0  0  0
   17.9453  -10.7727    6.8902 C   0  0  1  0  0  0  0  0  0  0  0  0
    8.4270  -13.8329    8.2541 C   0  0  1  0  0  0  0  0  0  0  0  0
   19.4694  -11.0862    6.6820 C   0  0  0  0  0  0  0  0  0  0  0  0
   19.7548  -11.9933    5.6076 C   0  0  0  0  0  0  0  0  0  0  0  0
   19.1112  -13.2595    5.8863 C   0  0  2  0  0  0  0  0  0  0  0  0
   19.3827  -14.3002    4.7295 C   0  0  0  0  0  0  0  0  0  0  0  0
   10.2641   -7.6028    1.8077 C   0  0  2  0  0  0  0  0  0  0  0  0
   10.2787   -9.8916    2.3683 C   0  0  0  0  0  0  0  0  0  0  0  0
   11.4098   -7.2056    2.4709 C   0  0  0  0  0  0  0  0  0  0  0  0
   10.4970   -8.7981    1.2107 C   0  0  1  0  0  0  0  0  0  0  0  0
    9.6757  -13.9124    9.2452 C   0  0  0  0  0  0  0  0  0  0  0  0
    9.7039  -15.3765    9.8994 C   0  0  0  0  0  0  0  0  0  0  0  0
    9.8266  -16.4424    8.7142 C   0  0  1  0  0  0  0  0  0  0  0  0
    9.8492  -17.8827    9.2402 C   0  0  0  0  0  0  0  0  0  0  0  0
   10.6169  -12.3466    2.7999 C   0  0  1  0  0  0  0  0  0  0  0  0
    9.0659  -12.5225    3.2352 C   0  0  0  0  0  0  0  0  0  0  0  0
    8.9155  -13.7581    4.2041 C   0  0  2  0  0  0  0  0  0  0  0  0
    9.8632   -6.5722    0.8767 F   0  0  0  0  0  0  0  0  0  0  0  0
   20.8873  -14.6656    4.5779 N   0  0  0  0  0  0  0  0  0  0  0  0
    8.3250  -12.4898    7.5722 N   0  0  0  0  0  0  0  0  0  0  0  0
   17.5292  -10.1556    5.7072 N   0  0  0  0  0  0  0  0  0  0  0  0
   11.7331   -6.0033    3.1426 N   0  0  0  0  0  0  0  0  0  0  0  0
   10.9522  -18.0936   10.0946 N   0  0  0  0  0  0  0  0  0  0  0  0
   10.7261  -11.1985    1.8821 N   0  0  0  0  0  0  0  0  0  0  0  0
    7.5052  -13.9235    4.6202 N   0  0  0  0  0  0  0  0  0  0  0  0
    9.6195  -14.6816    6.2864 O   0  0  0  0  0  0  0  0  0  0  0  0
   12.0175  -13.1213    6.3986 O   0  0  0  0  0  0  0  0  0  0  0  0
   12.7536  -11.8874    3.8340 O   0  0  0  0  0  0  0  0  0  0  0  0
   13.4296  -11.4541    8.5226 O   0  0  0  0  0  0  0  0  0  0  0  0
   14.2315  -13.8418    6.0357 O   0  0  0  0  0  0  0  0  0  0  0  0
   14.9810  -16.7309    6.6126 O   0  0  0  0  0  0  0  0  0  0  0  0
   15.8707  -11.9230    7.3537 O   0  0  0  0  0  0  0  0  0  0  0  0
    9.5975   -9.0662    0.1128 O   0  0  0  0  0  0  0  0  0  0  0  0
    9.8175   -9.6450    3.4948 O   0  0  0  0  0  0  0  0  0  0  0  0
   17.6271  -13.0615    6.0865 O   0  0  0  0  0  0  0  0  0  0  0  0
    8.6507  -16.2919    7.7631 O   0  0  0  0  0  0  0  0  0  0  0  0
  1 36  1  6  0  0  0
  2 36  1  1  0  0  0
  2  3  1  0  0  0  0
  3 37  1  1  0  0  0
  3  4  1  0  0  0  0
  4 38  1  6  0  0  0
  5 37  1  1  0  0  0
  5  6  1  0  0  0  0
  6  7  1  0  0  0  0
  6 39  1  6  0  0  0
  7 42  1  6  0  0  0
  8  9  1  1  0  0  0
  8  7  1  0  0  0  0
 10 42  1  6  0  0  0
 10 11  1  0  0  0  0
 11 31  1  6  0  0  0
 11 13  1  0  0  0  0
 12 30  1  6  0  0  0
 12  1  1  0  0  0  0
 14 13  1  0  0  0  0
 15 16  1  6  0  0  0
 15 14  1  0  0  0  0
 17 19  1  6  0  0  0
 17 28  1  0  0  0  0
 18 34  1  0  0  0  0
 19 32  1  0  0  0  0
 20 18  1  1  0  0  0
 20 17  1  0  0  0  0
 20 43  1  0  0  0  0
 21 12  1  0  0  0  0
 22 21  1  0  0  0  0
 22 23  1  0  0  0  0
 23 24  1  1  0  0  0
 23 46  1  0  0  0  0
 24 33  1  0  0  0  0
 25 34  1  6  0  0  0
 25  4  1  0  0  0  0
 26 25  1  0  0  0  0
 27 35  1  1  0  0  0
 27 26  1  0  0  0  0
 27  2  1  0  0  0  0
 29 16  1  0  0  0  0
 40  8  1  0  0  0  0
 40  5  1  0  0  0  0
 41  9  1  0  0  0  0
 44 18  2  0  0  0  0
 45 15  1  0  0  0  0
 45 10  1  0  0  0  0
 46  1  1  0  0  0  0
M  END
>  <CHROM.1>
-61.55200518,157.62450689,-176.89497657,-178.02770783,178.16193049,-179.22129602
-166.99722396,63.41851432,173.73400647,-170.54793222,82.39129123,-60.72409501
-57.04855864,12.61461059,-12.58846148,5.63608733,2.63364198,-0.07628480,-0.70908685

>  <Name>
lig.pdb

>  <RI>
0

>  <Rbt.Current_Directory>
/home/afrankz/demos/rdock_decoys_rna/rnas/3wru

>  <Rbt.Executable>
rbdock ($Id: //depot/dev/client3/rdock/2013.1/src/exe/rbdock.cxx#4 $)

>  <Rbt.Library>
libRbt.so (2013.1, Build901 2013/11/27)

>  <Rbt.Parameter_File>
/export/apps/rDock/src/rDock_2013.1_src/data/scripts/dock_solv.prm

>  <Rbt.Receptor>
prm/pocket_docking_5.prm

>  <SCORE>
-4.4523

>  <SCORE.INTER>
-1.24419

>  <SCORE.INTER.CONST>
1

>  <SCORE.INTER.POLAR>
0

>  <SCORE.INTER.ROT>
13

>  <SCORE.INTER.SOLV>
27.6789

>  <SCORE.INTER.VDW>
-22.3224

>  <SCORE.INTER.norm>
-0.0270476

>  <SCORE.INTRA>
-3.20811

>  <SCORE.INTRA.DIHEDRAL>
-13.8907

>  <SCORE.INTRA.DIHEDRAL.0>
19.7146

>  <SCORE.INTRA.POLAR>
0

>  <SCORE.INTRA.POLAR.0>
0

>  <SCORE.INTRA.REPUL>
0

>  <SCORE.INTRA.REPUL.0>
0

>  <SCORE.INTRA.SOLV>
1.03026

>  <SCORE.INTRA.SOLV.lig_0>
-116.697

>  <SCORE.INTRA.VDW>
3.22209

>  <SCORE.INTRA.VDW.0>
-7.06424

>  <SCORE.INTRA.norm>
-0.0697416

>  <SCORE.RESTR>
0

>  <SCORE.RESTR.CAVITY>
0

>  <SCORE.RESTR.norm>
0

>  <SCORE.SYSTEM>
0

>  <SCORE.SYSTEM.CONST>
0

>  <SCORE.SYSTEM.DIHEDRAL>
0

>  <SCORE.SYSTEM.SOLV>
0

>  <SCORE.SYSTEM.norm>
0

>  <SCORE.heavy>
46

>  <SCORE.norm>
-0.0967892

>  <RMSD>
9.498

$$$$
lig.pdb
 OpenBabel03061811583D
libRbt.so/2013.1/901 2013/11/27
 46 49  0  0  0  0  0  0  0  0999 V2000
   10.1242   -5.8326    5.1859 C   0  0  1  0  0  0  0  0  0  0  0  0
   10.2501   -7.8478    6.7128 C   0  0  1  0  0  0  0  0  0  0  0  0
   10.5706   -9.1484    5.9157 C   0  0  1  0  0  0  0  0  0  0  0  0
    9.9480  -10.4099    6.7055 C   0  0  2  0  0  0  0  0  0  0  0  0
   10.3692   -9.4417    3.4035 C   0  0  2  0  0  0  0  0  0  0  0  0
    9.7660  -10.8267    3.0339 C   0  0  1  0  0  0  0  0  0  0  0  0
    9.9012  -10.7190    1.5343 C   0  0  1  0  0  0  0  0  0  0  0  0
    9.3787   -9.2879    1.1904 C   0  0  1  0  0  0  0  0  0  0  0  0
    7.8244   -9.1108    1.0704 C   0  0  0  0  0  0  0  0  0  0  0  0
   11.7778  -10.2451    0.0053 C   0  0  1  0  0  0  0  0  0  0  0  0
   12.6370  -11.0877   -0.8895 C   0  0  1  0  0  0  0  0  0  0  0  0
    9.5149   -4.6420    5.9633 C   0  0  1  0  0  0  0  0  0  0  0  0
   13.0797  -10.2172   -2.1186 C   0  0  0  0  0  0  0  0  0  0  0  0
   13.8401   -9.0476   -1.7836 C   0  0  0  0  0  0  0  0  0  0  0  0
   13.0279   -8.1903   -0.9467 C   0  0  2  0  0  0  0  0  0  0  0  0
   13.8177   -6.8855   -0.5361 C   0  0  0  0  0  0  0  0  0  0  0  0
   11.1367  -14.7377   10.3445 C   0  0  2  0  0  0  0  0  0  0  0  0
   11.0830  -12.5079    9.5843 C   0  0  0  0  0  0  0  0  0  0  0  0
   10.6852  -15.6660   11.2635 C   0  0  0  0  0  0  0  0  0  0  0  0
   10.2827  -13.6842   10.3320 C   0  0  1  0  0  0  0  0  0  0  0  0
    8.3560   -5.1317    6.9456 C   0  0  0  0  0  0  0  0  0  0  0  0
    7.2365   -5.8740    6.0694 C   0  0  0  0  0  0  0  0  0  0  0  0
    7.9322   -7.1048    5.3229 C   0  0  1  0  0  0  0  0  0  0  0  0
    6.9399   -7.8758    4.4441 C   0  0  0  0  0  0  0  0  0  0  0  0
   10.6595  -10.5030    8.1253 C   0  0  1  0  0  0  0  0  0  0  0  0
   10.2722   -9.1407    8.9129 C   0  0  0  0  0  0  0  0  0  0  0  0
   10.8471   -7.8908    8.1413 C   0  0  2  0  0  0  0  0  0  0  0  0
   11.2790  -15.3681    9.0515 F   0  0  0  0  0  0  0  0  0  0  0  0
   14.3534   -6.0861   -1.7585 N   0  0  0  0  0  0  0  0  0  0  0  0
   10.6305   -3.9424    6.7017 N   0  0  0  0  0  0  0  0  0  0  0  0
   13.8255  -11.5236   -0.2971 N   0  0  0  0  0  0  0  0  0  0  0  0
   10.5102  -15.5868   12.6651 N   0  0  0  0  0  0  0  0  0  0  0  0
    5.8376   -8.3280    5.2000 N   0  0  0  0  0  0  0  0  0  0  0  0
   10.1270  -11.6542    8.8760 N   0  0  0  0  0  0  0  0  0  0  0  0
   10.4901   -6.6378    8.8427 N   0  0  0  0  0  0  0  0  0  0  0  0
   10.8190   -6.7162    6.0667 O   0  0  0  0  0  0  0  0  0  0  0  0
    9.9464   -8.9892    4.5600 O   0  0  0  0  0  0  0  0  0  0  0  0
   10.2444  -11.5441    5.9830 O   0  0  0  0  0  0  0  0  0  0  0  0
   10.5617  -11.8182    3.6093 O   0  0  0  0  0  0  0  0  0  0  0  0
   10.0694   -8.5911    2.2407 O   0  0  0  0  0  0  0  0  0  0  0  0
    7.2439   -9.5537    2.3134 O   0  0  0  0  0  0  0  0  0  0  0  0
   11.3614  -10.8834    1.1533 O   0  0  0  0  0  0  0  0  0  0  0  0
    9.0537  -13.9613    9.6256 O   0  0  0  0  0  0  0  0  0  0  0  0
   12.3149  -12.3547    9.6258 O   0  0  0  0  0  0  0  0  0  0  0  0
   12.5645   -8.9400    0.2801 O   0  0  0  0  0  0  0  0  0  0  0  0
    9.0663   -6.6001    4.4459 O   0  0  0  0  0  0  0  0  0  0  0  0
  1 36  1  1  0  0  0
  2 36  1  6  0  0  0
  2  3  1  0  0  0  0
  3 37  1  6  0  0  0
  3  4  1  0  0  0  0
  4 38  1  6  0  0  0
  5 37  1  1  0  0  0
  5  6  1  0  0  0  0
  6  7  1  0  0  0  0
  6 39  1  1  0  0  0
  7 42  1  1  0  0  0
  8  9  1  1  0  0  0
  8  7  1  0  0  0  0
 10 42  1  1  0  0  0
 10 11  1  0  0  0  0
 11 31  1  1  0  0  0
 11 13  1  0  0  0  0
 12 30  1  1  0  0  0
 12  1  1  0  0  0  0
 14 13  1  0  0  0  0
 15 16  1  1  0  0  0
 15 14  1  0  0  0  0
 17 19  1  1  0  0  0
 17 28  1  0  0  0  0
 18 34  1  0  0  0  0
 19 32  1  0  0  0  0
 20 18  1  6  0  0  0
 20 17  1  0  0  0  0
 20 43  1  0  0  0  0
 21 12  1  0  0  0  0
 22 21  1  0  0  0  0
 22 23  1  0  0  0  0
 23 24  1  6  0  0  0
 23 46  1  0  0  0  0
 24 33  1  0  0  0  0
 25 34  1  1  0  0  0
 25  4  1  0  0  0  0
 26 25  1  0  0  0  0
 27 35  1  1  0  0  0
 27 26  1  0  0  0  0
 27  2  1  0  0  0  0
 29 16  1  0  0  0  0
 40  8  1  0  0  0  0
 40  5  1  0  0  0  0
 41  9  1  0  0  0  0
 44 18  2  0  0  0  0
 45 15  1  0  0  0  0
 45 10  1  0  0  0  0
 46  1  1  0  0  0  0
M  END
>  <CHROM.1>
91.47911709,97.43501981,146.74807025,92.90765377,-151.32662805,56.38922024
-135.13568341,55.67574243,-62.71793493,149.15075033,164.26499301,-56.52475424
136.11266180,10.46682259,-9.66220408,4.86080480,1.24660183,1.12738445,-0.86208020

>  <Name>
lig.pdb

>  <RI>
0

>  <Rbt.Current_Directory>
/home/afrankz/demos/rdock_decoys_rna/rnas/3wru

>  <Rbt.Executable>
rbdock ($Id: //depot/dev/client3/rdock/2013.1/src/exe/rbdock.cxx#4 $)

>  <Rbt.Library>
libRbt.so (2013.1, Build901 2013/11/27)

>  <Rbt.Parameter_File>
/export/apps/rDock/src/rDock_2013.1_src/data/scripts/dock_solv.prm

>  <Rbt.Receptor>
prm/blind_docking_80.prm

>  <SCORE>
3400.55

>  <SCORE.INTER>
3341.64

>  <SCORE.INTER.CONST>
1

>  <SCORE.INTER.POLAR>
0

>  <SCORE.INTER.ROT>
13

>  <SCORE.INTER.SOLV>
103.288

>  <SCORE.INTER.VDW>
2181.06

>  <SCORE.INTER.norm>
72.6443

>  <SCORE.INTRA>
10.3807

>  <SCORE.INTRA.DIHEDRAL>
10.6832

>  <SCORE.INTRA.DIHEDRAL.0>
19.7146

>  <SCORE.INTRA.POLAR>
0

>  <SCORE.INTRA.POLAR.0>
0

>  <SCORE.INTRA.REPUL>
0

>  <SCORE.INTRA.REPUL.0>
0

>  <SCORE.INTRA.SOLV>
3.02691

>  <SCORE.INTRA.SOLV.lig_0>
-116.697

>  <SCORE.INTRA.VDW>
3.52563

>  <SCORE.INTRA.VDW.0>
-7.06424

>  <SCORE.INTRA.norm>
0.225667

>  <SCORE.RESTR>
48.5283

>  <SCORE.RESTR.CAVITY>
48.5283

>  <SCORE.RESTR.norm>
1.05496

>  <SCORE.SYSTEM>
0

>  <SCORE.SYSTEM.CONST>
0

>  <SCORE.SYSTEM.DIHEDRAL>
0

>  <SCORE.SYSTEM.SOLV>
0

>  <SCORE.SYSTEM.norm>
0

>  <SCORE.heavy>
46

>  <SCORE.norm>
73.9249

>  <RMSD>
9.503

$$$$
lig.pdb
 OpenBabel03061811583D
libRbt.so/2013.1/901 2013/11/27
 46 49  0  0  0  0  0  0  0  0999 V2000
   12.1000  -13.4698    9.0583 C   0  0  1  0  0  0  0  0  0  0  0  0
   11.3346  -12.2704    6.9646 C   0  0  1  0  0  0  0  0  0  0  0  0
   12.6072  -12.2963    6.0648 C   0  0  1  0  0  0  0  0  0  0  0  0
   12.5452  -11.0524    5.0392 C   0  0  2  0  0  0  0  0  0  0  0  0
   15.0487  -12.4578    6.7363 C   0  0  2  0  0  0  0  0  0  0  0  0
   16.0155  -11.8934    7.8158 C   0  0  1  0  0  0  0  0  0  0  0  0
   17.1504  -12.8669    7.6078 C   0  0  1  0  0  0  0  0  0  0  0  0
   16.4629  -14.2671    7.5293 C   0  0  1  0  0  0  0  0  0  0  0  0
   16.1084  -14.9599    8.8916 C   0  0  0  0  0  0  0  0  0  0  0  0
   19.0819  -13.1402    6.0983 C   0  0  1  0  0  0  0  0  0  0  0  0
   19.7217  -12.7940    4.7870 C   0  0  1  0  0  0  0  0  0  0  0  0
   11.8001  -14.7905    9.8061 C   0  0  1  0  0  0  0  0  0  0  0  0
   21.0597  -13.6047    4.6564 C   0  0  0  0  0  0  0  0  0  0  0  0
   20.9033  -15.0306    4.6855 C   0  0  0  0  0  0  0  0  0  0  0  0
   20.3193  -15.4073    5.9552 C   0  0  2  0  0  0  0  0  0  0  0  0
   20.1136  -16.9709    6.0430 C   0  0  0  0  0  0  0  0  0  0  0  0
    9.6260   -8.0855    1.7289 C   0  0  2  0  0  0  0  0  0  0  0  0
   10.3426  -10.3184    1.9609 C   0  0  0  0  0  0  0  0  0  0  0  0
   10.4271   -7.3756    2.6032 C   0  0  0  0  0  0  0  0  0  0  0  0
   10.3937   -8.9850    1.0650 C   0  0  1  0  0  0  0  0  0  0  0  0
   10.2997  -14.8129   10.3503 C   0  0  0  0  0  0  0  0  0  0  0  0
   10.0989  -13.5504   11.3189 C   0  0  0  0  0  0  0  0  0  0  0  0
   10.3959  -12.2280   10.4711 C   0  0  1  0  0  0  0  0  0  0  0  0
   10.2414  -10.9589   11.3178 C   0  0  0  0  0  0  0  0  0  0  0  0
   11.2687  -11.2430    4.1092 C   0  0  1  0  0  0  0  0  0  0  0  0
    9.9823  -11.1837    5.0930 C   0  0  0  0  0  0  0  0  0  0  0  0
   10.0378  -12.3759    6.1243 C   0  0  2  0  0  0  0  0  0  0  0  0
    8.9390   -7.1670    0.8492 F   0  0  0  0  0  0  0  0  0  0  0  0
   19.1939  -17.5298    4.9195 N   0  0  0  0  0  0  0  0  0  0  0  0
   12.0828  -15.9375    8.8660 N   0  0  0  0  0  0  0  0  0  0  0  0
   18.9628  -13.1492    3.6683 N   0  0  0  0  0  0  0  0  0  0  0  0
   11.4841   -6.4638    2.3736 N   0  0  0  0  0  0  0  0  0  0  0  0
    8.9259  -10.8365   11.8132 N   0  0  0  0  0  0  0  0  0  0  0  0
   11.1825  -10.1309    3.1458 N   0  0  0  0  0  0  0  0  0  0  0  0
    8.8750  -12.3271    7.0380 N   0  0  0  0  0  0  0  0  0  0  0  0
   11.3342  -13.3776    7.8565 O   0  0  0  0  0  0  0  0  0  0  0  0
   13.7887  -12.1893    6.9842 O   0  0  0  0  0  0  0  0  0  0  0  0
   13.6775  -11.0978    4.2570 O   0  0  0  0  0  0  0  0  0  0  0  0
   16.3253  -10.5750    7.4795 O   0  0  0  0  0  0  0  0  0  0  0  0
   15.3889  -13.8870    6.6530 O   0  0  0  0  0  0  0  0  0  0  0  0
   17.3489  -15.2136    9.5807 O   0  0  0  0  0  0  0  0  0  0  0  0
   17.8670  -12.5267    6.3135 O   0  0  0  0  0  0  0  0  0  0  0  0
    9.9057   -9.2730   -0.2636 O   0  0  0  0  0  0  0  0  0  0  0  0
    9.6780  -11.3304    1.6838 O   0  0  0  0  0  0  0  0  0  0  0  0
   19.0091  -14.6856    6.1654 O   0  0  0  0  0  0  0  0  0  0  0  0
   11.8126  -12.2757    9.9227 O   0  0  0  0  0  0  0  0  0  0  0  0
  1 36  1  6  0  0  0
  2 36  1  1  0  0  0
  2  3  1  0  0  0  0
  3 37  1  1  0  0  0
  3  4  1  0  0  0  0
  4 38  1  6  0  0  0
  5 37  1  1  0  0  0
  5  6  1  0  0  0  0
  6  7  1  0  0  0  0
  6 39  1  6  0  0  0
  7 42  1  6  0  0  0
  8  9  1  1  0  0  0
  8  7  1  0  0  0  0
 10 42  1  6  0  0  0
 10 11  1  0  0  0  0
 11 31  1  6  0  0  0
 11 13  1  0  0  0  0
 12 30  1  6  0  0  0
 12  1  1  0  0  0  0
 14 13  1  0  0  0  0
 15 16  1  6  0  0  0
 15 14  1  0  0  0  0
 17 19  1  1  0  0  0
 17 28  1  0  0  0  0
 18 34  1  0  0  0  0
 19 32  1  0  0  0  0
 20 18  1  1  0  0  0
 20 17  1  0  0  0  0
 20 43  1  0  0  0  0
 21 12  1  0  0  0  0
 22 21  1  0  0  0  0
 22 23  1  0  0  0  0
 23 24  1  1  0  0  0
 23 46  1  0  0  0  0
 24 33  1  0  0  0  0
 25 34  1  6  0  0  0
 25  4  1  0  0  0  0
 26 25  1  0  0  0  0
 27 35  1  1  0  0  0
 27 26  1  0  0  0  0
 27  2  1  0  0  0  0
 29 16  1  0  0  0  0
 40  8  1  0  0  0  0
 40  5  1  0  0  0  0
 41  9  1  0  0  0  0
 44 18  2  0  0  0  0
 45 15  1  0  0  0  0
 45 10  1  0  0  0  0
 46  1  1  0  0  0  0
M  END
>  <CHROM.1>
177.46841288,78.29611717,163.54364680,165.66605785,167.56424041,-63.51011659
178.37186129,-58.98756102,66.05941736,-74.68922958,90.52900850,-60.84651800
161.77260733,13.70901024,-12.32471352,6.12199793,2.67420303,0.35244348,-1.10391393

>  <Name>
lig.pdb

>  <RI>
0

>  <Rbt.Current_Directory>
/home/afrankz/demos/rdock_decoys_rna/rnas/3wru

>  <Rbt.Executable>
rbdock ($Id: //depot/dev/client3/rdock/2013.1/src/exe/rbdock.cxx#4 $)

>  <Rbt.Library>
libRbt.so (2013.1, Build901 2013/11/27)

>  <Rbt.Parameter_File>
/export/apps/rDock/src/rDock_2013.1_src/data/scripts/dock_solv.prm

>  <Rbt.Receptor>
prm/pocket_docking_5.prm

>  <SCORE>
-5.04912

>  <SCORE.INTER>
0.0704312

>  <SCORE.INTER.CONST>
1

>  <SCORE.INTER.POLAR>
0

>  <SCORE.INTER.ROT>
13

>  <SCORE.INTER.SOLV>
20.4362

>  <SCORE.INTER.VDW>
-19.0318

>  <SCORE.INTER.norm>
0.00153111

>  <SCORE.INTRA>
-5.11955

>  <SCORE.INTRA.DIHEDRAL>
-11.0845

>  <SCORE.INTRA.DIHEDRAL.0>
19.7146

>  <SCORE.INTRA.POLAR>
0

>  <SCORE.INTRA.POLAR.0>
0

>  <SCORE.INTRA.REPUL>
0

>  <SCORE.INTRA.REPUL.0>
0

>  <SCORE.INTRA.SOLV>
-1.27888

>  <SCORE.INTRA.SOLV.lig_0>
-116.697

>  <SCORE.INTRA.VDW>
1.06213

>  <SCORE.INTRA.VDW.0>
-7.06424

>  <SCORE.INTRA.norm>
-0.111295

>  <SCORE.RESTR>
0

>  <SCORE.RESTR.CAVITY>
0

>  <SCORE.RESTR.norm>
0

>  <SCORE.SYSTEM>
0

>  <SCORE.SYSTEM.CONST>
0

>  <SCORE.SYSTEM.DIHEDRAL>
0

>  <SCORE.SYSTEM.SOLV>
0

>  <SCORE.SYSTEM.norm>
0

>  <SCORE.heavy>
46

>  <SCORE.norm>
-0.109764

>  <RMSD>
9.505

$$$$
lig.pdb
 OpenBabel03061811583D
libRbt.so/2013.1/901 2013/11/27
 46 49  0  0  0  0  0  0  0  0999 V2000
   10.9116  -15.2815   10.7795 C   0  0  1  0  0  0  0  0  0  0  0  0
   11.7738  -13.3993    9.3227 C   0  0  1  0  0  0  0  0  0  0  0  0
   11.9245  -14.0033    7.8937 C   0  0  1  0  0  0  0  0  0  0  0  0
   11.6835  -12.8357    6.8067 C   0  0  2  0  0  0  0  0  0  0  0  0
   14.4453  -13.9133    7.6191 C   0  0  2  0  0  0  0  0  0  0  0  0
   15.0136  -13.2941    8.9276 C   0  0  1  0  0  0  0  0  0  0  0  0
   16.4673  -13.2505    8.5227 C   0  0  1  0  0  0  0  0  0  0  0  0
   16.7446  -14.6503    7.8880 C   0  0  1  0  0  0  0  0  0  0  0  0
   17.0478  -15.8296    8.8775 C   0  0  0  0  0  0  0  0  0  0  0  0
   17.9651  -11.7095    7.3121 C   0  0  1  0  0  0  0  0  0  0  0  0
   18.5277  -12.0713    5.9700 C   0  0  1  0  0  0  0  0  0  0  0  0
   11.4785  -16.3193   11.7769 C   0  0  1  0  0  0  0  0  0  0  0  0
   20.0167  -11.5783    5.9049 C   0  0  0  0  0  0  0  0  0  0  0  0
   20.8833  -12.1524    6.8938 C   0  0  0  0  0  0  0  0  0  0  0  0
   20.3908  -11.7936    8.2067 C   0  0  2  0  0  0  0  0  0  0  0  0
   21.3023  -12.4073    9.3414 C   0  0  0  0  0  0  0  0  0  0  0  0
   11.1045   -9.4490    3.6635 C   0  0  2  0  0  0  0  0  0  0  0  0
   10.8779  -10.1341    5.9068 C   0  0  0  0  0  0  0  0  0  0  0  0
   10.7179   -8.6339    2.6165 C   0  0  0  0  0  0  0  0  0  0  0  0
   10.3936   -9.1092    4.7674 C   0  0  1  0  0  0  0  0  0  0  0  0
   12.4790  -17.3272   11.0483 C   0  0  0  0  0  0  0  0  0  0  0  0
   11.6824  -18.0532    9.8606 C   0  0  0  0  0  0  0  0  0  0  0  0
   11.1553  -16.9236    8.8596 C   0  0  1  0  0  0  0  0  0  0  0  0
   10.3652  -17.5204    7.6887 C   0  0  0  0  0  0  0  0  0  0  0  0
   10.1925  -12.3066    6.9736 C   0  0  1  0  0  0  0  0  0  0  0  0
   10.1042  -11.6719    8.4620 C   0  0  0  0  0  0  0  0  0  0  0  0
   10.3659  -12.7919    9.5414 C   0  0  2  0  0  0  0  0  0  0  0  0
   12.5335   -9.3447    3.8546 F   0  0  0  0  0  0  0  0  0  0  0  0
   21.3400  -13.9624    9.3200 N   0  0  0  0  0  0  0  0  0  0  0  0
   12.1452  -15.5707   12.9059 N   0  0  0  0  0  0  0  0  0  0  0  0
   18.5817  -13.4461    5.7236 N   0  0  0  0  0  0  0  0  0  0  0  0
    9.5129   -8.5665    1.8784 N   0  0  0  0  0  0  0  0  0  0  0  0
    9.7890  -16.5053    6.8957 N   0  0  0  0  0  0  0  0  0  0  0  0
    9.9264  -11.2445    5.9870 N   0  0  0  0  0  0  0  0  0  0  0  0
   10.3008  -12.2239   10.9061 N   0  0  0  0  0  0  0  0  0  0  0  0
   11.9401  -14.4096   10.3092 O   0  0  0  0  0  0  0  0  0  0  0  0
   13.3168  -14.5566    7.8030 O   0  0  0  0  0  0  0  0  0  0  0  0
   11.8212  -13.3936    5.5554 O   0  0  0  0  0  0  0  0  0  0  0  0
   14.4326  -12.0379    9.1056 O   0  0  0  0  0  0  0  0  0  0  0  0
   15.5550  -14.7180    7.0842 O   0  0  0  0  0  0  0  0  0  0  0  0
   18.2960  -15.5303    9.5336 O   0  0  0  0  0  0  0  0  0  0  0  0
   16.6698  -12.1337    7.5147 O   0  0  0  0  0  0  0  0  0  0  0  0
   10.6351   -7.7523    5.1995 O   0  0  0  0  0  0  0  0  0  0  0  0
   11.9067   -9.9970    6.5890 O   0  0  0  0  0  0  0  0  0  0  0  0
   18.9588  -12.2452    8.3720 O   0  0  0  0  0  0  0  0  0  0  0  0
   10.2557  -15.9529    9.6070 O   0  0  0  0  0  0  0  0  0  0  0  0
  1 36  1  6  0  0  0
  2 36  1  1  0  0  0
  2  3  1  0  0  0  0
  3 37  1  1  0  0  0
  3  4  1  0  0  0  0
  4 38  1  6  0  0  0
  5 37  1  1  0  0  0
  5  6  1  0  0  0  0
  6  7  1  0  0  0  0
  6 39  1  6  0  0  0
  7 42  1  6  0  0  0
  8  9  1  1  0  0  0
  8  7  1  0  0  0  0
 10 42  1  1  0  0  0
 10 11  1  0  0  0  0
 11 31  1  1  0  0  0
 11 13  1  0  0  0  0
 12 30  1  1  0  0  0
 12  1  1  0  0  0  0
 14 13  1  0  0  0  0
 15 16  1  1  0  0  0
 15 14  1  0  0  0  0
 17 19  1  6  0  0  0
 17 28  1  0  0  0  0
 18 34  1  0  0  0  0
 19 32  1  0  0  0  0
 20 18  1  1  0  0  0
 20 17  1  0  0  0  0
 20 43  1  0  0  0  0
 21 12  1  0  0  0  0
 22 21  1  0  0  0  0
 22 23  1  0  0  0  0
 23 24  1  6  0  0  0
 23 46  1  0  0  0  0
 24 33  1  0  0  0  0
 25 34  1  6  0  0  0
 25  4  1  0  0  0  0
 26 25  1  0  0  0  0
 27 35  1  1  0  0  0
 27 26  1  0  0  0  0
 27  2  1  0  0  0  0
 29 16  1  0  0  0  0
 40  8  1  0  0  0  0
 40  5  1  0  0  0  0
 41  9  1  0  0  0  0
 44 18  2  0  0  0  0
 45 15  1  0  0  0  0
 45 10  1  0  0  0  0
 46  1  1  0  0  0  0
M  END
>  <CHROM.1>
175.89428097,-84.96946376,-77.75963258,81.70258879,162.78494075,-65.58392949
110.29377558,-61.51951194,-69.65035331,-96.94774068,178.30470616,173.75987562
-51.33506825,13.79316056,-13.06292993,7.70573139,2.91147928,-0.03678368,-0.71654343

>  <Name>
lig.pdb

>  <RI>
0

>  <Rbt.Current_Directory>
/home/afrankz/demos/rdock_decoys_rna/rnas/3wru

>  <Rbt.Executable>
rbdock ($Id: //depot/dev/client3/rdock/2013.1/src/exe/rbdock.cxx#4 $)

>  <Rbt.Library>
libRbt.so (2013.1, Build901 2013/11/27)

>  <Rbt.Parameter_File>
/export/apps/rDock/src/rDock_2013.1_src/data/scripts/dock_solv.prm

>  <Rbt.Receptor>
prm/pocket_docking_3.prm

>  <SCORE>
3.63804

>  <SCORE.INTER>
1.20209

>  <SCORE.INTER.CONST>
1

>  <SCORE.INTER.POLAR>
0

>  <SCORE.INTER.ROT>
13

>  <SCORE.INTER.SOLV>
22.1829

>  <SCORE.INTER.VDW>
-18.8596

>  <SCORE.INTER.norm>
0.0261324

>  <SCORE.INTRA>
2.42582

>  <SCORE.INTRA.DIHEDRAL>
-2.55082

>  <SCORE.INTRA.DIHEDRAL.0>
19.7146

>  <SCORE.INTRA.POLAR>
0

>  <SCORE.INTRA.POLAR.0>
0

>  <SCORE.INTRA.REPUL>
0.0737458

>  <SCORE.INTRA.REPUL.0>
0

>  <SCORE.INTRA.SOLV>
4.05124

>  <SCORE.INTRA.SOLV.lig_0>
-116.697

>  <SCORE.INTRA.VDW>
1.30688

>  <SCORE.INTRA.VDW.0>
-7.06424

>  <SCORE.INTRA.norm>
0.0527353

>  <SCORE.RESTR>
0.0101325

>  <SCORE.RESTR.CAVITY>
0.0101325

>  <SCORE.RESTR.norm>
0.000220271

>  <SCORE.SYSTEM>
0

>  <SCORE.SYSTEM.CONST>
0

>  <SCORE.SYSTEM.DIHEDRAL>
0

>  <SCORE.SYSTEM.SOLV>
0

>  <SCORE.SYSTEM.norm>
0

>  <SCORE.heavy>
46

>  <SCORE.norm>
0.0790879

>  <RMSD>
9.532

$$$$
lig.pdb
 OpenBabel03061811583D
libRbt.so/2013.1/901 2013/11/27
 46 49  0  0  0  0  0  0  0  0999 V2000
   14.8023  -12.8972    8.8038 C   0  0  1  0  0  0  0  0  0  0  0  0
   12.3107  -13.1676    8.4475 C   0  0  1  0  0  0  0  0  0  0  0  0
   12.1789  -14.2311    7.3156 C   0  0  1  0  0  0  0  0  0  0  0  0
   10.8025  -15.0465    7.5249 C   0  0  2  0  0  0  0  0  0  0  0  0
   11.4501  -12.4475    5.6647 C   0  0  2  0  0  0  0  0  0  0  0  0
   11.7662  -11.9390    4.2294 C   0  0  1  0  0  0  0  0  0  0  0  0
   10.4348  -11.2883    3.9414 C   0  0  1  0  0  0  0  0  0  0  0  0
    9.3728  -12.3332    4.4100 C   0  0  1  0  0  0  0  0  0  0  0  0
    9.0307  -13.4931    3.4103 C   0  0  0  0  0  0  0  0  0  0  0  0
   10.4173   -8.8230    4.0168 C   0  0  1  0  0  0  0  0  0  0  0  0
    9.7557   -8.8727    2.6719 C   0  0  1  0  0  0  0  0  0  0  0  0
   15.9507  -12.3712    7.9107 C   0  0  1  0  0  0  0  0  0  0  0  0
    9.9838   -7.4956    1.9536 C   0  0  0  0  0  0  0  0  0  0  0  0
   11.3597   -7.1534    1.7340 C   0  0  0  0  0  0  0  0  0  0  0  0
   12.0251   -7.0610    3.0161 C   0  0  2  0  0  0  0  0  0  0  0  0
   13.5512   -6.6945    2.8378 C   0  0  0  0  0  0  0  0  0  0  0  0
    7.2702  -17.8060    8.3872 C   0  0  2  0  0  0  0  0  0  0  0  0
    9.6068  -17.9551    8.6536 C   0  0  0  0  0  0  0  0  0  0  0  0
    7.2716  -18.1090    7.0388 C   0  0  0  0  0  0  0  0  0  0  0  0
    8.1774  -18.5959    9.0136 C   0  0  1  0  0  0  0  0  0  0  0  0
   15.8902  -13.0243    6.4555 C   0  0  0  0  0  0  0  0  0  0  0  0
   15.9771  -14.6176    6.6172 C   0  0  0  0  0  0  0  0  0  0  0  0
   14.7465  -15.0878    7.5231 C   0  0  1  0  0  0  0  0  0  0  0  0
   14.7481  -16.6047    7.7475 C   0  0  0  0  0  0  0  0  0  0  0  0
   10.8865  -15.8059    8.9203 C   0  0  1  0  0  0  0  0  0  0  0  0
   10.9976  -14.6534   10.0540 C   0  0  0  0  0  0  0  0  0  0  0  0
   12.3237  -13.8240    9.8503 C   0  0  2  0  0  0  0  0  0  0  0  0
    5.9317  -17.9519    8.9134 F   0  0  0  0  0  0  0  0  0  0  0  0
   14.1740   -6.0403    4.1044 N   0  0  0  0  0  0  0  0  0  0  0  0
   15.8576  -10.8650    7.8640 N   0  0  0  0  0  0  0  0  0  0  0  0
   10.2873   -9.8338    1.8076 N   0  0  0  0  0  0  0  0  0  0  0  0
    6.6059  -17.5093    5.9440 N   0  0  0  0  0  0  0  0  0  0  0  0
   15.8438  -16.9985    8.5447 N   0  0  0  0  0  0  0  0  0  0  0  0
    9.6499  -16.5761    9.1445 N   0  0  0  0  0  0  0  0  0  0  0  0
   12.4326  -12.7589   10.8717 N   0  0  0  0  0  0  0  0  0  0  0  0
   13.5341  -12.4546    8.3192 O   0  0  0  0  0  0  0  0  0  0  0  0
   12.1783  -13.4808    6.0157 O   0  0  0  0  0  0  0  0  0  0  0  0
   10.7099  -15.9780    6.5151 O   0  0  0  0  0  0  0  0  0  0  0  0
   12.8341  -11.0441    4.3075 O   0  0  0  0  0  0  0  0  0  0  0  0
    9.9952  -12.6676    5.6616 O   0  0  0  0  0  0  0  0  0  0  0  0
   10.2378  -14.2539    3.2051 O   0  0  0  0  0  0  0  0  0  0  0  0
   10.3304   -9.9972    4.7328 O   0  0  0  0  0  0  0  0  0  0  0  0
    8.0056  -18.6266   10.4474 O   0  0  0  0  0  0  0  0  0  0  0  0
   10.5219  -18.5552    8.0663 O   0  0  0  0  0  0  0  0  0  0  0  0
   11.8744   -8.3551    3.7806 O   0  0  0  0  0  0  0  0  0  0  0  0
   14.8100  -14.3974    8.8757 O   0  0  0  0  0  0  0  0  0  0  0  0
  1 36  1  6  0  0  0
  2 36  1  6  0  0  0
  2  3  1  0  0  0  0
  3 37  1  6  0  0  0
  3  4  1  0  0  0  0
  4 38  1  6  0  0  0
  5 37  1  6  0  0  0
  5  6  1  0  0  0  0
  6  7  1  0  0  0  0
  6 39  1  1  0  0  0
  7 42  1  1  0  0  0
  8  9  1  6  0  0  0
  8  7  1  0  0  0  0
 10 42  1  6  0  0  0
 10 11  1  0  0  0  0
 11 31  1  6  0  0  0
 11 13  1  0  0  0  0
 12 30  1  6  0  0  0
 12  1  1  0  0  0  0
 14 13  1  0  0  0  0
 15 16  1  6  0  0  0
 15 14  1  0  0  0  0
 17 19  1  6  0  0  0
 17 28  1  0  0  0  0
 18 34  1  0  0  0  0
 19 32  1  0  0  0  0
 20 18  1  1  0  0  0
 20 17  1  0  0  0  0
 20 43  1  0  0  0  0
 21 12  1  0  0  0  0
 22 21  1  0  0  0  0
 22 23  1  0  0  0  0
 23 24  1  1  0  0  0
 23 46  1  0  0  0  0
 24 33  1  0  0  0  0
 25 34  1  1  0  0  0
 25  4  1  0  0  0  0
 26 25  1  0  0  0  0
 27 35  1  1  0  0  0
 27 26  1  0  0  0  0
 27  2  1  0  0  0  0
 29 16  1  0  0  0  0
 40  8  1  0  0  0  0
 40  5  1  0  0  0  0
 41  9  1  0  0  0  0
 44 18  2  0  0  0  0
 45 15  1  0  0  0  0
 45 10  1  0  0  0  0
 46  1  1  0  0  0  0
M  END
>  <CHROM.1>
149.19856381,-83.09454656,-50.39407504,178.97504007,108.18891182,62.45664330
37.12247982,157.16196968,-173.94356272,59.84255873,76.36131397,67.62595385
89.74507908,11.45805105,-13.29447839,6.42496236,-1.82000345,-0.37323976,-0.63213175

>  <Name>
lig.pdb

>  <RI>
0

>  <Rbt.Current_Directory>
/home/afrankz/demos/rdock_decoys_rna/rnas/3wru

>  <Rbt.Executable>
rbdock ($Id: //depot/dev/client3/rdock/2013.1/src/exe/rbdock.cxx#4 $)

>  <Rbt.Library>
libRbt.so (2013.1, Build901 2013/11/27)

>  <Rbt.Parameter_File>
/export/apps/rDock/src/rDock_2013.1_src/data/scripts/dock_solv.prm

>  <Rbt.Receptor>
prm/pocket_docking_3.prm

>  <SCORE>
12.1137

>  <SCORE.INTER>
4.71253

>  <SCORE.INTER.CONST>
1

>  <SCORE.INTER.POLAR>
0

>  <SCORE.INTER.ROT>
13

>  <SCORE.INTER.SOLV>
26.4828

>  <SCORE.INTER.VDW>
-17.9526

>  <SCORE.INTER.norm>
0.102446

>  <SCORE.INTRA>
6.1324

>  <SCORE.INTRA.DIHEDRAL>
-0.0770587

>  <SCORE.INTRA.DIHEDRAL.0>
19.7146

>  <SCORE.INTRA.POLAR>
0

>  <SCORE.INTRA.POLAR.0>
0

>  <SCORE.INTRA.REPUL>
0

>  <SCORE.INTRA.REPUL.0>
0

>  <SCORE.INTRA.SOLV>
2.1385

>  <SCORE.INTRA.SOLV.lig_0>
-116.697

>  <SCORE.INTRA.VDW>
5.10168

>  <SCORE.INTRA.VDW.0>
-7.06424

>  <SCORE.INTRA.norm>
0.133313

>  <SCORE.RESTR>
1.26882

>  <SCORE.RESTR.CAVITY>
1.26882

>  <SCORE.RESTR.norm>
0.0275831

>  <SCORE.SYSTEM>
0

>  <SCORE.SYSTEM.CONST>
0

>  <SCORE.SYSTEM.DIHEDRAL>
0

>  <SCORE.SYSTEM.SOLV>
0

>  <SCORE.SYSTEM.norm>
0

>  <SCORE.heavy>
46

>  <SCORE.norm>
0.263342

>  <RMSD>
9.553

$$$$
lig.pdb
 OpenBabel03061811583D
libRbt.so/2013.1/901 2013/11/27
 46 49  0  0  0  0  0  0  0  0999 V2000
   11.4586  -14.4080    8.8893 C   0  0  1  0  0  0  0  0  0  0  0  0
   10.7921  -12.8081    7.0443 C   0  0  1  0  0  0  0  0  0  0  0  0
   12.1624  -12.8600    6.3031 C   0  0  1  0  0  0  0  0  0  0  0  0
   12.3129  -11.5361    5.3934 C   0  0  2  0  0  0  0  0  0  0  0  0
   14.4660  -13.3307    7.2570 C   0  0  2  0  0  0  0  0  0  0  0  0
   15.3734  -12.8293    8.4163 C   0  0  1  0  0  0  0  0  0  0  0  0
   16.4098  -13.9254    8.3581 C   0  0  1  0  0  0  0  0  0  0  0  0
   15.5844  -15.2466    8.2475 C   0  0  1  0  0  0  0  0  0  0  0  0
   15.0183  -15.8425    9.5839 C   0  0  0  0  0  0  0  0  0  0  0  0
   18.1695  -12.6573    7.1837 C   0  0  1  0  0  0  0  0  0  0  0  0
   18.8011  -12.3257    5.8646 C   0  0  1  0  0  0  0  0  0  0  0  0
   10.9135  -15.6945    9.5534 C   0  0  1  0  0  0  0  0  0  0  0  0
   19.8162  -11.1479    6.0806 C   0  0  0  0  0  0  0  0  0  0  0  0
   20.8817  -11.4339    6.9980 C   0  0  0  0  0  0  0  0  0  0  0  0
   20.3107  -11.7249    8.2958 C   0  0  2  0  0  0  0  0  0  0  0  0
   21.4390  -12.0579    9.3499 C   0  0  0  0  0  0  0  0  0  0  0  0
    9.9024   -8.0584    2.0182 C   0  0  2  0  0  0  0  0  0  0  0  0
   10.4719  -10.3369    2.2098 C   0  0  0  0  0  0  0  0  0  0  0  0
   10.4241   -6.7887    1.8576 C   0  0  0  0  0  0  0  0  0  0  0  0
   10.7424   -8.9523    1.4398 C   0  0  1  0  0  0  0  0  0  0  0  0
    9.5365  -15.4101   10.3091 C   0  0  0  0  0  0  0  0  0  0  0  0
    9.7927  -14.2670   11.4045 C   0  0  0  0  0  0  0  0  0  0  0  0
   10.3235  -12.9657   10.6424 C   0  0  1  0  0  0  0  0  0  0  0  0
   10.6112  -11.8127   11.6115 C   0  0  0  0  0  0  0  0  0  0  0  0
   11.1526  -11.5509    4.3052 C   0  0  1  0  0  0  0  0  0  0  0  0
    9.7604  -11.4715    5.1307 C   0  0  0  0  0  0  0  0  0  0  0  0
    9.6063  -12.7439    6.0500 C   0  0  2  0  0  0  0  0  0  0  0  0
    8.5640   -8.1029    1.4737 F   0  0  0  0  0  0  0  0  0  0  0  0
   22.4906  -10.9210    9.4983 N   0  0  0  0  0  0  0  0  0  0  0  0
   10.7695  -16.7506    8.4842 N   0  0  0  0  0  0  0  0  0  0  0  0
   19.5533  -13.3664    5.3124 N   0  0  0  0  0  0  0  0  0  0  0  0
   11.6754   -6.2381    2.2213 N   0  0  0  0  0  0  0  0  0  0  0  0
    9.4450  -11.4338   12.3097 N   0  0  0  0  0  0  0  0  0  0  0  0
   11.2624  -10.3610    3.4423 N   0  0  0  0  0  0  0  0  0  0  0  0
    8.3444  -12.6790    6.8200 N   0  0  0  0  0  0  0  0  0  0  0  0
   10.6058  -13.9805    7.8267 O   0  0  0  0  0  0  0  0  0  0  0  0
   13.2244  -12.9201    7.3621 O   0  0  0  0  0  0  0  0  0  0  0  0
   13.5284  -11.6060    4.7502 O   0  0  0  0  0  0  0  0  0  0  0  0
   15.8589  -11.5658    8.0768 O   0  0  0  0  0  0  0  0  0  0  0  0
   14.6539  -14.7901    7.2516 O   0  0  0  0  0  0  0  0  0  0  0  0
   14.0959  -14.8776   10.1283 O   0  0  0  0  0  0  0  0  0  0  0  0
   17.2880  -13.7155    7.1379 O   0  0  0  0  0  0  0  0  0  0  0  0
   10.4973   -9.1258    0.0269 O   0  0  0  0  0  0  0  0  0  0  0  0
    9.6996  -11.2257    1.8145 O   0  0  0  0  0  0  0  0  0  0  0  0
   19.3256  -12.8654    8.1926 O   0  0  0  0  0  0  0  0  0  0  0  0
   11.6014  -13.2961    9.8889 O   0  0  0  0  0  0  0  0  0  0  0  0
  1 36  1  6  0  0  0
  2 36  1  6  0  0  0
  2  3  1  0  0  0  0
  3 37  1  1  0  0  0
  3  4  1  0  0  0  0
  4 38  1  6  0  0  0
  5 37  1  1  0  0  0
  5  6  1  0  0  0  0
  6  7  1  0  0  0  0
  6 39  1  6  0  0  0
  7 42  1  6  0  0  0
  8  9  1  1  0  0  0
  8  7  1  0  0  0  0
 10 42  1  6  0  0  0
 10 11  1  0  0  0  0
 11 31  1  1  0  0  0
 11 13  1  0  0  0  0
 12 30  1  6  0  0  0
 12  1  1  0  0  0  0
 14 13  1  0  0  0  0
 15 16  1  1  0  0  0
 15 14  1  0  0  0  0
 17 19  1  6  0  0  0
 17 28  1  0  0  0  0
 18 34  1  0  0  0  0
 19 32  1  0  0  0  0
 20 18  1  1  0  0  0
 20 17  1  0  0  0  0
 20 43  1  0  0  0  0
 21 12  1  0  0  0  0
 22 21  1  0  0  0  0
 22 23  1  0  0  0  0
 23 24  1  1  0  0  0
 23 46  1  0  0  0  0
 24 33  1  0  0  0  0
 25 34  1  6  0  0  0
 25  4  1  0  0  0  0
 26 25  1  0  0  0  0
 27 35  1  1  0  0  0
 27 26  1  0  0  0  0
 27  2  1  0  0  0  0
 29 16  1  0  0  0  0
 40  8  1  0  0  0  0
 40  5  1  0  0  0  0
 41  9  1  0  0  0  0
 44 18  2  0  0  0  0
 45 15  1  0  0  0  0
 45 10  1  0  0  0  0
 46  1  1  0  0  0  0
M  END
>  <CHROM.1>
177.59393478,59.92300883,159.62689797,161.52813535,71.54988999,62.77542259
-168.02724815,56.89690064,-56.20809037,-83.81227233,154.77199873,-60.53695864
167.08733170,13.42997554,-12.24285286,6.74588336,0.58765729,0.04112199,2.17343547

>  <Name>
lig.pdb

>  <RI>
0

>  <Rbt.Current_Directory>
/home/afrankz/demos/rdock_decoys_rna/rnas/3wru

>  <Rbt.Executable>
rbdock ($Id: //depot/dev/client3/rdock/2013.1/src/exe/rbdock.cxx#4 $)

>  <Rbt.Library>
libRbt.so (2013.1, Build901 2013/11/27)

>  <Rbt.Parameter_File>
/export/apps/rDock/src/rDock_2013.1_src/data/scripts/dock_solv.prm

>  <Rbt.Receptor>
prm/pocket_docking_4.prm

>  <SCORE>
-6.08734

>  <SCORE.INTER>
-0.710692

>  <SCORE.INTER.CONST>
1

>  <SCORE.INTER.POLAR>
0

>  <SCORE.INTER.ROT>
13

>  <SCORE.INTER.SOLV>
19.7796

>  <SCORE.INTER.VDW>
-19.3337

>  <SCORE.INTER.norm>
-0.0154498

>  <SCORE.INTRA>
-5.37665

>  <SCORE.INTRA.DIHEDRAL>
-11.3067

>  <SCORE.INTRA.DIHEDRAL.0>
19.7146

>  <SCORE.INTRA.POLAR>
0

>  <SCORE.INTRA.POLAR.0>
0

>  <SCORE.INTRA.REPUL>
0

>  <SCORE.INTRA.REPUL.0>
0

>  <SCORE.INTRA.SOLV>
-1.9453

>  <SCORE.INTRA.SOLV.lig_0>
-116.697

>  <SCORE.INTRA.VDW>
1.24933

>  <SCORE.INTRA.VDW.0>
-7.06424

>  <SCORE.INTRA.norm>
-0.116884

>  <SCORE.RESTR>
0

>  <SCORE.RESTR.CAVITY>
0

>  <SCORE.RESTR.norm>
0

>  <SCORE.SYSTEM>
0

>  <SCORE.SYSTEM.CONST>
0

>  <SCORE.SYSTEM.DIHEDRAL>
0

>  <SCORE.SYSTEM.SOLV>
0

>  <SCORE.SYSTEM.norm>
0

>  <SCORE.heavy>
46

>  <SCORE.norm>
-0.132334

>  <RMSD>
9.561

$$$$
lig.pdb
 OpenBabel03061811583D
libRbt.so/2013.1/901 2013/11/27
 46 49  0  0  0  0  0  0  0  0999 V2000
    6.8122  -13.3474   12.1373 C   0  0  1  0  0  0  0  0  0  0  0  0
    8.1982  -15.4428   11.8271 C   0  0  1  0  0  0  0  0  0  0  0  0
    9.6546  -15.7407   11.3582 C   0  0  1  0  0  0  0  0  0  0  0  0
    9.7939  -17.3208   11.0636 C   0  0  2  0  0  0  0  0  0  0  0  0
   10.9887  -14.3600    9.6993 C   0  0  2  0  0  0  0  0  0  0  0  0
   11.5522  -13.3165   10.7053 C   0  0  1  0  0  0  0  0  0  0  0  0
   12.9991  -13.3772   10.2792 C   0  0  1  0  0  0  0  0  0  0  0  0
   13.3127  -14.9021   10.1549 C   0  0  1  0  0  0  0  0  0  0  0  0
   13.6635  -15.6639   11.4809 C   0  0  0  0  0  0  0  0  0  0  0  0
   14.4355  -12.3130    8.5797 C   0  0  1  0  0  0  0  0  0  0  0  0
   14.5102  -11.4811    7.3343 C   0  0  1  0  0  0  0  0  0  0  0  0
    6.3258  -13.0784   10.6936 C   0  0  1  0  0  0  0  0  0  0  0  0
   16.0210  -11.2046    7.0099 C   0  0  0  0  0  0  0  0  0  0  0  0
   16.8108  -12.3800    6.7795 C   0  0  0  0  0  0  0  0  0  0  0  0
   16.7917  -13.1937    7.9764 C   0  0  2  0  0  0  0  0  0  0  0  0
   17.6399  -14.5116    7.7797 C   0  0  0  0  0  0  0  0  0  0  0  0
   10.3007  -21.8335   10.3568 C   0  0  2  0  0  0  0  0  0  0  0  0
    8.8469  -20.1573   11.1503 C   0  0  0  0  0  0  0  0  0  0  0  0
   10.8060  -23.1122   10.4974 C   0  0  0  0  0  0  0  0  0  0  0  0
    9.1593  -21.7324   11.0822 C   0  0  1  0  0  0  0  0  0  0  0  0
    7.3065  -12.0719    9.9366 C   0  0  0  0  0  0  0  0  0  0  0  0
    7.3739  -10.7089   10.7792 C   0  0  0  0  0  0  0  0  0  0  0  0
    7.9109  -11.0618   12.2431 C   0  0  1  0  0  0  0  0  0  0  0  0
    7.9998   -9.8177   13.1352 C   0  0  0  0  0  0  0  0  0  0  0  0
    9.5353  -18.1012   12.4256 C   0  0  1  0  0  0  0  0  0  0  0  0
    8.0057  -17.7735   12.8485 C   0  0  0  0  0  0  0  0  0  0  0  0
    7.8397  -16.2275   13.1134 C   0  0  2  0  0  0  0  0  0  0  0  0
   10.1093  -21.5414    8.9541 F   0  0  0  0  0  0  0  0  0  0  0  0
   17.6540  -15.4224    9.0408 N   0  0  0  0  0  0  0  0  0  0  0  0
    6.2100  -14.4049    9.9819 N   0  0  0  0  0  0  0  0  0  0  0  0
   13.9956  -12.1076    6.1958 N   0  0  0  0  0  0  0  0  0  0  0  0
   10.2797  -24.3723   10.1278 N   0  0  0  0  0  0  0  0  0  0  0  0
    8.9115   -8.8790   12.6074 N   0  0  0  0  0  0  0  0  0  0  0  0
    9.6667  -19.5521   12.2021 N   0  0  0  0  0  0  0  0  0  0  0  0
    6.4438  -15.9114   13.4886 N   0  0  0  0  0  0  0  0  0  0  0  0
    8.0479  -14.0630   12.1354 O   0  0  0  0  0  0  0  0  0  0  0  0
    9.8829  -14.9301   10.1158 O   0  0  0  0  0  0  0  0  0  0  0  0
   11.0865  -17.5577   10.6524 O   0  0  0  0  0  0  0  0  0  0  0  0
   10.9344  -12.0903   10.4560 O   0  0  0  0  0  0  0  0  0  0  0  0
   12.1168  -15.2707    9.4479 O   0  0  0  0  0  0  0  0  0  0  0  0
   14.8448  -15.0475   12.0312 O   0  0  0  0  0  0  0  0  0  0  0  0
   13.1554  -12.6676    8.9463 O   0  0  0  0  0  0  0  0  0  0  0  0
    8.0435  -22.4238   10.4795 O   0  0  0  0  0  0  0  0  0  0  0  0
    8.0460  -19.5635   10.4095 O   0  0  0  0  0  0  0  0  0  0  0  0
   15.3700  -13.5283    8.3615 O   0  0  0  0  0  0  0  0  0  0  0  0
    6.9816  -12.0668   12.9037 O   0  0  0  0  0  0  0  0  0  0  0  0
  1 36  1  6  0  0  0
  2 36  1  1  0  0  0
  2  3  1  0  0  0  0
  3 37  1  6  0  0  0
  3  4  1  0  0  0  0
  4 38  1  1  0  0  0
  5 37  1  1  0  0  0
  5  6  1  0  0  0  0
  6  7  1  0  0  0  0
  6 39  1  6  0  0  0
  7 42  1  6  0  0  0
  8  9  1  1  0  0  0
  8  7  1  0  0  0  0
 10 42  1  6  0  0  0
 10 11  1  0  0  0  0
 11 31  1  6  0  0  0
 11 13  1  0  0  0  0
 12 30  1  6  0  0  0
 12  1  1  0  0  0  0
 14 13  1  0  0  0  0
 15 16  1  6  0  0  0
 15 14  1  0  0  0  0
 17 19  1  6  0  0  0
 17 28  1  0  0  0  0
 18 34  1  0  0  0  0
 19 32  1  0  0  0  0
 20 18  1  6  0  0  0
 20 17  1  0  0  0  0
 20 43  1  0  0  0  0
 21 12  1  0  0  0  0
 22 21  1  0  0  0  0
 22 23  1  0  0  0  0
 23 24  1  1  0  0  0
 23 46  1  0  0  0  0
 24 33  1  0  0  0  0
 25 34  1  6  0  0  0
 25  4  1  0  0  0  0
 26 25  1  0  0  0  0
 27 35  1  6  0  0  0
 27 26  1  0  0  0  0
 27  2  1  0  0  0  0
 29 16  1  0  0  0  0
 40  8  1  0  0  0  0
 40  5  1  0  0  0  0
 41  9  1  0  0  0  0
 44 18  2  0  0  0  0
 45 15  1  0  0  0  0
 45 10  1  0  0  0  0
 46  1  1  0  0  0  0
M  END
>  <CHROM.1>
-74.20215368,156.79954344,146.07141516,-59.62754800,163.18170594,-60.59679645
-173.40193593,179.90448857,63.19815683,-81.12387581,166.74396847,-62.00050159
-54.88807666,10.79621238,-15.37960404,10.43989101,2.18804882,-0.42439120
-3.12965237

>  <Name>
lig.pdb

>  <RI>
0

>  <Rbt.Current_Directory>
/home/afrankz/demos/rdock_decoys_rna/rnas/3wru

>  <Rbt.Executable>
rbdock ($Id: //depot/dev/client3/rdock/2013.1/src/exe/rbdock.cxx#4 $)

>  <Rbt.Library>
libRbt.so (2013.1, Build901 2013/11/27)

>  <Rbt.Parameter_File>
/export/apps/rDock/src/rDock_2013.1_src/data/scripts/dock_solv.prm

>  <Rbt.Receptor>
prm/pocket_docking_8.prm

>  <SCORE>
-0.00468859

>  <SCORE.INTER>
2.80925

>  <SCORE.INTER.CONST>
1

>  <SCORE.INTER.POLAR>
0

>  <SCORE.INTER.ROT>
13

>  <SCORE.INTER.SOLV>
17.5749

>  <SCORE.INTER.VDW>
-16.2521

>  <SCORE.INTER.norm>
0.0610707

>  <SCORE.INTRA>
-2.81394

>  <SCORE.INTRA.DIHEDRAL>
-8.44459

>  <SCORE.INTRA.DIHEDRAL.0>
19.7146

>  <SCORE.INTRA.POLAR>
0

>  <SCORE.INTRA.POLAR.0>
0

>  <SCORE.INTRA.REPUL>
0

>  <SCORE.INTRA.REPUL.0>
0

>  <SCORE.INTRA.SOLV>
2.36241

>  <SCORE.INTRA.SOLV.lig_0>
-116.697

>  <SCORE.INTRA.VDW>
0.227149

>  <SCORE.INTRA.VDW.0>
-7.06424

>  <SCORE.INTRA.norm>
-0.0611727

>  <SCORE.RESTR>
0

>  <SCORE.RESTR.CAVITY>
0

>  <SCORE.RESTR.norm>
0

>  <SCORE.SYSTEM>
0

>  <SCORE.SYSTEM.CONST>
0

>  <SCORE.SYSTEM.DIHEDRAL>
0

>  <SCORE.SYSTEM.SOLV>
0

>  <SCORE.SYSTEM.norm>
0

>  <SCORE.heavy>
46

>  <SCORE.norm>
-0.000101926

>  <RMSD>
9.593

$$$$
lig.pdb
 OpenBabel03061811583D
libRbt.so/2013.1/901 2013/11/27
 46 49  0  0  0  0  0  0  0  0999 V2000
   10.2842  -14.5937   10.6702 C   0  0  1  0  0  0  0  0  0  0  0  0
   11.2628  -12.8772    9.0878 C   0  0  1  0  0  0  0  0  0  0  0  0
   12.5601  -12.7206    8.2380 C   0  0  1  0  0  0  0  0  0  0  0  0
   12.5839  -11.2426    7.5916 C   0  0  2  0  0  0  0  0  0  0  0  0
   14.9985  -12.9614    8.8969 C   0  0  2  0  0  0  0  0  0  0  0  0
   15.7990  -13.9068    9.8371 C   0  0  1  0  0  0  0  0  0  0  0  0
   16.9506  -14.1997    8.9060 C   0  0  1  0  0  0  0  0  0  0  0  0
   16.2797  -14.5079    7.5297 C   0  0  1  0  0  0  0  0  0  0  0  0
   15.7298  -15.9622    7.3191 C   0  0  0  0  0  0  0  0  0  0  0  0
   19.1838  -13.1714    9.1038 C   0  0  1  0  0  0  0  0  0  0  0  0
   20.0248  -11.9372    8.9686 C   0  0  1  0  0  0  0  0  0  0  0  0
   10.4147  -13.6853   11.9157 C   0  0  1  0  0  0  0  0  0  0  0  0
   21.5198  -12.3192    9.2577 C   0  0  0  0  0  0  0  0  0  0  0  0
   22.0704  -13.3036    8.3710 C   0  0  0  0  0  0  0  0  0  0  0  0
   21.3041  -14.5247    8.5001 C   0  0  2  0  0  0  0  0  0  0  0  0
   21.8595  -15.6471    7.5375 C   0  0  0  0  0  0  0  0  0  0  0  0
   11.9402   -8.1306    3.0170 C   0  0  2  0  0  0  0  0  0  0  0  0
   12.2427   -9.5333    4.8862 C   0  0  0  0  0  0  0  0  0  0  0  0
   10.6232   -8.4081    2.7029 C   0  0  0  0  0  0  0  0  0  0  0  0
   12.0552   -8.0248    4.3642 C   0  0  1  0  0  0  0  0  0  0  0  0
   11.8387  -13.8697   12.6129 C   0  0  0  0  0  0  0  0  0  0  0  0
   12.0047  -15.4140   13.0129 C   0  0  0  0  0  0  0  0  0  0  0  0
   11.8886  -16.2835   11.6764 C   0  0  1  0  0  0  0  0  0  0  0  0
   12.0230  -17.7850   11.9573 C   0  0  0  0  0  0  0  0  0  0  0  0
   11.3295  -11.1079    6.6224 C   0  0  1  0  0  0  0  0  0  0  0  0
   10.0173  -11.2546    7.5618 C   0  0  0  0  0  0  0  0  0  0  0  0
    9.9891  -12.6841    8.2279 C   0  0  2  0  0  0  0  0  0  0  0  0
   12.3631   -6.9392    2.3161 F   0  0  0  0  0  0  0  0  0  0  0  0
   23.2971  -16.1123    7.9077 N   0  0  0  0  0  0  0  0  0  0  0  0
   10.1713  -12.2590   11.4847 N   0  0  0  0  0  0  0  0  0  0  0  0
   20.0256  -11.3828    7.6855 N   0  0  0  0  0  0  0  0  0  0  0  0
    9.9732   -8.5751    1.4575 N   0  0  0  0  0  0  0  0  0  0  0  0
   10.9393  -18.2558   12.7286 N   0  0  0  0  0  0  0  0  0  0  0  0
   11.3215   -9.7722    5.9992 N   0  0  0  0  0  0  0  0  0  0  0  0
    8.8019  -12.8282    9.0992 N   0  0  0  0  0  0  0  0  0  0  0  0
   11.1867  -14.1842    9.6421 O   0  0  0  0  0  0  0  0  0  0  0  0
   13.7163  -12.9280    9.1724 O   0  0  0  0  0  0  0  0  0  0  0  0
   13.7368  -11.1298    6.8471 O   0  0  0  0  0  0  0  0  0  0  0  0
   16.1564  -13.1886   10.9789 O   0  0  0  0  0  0  0  0  0  0  0  0
   15.3450  -13.4160    7.5410 O   0  0  0  0  0  0  0  0  0  0  0  0
   14.3019  -15.8614    7.1488 O   0  0  0  0  0  0  0  0  0  0  0  0
   17.8482  -12.9782    8.8251 O   0  0  0  0  0  0  0  0  0  0  0  0
   13.1857   -7.2245    4.7737 O   0  0  0  0  0  0  0  0  0  0  0  0
   13.0365  -10.3554    4.3997 O   0  0  0  0  0  0  0  0  0  0  0  0
   19.8432  -14.2599    8.2216 O   0  0  0  0  0  0  0  0  0  0  0  0
   10.5437  -16.0324   11.0144 O   0  0  0  0  0  0  0  0  0  0  0  0
  1 36  1  6  0  0  0
  2 36  1  6  0  0  0
  2  3  1  0  0  0  0
  3 37  1  1  0  0  0
  3  4  1  0  0  0  0
  4 38  1  6  0  0  0
  5 37  1  1  0  0  0
  5  6  1  0  0  0  0
  6  7  1  0  0  0  0
  6 39  1  1  0  0  0
  7 42  1  6  0  0  0
  8  9  1  1  0  0  0
  8  7  1  0  0  0  0
 10 42  1  6  0  0  0
 10 11  1  0  0  0  0
 11 31  1  6  0  0  0
 11 13  1  0  0  0  0
 12 30  1  6  0  0  0
 12  1  1  0  0  0  0
 14 13  1  0  0  0  0
 15 16  1  6  0  0  0
 15 14  1  0  0  0  0
 17 19  1  1  0  0  0
 17 28  1  0  0  0  0
 18 34  1  0  0  0  0
 19 32  1  0  0  0  0
 20 18  1  1  0  0  0
 20 17  1  0  0  0  0
 20 43  1  0  0  0  0
 21 12  1  0  0  0  0
 22 21  1  0  0  0  0
 22 23  1  0  0  0  0
 23 24  1  1  0  0  0
 23 46  1  0  0  0  0
 24 33  1  0  0  0  0
 25 34  1  1  0  0  0
 25  4  1  0  0  0  0
 26 25  1  0  0  0  0
 27 35  1  1  0  0  0
 27 26  1  0  0  0  0
 27  2  1  0  0  0  0
 29 16  1  0  0  0  0
 40  8  1  0  0  0  0
 40  5  1  0  0  0  0
 41  9  1  0  0  0  0
 44 18  2  0  0  0  0
 45 15  1  0  0  0  0
 45 10  1  0  0  0  0
 46  1  1  0  0  0  0
M  END
>  <CHROM.1>
-54.96855373,167.12597258,176.02441823,-148.47257707,125.86983892,116.58618077
178.31462477,65.45038520,178.02761715,-131.44683044,84.54379542,65.87011025
77.73438420,14.23377784,-12.74656523,8.12066986,2.57780410,0.10971439,-0.81982886

>  <Name>
lig.pdb

>  <RI>
0

>  <Rbt.Current_Directory>
/home/afrankz/demos/rdock_decoys_rna/rnas/3wru

>  <Rbt.Executable>
rbdock ($Id: //depot/dev/client3/rdock/2013.1/src/exe/rbdock.cxx#4 $)

>  <Rbt.Library>
libRbt.so (2013.1, Build901 2013/11/27)

>  <Rbt.Parameter_File>
/export/apps/rDock/src/rDock_2013.1_src/data/scripts/dock_solv.prm

>  <Rbt.Receptor>
prm/pocket_docking_3.prm

>  <SCORE>
10.2248

>  <SCORE.INTER>
4.40156

>  <SCORE.INTER.CONST>
1

>  <SCORE.INTER.POLAR>
0

>  <SCORE.INTER.ROT>
13

>  <SCORE.INTER.SOLV>
24.1041

>  <SCORE.INTER.VDW>
-17.367

>  <SCORE.INTER.norm>
0.0956861

>  <SCORE.INTRA>
5.39886

>  <SCORE.INTRA.DIHEDRAL>
1.87273

>  <SCORE.INTRA.DIHEDRAL.0>
19.7146

>  <SCORE.INTRA.POLAR>
0

>  <SCORE.INTRA.POLAR.0>
0

>  <SCORE.INTRA.REPUL>
0.0343567

>  <SCORE.INTRA.REPUL.0>
0

>  <SCORE.INTRA.SOLV>
3.24284

>  <SCORE.INTRA.SOLV.lig_0>
-116.697

>  <SCORE.INTRA.VDW>
2.66929

>  <SCORE.INTRA.VDW.0>
-7.06424

>  <SCORE.INTRA.norm>
0.117366

>  <SCORE.RESTR>
0.424348

>  <SCORE.RESTR.CAVITY>
0.424348

>  <SCORE.RESTR.norm>
0.00922495

>  <SCORE.SYSTEM>
0

>  <SCORE.SYSTEM.CONST>
0

>  <SCORE.SYSTEM.DIHEDRAL>
0

>  <SCORE.SYSTEM.SOLV>
0

>  <SCORE.SYSTEM.norm>
0

>  <SCORE.heavy>
46

>  <SCORE.norm>
0.222278

>  <RMSD>
9.605

$$$$
lig.pdb
 OpenBabel03061811583D
libRbt.so/2013.1/901 2013/11/27
 46 49  0  0  0  0  0  0  0  0999 V2000
   10.7334  -14.4552    9.5954 C   0  0  1  0  0  0  0  0  0  0  0  0
   12.0017  -12.8120    8.1465 C   0  0  1  0  0  0  0  0  0  0  0  0
   13.3487  -12.7776    7.3629 C   0  0  1  0  0  0  0  0  0  0  0  0
   13.5594  -11.2986    6.7539 C   0  0  2  0  0  0  0  0  0  0  0  0
   15.7246  -12.9471    8.2372 C   0  0  2  0  0  0  0  0  0  0  0  0
   16.5477  -13.8991    9.1509 C   0  0  1  0  0  0  0  0  0  0  0  0
   17.8266  -13.9029    8.3488 C   0  0  1  0  0  0  0  0  0  0  0  0
   17.3668  -14.1027    6.8697 C   0  0  1  0  0  0  0  0  0  0  0  0
   17.0673  -15.5736    6.4131 C   0  0  0  0  0  0  0  0  0  0  0  0
   19.7618  -12.6075    9.1617 C   0  0  1  0  0  0  0  0  0  0  0  0
   20.6154  -11.4009    8.9081 C   0  0  1  0  0  0  0  0  0  0  0  0
   11.2158  -15.5491   10.5773 C   0  0  1  0  0  0  0  0  0  0  0  0
   21.9936  -11.6050    9.6316 C   0  0  0  0  0  0  0  0  0  0  0  0
   22.7394  -12.7489    9.1914 C   0  0  0  0  0  0  0  0  0  0  0  0
   21.9597  -13.9399    9.4534 C   0  0  2  0  0  0  0  0  0  0  0  0
   22.7281  -15.2362    8.9798 C   0  0  0  0  0  0  0  0  0  0  0  0
   11.9082   -6.9961    4.7752 C   0  0  2  0  0  0  0  0  0  0  0  0
   11.5508   -9.2395    4.1489 C   0  0  0  0  0  0  0  0  0  0  0  0
   12.3737   -5.7328    4.4631 C   0  0  0  0  0  0  0  0  0  0  0  0
   11.9215   -7.7565    3.6523 C   0  0  1  0  0  0  0  0  0  0  0  0
   11.4668  -16.9305    9.8180 C   0  0  0  0  0  0  0  0  0  0  0  0
   10.0978  -17.3667    9.1053 C   0  0  0  0  0  0  0  0  0  0  0  0
    9.6809  -16.2056    8.0886 C   0  0  1  0  0  0  0  0  0  0  0  0
    8.3689  -16.5253    7.3619 C   0  0  0  0  0  0  0  0  0  0  0  0
   12.3755  -11.0135    5.7302 C   0  0  1  0  0  0  0  0  0  0  0  0
   11.0103  -11.0381    6.6028 C   0  0  0  0  0  0  0  0  0  0  0  0
   10.7994  -12.4689    7.2324 C   0  0  2  0  0  0  0  0  0  0  0  0
   10.5970   -6.8929    5.3751 F   0  0  0  0  0  0  0  0  0  0  0  0
   24.0419  -15.4911    9.7730 N   0  0  0  0  0  0  0  0  0  0  0  0
   12.4593  -15.0445   11.2690 N   0  0  0  0  0  0  0  0  0  0  0  0
   20.9306  -11.1954    7.5620 N   0  0  0  0  0  0  0  0  0  0  0  0
   13.6602   -5.2741    4.0944 N   0  0  0  0  0  0  0  0  0  0  0  0
    8.4757  -17.7245    6.6260 N   0  0  0  0  0  0  0  0  0  0  0  0
   12.5384   -9.6730    5.1395 N   0  0  0  0  0  0  0  0  0  0  0  0
    9.5621  -12.5028    8.0431 N   0  0  0  0  0  0  0  0  0  0  0  0
   11.7617  -14.1138    8.6652 O   0  0  0  0  0  0  0  0  0  0  0  0
   14.4292  -13.1239    8.3456 O   0  0  0  0  0  0  0  0  0  0  0  0
   14.7531  -11.2944    6.0675 O   0  0  0  0  0  0  0  0  0  0  0  0
   16.6644  -13.3061   10.4087 O   0  0  0  0  0  0  0  0  0  0  0  0
   16.2841  -13.1577    6.8927 O   0  0  0  0  0  0  0  0  0  0  0  0
   16.9965  -15.5710    4.9733 O   0  0  0  0  0  0  0  0  0  0  0  0
   18.5349  -12.5733    8.5354 O   0  0  0  0  0  0  0  0  0  0  0  0
   10.9629   -7.3211    2.6635 O   0  0  0  0  0  0  0  0  0  0  0  0
   10.5697   -9.8914    3.7552 O   0  0  0  0  0  0  0  0  0  0  0  0
   20.6116  -13.8441    8.7788 O   0  0  0  0  0  0  0  0  0  0  0  0
    9.5108  -14.8973    8.8434 O   0  0  0  0  0  0  0  0  0  0  0  0
  1 36  1  6  0  0  0
  2 36  1  6  0  0  0
  2  3  1  0  0  0  0
  3 37  1  1  0  0  0
  3  4  1  0  0  0  0
  4 38  1  6  0  0  0
  5 37  1  6  0  0  0
  5  6  1  0  0  0  0
  6  7  1  0  0  0  0
  6 39  1  1  0  0  0
  7 42  1  6  0  0  0
  8  9  1  1  0  0  0
  8  7  1  0  0  0  0
 10 42  1  6  0  0  0
 10 11  1  0  0  0  0
 11 31  1  6  0  0  0
 11 13  1  0  0  0  0
 12 30  1  6  0  0  0
 12  1  1  0  0  0  0
 14 13  1  0  0  0  0
 15 16  1  6  0  0  0
 15 14  1  0  0  0  0
 17 19  1  6  0  0  0
 17 28  1  0  0  0  0
 18 34  1  0  0  0  0
 19 32  1  0  0  0  0
 20 18  1  1  0  0  0
 20 17  1  0  0  0  0
 20 43  1  0  0  0  0
 21 12  1  0  0  0  0
 22 21  1  0  0  0  0
 22 23  1  0  0  0  0
 23 24  1  1  0  0  0
 23 46  1  0  0  0  0
 24 33  1  0  0  0  0
 25 34  1  1  0  0  0
 25  4  1  0  0  0  0
 26 25  1  0  0  0  0
 27 35  1  1  0  0  0
 27 26  1  0  0  0  0
 27  2  1  0  0  0  0
 29 16  1  0  0  0  0
 40  8  1  0  0  0  0
 40  5  1  0  0  0  0
 41  9  1  0  0  0  0
 44 18  2  0  0  0  0
 45 15  1  0  0  0  0
 45 10  1  0  0  0  0
 46  1  1  0  0  0  0
M  END
>  <CHROM.1>
-144.38592937,170.03764159,-163.87170114,-157.22264937,115.66243411,-165.76913399
159.92841492,64.56980586,-68.85718664,-58.85474965,172.92360939,-59.49415729
178.92551190,14.54921257,-12.55613213,7.44263099,2.81344442,-0.12733968,-0.49247443

>  <Name>
lig.pdb

>  <RI>
0

>  <Rbt.Current_Directory>
/home/afrankz/demos/rdock_decoys_rna/rnas/3wru

>  <Rbt.Executable>
rbdock ($Id: //depot/dev/client3/rdock/2013.1/src/exe/rbdock.cxx#4 $)

>  <Rbt.Library>
libRbt.so (2013.1, Build901 2013/11/27)

>  <Rbt.Parameter_File>
/export/apps/rDock/src/rDock_2013.1_src/data/scripts/dock_solv.prm

>  <Rbt.Receptor>
prm/pocket_docking_3.prm

>  <SCORE>
5.68577

>  <SCORE.INTER>
2.00439

>  <SCORE.INTER.CONST>
1

>  <SCORE.INTER.POLAR>
0

>  <SCORE.INTER.ROT>
13

>  <SCORE.INTER.SOLV>
14.8924

>  <SCORE.INTER.VDW>
-15.8945

>  <SCORE.INTER.norm>
0.0435736

>  <SCORE.INTRA>
3.63542

>  <SCORE.INTRA.DIHEDRAL>
-0.164279

>  <SCORE.INTRA.DIHEDRAL.0>
19.7146

>  <SCORE.INTRA.POLAR>
0

>  <SCORE.INTRA.POLAR.0>
0

>  <SCORE.INTRA.REPUL>
0

>  <SCORE.INTRA.REPUL.0>
0

>  <SCORE.INTRA.SOLV>
-0.775642

>  <SCORE.INTRA.SOLV.lig_0>
-116.697

>  <SCORE.INTRA.VDW>
4.10538

>  <SCORE.INTRA.VDW.0>
-7.06424

>  <SCORE.INTRA.norm>
0.0790308

>  <SCORE.RESTR>
0.0459736

>  <SCORE.RESTR.CAVITY>
0.0459736

>  <SCORE.RESTR.norm>
0.000999426

>  <SCORE.SYSTEM>
0

>  <SCORE.SYSTEM.CONST>
0

>  <SCORE.SYSTEM.DIHEDRAL>
0

>  <SCORE.SYSTEM.SOLV>
0

>  <SCORE.SYSTEM.norm>
0

>  <SCORE.heavy>
46

>  <SCORE.norm>
0.123604

>  <RMSD>
9.619

$$$$
lig.pdb
 OpenBabel03061811583D
libRbt.so/2013.1/901 2013/11/27
 46 49  0  0  0  0  0  0  0  0999 V2000
    9.9630  -14.9956    8.6265 C   0  0  1  0  0  0  0  0  0  0  0  0
   10.9119  -12.7455    7.9597 C   0  0  1  0  0  0  0  0  0  0  0  0
   12.0728  -13.1637    7.0073 C   0  0  1  0  0  0  0  0  0  0  0  0
   12.3066  -11.9905    5.9248 C   0  0  2  0  0  0  0  0  0  0  0  0
   14.5468  -13.4220    7.5082 C   0  0  2  0  0  0  0  0  0  0  0  0
   15.4595  -12.4710    8.3336 C   0  0  1  0  0  0  0  0  0  0  0  0
   16.7571  -13.2216    8.1552 C   0  0  1  0  0  0  0  0  0  0  0  0
   16.3902  -14.7167    8.4182 C   0  0  1  0  0  0  0  0  0  0  0  0
   16.3215  -15.1766    9.9167 C   0  0  0  0  0  0  0  0  0  0  0  0
   18.6265  -13.0466    6.5557 C   0  0  1  0  0  0  0  0  0  0  0  0
   19.2025  -14.4284    6.4676 C   0  0  1  0  0  0  0  0  0  0  0  0
    8.8828  -15.2800    9.6967 C   0  0  1  0  0  0  0  0  0  0  0  0
   20.7608  -14.3097    6.3192 C   0  0  0  0  0  0  0  0  0  0  0  0
   21.4191  -13.6474    7.4085 C   0  0  0  0  0  0  0  0  0  0  0  0
   20.9132  -12.2946    7.5027 C   0  0  2  0  0  0  0  0  0  0  0  0
   21.5967  -11.5153    8.6945 C   0  0  0  0  0  0  0  0  0  0  0  0
   10.2687   -8.2911    2.7677 C   0  0  2  0  0  0  0  0  0  0  0  0
   10.1046  -10.6258    3.0418 C   0  0  0  0  0  0  0  0  0  0  0  0
   11.4055   -7.9726    3.4862 C   0  0  0  0  0  0  0  0  0  0  0  0
   10.5040   -9.4211    2.0557 C   0  0  1  0  0  0  0  0  0  0  0  0
    9.5475  -15.5739   11.1179 C   0  0  0  0  0  0  0  0  0  0  0  0
   10.5370  -16.8261   10.9591 C   0  0  0  0  0  0  0  0  0  0  0  0
   11.6379  -16.4470    9.8635 C   0  0  1  0  0  0  0  0  0  0  0  0
   12.6304  -17.5924    9.6297 C   0  0  0  0  0  0  0  0  0  0  0  0
   10.9779  -11.8433    5.0623 C   0  0  1  0  0  0  0  0  0  0  0  0
    9.8179  -11.3862    6.0974 C   0  0  0  0  0  0  0  0  0  0  0  0
    9.5929  -12.5077    7.1834 C   0  0  2  0  0  0  0  0  0  0  0  0
    9.8898   -7.1678    1.9405 F   0  0  0  0  0  0  0  0  0  0  0  0
   21.5034  -12.2709   10.0512 N   0  0  0  0  0  0  0  0  0  0  0  0
    7.9422  -14.0999    9.7404 N   0  0  0  0  0  0  0  0  0  0  0  0
   18.9974  -15.2079    7.6094 N   0  0  0  0  0  0  0  0  0  0  0  0
   11.6857   -6.9034    4.3692 N   0  0  0  0  0  0  0  0  0  0  0  0
   11.9758  -18.7357    9.1243 N   0  0  0  0  0  0  0  0  0  0  0  0
   11.1548  -10.7872    4.0495 N   0  0  0  0  0  0  0  0  0  0  0  0
    8.5442  -12.0984    8.1437 N   0  0  0  0  0  0  0  0  0  0  0  0
   10.6494  -13.7747    8.9048 O   0  0  0  0  0  0  0  0  0  0  0  0
   13.2864  -13.3644    7.8675 O   0  0  0  0  0  0  0  0  0  0  0  0
   13.3344  -12.3834    5.0969 O   0  0  0  0  0  0  0  0  0  0  0  0
   15.4399  -11.2129    7.7302 O   0  0  0  0  0  0  0  0  0  0  0  0
   15.1841  -14.7421    7.6369 O   0  0  0  0  0  0  0  0  0  0  0  0
   15.9252  -16.5626    9.9234 O   0  0  0  0  0  0  0  0  0  0  0  0
   17.2611  -13.0143    6.7384 O   0  0  0  0  0  0  0  0  0  0  0  0
    9.7178   -9.5013    0.8467 O   0  0  0  0  0  0  0  0  0  0  0  0
    9.0596  -11.2915    2.9561 O   0  0  0  0  0  0  0  0  0  0  0  0
   19.4115  -12.3056    7.6659 O   0  0  0  0  0  0  0  0  0  0  0  0
   10.9588  -16.1171    8.5444 O   0  0  0  0  0  0  0  0  0  0  0  0
  1 36  1  1  0  0  0
  2 36  1  1  0  0  0
  2  3  1  0  0  0  0
  3 37  1  1  0  0  0
  3  4  1  0  0  0  0
  4 38  1  6  0  0  0
  5 37  1  1  0  0  0
  5  6  1  0  0  0  0
  6  7  1  0  0  0  0
  6 39  1  6  0  0  0
  7 42  1  6  0  0  0
  8  9  1  1  0  0  0
  8  7  1  0  0  0  0
 10 42  1  1  0  0  0
 10 11  1  0  0  0  0
 11 31  1  1  0  0  0
 11 13  1  0  0  0  0
 12 30  1  1  0  0  0
 12  1  1  0  0  0  0
 14 13  1  0  0  0  0
 15 16  1  1  0  0  0
 15 14  1  0  0  0  0
 17 19  1  6  0  0  0
 17 28  1  0  0  0  0
 18 34  1  0  0  0  0
 19 32  1  0  0  0  0
 20 18  1  1  0  0  0
 20 17  1  0  0  0  0
 20 43  1  0  0  0  0
 21 12  1  0  0  0  0
 22 21  1  0  0  0  0
 22 23  1  0  0  0  0
 23 24  1  6  0  0  0
 23 46  1  0  0  0  0
 24 33  1  0  0  0  0
 25 34  1  6  0  0  0
 25  4  1  0  0  0  0
 26 25  1  0  0  0  0
 27 35  1  1  0  0  0
 27 26  1  0  0  0  0
 27  2  1  0  0  0  0
 29 16  1  0  0  0  0
 40  8  1  0  0  0  0
 40  5  1  0  0  0  0
 41  9  1  0  0  0  0
 44 18  2  0  0  0  0
 45 15  1  0  0  0  0
 45 10  1  0  0  0  0
 46  1  1  0  0  0  0
M  END
>  <CHROM.1>
-132.52249751,-75.41717088,-163.04228575,129.01305398,150.11429124,178.03048854
80.98300909,-52.96767507,179.70608046,-75.42823824,88.41320488,62.46831794
171.99005215,13.57666448,-12.93463044,7.02211118,2.65469764,-0.04637074,-0.75243420

>  <Name>
lig.pdb

>  <RI>
0

>  <Rbt.Current_Directory>
/home/afrankz/demos/rdock_decoys_rna/rnas/3wru

>  <Rbt.Executable>
rbdock ($Id: //depot/dev/client3/rdock/2013.1/src/exe/rbdock.cxx#4 $)

>  <Rbt.Library>
libRbt.so (2013.1, Build901 2013/11/27)

>  <Rbt.Parameter_File>
/export/apps/rDock/src/rDock_2013.1_src/data/scripts/dock_solv.prm

>  <Rbt.Receptor>
prm/pocket_docking_3.prm

>  <SCORE>
10.4939

>  <SCORE.INTER>
2.30258

>  <SCORE.INTER.CONST>
1

>  <SCORE.INTER.POLAR>
0

>  <SCORE.INTER.ROT>
13

>  <SCORE.INTER.SOLV>
18.9447

>  <SCORE.INTER.VDW>
-17.0465

>  <SCORE.INTER.norm>
0.0500562

>  <SCORE.INTRA>
7.47922

>  <SCORE.INTRA.DIHEDRAL>
5.07999

>  <SCORE.INTRA.DIHEDRAL.0>
19.7146

>  <SCORE.INTRA.POLAR>
0

>  <SCORE.INTRA.POLAR.0>
0

>  <SCORE.INTRA.REPUL>
0

>  <SCORE.INTRA.REPUL.0>
0

>  <SCORE.INTRA.SOLV>
4.96256

>  <SCORE.INTRA.SOLV.lig_0>
-116.697

>  <SCORE.INTRA.VDW>
2.45795

>  <SCORE.INTRA.VDW.0>
-7.06424

>  <SCORE.INTRA.norm>
0.162592

>  <SCORE.RESTR>
0.712146

>  <SCORE.RESTR.CAVITY>
0.712146

>  <SCORE.RESTR.norm>
0.0154814

>  <SCORE.SYSTEM>
0

>  <SCORE.SYSTEM.CONST>
0

>  <SCORE.SYSTEM.DIHEDRAL>
0

>  <SCORE.SYSTEM.SOLV>
0

>  <SCORE.SYSTEM.norm>
0

>  <SCORE.heavy>
46

>  <SCORE.norm>
0.228129

>  <RMSD>
9.632

$$$$
lig.pdb
 OpenBabel03061811583D
libRbt.so/2013.1/901 2013/11/27
 46 49  0  0  0  0  0  0  0  0999 V2000
   15.8311  -17.0387    9.4592 C   0  0  1  0  0  0  0  0  0  0  0  0
   13.4137  -16.6038    8.8466 C   0  0  1  0  0  0  0  0  0  0  0  0
   12.7614  -15.6648    7.7872 C   0  0  1  0  0  0  0  0  0  0  0  0
   11.2106  -15.4427    8.1728 C   0  0  2  0  0  0  0  0  0  0  0  0
   13.3173  -13.2759    7.1378 C   0  0  2  0  0  0  0  0  0  0  0  0
   14.4814  -12.2516    7.2584 C   0  0  1  0  0  0  0  0  0  0  0  0
   14.2532  -11.5232    5.9560 C   0  0  1  0  0  0  0  0  0  0  0  0
   14.0351  -12.6544    4.9015 C   0  0  1  0  0  0  0  0  0  0  0  0
   15.3220  -13.3278    4.3080 C   0  0  0  0  0  0  0  0  0  0  0  0
   12.4206  -10.2419    4.9151 C   0  0  1  0  0  0  0  0  0  0  0  0
   11.5757   -9.0101    5.0479 C   0  0  1  0  0  0  0  0  0  0  0  0
   15.8356  -15.9067   10.5135 C   0  0  1  0  0  0  0  0  0  0  0  0
   10.9110   -8.7099    3.6578 C   0  0  0  0  0  0  0  0  0  0  0  0
   10.0602   -9.7530    3.1611 C   0  0  0  0  0  0  0  0  0  0  0  0
   10.8510  -10.9525    2.9857 C   0  0  2  0  0  0  0  0  0  0  0  0
    9.9634  -12.1431    2.4474 C   0  0  0  0  0  0  0  0  0  0  0  0
    6.4521  -15.8037    8.0367 C   0  0  2  0  0  0  0  0  0  0  0  0
    8.0800  -17.4680    7.6717 C   0  0  0  0  0  0  0  0  0  0  0  0
    6.1473  -15.5584    6.7112 C   0  0  0  0  0  0  0  0  0  0  0  0
    6.6017  -17.1404    8.2106 C   0  0  1  0  0  0  0  0  0  0  0  0
   16.2059  -14.5043    9.8472 C   0  0  0  0  0  0  0  0  0  0  0  0
   17.6452  -14.6435    9.1533 C   0  0  0  0  0  0  0  0  0  0  0  0
   17.5537  -15.8066    8.0603 C   0  0  1  0  0  0  0  0  0  0  0  0
   18.8924  -16.0263    7.3454 C   0  0  0  0  0  0  0  0  0  0  0  0
   10.4798  -16.8544    8.1104 C   0  0  1  0  0  0  0  0  0  0  0  0
   11.1815  -17.7749    9.2445 C   0  0  0  0  0  0  0  0  0  0  0  0
   12.7074  -17.9811    8.9023 C   0  0  2  0  0  0  0  0  0  0  0  0
    5.4274  -15.2328    8.8814 F   0  0  0  0  0  0  0  0  0  0  0  0
   10.7638  -13.4632    2.2559 N   0  0  0  0  0  0  0  0  0  0  0  0
   14.4817  -15.8808   11.1812 N   0  0  0  0  0  0  0  0  0  0  0  0
   10.5129   -9.1391    5.9465 N   0  0  0  0  0  0  0  0  0  0  0  0
    5.9744  -14.3484    5.9990 N   0  0  0  0  0  0  0  0  0  0  0  0
   19.9131  -16.3450    8.2661 N   0  0  0  0  0  0  0  0  0  0  0  0
    9.0533  -16.6930    8.4442 N   0  0  0  0  0  0  0  0  0  0  0  0
   13.3646  -18.8100    9.9368 N   0  0  0  0  0  0  0  0  0  0  0  0
   14.7737  -16.8556    8.5171 O   0  0  0  0  0  0  0  0  0  0  0  0
   13.5254  -14.3734    7.8257 O   0  0  0  0  0  0  0  0  0  0  0  0
   10.6580  -14.6121    7.2236 O   0  0  0  0  0  0  0  0  0  0  0  0
   14.2623  -11.4719    8.3947 O   0  0  0  0  0  0  0  0  0  0  0  0
   13.1408  -13.4587    5.6884 O   0  0  0  0  0  0  0  0  0  0  0  0
   15.9955  -13.9980    5.3921 O   0  0  0  0  0  0  0  0  0  0  0  0
   13.0242  -10.6420    6.0874 O   0  0  0  0  0  0  0  0  0  0  0  0
    6.4865  -17.5470    9.5918 O   0  0  0  0  0  0  0  0  0  0  0  0
    8.3370  -18.2663    6.7556 O   0  0  0  0  0  0  0  0  0  0  0  0
   11.5219  -11.3338    4.2843 O   0  0  0  0  0  0  0  0  0  0  0  0
   17.1410  -17.1084    8.7275 O   0  0  0  0  0  0  0  0  0  0  0  0
  1 36  1  6  0  0  0
  2 36  1  6  0  0  0
  2  3  1  0  0  0  0
  3 37  1  1  0  0  0
  3  4  1  0  0  0  0
  4 38  1  6  0  0  0
  5 37  1  1  0  0  0
  5  6  1  0  0  0  0
  6  7  1  0  0  0  0
  6 39  1  1  0  0  0
  7 42  1  1  0  0  0
  8  9  1  1  0  0  0
  8  7  1  0  0  0  0
 10 42  1  1  0  0  0
 10 11  1  0  0  0  0
 11 31  1  1  0  0  0
 11 13  1  0  0  0  0
 12 30  1  6  0  0  0
 12  1  1  0  0  0  0
 14 13  1  0  0  0  0
 15 16  1  1  0  0  0
 15 14  1  0  0  0  0
 17 19  1  6  0  0  0
 17 28  1  0  0  0  0
 18 34  1  0  0  0  0
 19 32  1  0  0  0  0
 20 18  1  1  0  0  0
 20 17  1  0  0  0  0
 20 43  1  0  0  0  0
 21 12  1  0  0  0  0
 22 21  1  0  0  0  0
 22 23  1  0  0  0  0
 23 24  1  1  0  0  0
 23 46  1  0  0  0  0
 24 33  1  0  0  0  0
 25 34  1  1  0  0  0
 25  4  1  0  0  0  0
 26 25  1  0  0  0  0
 27 35  1  1  0  0  0
 27 26  1  0  0  0  0
 27  2  1  0  0  0  0
 29 16  1  0  0  0  0
 40  8  1  0  0  0  0
 40  5  1  0  0  0  0
 41  9  1  0  0  0  0
 44 18  2  0  0  0  0
 45 15  1  0  0  0  0
 45 10  1  0  0  0  0
 46  1  1  0  0  0  0
M  END
>  <CHROM.1>
-49.80375381,145.95889160,-178.00307644,-168.99200030,-159.98868223,64.16891259
-158.17890381,-179.37279133,-175.71542902,59.35283968,79.53432678,58.11304062
140.00320844,12.28037104,-14.42825663,7.12128852,0.25191997,0.10215807,2.51398909

>  <Name>
lig.pdb

>  <RI>
0

>  <Rbt.Current_Directory>
/home/afrankz/demos/rdock_decoys_rna/rnas/3wru

>  <Rbt.Executable>
rbdock ($Id: //depot/dev/client3/rdock/2013.1/src/exe/rbdock.cxx#4 $)

>  <Rbt.Library>
libRbt.so (2013.1, Build901 2013/11/27)

>  <Rbt.Parameter_File>
/export/apps/rDock/src/rDock_2013.1_src/data/scripts/dock_solv.prm

>  <Rbt.Receptor>
prm/pocket_docking_4.prm

>  <SCORE>
-1.08881

>  <SCORE.INTER>
-0.640223

>  <SCORE.INTER.CONST>
1

>  <SCORE.INTER.POLAR>
0

>  <SCORE.INTER.ROT>
13

>  <SCORE.INTER.SOLV>
31.7167

>  <SCORE.INTER.VDW>
-23.2657

>  <SCORE.INTER.norm>
-0.0139179

>  <SCORE.INTRA>
-0.448587

>  <SCORE.INTRA.DIHEDRAL>
-7.22689

>  <SCORE.INTRA.DIHEDRAL.0>
19.7146

>  <SCORE.INTRA.POLAR>
0

>  <SCORE.INTRA.POLAR.0>
0

>  <SCORE.INTRA.REPUL>
0

>  <SCORE.INTRA.REPUL.0>
0

>  <SCORE.INTRA.SOLV>
2.82934

>  <SCORE.INTRA.SOLV.lig_0>
-116.697

>  <SCORE.INTRA.VDW>
1.75019

>  <SCORE.INTRA.VDW.0>
-7.06424

>  <SCORE.INTRA.norm>
-0.0097519

>  <SCORE.RESTR>
0

>  <SCORE.RESTR.CAVITY>
0

>  <SCORE.RESTR.norm>
0

>  <SCORE.SYSTEM>
0

>  <SCORE.SYSTEM.CONST>
0

>  <SCORE.SYSTEM.DIHEDRAL>
0

>  <SCORE.SYSTEM.SOLV>
0

>  <SCORE.SYSTEM.norm>
0

>  <SCORE.heavy>
46

>  <SCORE.norm>
-0.0236698

>  <RMSD>
9.662

$$$$
lig.pdb
 OpenBabel03061811583D
libRbt.so/2013.1/901 2013/11/27
 46 49  0  0  0  0  0  0  0  0999 V2000
   10.1377  -15.3756    9.1107 C   0  0  1  0  0  0  0  0  0  0  0  0
   11.1237  -14.0686    7.1800 C   0  0  1  0  0  0  0  0  0  0  0  0
   12.1612  -14.3185    6.0438 C   0  0  1  0  0  0  0  0  0  0  0  0
   12.4100  -12.9349    5.2522 C   0  0  2  0  0  0  0  0  0  0  0  0
   14.5348  -14.1519    6.9248 C   0  0  2  0  0  0  0  0  0  0  0  0
   14.3892  -13.0398    8.0021 C   0  0  1  0  0  0  0  0  0  0  0  0
   15.8322  -12.9868    8.4425 C   0  0  1  0  0  0  0  0  0  0  0  0
   16.2503  -14.4818    8.6132 C   0  0  1  0  0  0  0  0  0  0  0  0
   15.8562  -15.1784    9.9627 C   0  0  0  0  0  0  0  0  0  0  0  0
   17.9371  -11.9285    7.7125 C   0  0  1  0  0  0  0  0  0  0  0  0
   18.7171  -11.3027    6.5949 C   0  0  1  0  0  0  0  0  0  0  0  0
   10.9771  -14.8071   10.2792 C   0  0  1  0  0  0  0  0  0  0  0  0
   20.1650  -10.9881    7.1135 C   0  0  0  0  0  0  0  0  0  0  0  0
   20.9070  -12.1339    7.5553 C   0  0  0  0  0  0  0  0  0  0  0  0
   20.2008  -12.7458    8.6606 C   0  0  2  0  0  0  0  0  0  0  0  0
   20.9676  -14.0229    9.1860 C   0  0  0  0  0  0  0  0  0  0  0  0
   11.1509   -8.6138    3.3403 C   0  0  2  0  0  0  0  0  0  0  0  0
   10.0706  -10.6959    3.1140 C   0  0  0  0  0  0  0  0  0  0  0  0
   11.6991   -7.4877    2.7562 C   0  0  0  0  0  0  0  0  0  0  0  0
   10.5029   -9.3290    2.3874 C   0  0  1  0  0  0  0  0  0  0  0  0
   12.2664  -15.7083   10.5502 C   0  0  0  0  0  0  0  0  0  0  0  0
   11.7759  -17.2007   10.8732 C   0  0  0  0  0  0  0  0  0  0  0  0
   10.9451  -17.7288    9.6135 C   0  0  1  0  0  0  0  0  0  0  0  0
   10.4192  -19.1526    9.8312 C   0  0  0  0  0  0  0  0  0  0  0  0
   11.0340  -12.4927    4.5874 C   0  0  1  0  0  0  0  0  0  0  0  0
   10.0076  -12.2255    5.8126 C   0  0  0  0  0  0  0  0  0  0  0  0
    9.7724  -13.5606    6.6189 C   0  0  2  0  0  0  0  0  0  0  0  0
   10.2936   -8.2208    4.4358 F   0  0  0  0  0  0  0  0  0  0  0  0
   22.4291  -13.7200    9.6247 N   0  0  0  0  0  0  0  0  0  0  0  0
   11.3389  -13.3795    9.9470 N   0  0  0  0  0  0  0  0  0  0  0  0
   18.8936  -12.1335    5.4849 N   0  0  0  0  0  0  0  0  0  0  0  0
   11.0974   -6.3314    2.2063 N   0  0  0  0  0  0  0  0  0  0  0  0
    9.8404  -19.6657    8.6510 N   0  0  0  0  0  0  0  0  0  0  0  0
   11.2215  -11.2356    3.8411 N   0  0  0  0  0  0  0  0  0  0  0  0
    8.8463  -13.3287    7.7493 N   0  0  0  0  0  0  0  0  0  0  0  0
   10.8481  -15.2774    7.8758 O   0  0  0  0  0  0  0  0  0  0  0  0
   13.4179  -14.8041    6.7055 O   0  0  0  0  0  0  0  0  0  0  0  0
   13.3277  -13.1817    4.2558 O   0  0  0  0  0  0  0  0  0  0  0  0
   13.9410  -11.8774    7.3735 O   0  0  0  0  0  0  0  0  0  0  0  0
   15.6655  -14.9685    7.3937 O   0  0  0  0  0  0  0  0  0  0  0  0
   16.3106  -16.5445    9.8902 O   0  0  0  0  0  0  0  0  0  0  0  0
   16.6553  -12.2990    7.3684 O   0  0  0  0  0  0  0  0  0  0  0  0
    9.3302   -8.6578    1.8769 O   0  0  0  0  0  0  0  0  0  0  0  0
    8.9325  -11.1910    3.0675 O   0  0  0  0  0  0  0  0  0  0  0  0
   18.7914  -13.1026    8.2505 O   0  0  0  0  0  0  0  0  0  0  0  0
    9.7627  -16.8093    9.3549 O   0  0  0  0  0  0  0  0  0  0  0  0
  1 36  1  6  0  0  0
  2 36  1  6  0  0  0
  2  3  1  0  0  0  0
  3 37  1  1  0  0  0
  3  4  1  0  0  0  0
  4 38  1  6  0  0  0
  5 37  1  1  0  0  0
  5  6  1  0  0  0  0
  6  7  1  0  0  0  0
  6 39  1  6  0  0  0
  7 42  1  6  0  0  0
  8  9  1  1  0  0  0
  8  7  1  0  0  0  0
 10 42  1  6  0  0  0
 10 11  1  0  0  0  0
 11 31  1  6  0  0  0
 11 13  1  0  0  0  0
 12 30  1  6  0  0  0
 12  1  1  0  0  0  0
 14 13  1  0  0  0  0
 15 16  1  6  0  0  0
 15 14  1  0  0  0  0
 17 19  1  6  0  0  0
 17 28  1  0  0  0  0
 18 34  1  0  0  0  0
 19 32  1  0  0  0  0
 20 18  1  1  0  0  0
 20 17  1  0  0  0  0
 20 43  1  0  0  0  0
 21 12  1  0  0  0  0
 22 21  1  0  0  0  0
 22 23  1  0  0  0  0
 23 24  1  1  0  0  0
 23 46  1  0  0  0  0
 24 33  1  0  0  0  0
 25 34  1  1  0  0  0
 25  4  1  0  0  0  0
 26 25  1  0  0  0  0
 27 35  1  1  0  0  0
 27 26  1  0  0  0  0
 27  2  1  0  0  0  0
 29 16  1  0  0  0  0
 40  8  1  0  0  0  0
 40  5  1  0  0  0  0
 41  9  1  0  0  0  0
 44 18  2  0  0  0  0
 45 15  1  0  0  0  0
 45 10  1  0  0  0  0
 46  1  1  0  0  0  0
M  END
>  <CHROM.1>
-70.45535576,168.21052234,-104.33977667,69.66804861,167.56546566,178.78659916
177.74449096,57.11033830,68.64416415,-47.67437416,172.87472008,-172.39338316
177.70995974,13.53012310,-13.14241975,6.96975647,2.56369796,-0.17647969,-0.67645418

>  <Name>
lig.pdb

>  <RI>
0

>  <Rbt.Current_Directory>
/home/afrankz/demos/rdock_decoys_rna/rnas/3wru

>  <Rbt.Executable>
rbdock ($Id: //depot/dev/client3/rdock/2013.1/src/exe/rbdock.cxx#4 $)

>  <Rbt.Library>
libRbt.so (2013.1, Build901 2013/11/27)

>  <Rbt.Parameter_File>
/export/apps/rDock/src/rDock_2013.1_src/data/scripts/dock_solv.prm

>  <Rbt.Receptor>
prm/pocket_docking_4.prm

>  <SCORE>
-1.42227

>  <SCORE.INTER>
-0.732069

>  <SCORE.INTER.CONST>
1

>  <SCORE.INTER.POLAR>
0

>  <SCORE.INTER.ROT>
13

>  <SCORE.INTER.SOLV>
15.1769

>  <SCORE.INTER.VDW>
-17.8137

>  <SCORE.INTER.norm>
-0.0159145

>  <SCORE.INTRA>
-0.690203

>  <SCORE.INTRA.DIHEDRAL>
-9.37456

>  <SCORE.INTRA.DIHEDRAL.0>
19.7146

>  <SCORE.INTRA.POLAR>
0

>  <SCORE.INTRA.POLAR.0>
0

>  <SCORE.INTRA.REPUL>
0

>  <SCORE.INTRA.REPUL.0>
0

>  <SCORE.INTRA.SOLV>
3.2703

>  <SCORE.INTRA.SOLV.lig_0>
-116.697

>  <SCORE.INTRA.VDW>
2.36193

>  <SCORE.INTRA.VDW.0>
-7.06424

>  <SCORE.INTRA.norm>
-0.0150044

>  <SCORE.RESTR>
0

>  <SCORE.RESTR.CAVITY>
0

>  <SCORE.RESTR.norm>
0

>  <SCORE.SYSTEM>
0

>  <SCORE.SYSTEM.CONST>
0

>  <SCORE.SYSTEM.DIHEDRAL>
0

>  <SCORE.SYSTEM.SOLV>
0

>  <SCORE.SYSTEM.norm>
0

>  <SCORE.heavy>
46

>  <SCORE.norm>
-0.0309189

>  <RMSD>
9.694

$$$$
lig.pdb
 OpenBabel03061811583D
libRbt.so/2013.1/901 2013/11/27
 46 49  0  0  0  0  0  0  0  0999 V2000
   11.4014  -16.4050    9.7539 C   0  0  1  0  0  0  0  0  0  0  0  0
   10.5979  -14.8463    7.9283 C   0  0  1  0  0  0  0  0  0  0  0  0
   11.8787  -14.5062    7.1076 C   0  0  1  0  0  0  0  0  0  0  0  0
   11.6807  -13.0670    6.4058 C   0  0  2  0  0  0  0  0  0  0  0  0
   14.2018  -13.9288    7.9488 C   0  0  2  0  0  0  0  0  0  0  0  0
   14.8315  -13.5113    9.3082 C   0  0  1  0  0  0  0  0  0  0  0  0
   16.2805  -13.5486    8.8862 C   0  0  1  0  0  0  0  0  0  0  0  0
   16.4294  -14.8873    8.0958 C   0  0  1  0  0  0  0  0  0  0  0  0
   16.6348  -16.1917    8.9432 C   0  0  0  0  0  0  0  0  0  0  0  0
   17.8829  -12.1701    7.6151 C   0  0  1  0  0  0  0  0  0  0  0  0
   18.1353  -10.8919    6.8726 C   0  0  1  0  0  0  0  0  0  0  0  0
   11.4030  -17.9221   10.0566 C   0  0  1  0  0  0  0  0  0  0  0  0
   19.6453  -10.8541    6.4452 C   0  0  0  0  0  0  0  0  0  0  0  0
   20.0533  -11.9282    5.5859 C   0  0  0  0  0  0  0  0  0  0  0  0
   19.8572  -13.1808    6.2840 C   0  0  2  0  0  0  0  0  0  0  0  0
   20.2818  -14.4055    5.3813 C   0  0  0  0  0  0  0  0  0  0  0  0
    9.8775  -10.4241    1.6166 C   0  0  2  0  0  0  0  0  0  0  0  0
    9.5511  -11.8847    3.4368 C   0  0  0  0  0  0  0  0  0  0  0  0
    9.8954   -9.1414    1.1023 C   0  0  0  0  0  0  0  0  0  0  0  0
    9.4339  -10.3752    2.8973 C   0  0  1  0  0  0  0  0  0  0  0  0
    9.9264  -18.4479   10.3581 C   0  0  0  0  0  0  0  0  0  0  0  0
    9.3430  -17.6187   11.6008 C   0  0  0  0  0  0  0  0  0  0  0  0
    9.3447  -16.0702   11.2030 C   0  0  1  0  0  0  0  0  0  0  0  0
    8.8124  -15.1874   12.3382 C   0  0  0  0  0  0  0  0  0  0  0  0
   10.4531  -13.1737    5.3996 C   0  0  1  0  0  0  0  0  0  0  0  0
    9.1531  -13.5035    6.3091 C   0  0  0  0  0  0  0  0  0  0  0  0
    9.3382  -14.8949    7.0284 C   0  0  2  0  0  0  0  0  0  0  0  0
   11.1924  -11.0120    1.4936 F   0  0  0  0  0  0  0  0  0  0  0  0
   19.6270  -15.7457    5.8233 N   0  0  0  0  0  0  0  0  0  0  0  0
   12.0337  -18.6346    8.8844 N   0  0  0  0  0  0  0  0  0  0  0  0
   17.4106  -10.7677    5.6839 N   0  0  0  0  0  0  0  0  0  0  0  0
   10.5275   -7.9599    1.5560 N   0  0  0  0  0  0  0  0  0  0  0  0
    9.4994  -15.4424   13.5441 N   0  0  0  0  0  0  0  0  0  0  0  0
   10.2462  -11.8793    4.7257 N   0  0  0  0  0  0  0  0  0  0  0  0
    8.1632  -15.2037    7.8731 N   0  0  0  0  0  0  0  0  0  0  0  0
   10.7194  -16.1287    8.5301 O   0  0  0  0  0  0  0  0  0  0  0  0
   13.0225  -14.4886    8.0793 O   0  0  0  0  0  0  0  0  0  0  0  0
   12.8228  -12.7904    5.6881 O   0  0  0  0  0  0  0  0  0  0  0  0
   14.3643  -12.2374    9.6340 O   0  0  0  0  0  0  0  0  0  0  0  0
   15.2328  -14.7615    7.3095 O   0  0  0  0  0  0  0  0  0  0  0  0
   15.4603  -16.3622    9.7615 O   0  0  0  0  0  0  0  0  0  0  0  0
   16.5732  -12.3478    8.0050 O   0  0  0  0  0  0  0  0  0  0  0  0
   10.2185   -9.4975    3.7341 O   0  0  0  0  0  0  0  0  0  0  0  0
    9.1031  -12.8820    2.8475 O   0  0  0  0  0  0  0  0  0  0  0  0
   18.4185  -13.3174    6.7237 O   0  0  0  0  0  0  0  0  0  0  0  0
   10.7591  -15.6270   10.8666 O   0  0  0  0  0  0  0  0  0  0  0  0
  1 36  1  6  0  0  0
  2 36  1  6  0  0  0
  2  3  1  0  0  0  0
  3 37  1  1  0  0  0
  3  4  1  0  0  0  0
  4 38  1  6  0  0  0
  5 37  1  1  0  0  0
  5  6  1  0  0  0  0
  6  7  1  0  0  0  0
  6 39  1  6  0  0  0
  7 42  1  6  0  0  0
  8  9  1  1  0  0  0
  8  7  1  0  0  0  0
 10 42  1  6  0  0  0
 10 11  1  0  0  0  0
 11 31  1  6  0  0  0
 11 13  1  0  0  0  0
 12 30  1  6  0  0  0
 12  1  1  0  0  0  0
 14 13  1  0  0  0  0
 15 16  1  6  0  0  0
 15 14  1  0  0  0  0
 17 19  1  1  0  0  0
 17 28  1  0  0  0  0
 18 34  1  0  0  0  0
 19 32  1  0  0  0  0
 20 18  1  1  0  0  0
 20 17  1  0  0  0  0
 20 43  1  0  0  0  0
 21 12  1  0  0  0  0
 22 21  1  0  0  0  0
 22 23  1  0  0  0  0
 23 24  1  1  0  0  0
 23 46  1  0  0  0  0
 24 33  1  0  0  0  0
 25 34  1  1  0  0  0
 25  4  1  0  0  0  0
 26 25  1  0  0  0  0
 27 35  1  1  0  0  0
 27 26  1  0  0  0  0
 27  2  1  0  0  0  0
 29 16  1  0  0  0  0
 40  8  1  0  0  0  0
 40  5  1  0  0  0  0
 41  9  1  0  0  0  0
 44 18  2  0  0  0  0
 45 15  1  0  0  0  0
 45 10  1  0  0  0  0
 46  1  1  0  0  0  0
M  END
>  <CHROM.1>
-176.53168917,82.40873075,-160.44031241,151.79696112,175.07163498,62.11142440
-173.73050484,-158.50137040,55.71264576,130.37452031,-175.97730377,52.98183919
156.83796859,13.08495869,-13.67978918,7.07379750,-2.63611311,-0.06327028
-0.90400688

>  <Name>
lig.pdb

>  <RI>
0

>  <Rbt.Current_Directory>
/home/afrankz/demos/rdock_decoys_rna/rnas/3wru

>  <Rbt.Executable>
rbdock ($Id: //depot/dev/client3/rdock/2013.1/src/exe/rbdock.cxx#4 $)

>  <Rbt.Library>
libRbt.so (2013.1, Build901 2013/11/27)

>  <Rbt.Parameter_File>
/export/apps/rDock/src/rDock_2013.1_src/data/scripts/dock_solv.prm

>  <Rbt.Receptor>
prm/pocket_docking_3.prm

>  <SCORE>
1.84628

>  <SCORE.INTER>
1.83737

>  <SCORE.INTER.CONST>
1

>  <SCORE.INTER.POLAR>
0

>  <SCORE.INTER.ROT>
13

>  <SCORE.INTER.SOLV>
20.1053

>  <SCORE.INTER.VDW>
-17.7435

>  <SCORE.INTER.norm>
0.0399428

>  <SCORE.INTRA>
-0.520497

>  <SCORE.INTRA.DIHEDRAL>
-7.39903

>  <SCORE.INTRA.DIHEDRAL.0>
19.7146

>  <SCORE.INTRA.POLAR>
0

>  <SCORE.INTRA.POLAR.0>
0

>  <SCORE.INTRA.REPUL>
0

>  <SCORE.INTRA.REPUL.0>
0

>  <SCORE.INTRA.SOLV>
0.973269

>  <SCORE.INTRA.SOLV.lig_0>
-116.697

>  <SCORE.INTRA.VDW>
2.69239

>  <SCORE.INTRA.VDW.0>
-7.06424

>  <SCORE.INTRA.norm>
-0.0113152

>  <SCORE.RESTR>
0.529412

>  <SCORE.RESTR.CAVITY>
0.529412

>  <SCORE.RESTR.norm>
0.011509

>  <SCORE.SYSTEM>
0

>  <SCORE.SYSTEM.CONST>
0

>  <SCORE.SYSTEM.DIHEDRAL>
0

>  <SCORE.SYSTEM.SOLV>
0

>  <SCORE.SYSTEM.norm>
0

>  <SCORE.heavy>
46

>  <SCORE.norm>
0.0401366

>  <RMSD>
9.698

$$$$
lig.pdb
 OpenBabel03061811583D
libRbt.so/2013.1/901 2013/11/27
 46 49  0  0  0  0  0  0  0  0999 V2000
   11.1392  -15.5873    3.5053 C   0  0  1  0  0  0  0  0  0  0  0  0
   10.3175  -13.3832    4.4407 C   0  0  1  0  0  0  0  0  0  0  0  0
   11.6559  -12.5881    4.3620 C   0  0  1  0  0  0  0  0  0  0  0  0
   11.3204  -11.0177    4.2074 C   0  0  2  0  0  0  0  0  0  0  0  0
   13.5982  -12.4687    5.9903 C   0  0  2  0  0  0  0  0  0  0  0  0
   13.5751  -11.3691    7.0899 C   0  0  1  0  0  0  0  0  0  0  0  0
   14.9428  -11.6298    7.6733 C   0  0  1  0  0  0  0  0  0  0  0  0
   15.0195  -13.1821    7.8270 C   0  0  1  0  0  0  0  0  0  0  0  0
   14.3488  -13.8020    9.1028 C   0  0  0  0  0  0  0  0  0  0  0  0
   17.2912  -11.0507    7.1901 C   0  0  1  0  0  0  0  0  0  0  0  0
   18.3138  -10.7021    6.1501 C   0  0  1  0  0  0  0  0  0  0  0  0
   11.2525  -17.0624    3.9573 C   0  0  1  0  0  0  0  0  0  0  0  0
   19.7331  -10.7236    6.8205 C   0  0  0  0  0  0  0  0  0  0  0  0
   20.1145  -11.9891    7.3789 C   0  0  0  0  0  0  0  0  0  0  0  0
   19.1676  -12.3432    8.4147 C   0  0  2  0  0  0  0  0  0  0  0  0
   19.5313  -13.7370    9.0629 C   0  0  0  0  0  0  0  0  0  0  0  0
    8.7346   -7.2247    0.9114 C   0  0  2  0  0  0  0  0  0  0  0  0
   10.4296   -8.8089    1.3238 C   0  0  0  0  0  0  0  0  0  0  0  0
    8.2288   -5.9526    1.1015 C   0  0  0  0  0  0  0  0  0  0  0  0
   10.0161   -7.2560    1.3541 C   0  0  1  0  0  0  0  0  0  0  0  0
   12.3131  -17.2197    5.1398 C   0  0  0  0  0  0  0  0  0  0  0  0
   13.7281  -16.6718    4.6202 C   0  0  0  0  0  0  0  0  0  0  0  0
   13.5388  -15.1406    4.2014 C   0  0  1  0  0  0  0  0  0  0  0  0
   14.8418  -14.5259    3.6761 C   0  0  0  0  0  0  0  0  0  0  0  0
   10.5340  -10.8136    2.8397 C   0  0  1  0  0  0  0  0  0  0  0  0
    9.1479  -11.6396    2.9900 C   0  0  0  0  0  0  0  0  0  0  0  0
    9.4540  -13.1763    3.1717 C   0  0  2  0  0  0  0  0  0  0  0  0
    8.6060   -7.5924   -0.4807 F   0  0  0  0  0  0  0  0  0  0  0  0
   19.5521  -14.9026    8.0328 N   0  0  0  0  0  0  0  0  0  0  0  0
    9.8769  -17.5381    4.3583 N   0  0  0  0  0  0  0  0  0  0  0  0
   18.3894  -11.6137    5.0934 N   0  0  0  0  0  0  0  0  0  0  0  0
    6.9649   -5.3933    0.7998 N   0  0  0  0  0  0  0  0  0  0  0  0
   15.3222  -15.2363    2.5555 N   0  0  0  0  0  0  0  0  0  0  0  0
   10.2191   -9.3859    2.6532 N   0  0  0  0  0  0  0  0  0  0  0  0
    8.1970  -13.9422    3.3230 N   0  0  0  0  0  0  0  0  0  0  0  0
   10.5734  -14.7784    4.5372 O   0  0  0  0  0  0  0  0  0  0  0  0
   12.3992  -12.8662    5.6360 O   0  0  0  0  0  0  0  0  0  0  0  0
   12.5164  -10.3387    4.1397 O   0  0  0  0  0  0  0  0  0  0  0  0
   13.4481  -10.1279    6.4650 O   0  0  0  0  0  0  0  0  0  0  0  0
   14.4778  -13.5137    6.5376 O   0  0  0  0  0  0  0  0  0  0  0  0
   14.7231  -15.1933    9.1523 O   0  0  0  0  0  0  0  0  0  0  0  0
   15.9998  -11.1139    6.7136 O   0  0  0  0  0  0  0  0  0  0  0  0
   10.9200   -6.4959    0.5226 O   0  0  0  0  0  0  0  0  0  0  0  0
   10.8445   -9.4098    0.3191 O   0  0  0  0  0  0  0  0  0  0  0  0
   17.7637  -12.3656    7.8577 O   0  0  0  0  0  0  0  0  0  0  0  0
   12.4792  -15.0308    3.1172 O   0  0  0  0  0  0  0  0  0  0  0  0
  1 36  1  1  0  0  0
  2 36  1  6  0  0  0
  2  3  1  0  0  0  0
  3 37  1  1  0  0  0
  3  4  1  0  0  0  0
  4 38  1  6  0  0  0
  5 37  1  1  0  0  0
  5  6  1  0  0  0  0
  6  7  1  0  0  0  0
  6 39  1  6  0  0  0
  7 42  1  6  0  0  0
  8  9  1  1  0  0  0
  8  7  1  0  0  0  0
 10 42  1  6  0  0  0
 10 11  1  0  0  0  0
 11 31  1  6  0  0  0
 11 13  1  0  0  0  0
 12 30  1  1  0  0  0
 12  1  1  0  0  0  0
 14 13  1  0  0  0  0
 15 16  1  6  0  0  0
 15 14  1  0  0  0  0
 17 19  1  6  0  0  0
 17 28  1  0  0  0  0
 18 34  1  0  0  0  0
 19 32  1  0  0  0  0
 20 18  1  6  0  0  0
 20 17  1  0  0  0  0
 20 43  1  0  0  0  0
 21 12  1  0  0  0  0
 22 21  1  0  0  0  0
 22 23  1  0  0  0  0
 23 24  1  6  0  0  0
 23 46  1  0  0  0  0
 24 33  1  0  0  0  0
 25 34  1  1  0  0  0
 25  4  1  0  0  0  0
 26 25  1  0  0  0  0
 27 35  1  1  0  0  0
 27 26  1  0  0  0  0
 27  2  1  0  0  0  0
 29 16  1  0  0  0  0
 40  8  1  0  0  0  0
 40  5  1  0  0  0  0
 41  9  1  0  0  0  0
 44 18  2  0  0  0  0
 45 15  1  0  0  0  0
 45 10  1  0  0  0  0
 46  1  1  0  0  0  0
M  END
>  <CHROM.1>
-179.16679359,-67.72226335,176.35074999,107.57977507,168.66492776,-170.81690649
172.59865919,-59.15406645,179.11075500,-95.33639965,170.77054435,58.79021853
136.32566152,13.14831112,-12.09766700,4.66807426,2.57110543,-0.51904037,-0.25881101

>  <Name>
lig.pdb

>  <RI>
0

>  <Rbt.Current_Directory>
/home/afrankz/demos/rdock_decoys_rna/rnas/3wru

>  <Rbt.Executable>
rbdock ($Id: //depot/dev/client3/rdock/2013.1/src/exe/rbdock.cxx#4 $)

>  <Rbt.Library>
libRbt.so (2013.1, Build901 2013/11/27)

>  <Rbt.Parameter_File>
/export/apps/rDock/src/rDock_2013.1_src/data/scripts/dock_solv.prm

>  <Rbt.Receptor>
prm/pocket_docking_8.prm

>  <SCORE>
-9.75919

>  <SCORE.INTER>
-6.27119

>  <SCORE.INTER.CONST>
1

>  <SCORE.INTER.POLAR>
0

>  <SCORE.INTER.ROT>
13

>  <SCORE.INTER.SOLV>
26.6161

>  <SCORE.INTER.VDW>
-25.3195

>  <SCORE.INTER.norm>
-0.13633

>  <SCORE.INTRA>
-3.488

>  <SCORE.INTRA.DIHEDRAL>
-8.3422

>  <SCORE.INTRA.DIHEDRAL.0>
19.7146

>  <SCORE.INTRA.POLAR>
0

>  <SCORE.INTRA.POLAR.0>
0

>  <SCORE.INTRA.REPUL>
0

>  <SCORE.INTRA.REPUL.0>
0

>  <SCORE.INTRA.SOLV>
-0.69626

>  <SCORE.INTRA.SOLV.lig_0>
-116.697

>  <SCORE.INTRA.VDW>
1.03123

>  <SCORE.INTRA.VDW.0>
-7.06424

>  <SCORE.INTRA.norm>
-0.0758262

>  <SCORE.RESTR>
0

>  <SCORE.RESTR.CAVITY>
0

>  <SCORE.RESTR.norm>
0

>  <SCORE.SYSTEM>
0

>  <SCORE.SYSTEM.CONST>
0

>  <SCORE.SYSTEM.DIHEDRAL>
0

>  <SCORE.SYSTEM.SOLV>
0

>  <SCORE.SYSTEM.norm>
0

>  <SCORE.heavy>
46

>  <SCORE.norm>
-0.212156

>  <RMSD>
9.704

$$$$
lig.pdb
 OpenBabel03061811583D
libRbt.so/2013.1/901 2013/11/27
 46 49  0  0  0  0  0  0  0  0999 V2000
   16.7302  -18.6583    6.4189 C   0  0  1  0  0  0  0  0  0  0  0  0
   14.4071  -17.9175    7.0986 C   0  0  1  0  0  0  0  0  0  0  0  0
   13.7373  -18.6293    5.8843 C   0  0  1  0  0  0  0  0  0  0  0  0
   12.1927  -18.9273    6.2426 C   0  0  2  0  0  0  0  0  0  0  0  0
   13.4289  -16.4601    4.6046 C   0  0  2  0  0  0  0  0  0  0  0  0
   13.6501  -15.8641    3.1853 C   0  0  1  0  0  0  0  0  0  0  0  0
   12.5490  -14.8319    3.2193 C   0  0  1  0  0  0  0  0  0  0  0  0
   11.3105  -15.5916    3.7919 C   0  0  1  0  0  0  0  0  0  0  0  0
   10.4792  -16.4560    2.7802 C   0  0  0  0  0  0  0  0  0  0  0  0
   12.0208  -12.7179    4.3749 C   0  0  1  0  0  0  0  0  0  0  0  0
   12.5780  -11.4485    4.9467 C   0  0  1  0  0  0  0  0  0  0  0  0
   18.1753  -18.1167    6.5275 C   0  0  1  0  0  0  0  0  0  0  0  0
   11.3874  -10.4655    5.2306 C   0  0  0  0  0  0  0  0  0  0  0  0
   10.4130  -10.9556    6.1628 C   0  0  0  0  0  0  0  0  0  0  0  0
    9.8258  -12.1652    5.6270 C   0  0  2  0  0  0  0  0  0  0  0  0
    8.7478  -12.7589    6.6171 C   0  0  0  0  0  0  0  0  0  0  0  0
    8.5002  -22.9198    8.1063 C   0  0  2  0  0  0  0  0  0  0  0  0
   10.1855  -21.4710    7.3229 C   0  0  0  0  0  0  0  0  0  0  0  0
    8.9722  -23.1772    9.3795 C   0  0  0  0  0  0  0  0  0  0  0  0
    8.6681  -21.6014    7.8362 C   0  0  1  0  0  0  0  0  0  0  0  0
   18.4243  -16.9349    5.4838 C   0  0  0  0  0  0  0  0  0  0  0  0
   18.1353  -17.4984    4.0103 C   0  0  0  0  0  0  0  0  0  0  0  0
   16.6212  -18.0098    3.9675 C   0  0  1  0  0  0  0  0  0  0  0  0
   16.2493  -18.5822    2.5943 C   0  0  0  0  0  0  0  0  0  0  0  0
   12.1573  -19.9177    7.4871 C   0  0  1  0  0  0  0  0  0  0  0  0
   12.8423  -19.1175    8.7185 C   0  0  0  0  0  0  0  0  0  0  0  0
   14.3469  -18.7898    8.3771 C   0  0  2  0  0  0  0  0  0  0  0  0
    7.1235  -23.3488    8.0058 F   0  0  0  0  0  0  0  0  0  0  0  0
    8.1422  -14.1047    6.1247 N   0  0  0  0  0  0  0  0  0  0  0  0
   18.4063  -17.6764    7.9530 N   0  0  0  0  0  0  0  0  0  0  0  0
   13.2259  -11.6098    6.1746 N   0  0  0  0  0  0  0  0  0  0  0  0
    8.5589  -22.6993   10.6453 N   0  0  0  0  0  0  0  0  0  0  0  0
   16.3545  -17.5978    1.5889 N   0  0  0  0  0  0  0  0  0  0  0  0
   10.7598  -20.2268    7.8393 N   0  0  0  0  0  0  0  0  0  0  0  0
   14.9822  -18.0475    9.4883 N   0  0  0  0  0  0  0  0  0  0  0  0
   15.7828  -17.6742    6.8349 O   0  0  0  0  0  0  0  0  0  0  0  0
   13.8576  -17.6950    4.7157 O   0  0  0  0  0  0  0  0  0  0  0  0
   11.6247  -19.5553    5.1567 O   0  0  0  0  0  0  0  0  0  0  0  0
   14.9363  -15.3254    3.1325 O   0  0  0  0  0  0  0  0  0  0  0  0
   11.9945  -16.2601    4.8648 O   0  0  0  0  0  0  0  0  0  0  0  0
   11.3434  -17.5049    2.2995 O   0  0  0  0  0  0  0  0  0  0  0  0
   12.9669  -13.6882    4.1257 O   0  0  0  0  0  0  0  0  0  0  0  0
    7.7668  -21.1139    6.8182 O   0  0  0  0  0  0  0  0  0  0  0  0
   10.7660  -22.3102    6.6148 O   0  0  0  0  0  0  0  0  0  0  0  0
   10.9002  -13.1862    5.3355 O   0  0  0  0  0  0  0  0  0  0  0  0
   16.4133  -19.0904    5.0158 O   0  0  0  0  0  0  0  0  0  0  0  0
  1 36  1  6  0  0  0
  2 36  1  6  0  0  0
  2  3  1  0  0  0  0
  3 37  1  6  0  0  0
  3  4  1  0  0  0  0
  4 38  1  6  0  0  0
  5 37  1  6  0  0  0
  5  6  1  0  0  0  0
  6  7  1  0  0  0  0
  6 39  1  1  0  0  0
  7 42  1  1  0  0  0
  8  9  1  6  0  0  0
  8  7  1  0  0  0  0
 10 42  1  1  0  0  0
 10 11  1  0  0  0  0
 11 31  1  1  0  0  0
 11 13  1  0  0  0  0
 12 30  1  1  0  0  0
 12  1  1  0  0  0  0
 14 13  1  0  0  0  0
 15 16  1  1  0  0  0
 15 14  1  0  0  0  0
 17 19  1  1  0  0  0
 17 28  1  0  0  0  0
 18 34  1  0  0  0  0
 19 32  1  0  0  0  0
 20 18  1  6  0  0  0
 20 17  1  0  0  0  0
 20 43  1  0  0  0  0
 21 12  1  0  0  0  0
 22 21  1  0  0  0  0
 22 23  1  0  0  0  0
 23 24  1  6  0  0  0
 23 46  1  0  0  0  0
 24 33  1  0  0  0  0
 25 34  1  1  0  0  0
 25  4  1  0  0  0  0
 26 25  1  0  0  0  0
 27 35  1  1  0  0  0
 27 26  1  0  0  0  0
 27  2  1  0  0  0  0
 29 16  1  0  0  0  0
 40  8  1  0  0  0  0
 40  5  1  0  0  0  0
 41  9  1  0  0  0  0
 44 18  2  0  0  0  0
 45 15  1  0  0  0  0
 45 10  1  0  0  0  0
 46  1  1  0  0  0  0
M  END
>  <CHROM.1>
-167.48322458,-53.14801715,-57.31639297,-175.39315097,-173.80857821,63.60689824
-164.07059380,-176.78178605,62.54951599,-142.02377106,83.93389354,-61.82108509
97.17751591,12.61994998,-17.40721913,5.82782334,-1.10527398,-0.20313166,2.82068684

>  <Name>
lig.pdb

>  <RI>
0

>  <Rbt.Current_Directory>
/home/afrankz/demos/rdock_decoys_rna/rnas/3wru

>  <Rbt.Executable>
rbdock ($Id: //depot/dev/client3/rdock/2013.1/src/exe/rbdock.cxx#4 $)

>  <Rbt.Library>
libRbt.so (2013.1, Build901 2013/11/27)

>  <Rbt.Parameter_File>
/export/apps/rDock/src/rDock_2013.1_src/data/scripts/dock_solv.prm

>  <Rbt.Receptor>
prm/pocket_docking_7.prm

>  <SCORE>
1.80594

>  <SCORE.INTER>
6.77436

>  <SCORE.INTER.CONST>
1

>  <SCORE.INTER.POLAR>
0

>  <SCORE.INTER.ROT>
13

>  <SCORE.INTER.SOLV>
12.4683

>  <SCORE.INTER.VDW>
-11.9065

>  <SCORE.INTER.norm>
0.147269

>  <SCORE.INTRA>
-4.96842

>  <SCORE.INTRA.DIHEDRAL>
-12.5487

>  <SCORE.INTRA.DIHEDRAL.0>
19.7146

>  <SCORE.INTRA.POLAR>
0

>  <SCORE.INTRA.POLAR.0>
0

>  <SCORE.INTRA.REPUL>
0

>  <SCORE.INTRA.REPUL.0>
0

>  <SCORE.INTRA.SOLV>
2.23687

>  <SCORE.INTRA.SOLV.lig_0>
-116.697

>  <SCORE.INTRA.VDW>
0.187503

>  <SCORE.INTRA.VDW.0>
-7.06424

>  <SCORE.INTRA.norm>
-0.108009

>  <SCORE.RESTR>
0

>  <SCORE.RESTR.CAVITY>
0

>  <SCORE.RESTR.norm>
0

>  <SCORE.SYSTEM>
0

>  <SCORE.SYSTEM.CONST>
0

>  <SCORE.SYSTEM.DIHEDRAL>
0

>  <SCORE.SYSTEM.SOLV>
0

>  <SCORE.SYSTEM.norm>
0

>  <SCORE.heavy>
46

>  <SCORE.norm>
0.0392595

>  <RMSD>
9.714

$$$$
lig.pdb
 OpenBabel03061811583D
libRbt.so/2013.1/901 2013/11/27
 46 49  0  0  0  0  0  0  0  0999 V2000
    9.2591  -15.4371    9.9410 C   0  0  1  0  0  0  0  0  0  0  0  0
   10.0886  -13.9338    8.0809 C   0  0  1  0  0  0  0  0  0  0  0  0
   11.3961  -13.8037    7.2422 C   0  0  1  0  0  0  0  0  0  0  0  0
   11.3363  -12.4327    6.3939 C   0  0  2  0  0  0  0  0  0  0  0  0
   13.8231  -13.7134    7.9764 C   0  0  2  0  0  0  0  0  0  0  0  0
   14.5318  -12.6091    8.8113 C   0  0  1  0  0  0  0  0  0  0  0  0
   15.9211  -13.1996    8.8005 C   0  0  1  0  0  0  0  0  0  0  0  0
   15.7124  -14.7112    9.1329 C   0  0  1  0  0  0  0  0  0  0  0  0
   15.5557  -15.0887   10.6477 C   0  0  0  0  0  0  0  0  0  0  0  0
   17.6054  -12.1558    7.3318 C   0  0  1  0  0  0  0  0  0  0  0  0
   18.1590  -12.0088    5.9459 C   0  0  1  0  0  0  0  0  0  0  0  0
   10.0767  -15.3920   11.2535 C   0  0  1  0  0  0  0  0  0  0  0  0
   19.4049  -11.0556    6.0058 C   0  0  0  0  0  0  0  0  0  0  0  0
   20.4760  -11.5188    6.8404 C   0  0  0  0  0  0  0  0  0  0  0  0
   19.9876  -11.6393    8.1976 C   0  0  2  0  0  0  0  0  0  0  0  0
   21.1239  -12.1563    9.1653 C   0  0  0  0  0  0  0  0  0  0  0  0
   11.1465   -8.8185    3.5695 C   0  0  2  0  0  0  0  0  0  0  0  0
   10.9337  -11.1621    3.4478 C   0  0  0  0  0  0  0  0  0  0  0  0
   11.3106   -7.6325    2.8791 C   0  0  0  0  0  0  0  0  0  0  0  0
   10.6615   -9.7562    2.7182 C   0  0  1  0  0  0  0  0  0  0  0  0
   11.1463  -16.5757   11.3033 C   0  0  0  0  0  0  0  0  0  0  0  0
   10.3606  -17.9674   11.1680 C   0  0  0  0  0  0  0  0  0  0  0  0
    9.5674  -17.9513    9.7800 C   0  0  1  0  0  0  0  0  0  0  0  0
    8.7695  -19.2425    9.5622 C   0  0  0  0  0  0  0  0  0  0  0  0
   10.1042  -12.5261    5.3918 C   0  0  1  0  0  0  0  0  0  0  0  0
    8.7786  -12.6350    6.3174 C   0  0  0  0  0  0  0  0  0  0  0  0
    8.8301  -13.9557    7.1783 C   0  0  2  0  0  0  0  0  0  0  0  0
   10.2931   -8.5963    4.7149 F   0  0  0  0  0  0  0  0  0  0  0  0
   21.5972  -13.6008    8.8343 N   0  0  0  0  0  0  0  0  0  0  0  0
   10.7254  -14.0327   11.3567 N   0  0  0  0  0  0  0  0  0  0  0  0
   18.6309  -13.2005    5.3886 N   0  0  0  0  0  0  0  0  0  0  0  0
   10.4014   -6.8563    2.1227 N   0  0  0  0  0  0  0  0  0  0  0  0
    9.6295  -20.3404    9.3476 N   0  0  0  0  0  0  0  0  0  0  0  0
   10.0218  -11.2947    4.5860 N   0  0  0  0  0  0  0  0  0  0  0  0
    7.6309  -14.0624    8.0386 N   0  0  0  0  0  0  0  0  0  0  0  0
   10.0871  -15.1527    8.8129 O   0  0  0  0  0  0  0  0  0  0  0  0
   12.5363  -13.7940    8.2183 O   0  0  0  0  0  0  0  0  0  0  0  0
   12.4996  -12.3415    5.6629 O   0  0  0  0  0  0  0  0  0  0  0  0
   14.4197  -11.4005    8.1229 O   0  0  0  0  0  0  0  0  0  0  0  0
   14.5987  -14.9332    8.2519 O   0  0  0  0  0  0  0  0  0  0  0  0
   14.3623  -14.4406   11.1311 O   0  0  0  0  0  0  0  0  0  0  0  0
   16.5303  -13.0129    7.4227 O   0  0  0  0  0  0  0  0  0  0  0  0
    9.2481   -9.6080    2.4600 O   0  0  0  0  0  0  0  0  0  0  0  0
   11.7767  -11.9969    3.0803 O   0  0  0  0  0  0  0  0  0  0  0  0
   18.7894  -12.5579    8.2451 O   0  0  0  0  0  0  0  0  0  0  0  0
    8.6046  -16.7756    9.7513 O   0  0  0  0  0  0  0  0  0  0  0  0
  1 36  1  6  0  0  0
  2 36  1  6  0  0  0
  2  3  1  0  0  0  0
  3 37  1  1  0  0  0
  3  4  1  0  0  0  0
  4 38  1  6  0  0  0
  5 37  1  1  0  0  0
  5  6  1  0  0  0  0
  6  7  1  0  0  0  0
  6 39  1  6  0  0  0
  7 42  1  6  0  0  0
  8  9  1  1  0  0  0
  8  7  1  0  0  0  0
 10 42  1  6  0  0  0
 10 11  1  0  0  0  0
 11 31  1  1  0  0  0
 11 13  1  0  0  0  0
 12 30  1  6  0  0  0
 12  1  1  0  0  0  0
 14 13  1  0  0  0  0
 15 16  1  1  0  0  0
 15 14  1  0  0  0  0
 17 19  1  6  0  0  0
 17 28  1  0  0  0  0
 18 34  1  0  0  0  0
 19 32  1  0  0  0  0
 20 18  1  1  0  0  0
 20 17  1  0  0  0  0
 20 43  1  0  0  0  0
 21 12  1  0  0  0  0
 22 21  1  0  0  0  0
 22 23  1  0  0  0  0
 23 24  1  1  0  0  0
 23 46  1  0  0  0  0
 24 33  1  0  0  0  0
 25 34  1  1  0  0  0
 25  4  1  0  0  0  0
 26 25  1  0  0  0  0
 27 35  1  1  0  0  0
 27 26  1  0  0  0  0
 27  2  1  0  0  0  0
 29 16  1  0  0  0  0
 40  8  1  0  0  0  0
 40  5  1  0  0  0  0
 41  9  1  0  0  0  0
 44 18  2  0  0  0  0
 45 15  1  0  0  0  0
 45 10  1  0  0  0  0
 46  1  1  0  0  0  0
M  END
>  <CHROM.1>
-105.55997469,161.73954400,179.32986224,129.31468553,112.85796965,62.89697502
-179.75627400,-64.78156612,55.76795382,71.65771493,162.87840209,-68.84528824
79.22070640,13.00118880,-13.17156085,7.39305808,-2.85491184,-0.14901576,-0.75072832

>  <Name>
lig.pdb

>  <RI>
0

>  <Rbt.Current_Directory>
/home/afrankz/demos/rdock_decoys_rna/rnas/3wru

>  <Rbt.Executable>
rbdock ($Id: //depot/dev/client3/rdock/2013.1/src/exe/rbdock.cxx#4 $)

>  <Rbt.Library>
libRbt.so (2013.1, Build901 2013/11/27)

>  <Rbt.Parameter_File>
/export/apps/rDock/src/rDock_2013.1_src/data/scripts/dock_solv.prm

>  <Rbt.Receptor>
prm/pocket_docking_3.prm

>  <SCORE>
3.31169

>  <SCORE.INTER>
-0.846933

>  <SCORE.INTER.CONST>
1

>  <SCORE.INTER.POLAR>
0

>  <SCORE.INTER.ROT>
13

>  <SCORE.INTER.SOLV>
15.0637

>  <SCORE.INTER.VDW>
-17.8525

>  <SCORE.INTER.norm>
-0.0184116

>  <SCORE.INTRA>
4.12753

>  <SCORE.INTRA.DIHEDRAL>
4.36236

>  <SCORE.INTRA.DIHEDRAL.0>
19.7146

>  <SCORE.INTRA.POLAR>
0

>  <SCORE.INTRA.POLAR.0>
0

>  <SCORE.INTRA.REPUL>
0

>  <SCORE.INTRA.REPUL.0>
0

>  <SCORE.INTRA.SOLV>
2.10805

>  <SCORE.INTRA.SOLV.lig_0>
-116.697

>  <SCORE.INTRA.VDW>
0.892323

>  <SCORE.INTRA.VDW.0>
-7.06424

>  <SCORE.INTRA.norm>
0.0897288

>  <SCORE.RESTR>
0.0310972

>  <SCORE.RESTR.CAVITY>
0.0310972

>  <SCORE.RESTR.norm>
0.000676026

>  <SCORE.SYSTEM>
0

>  <SCORE.SYSTEM.CONST>
0

>  <SCORE.SYSTEM.DIHEDRAL>
0

>  <SCORE.SYSTEM.SOLV>
0

>  <SCORE.SYSTEM.norm>
0

>  <SCORE.heavy>
46

>  <SCORE.norm>
0.0719933

>  <RMSD>
9.733

$$$$
lig.pdb
 OpenBabel03061811583D
libRbt.so/2013.1/901 2013/11/27
 46 49  0  0  0  0  0  0  0  0999 V2000
   11.1717  -14.5468   11.4655 C   0  0  1  0  0  0  0  0  0  0  0  0
   11.4584  -13.7415    9.0828 C   0  0  1  0  0  0  0  0  0  0  0  0
   12.3248  -14.1826    7.8644 C   0  0  1  0  0  0  0  0  0  0  0  0
   12.2669  -13.0280    6.7390 C   0  0  2  0  0  0  0  0  0  0  0  0
   14.8375  -14.4914    7.6948 C   0  0  2  0  0  0  0  0  0  0  0  0
   16.0864  -14.6918    8.5997 C   0  0  1  0  0  0  0  0  0  0  0  0
   16.9622  -15.3966    7.5921 C   0  0  1  0  0  0  0  0  0  0  0  0
   16.0319  -16.4667    6.9374 C   0  0  1  0  0  0  0  0  0  0  0  0
   15.8380  -17.8121    7.7211 C   0  0  0  0  0  0  0  0  0  0  0  0
   18.3342  -14.8530    5.6159 C   0  0  1  0  0  0  0  0  0  0  0  0
   19.6539  -15.3061    6.1653 C   0  0  1  0  0  0  0  0  0  0  0  0
   12.4747  -14.3141   12.2662 C   0  0  1  0  0  0  0  0  0  0  0  0
   20.5661  -15.7502    4.9673 C   0  0  0  0  0  0  0  0  0  0  0  0
   20.8407  -14.7198    4.0074 C   0  0  0  0  0  0  0  0  0  0  0  0
   19.5892  -14.2806    3.4276 C   0  0  2  0  0  0  0  0  0  0  0  0
   19.8273  -13.1357    2.3657 C   0  0  0  0  0  0  0  0  0  0  0  0
   11.5057   -8.3689    4.6234 C   0  0  2  0  0  0  0  0  0  0  0  0
   11.3015  -10.5547    5.4801 C   0  0  0  0  0  0  0  0  0  0  0  0
   11.6390   -7.5504    3.5178 C   0  0  0  0  0  0  0  0  0  0  0  0
   11.0781   -9.5893    4.2146 C   0  0  1  0  0  0  0  0  0  0  0  0
   13.3756  -15.6316   12.2903 C   0  0  0  0  0  0  0  0  0  0  0  0
   12.5119  -16.8176   12.9380 C   0  0  0  0  0  0  0  0  0  0  0  0
   11.2027  -17.0182   12.0427 C   0  0  1  0  0  0  0  0  0  0  0  0
   10.2996  -18.1297   12.5908 C   0  0  0  0  0  0  0  0  0  0  0  0
   10.7578  -12.8847    6.2565 C   0  0  1  0  0  0  0  0  0  0  0  0
    9.9143  -12.4035    7.5538 C   0  0  0  0  0  0  0  0  0  0  0  0
    9.9816  -13.5065    8.6793 C   0  0  2  0  0  0  0  0  0  0  0  0
   10.6175   -7.7477    5.5799 F   0  0  0  0  0  0  0  0  0  0  0  0
   20.3354  -13.6698    0.9957 N   0  0  0  0  0  0  0  0  0  0  0  0
   13.1990  -13.1393   11.6542 N   0  0  0  0  0  0  0  0  0  0  0  0
   20.3723  -14.3062    6.8269 N   0  0  0  0  0  0  0  0  0  0  0  0
   12.0999   -6.2191    3.3891 N   0  0  0  0  0  0  0  0  0  0  0  0
    9.1948  -18.3509   11.7414 N   0  0  0  0  0  0  0  0  0  0  0  0
   10.6632  -11.8458    5.2153 N   0  0  0  0  0  0  0  0  0  0  0  0
    9.2257  -13.0749    9.8758 N   0  0  0  0  0  0  0  0  0  0  0  0
   11.4526  -14.7541   10.0808 O   0  0  0  0  0  0  0  0  0  0  0  0
   13.7221  -14.3786    8.3761 O   0  0  0  0  0  0  0  0  0  0  0  0
   13.0378  -13.4409    5.6754 O   0  0  0  0  0  0  0  0  0  0  0  0
   16.5551  -13.4347    8.9833 O   0  0  0  0  0  0  0  0  0  0  0  0
   14.8908  -15.6142    6.7453 O   0  0  0  0  0  0  0  0  0  0  0  0
   14.9782  -18.6527    6.9261 O   0  0  0  0  0  0  0  0  0  0  0  0
   17.4547  -14.3886    6.5696 O   0  0  0  0  0  0  0  0  0  0  0  0
    9.6849   -9.6017    3.8337 O   0  0  0  0  0  0  0  0  0  0  0  0
   11.9317  -10.2425    6.5038 O   0  0  0  0  0  0  0  0  0  0  0  0
   18.6439  -13.8145    4.5097 O   0  0  0  0  0  0  0  0  0  0  0  0
   10.4065  -15.7243   11.9983 O   0  0  0  0  0  0  0  0  0  0  0  0
  1 36  1  6  0  0  0
  2 36  1  1  0  0  0
  2  3  1  0  0  0  0
  3 37  1  1  0  0  0
  3  4  1  0  0  0  0
  4 38  1  6  0  0  0
  5 37  1  1  0  0  0
  5  6  1  0  0  0  0
  6  7  1  0  0  0  0
  6 39  1  6  0  0  0
  7 42  1  6  0  0  0
  8  9  1  1  0  0  0
  8  7  1  0  0  0  0
 10 42  1  1  0  0  0
 10 11  1  0  0  0  0
 11 31  1  6  0  0  0
 11 13  1  0  0  0  0
 12 30  1  6  0  0  0
 12  1  1  0  0  0  0
 14 13  1  0  0  0  0
 15 16  1  6  0  0  0
 15 14  1  0  0  0  0
 17 19  1  6  0  0  0
 17 28  1  0  0  0  0
 18 34  1  0  0  0  0
 19 32  1  0  0  0  0
 20 18  1  1  0  0  0
 20 17  1  0  0  0  0
 20 43  1  0  0  0  0
 21 12  1  0  0  0  0
 22 21  1  0  0  0  0
 22 23  1  0  0  0  0
 23 24  1  1  0  0  0
 23 46  1  0  0  0  0
 24 33  1  0  0  0  0
 25 34  1  6  0  0  0
 25  4  1  0  0  0  0
 26 25  1  0  0  0  0
 27 35  1  1  0  0  0
 27 26  1  0  0  0  0
 27  2  1  0  0  0  0
 29 16  1  0  0  0  0
 40  8  1  0  0  0  0
 40  5  1  0  0  0  0
 41  9  1  0  0  0  0
 44 18  2  0  0  0  0
 45 15  1  0  0  0  0
 45 10  1  0  0  0  0
 46  1  1  0  0  0  0
M  END
>  <CHROM.1>
-93.44873728,157.50638608,-165.33948167,-179.70469207,176.37098445,-178.64751326
-64.85356176,78.25806137,-177.00644107,170.60557864,166.39060036,-176.19262355
-48.96214428,13.90286518,-13.69834049,7.33544141,-2.68776619,0.44537397,-0.77414899

>  <Name>
lig.pdb

>  <RI>
0

>  <Rbt.Current_Directory>
/home/afrankz/demos/rdock_decoys_rna/rnas/3wru

>  <Rbt.Executable>
rbdock ($Id: //depot/dev/client3/rdock/2013.1/src/exe/rbdock.cxx#4 $)

>  <Rbt.Library>
libRbt.so (2013.1, Build901 2013/11/27)

>  <Rbt.Parameter_File>
/export/apps/rDock/src/rDock_2013.1_src/data/scripts/dock_solv.prm

>  <Rbt.Receptor>
prm/pocket_docking_6.prm

>  <SCORE>
-0.74968

>  <SCORE.INTER>
1.19407

>  <SCORE.INTER.CONST>
1

>  <SCORE.INTER.POLAR>
0

>  <SCORE.INTER.ROT>
13

>  <SCORE.INTER.SOLV>
14.3642

>  <SCORE.INTER.VDW>
-16.2587

>  <SCORE.INTER.norm>
0.025958

>  <SCORE.INTRA>
-1.94375

>  <SCORE.INTRA.DIHEDRAL>
-9.06742

>  <SCORE.INTRA.DIHEDRAL.0>
19.7146

>  <SCORE.INTRA.POLAR>
0

>  <SCORE.INTRA.POLAR.0>
0

>  <SCORE.INTRA.REPUL>
0

>  <SCORE.INTRA.REPUL.0>
0

>  <SCORE.INTRA.SOLV>
-0.766182

>  <SCORE.INTRA.SOLV.lig_0>
-116.697

>  <SCORE.INTRA.VDW>
2.97305

>  <SCORE.INTRA.VDW.0>
-7.06424

>  <SCORE.INTRA.norm>
-0.0422554

>  <SCORE.RESTR>
0

>  <SCORE.RESTR.CAVITY>
0

>  <SCORE.RESTR.norm>
0

>  <SCORE.SYSTEM>
0

>  <SCORE.SYSTEM.CONST>
0

>  <SCORE.SYSTEM.DIHEDRAL>
0

>  <SCORE.SYSTEM.SOLV>
0

>  <SCORE.SYSTEM.norm>
0

>  <SCORE.heavy>
46

>  <SCORE.norm>
-0.0162974

>  <RMSD>
9.764

$$$$
lig.pdb
 OpenBabel03061811583D
libRbt.so/2013.1/901 2013/11/27
 46 49  0  0  0  0  0  0  0  0999 V2000
    9.9010  -15.5561   10.0108 C   0  0  1  0  0  0  0  0  0  0  0  0
   10.5114  -13.9921    8.1162 C   0  0  1  0  0  0  0  0  0  0  0  0
   11.7432  -13.7946    7.1816 C   0  0  1  0  0  0  0  0  0  0  0  0
   11.5658  -12.4105    6.3719 C   0  0  2  0  0  0  0  0  0  0  0  0
   14.1799  -13.3966    7.7663 C   0  0  2  0  0  0  0  0  0  0  0  0
   15.0725  -13.1718    9.0199 C   0  0  1  0  0  0  0  0  0  0  0  0
   16.4114  -13.4234    8.3696 C   0  0  1  0  0  0  0  0  0  0  0  0
   16.2037  -14.7182    7.5215 C   0  0  1  0  0  0  0  0  0  0  0  0
   16.3070  -16.0872    8.2811 C   0  0  0  0  0  0  0  0  0  0  0  0
   18.1082  -12.0433    7.2294 C   0  0  1  0  0  0  0  0  0  0  0  0
   18.6237  -12.8261    6.0588 C   0  0  1  0  0  0  0  0  0  0  0  0
   10.7058  -15.1490   11.2676 C   0  0  1  0  0  0  0  0  0  0  0  0
   20.1628  -12.5522    5.9155 C   0  0  0  0  0  0  0  0  0  0  0  0
   20.9489  -12.9307    7.0546 C   0  0  0  0  0  0  0  0  0  0  0  0
   20.5026  -12.1673    8.2005 C   0  0  2  0  0  0  0  0  0  0  0  0
   21.3280  -12.5485    9.4921 C   0  0  0  0  0  0  0  0  0  0  0  0
   10.9280   -8.7552    3.7002 C   0  0  2  0  0  0  0  0  0  0  0  0
   10.8805  -11.1019    3.4916 C   0  0  0  0  0  0  0  0  0  0  0  0
   10.7766   -7.5055    3.1297 C   0  0  0  0  0  0  0  0  0  0  0  0
   10.5006   -9.6928    2.8184 C   0  0  1  0  0  0  0  0  0  0  0  0
   12.0349  -16.0223   11.4048 C   0  0  0  0  0  0  0  0  0  0  0  0
   11.6139  -17.5684   11.4729 C   0  0  0  0  0  0  0  0  0  0  0  0
   10.8162  -17.9203   10.1328 C   0  0  1  0  0  0  0  0  0  0  0  0
   10.3572  -19.3832   10.1078 C   0  0  0  0  0  0  0  0  0  0  0  0
   10.2631  -12.5319    5.4669 C   0  0  1  0  0  0  0  0  0  0  0  0
    9.0194  -12.7107    6.4901 C   0  0  0  0  0  0  0  0  0  0  0  0
    9.1876  -14.0451    7.3141 C   0  0  2  0  0  0  0  0  0  0  0  0
   10.2229   -8.7989    4.9613 F   0  0  0  0  0  0  0  0  0  0  0  0
   22.8664  -12.4402    9.2876 N   0  0  0  0  0  0  0  0  0  0  0  0
   11.0014  -13.6711   11.1782 N   0  0  0  0  0  0  0  0  0  0  0  0
   18.5057  -14.2116    6.2000 N   0  0  0  0  0  0  0  0  0  0  0  0
   11.3499   -6.9296    1.9717 N   0  0  0  0  0  0  0  0  0  0  0  0
    9.6490  -19.6725    8.9221 N   0  0  0  0  0  0  0  0  0  0  0  0
   10.0719  -11.2890    4.6981 N   0  0  0  0  0  0  0  0  0  0  0  0
    8.0646  -14.2154    8.2624 N   0  0  0  0  0  0  0  0  0  0  0  0
   10.6129  -15.2244    8.8182 O   0  0  0  0  0  0  0  0  0  0  0  0
   12.9555  -13.7600    8.0660 O   0  0  0  0  0  0  0  0  0  0  0  0
   12.6639  -12.2597    5.5549 O   0  0  0  0  0  0  0  0  0  0  0  0
   14.8883  -11.8600    9.4587 O   0  0  0  0  0  0  0  0  0  0  0  0
   14.9412  -14.3487    6.9423 O   0  0  0  0  0  0  0  0  0  0  0  0
   15.2758  -16.0989    9.2884 O   0  0  0  0  0  0  0  0  0  0  0  0
   16.7696  -12.2369    7.4931 O   0  0  0  0  0  0  0  0  0  0  0  0
    9.0772   -9.6363    2.5792 O   0  0  0  0  0  0  0  0  0  0  0  0
   11.7178  -11.8988    3.0371 O   0  0  0  0  0  0  0  0  0  0  0  0
   19.0250  -12.3808    8.4308 O   0  0  0  0  0  0  0  0  0  0  0  0
    9.5931  -17.0262   10.0122 O   0  0  0  0  0  0  0  0  0  0  0  0
  1 36  1  6  0  0  0
  2 36  1  6  0  0  0
  2  3  1  0  0  0  0
  3 37  1  1  0  0  0
  3  4  1  0  0  0  0
  4 38  1  6  0  0  0
  5 37  1  1  0  0  0
  5  6  1  0  0  0  0
  6  7  1  0  0  0  0
  6 39  1  6  0  0  0
  7 42  1  6  0  0  0
  8  9  1  1  0  0  0
  8  7  1  0  0  0  0
 10 42  1  1  0  0  0
 10 11  1  0  0  0  0
 11 31  1  1  0  0  0
 11 13  1  0  0  0  0
 12 30  1  6  0  0  0
 12  1  1  0  0  0  0
 14 13  1  0  0  0  0
 15 16  1  1  0  0  0
 15 14  1  0  0  0  0
 17 19  1  6  0  0  0
 17 28  1  0  0  0  0
 18 34  1  0  0  0  0
 19 32  1  0  0  0  0
 20 18  1  1  0  0  0
 20 17  1  0  0  0  0
 20 43  1  0  0  0  0
 21 12  1  0  0  0  0
 22 21  1  0  0  0  0
 22 23  1  0  0  0  0
 23 24  1  1  0  0  0
 23 46  1  0  0  0  0
 24 33  1  0  0  0  0
 25 34  1  1  0  0  0
 25  4  1  0  0  0  0
 26 25  1  0  0  0  0
 27 35  1  1  0  0  0
 27 26  1  0  0  0  0
 27  2  1  0  0  0  0
 29 16  1  0  0  0  0
 40  8  1  0  0  0  0
 40  5  1  0  0  0  0
 41  9  1  0  0  0  0
 44 18  2  0  0  0  0
 45 15  1  0  0  0  0
 45 10  1  0  0  0  0
 46  1  1  0  0  0  0
M  END
>  <CHROM.1>
-90.24365967,160.83290065,-167.53276242,166.10323270,156.38513338,61.04070550
85.74858487,53.29415089,-61.73176870,66.91124409,173.28376046,179.65703772
79.55765386,13.42036312,-13.27813841,7.34740607,2.98547454,-0.10910633,-0.72391764

>  <Name>
lig.pdb

>  <RI>
0

>  <Rbt.Current_Directory>
/home/afrankz/demos/rdock_decoys_rna/rnas/3wru

>  <Rbt.Executable>
rbdock ($Id: //depot/dev/client3/rdock/2013.1/src/exe/rbdock.cxx#4 $)

>  <Rbt.Library>
libRbt.so (2013.1, Build901 2013/11/27)

>  <Rbt.Parameter_File>
/export/apps/rDock/src/rDock_2013.1_src/data/scripts/dock_solv.prm

>  <Rbt.Receptor>
prm/pocket_docking_3.prm

>  <SCORE>
3.56774

>  <SCORE.INTER>
2.25412

>  <SCORE.INTER.CONST>
1

>  <SCORE.INTER.POLAR>
0

>  <SCORE.INTER.ROT>
13

>  <SCORE.INTER.SOLV>
12.403

>  <SCORE.INTER.VDW>
-14.8983

>  <SCORE.INTER.norm>
0.0490025

>  <SCORE.INTRA>
1.31362

>  <SCORE.INTRA.DIHEDRAL>
-5.91097

>  <SCORE.INTRA.DIHEDRAL.0>
19.7146

>  <SCORE.INTRA.POLAR>
0

>  <SCORE.INTRA.POLAR.0>
0

>  <SCORE.INTRA.REPUL>
0

>  <SCORE.INTRA.REPUL.0>
0

>  <SCORE.INTRA.SOLV>
3.5024

>  <SCORE.INTRA.SOLV.lig_0>
-116.697

>  <SCORE.INTRA.VDW>
2.51791

>  <SCORE.INTRA.VDW.0>
-7.06424

>  <SCORE.INTRA.norm>
0.028557

>  <SCORE.RESTR>
0

>  <SCORE.RESTR.CAVITY>
0

>  <SCORE.RESTR.norm>
0

>  <SCORE.SYSTEM>
0

>  <SCORE.SYSTEM.CONST>
0

>  <SCORE.SYSTEM.DIHEDRAL>
0

>  <SCORE.SYSTEM.SOLV>
0

>  <SCORE.SYSTEM.norm>
0

>  <SCORE.heavy>
46

>  <SCORE.norm>
0.0775595

>  <RMSD>
9.770

$$$$
lig.pdb
 OpenBabel03061811583D
libRbt.so/2013.1/901 2013/11/27
 46 49  0  0  0  0  0  0  0  0999 V2000
    9.4668  -14.5785   10.1871 C   0  0  1  0  0  0  0  0  0  0  0  0
   10.4875  -13.4591    8.1591 C   0  0  1  0  0  0  0  0  0  0  0  0
   11.7326  -13.6877    7.2495 C   0  0  1  0  0  0  0  0  0  0  0  0
   11.8926  -12.4246    6.2586 C   0  0  2  0  0  0  0  0  0  0  0  0
   14.1812  -13.5849    7.9064 C   0  0  2  0  0  0  0  0  0  0  0  0
   14.9475  -12.9868    9.1204 C   0  0  1  0  0  0  0  0  0  0  0  0
   16.3337  -13.4468    8.7383 C   0  0  1  0  0  0  0  0  0  0  0  0
   16.1546  -14.9405    8.3190 C   0  0  1  0  0  0  0  0  0  0  0  0
   16.1131  -16.0010    9.4746 C   0  0  0  0  0  0  0  0  0  0  0  0
   18.1860  -12.3203    7.5621 C   0  0  1  0  0  0  0  0  0  0  0  0
   18.6052  -11.3980    6.4565 C   0  0  1  0  0  0  0  0  0  0  0  0
   10.3034  -14.2941   11.4570 C   0  0  1  0  0  0  0  0  0  0  0  0
   20.1629  -11.2156    6.5237 C   0  0  0  0  0  0  0  0  0  0  0  0
   20.9166  -12.4269    6.3706 C   0  0  0  0  0  0  0  0  0  0  0  0
   20.5641  -13.3314    7.4442 C   0  0  2  0  0  0  0  0  0  0  0  0
   21.3581  -14.6915    7.3234 C   0  0  0  0  0  0  0  0  0  0  0  0
    9.9263   -9.1488    2.9079 C   0  0  2  0  0  0  0  0  0  0  0  0
   10.3868  -11.4583    2.9935 C   0  0  0  0  0  0  0  0  0  0  0  0
   10.8620   -8.4091    3.6060 C   0  0  0  0  0  0  0  0  0  0  0  0
   10.5719  -10.0885    2.1733 C   0  0  1  0  0  0  0  0  0  0  0  0
   11.3243  -15.4857   11.7494 C   0  0  0  0  0  0  0  0  0  0  0  0
   10.4807  -16.8398   11.9134 C   0  0  0  0  0  0  0  0  0  0  0  0
    9.6699  -17.0814   10.5568 C   0  0  1  0  0  0  0  0  0  0  0  0
    8.8170  -18.3542   10.6190 C   0  0  0  0  0  0  0  0  0  0  0  0
   10.6003  -12.3568    5.3333 C   0  0  1  0  0  0  0  0  0  0  0  0
    9.3479  -12.0952    6.3278 C   0  0  0  0  0  0  0  0  0  0  0  0
    9.1909  -13.3064    7.3259 C   0  0  2  0  0  0  0  0  0  0  0  0
    9.1111   -8.2638    2.1068 F   0  0  0  0  0  0  0  0  0  0  0  0
   22.8933  -14.5207    7.5089 N   0  0  0  0  0  0  0  0  0  0  0  0
   11.0085  -12.9724   11.2691 N   0  0  0  0  0  0  0  0  0  0  0  0
   18.3445  -11.8871    5.1733 N   0  0  0  0  0  0  0  0  0  0  0  0
   11.8804   -8.7991    4.5072 N   0  0  0  0  0  0  0  0  0  0  0  0
    9.6282  -19.5038   10.7253 N   0  0  0  0  0  0  0  0  0  0  0  0
   10.7130  -11.2206    4.4012 N   0  0  0  0  0  0  0  0  0  0  0  0
    8.0579  -13.0755    8.2492 N   0  0  0  0  0  0  0  0  0  0  0  0
   10.2904  -14.5728    9.0206 O   0  0  0  0  0  0  0  0  0  0  0  0
   12.9163  -13.8204    8.1627 O   0  0  0  0  0  0  0  0  0  0  0  0
   12.9964  -12.6505    5.4671 O   0  0  0  0  0  0  0  0  0  0  0  0
   14.7808  -11.6014    9.1037 O   0  0  0  0  0  0  0  0  0  0  0  0
   14.9785  -14.7575    7.5133 O   0  0  0  0  0  0  0  0  0  0  0  0
   17.3950  -15.9697   10.1332 O   0  0  0  0  0  0  0  0  0  0  0  0
   16.8373  -12.6019    7.5822 O   0  0  0  0  0  0  0  0  0  0  0  0
   10.0265  -10.2400    0.8444 O   0  0  0  0  0  0  0  0  0  0  0  0
   10.0107  -12.5331    2.4975 O   0  0  0  0  0  0  0  0  0  0  0  0
   19.0747  -13.5835    7.4508 O   0  0  0  0  0  0  0  0  0  0  0  0
    8.7556  -15.8977   10.2861 O   0  0  0  0  0  0  0  0  0  0  0  0
  1 36  1  6  0  0  0
  2 36  1  1  0  0  0
  2  3  1  0  0  0  0
  3 37  1  1  0  0  0
  3  4  1  0  0  0  0
  4 38  1  6  0  0  0
  5 37  1  1  0  0  0
  5  6  1  0  0  0  0
  6  7  1  0  0  0  0
  6 39  1  6  0  0  0
  7 42  1  6  0  0  0
  8  9  1  1  0  0  0
  8  7  1  0  0  0  0
 10 42  1  6  0  0  0
 10 11  1  0  0  0  0
 11 31  1  6  0  0  0
 11 13  1  0  0  0  0
 12 30  1  6  0  0  0
 12  1  1  0  0  0  0
 14 13  1  0  0  0  0
 15 16  1  6  0  0  0
 15 14  1  0  0  0  0
 17 19  1  6  0  0  0
 17 28  1  0  0  0  0
 18 34  1  0  0  0  0
 19 32  1  0  0  0  0
 20 18  1  1  0  0  0
 20 17  1  0  0  0  0
 20 43  1  0  0  0  0
 21 12  1  0  0  0  0
 22 21  1  0  0  0  0
 22 23  1  0  0  0  0
 23 24  1  1  0  0  0
 23 46  1  0  0  0  0
 24 33  1  0  0  0  0
 25 34  1  6  0  0  0
 25  4  1  0  0  0  0
 26 25  1  0  0  0  0
 27 35  1  1  0  0  0
 27 26  1  0  0  0  0
 27  2  1  0  0  0  0
 29 16  1  0  0  0  0
 40  8  1  0  0  0  0
 40  5  1  0  0  0  0
 41  9  1  0  0  0  0
 44 18  2  0  0  0  0
 45 15  1  0  0  0  0
 45 10  1  0  0  0  0
 46  1  1  0  0  0  0
M  END
>  <CHROM.1>
-95.37864454,163.95778121,-155.10895305,144.52255218,145.17924714,-63.48943995
-175.59097404,65.10379756,-55.53063733,-47.92068186,102.17564624,-64.95493796
133.71990512,13.29788947,-13.19467136,7.26780920,2.98967600,-0.01955255,-0.87681889

>  <Name>
lig.pdb

>  <RI>
0

>  <Rbt.Current_Directory>
/home/afrankz/demos/rdock_decoys_rna/rnas/3wru

>  <Rbt.Executable>
rbdock ($Id: //depot/dev/client3/rdock/2013.1/src/exe/rbdock.cxx#4 $)

>  <Rbt.Library>
libRbt.so (2013.1, Build901 2013/11/27)

>  <Rbt.Parameter_File>
/export/apps/rDock/src/rDock_2013.1_src/data/scripts/dock_solv.prm

>  <Rbt.Receptor>
prm/pocket_docking_3.prm

>  <SCORE>
6.55602

>  <SCORE.INTER>
1.06489

>  <SCORE.INTER.CONST>
1

>  <SCORE.INTER.POLAR>
0

>  <SCORE.INTER.ROT>
13

>  <SCORE.INTER.SOLV>
19.9874

>  <SCORE.INTER.VDW>
-18.2192

>  <SCORE.INTER.norm>
0.0231497

>  <SCORE.INTRA>
5.48263

>  <SCORE.INTRA.DIHEDRAL>
4.02866

>  <SCORE.INTRA.DIHEDRAL.0>
19.7146

>  <SCORE.INTRA.POLAR>
0

>  <SCORE.INTRA.POLAR.0>
0

>  <SCORE.INTRA.REPUL>
0

>  <SCORE.INTRA.REPUL.0>
0

>  <SCORE.INTRA.SOLV>
1.59042

>  <SCORE.INTRA.SOLV.lig_0>
-116.697

>  <SCORE.INTRA.VDW>
2.67309

>  <SCORE.INTRA.VDW.0>
-7.06424

>  <SCORE.INTRA.norm>
0.119188

>  <SCORE.RESTR>
0.00850131

>  <SCORE.RESTR.CAVITY>
0.00850131

>  <SCORE.RESTR.norm>
0.000184811

>  <SCORE.SYSTEM>
0

>  <SCORE.SYSTEM.CONST>
0

>  <SCORE.SYSTEM.DIHEDRAL>
0

>  <SCORE.SYSTEM.SOLV>
0

>  <SCORE.SYSTEM.norm>
0

>  <SCORE.heavy>
46

>  <SCORE.norm>
0.142522

>  <RMSD>
9.803

$$$$
lig.pdb
 OpenBabel03061811583D
libRbt.so/2013.1/901 2013/11/27
 46 49  0  0  0  0  0  0  0  0999 V2000
   12.4951  -16.5555   10.2659 C   0  0  1  0  0  0  0  0  0  0  0  0
   13.4085  -14.3115    9.5322 C   0  0  1  0  0  0  0  0  0  0  0  0
   13.4570  -14.5900    7.9993 C   0  0  1  0  0  0  0  0  0  0  0  0
   13.3175  -13.1894    7.2109 C   0  0  2  0  0  0  0  0  0  0  0  0
   15.9861  -14.7623    7.8896 C   0  0  2  0  0  0  0  0  0  0  0  0
   16.5331  -14.9791    9.3292 C   0  0  1  0  0  0  0  0  0  0  0  0
   18.0059  -14.9388    9.0002 C   0  0  1  0  0  0  0  0  0  0  0  0
   18.1554  -15.8454    7.7373 C   0  0  1  0  0  0  0  0  0  0  0  0
   18.2448  -17.3926    7.9820 C   0  0  0  0  0  0  0  0  0  0  0  0
   19.7621  -13.2350    8.6892 C   0  0  1  0  0  0  0  0  0  0  0  0
   20.0970  -11.7922    8.4549 C   0  0  1  0  0  0  0  0  0  0  0  0
   12.8097  -17.6259   11.3376 C   0  0  1  0  0  0  0  0  0  0  0  0
   21.6592  -11.6456    8.4040 C   0  0  0  0  0  0  0  0  0  0  0  0
   22.2998  -12.4009    7.3659 C   0  0  0  0  0  0  0  0  0  0  0  0
   22.0277  -13.8064    7.5795 C   0  0  2  0  0  0  0  0  0  0  0  0
   22.7021  -14.6912    6.4583 C   0  0  0  0  0  0  0  0  0  0  0  0
   12.3630   -9.4680    4.6391 C   0  0  2  0  0  0  0  0  0  0  0  0
   11.1964  -11.3326    5.4849 C   0  0  0  0  0  0  0  0  0  0  0  0
   12.3421   -8.3006    3.8997 C   0  0  0  0  0  0  0  0  0  0  0  0
   11.0863   -9.8344    4.9135 C   0  0  1  0  0  0  0  0  0  0  0  0
   14.1371  -18.4324   10.9696 C   0  0  0  0  0  0  0  0  0  0  0  0
   13.9297  -19.1094    9.5306 C   0  0  0  0  0  0  0  0  0  0  0  0
   13.6400  -17.9434    8.4757 C   0  0  1  0  0  0  0  0  0  0  0  0
   13.4142  -18.4938    7.0624 C   0  0  0  0  0  0  0  0  0  0  0  0
   11.8975  -12.5645    7.5630 C   0  0  1  0  0  0  0  0  0  0  0  0
   11.9158  -12.2758    9.1575 C   0  0  0  0  0  0  0  0  0  0  0  0
   12.0809  -13.6307    9.9480 C   0  0  2  0  0  0  0  0  0  0  0  0
   13.1650   -9.2735    5.8259 F   0  0  0  0  0  0  0  0  0  0  0  0
   22.2062  -14.3433    5.0254 N   0  0  0  0  0  0  0  0  0  0  0  0
   12.9150  -16.9347   12.6757 N   0  0  0  0  0  0  0  0  0  0  0  0
   19.6378  -11.2888    7.2346 N   0  0  0  0  0  0  0  0  0  0  0  0
   11.8674   -7.0045    4.2100 N   0  0  0  0  0  0  0  0  0  0  0  0
   12.2607  -19.3049    7.0120 N   0  0  0  0  0  0  0  0  0  0  0  0
   11.7242  -11.2861    6.8501 N   0  0  0  0  0  0  0  0  0  0  0  0
   12.1120  -13.3812   11.4062 N   0  0  0  0  0  0  0  0  0  0  0  0
   13.4884  -15.5295   10.2612 O   0  0  0  0  0  0  0  0  0  0  0  0
   14.7782  -15.2456    7.7208 O   0  0  0  0  0  0  0  0  0  0  0  0
   13.3626  -13.4619    5.8619 O   0  0  0  0  0  0  0  0  0  0  0  0
   16.0971  -13.9206   10.1271 O   0  0  0  0  0  0  0  0  0  0  0  0
   17.0249  -15.3293    7.0152 O   0  0  0  0  0  0  0  0  0  0  0  0
   18.3474  -18.0269    6.6916 O   0  0  0  0  0  0  0  0  0  0  0  0
   18.4111  -13.5058    8.7062 O   0  0  0  0  0  0  0  0  0  0  0  0
   10.4532   -8.9849    5.8952 O   0  0  0  0  0  0  0  0  0  0  0  0
   10.8664  -12.3532    4.8588 O   0  0  0  0  0  0  0  0  0  0  0  0
   20.5380  -14.0518    7.6269 O   0  0  0  0  0  0  0  0  0  0  0  0
   12.4044  -17.1646    8.8961 O   0  0  0  0  0  0  0  0  0  0  0  0
  1 36  1  6  0  0  0
  2 36  1  1  0  0  0
  2  3  1  0  0  0  0
  3 37  1  1  0  0  0
  3  4  1  0  0  0  0
  4 38  1  6  0  0  0
  5 37  1  1  0  0  0
  5  6  1  0  0  0  0
  6  7  1  0  0  0  0
  6 39  1  1  0  0  0
  7 42  1  6  0  0  0
  8  9  1  1  0  0  0
  8  7  1  0  0  0  0
 10 42  1  6  0  0  0
 10 11  1  0  0  0  0
 11 31  1  6  0  0  0
 11 13  1  0  0  0  0
 12 30  1  1  0  0  0
 12  1  1  0  0  0  0
 14 13  1  0  0  0  0
 15 16  1  6  0  0  0
 15 14  1  0  0  0  0
 17 19  1  1  0  0  0
 17 28  1  0  0  0  0
 18 34  1  0  0  0  0
 19 32  1  0  0  0  0
 20 18  1  1  0  0  0
 20 17  1  0  0  0  0
 20 43  1  0  0  0  0
 21 12  1  0  0  0  0
 22 21  1  0  0  0  0
 22 23  1  0  0  0  0
 23 24  1  6  0  0  0
 23 46  1  0  0  0  0
 24 33  1  0  0  0  0
 25 34  1  6  0  0  0
 25  4  1  0  0  0  0
 26 25  1  0  0  0  0
 27 35  1  1  0  0  0
 27 26  1  0  0  0  0
 27  2  1  0  0  0  0
 29 16  1  0  0  0  0
 40  8  1  0  0  0  0
 40  5  1  0  0  0  0
 41  9  1  0  0  0  0
 44 18  2  0  0  0  0
 45 15  1  0  0  0  0
 45 10  1  0  0  0  0
 46  1  1  0  0  0  0
M  END
>  <CHROM.1>
-170.97596594,-66.44930575,-62.59930568,86.30930285,165.51166177,178.75117425
-177.38344381,-59.62707987,62.67063728,74.50410277,168.23875325,63.83807083
86.22081997,15.22524121,-13.97160086,7.81591950,2.75388084,0.04514933,-0.48239708

>  <Name>
lig.pdb

>  <RI>
0

>  <Rbt.Current_Directory>
/home/afrankz/demos/rdock_decoys_rna/rnas/3wru

>  <Rbt.Executable>
rbdock ($Id: //depot/dev/client3/rdock/2013.1/src/exe/rbdock.cxx#4 $)

>  <Rbt.Library>
libRbt.so (2013.1, Build901 2013/11/27)

>  <Rbt.Parameter_File>
/export/apps/rDock/src/rDock_2013.1_src/data/scripts/dock_solv.prm

>  <Rbt.Receptor>
prm/pocket_docking_5.prm

>  <SCORE>
-4.36512

>  <SCORE.INTER>
0.997367

>  <SCORE.INTER.CONST>
1

>  <SCORE.INTER.POLAR>
0

>  <SCORE.INTER.ROT>
13

>  <SCORE.INTER.SOLV>
20.1769

>  <SCORE.INTER.VDW>
-18.3274

>  <SCORE.INTER.norm>
0.0216819

>  <SCORE.INTRA>
-5.36249

>  <SCORE.INTRA.DIHEDRAL>
-12.8991

>  <SCORE.INTRA.DIHEDRAL.0>
19.7146

>  <SCORE.INTRA.POLAR>
0

>  <SCORE.INTRA.POLAR.0>
0

>  <SCORE.INTRA.REPUL>
0

>  <SCORE.INTRA.REPUL.0>
0

>  <SCORE.INTRA.SOLV>
1.40863

>  <SCORE.INTRA.SOLV.lig_0>
-116.697

>  <SCORE.INTRA.VDW>
0.38277

>  <SCORE.INTRA.VDW.0>
-7.06424

>  <SCORE.INTRA.norm>
-0.116576

>  <SCORE.RESTR>
0

>  <SCORE.RESTR.CAVITY>
0

>  <SCORE.RESTR.norm>
0

>  <SCORE.SYSTEM>
0

>  <SCORE.SYSTEM.CONST>
0

>  <SCORE.SYSTEM.DIHEDRAL>
0

>  <SCORE.SYSTEM.SOLV>
0

>  <SCORE.SYSTEM.norm>
0

>  <SCORE.heavy>
46

>  <SCORE.norm>
-0.094894

>  <RMSD>
9.843

$$$$
lig.pdb
 OpenBabel03061811583D
libRbt.so/2013.1/901 2013/11/27
 46 49  0  0  0  0  0  0  0  0999 V2000
    6.6167  -16.2674    8.2967 C   0  0  1  0  0  0  0  0  0  0  0  0
    8.4341  -18.0295    8.3021 C   0  0  1  0  0  0  0  0  0  0  0  0
    8.9167  -17.6534    9.7358 C   0  0  1  0  0  0  0  0  0  0  0  0
    9.6667  -18.9266   10.3834 C   0  0  2  0  0  0  0  0  0  0  0  0
   10.9392  -16.3953    8.8613 C   0  0  2  0  0  0  0  0  0  0  0  0
   11.7019  -15.0569    9.0751 C   0  0  1  0  0  0  0  0  0  0  0  0
   13.0775  -15.5359    8.6783 C   0  0  1  0  0  0  0  0  0  0  0  0
   13.2499  -16.9021    9.4149 C   0  0  1  0  0  0  0  0  0  0  0  0
   13.6951  -16.8455   10.9184 C   0  0  0  0  0  0  0  0  0  0  0  0
   14.3410  -16.0793    6.6309 C   0  0  1  0  0  0  0  0  0  0  0  0
   14.3492  -16.1558    5.1332 C   0  0  1  0  0  0  0  0  0  0  0  0
    5.8425  -15.4548    7.2321 C   0  0  1  0  0  0  0  0  0  0  0  0
   15.7667  -16.6436    4.6673 C   0  0  0  0  0  0  0  0  0  0  0  0
   16.1479  -17.9371    5.1574 C   0  0  0  0  0  0  0  0  0  0  0  0
   16.1857  -17.8924    6.6036 C   0  0  2  0  0  0  0  0  0  0  0  0
   16.5920  -19.2959    7.2037 C   0  0  0  0  0  0  0  0  0  0  0  0
    9.2247  -24.6198   11.2078 C   0  0  2  0  0  0  0  0  0  0  0  0
    8.4011  -22.4269   11.4642 C   0  0  0  0  0  0  0  0  0  0  0  0
   10.0225  -24.3370   10.1153 C   0  0  0  0  0  0  0  0  0  0  0  0
    9.3122  -23.5936   12.0902 C   0  0  1  0  0  0  0  0  0  0  0  0
    6.7266  -14.2467    6.6784 C   0  0  0  0  0  0  0  0  0  0  0  0
    7.1373  -13.3166    7.9188 C   0  0  0  0  0  0  0  0  0  0  0  0
    7.9559  -14.2150    8.9574 C   0  0  1  0  0  0  0  0  0  0  0  0
    8.3857  -13.4140   10.1923 C   0  0  0  0  0  0  0  0  0  0  0  0
    8.6123  -20.1117   10.5034 C   0  0  1  0  0  0  0  0  0  0  0  0
    8.1672  -20.4731    8.9877 C   0  0  0  0  0  0  0  0  0  0  0  0
    7.4567  -19.2308    8.3245 C   0  0  2  0  0  0  0  0  0  0  0  0
    9.6153  -25.8907   11.7750 F   0  0  0  0  0  0  0  0  0  0  0  0
   18.0358  -19.7294    6.8193 N   0  0  0  0  0  0  0  0  0  0  0  0
    5.4192  -16.4012    6.1346 N   0  0  0  0  0  0  0  0  0  0  0  0
   13.4461  -17.0811    4.6024 N   0  0  0  0  0  0  0  0  0  0  0  0
   10.2674  -25.0586    8.9234 N   0  0  0  0  0  0  0  0  0  0  0  0
    7.2640  -12.9460   10.9091 N   0  0  0  0  0  0  0  0  0  0  0  0
    9.2560  -21.2935   11.1047 N   0  0  0  0  0  0  0  0  0  0  0  0
    7.0557  -19.5422    6.9347 N   0  0  0  0  0  0  0  0  0  0  0  0
    7.7316  -16.9426    7.7134 O   0  0  0  0  0  0  0  0  0  0  0  0
    9.8493  -16.4869    9.5856 O   0  0  0  0  0  0  0  0  0  0  0  0
   10.0821  -18.5698   11.6469 O   0  0  0  0  0  0  0  0  0  0  0  0
   11.1595  -14.1019    8.2143 O   0  0  0  0  0  0  0  0  0  0  0  0
   11.9519  -17.4351    9.1035 O   0  0  0  0  0  0  0  0  0  0  0  0
   13.8377  -18.2050   11.3761 O   0  0  0  0  0  0  0  0  0  0  0  0
   13.1291  -15.7073    7.1709 O   0  0  0  0  0  0  0  0  0  0  0  0
    8.8261  -23.9369   13.4063 O   0  0  0  0  0  0  0  0  0  0  0  0
    7.1716  -22.4999   11.3044 O   0  0  0  0  0  0  0  0  0  0  0  0
   14.8502  -17.4462    7.1505 O   0  0  0  0  0  0  0  0  0  0  0  0
    7.0992  -15.3851    9.4124 O   0  0  0  0  0  0  0  0  0  0  0  0
  1 36  1  6  0  0  0
  2 36  1  1  0  0  0
  2  3  1  0  0  0  0
  3 37  1  6  0  0  0
  3  4  1  0  0  0  0
  4 38  1  1  0  0  0
  5 37  1  1  0  0  0
  5  6  1  0  0  0  0
  6  7  1  0  0  0  0
  6 39  1  6  0  0  0
  7 42  1  6  0  0  0
  8  9  1  1  0  0  0
  8  7  1  0  0  0  0
 10 42  1  1  0  0  0
 10 11  1  0  0  0  0
 11 31  1  1  0  0  0
 11 13  1  0  0  0  0
 12 30  1  6  0  0  0
 12  1  1  0  0  0  0
 14 13  1  0  0  0  0
 15 16  1  1  0  0  0
 15 14  1  0  0  0  0
 17 19  1  6  0  0  0
 17 28  1  0  0  0  0
 18 34  1  0  0  0  0
 19 32  1  0  0  0  0
 20 18  1  6  0  0  0
 20 17  1  0  0  0  0
 20 43  1  0  0  0  0
 21 12  1  0  0  0  0
 22 21  1  0  0  0  0
 22 23  1  0  0  0  0
 23 24  1  1  0  0  0
 23 46  1  0  0  0  0
 24 33  1  0  0  0  0
 25 34  1  6  0  0  0
 25  4  1  0  0  0  0
 26 25  1  0  0  0  0
 27 35  1  6  0  0  0
 27 26  1  0  0  0  0
 27  2  1  0  0  0  0
 29 16  1  0  0  0  0
 40  8  1  0  0  0  0
 40  5  1  0  0  0  0
 41  9  1  0  0  0  0
 44 18  2  0  0  0  0
 45 15  1  0  0  0  0
 45 10  1  0  0  0  0
 46  1  1  0  0  0  0
M  END
>  <CHROM.1>
-162.56016197,-53.93461248,-56.36528382,-174.71253288,176.93385777,-177.91250804
-176.66549226,64.31876193,-178.97418455,-114.52219380,76.54912059,62.66622346
171.87207620,10.50385135,-18.21420448,8.86920487,1.08243682,0.28108218,-0.35791140

>  <Name>
lig.pdb

>  <RI>
0

>  <Rbt.Current_Directory>
/home/afrankz/demos/rdock_decoys_rna/rnas/3wru

>  <Rbt.Executable>
rbdock ($Id: //depot/dev/client3/rdock/2013.1/src/exe/rbdock.cxx#4 $)

>  <Rbt.Library>
libRbt.so (2013.1, Build901 2013/11/27)

>  <Rbt.Parameter_File>
/export/apps/rDock/src/rDock_2013.1_src/data/scripts/dock_solv.prm

>  <Rbt.Receptor>
prm/pocket_docking_8.prm

>  <SCORE>
0.395407

>  <SCORE.INTER>
6.78238

>  <SCORE.INTER.CONST>
1

>  <SCORE.INTER.POLAR>
0

>  <SCORE.INTER.ROT>
13

>  <SCORE.INTER.SOLV>
19.1891

>  <SCORE.INTER.VDW>
-14.1414

>  <SCORE.INTER.norm>
0.147443

>  <SCORE.INTRA>
-6.38698

>  <SCORE.INTRA.DIHEDRAL>
-14.1956

>  <SCORE.INTRA.DIHEDRAL.0>
19.7146

>  <SCORE.INTRA.POLAR>
0

>  <SCORE.INTRA.POLAR.0>
0

>  <SCORE.INTRA.REPUL>
0

>  <SCORE.INTRA.REPUL.0>
0

>  <SCORE.INTRA.SOLV>
-0.533943

>  <SCORE.INTRA.SOLV.lig_0>
-116.697

>  <SCORE.INTRA.VDW>
0.977781

>  <SCORE.INTRA.VDW.0>
-7.06424

>  <SCORE.INTRA.norm>
-0.138847

>  <SCORE.RESTR>
0

>  <SCORE.RESTR.CAVITY>
0

>  <SCORE.RESTR.norm>
0

>  <SCORE.SYSTEM>
0

>  <SCORE.SYSTEM.CONST>
0

>  <SCORE.SYSTEM.DIHEDRAL>
0

>  <SCORE.SYSTEM.SOLV>
0

>  <SCORE.SYSTEM.norm>
0

>  <SCORE.heavy>
46

>  <SCORE.norm>
0.00859581

>  <RMSD>
9.884

$$$$
lig.pdb
 OpenBabel03061811583D
libRbt.so/2013.1/901 2013/11/27
 46 49  0  0  0  0  0  0  0  0999 V2000
   12.0436  -16.4984    8.0393 C   0  0  1  0  0  0  0  0  0  0  0  0
   10.6213  -18.4701    8.7447 C   0  0  1  0  0  0  0  0  0  0  0  0
   10.3108  -17.8823   10.1546 C   0  0  1  0  0  0  0  0  0  0  0  0
    9.8631  -19.0845   11.1330 C   0  0  2  0  0  0  0  0  0  0  0  0
   11.7488  -16.4600   11.6867 C   0  0  2  0  0  0  0  0  0  0  0  0
   12.8856  -16.9625   12.6216 C   0  0  1  0  0  0  0  0  0  0  0  0
   13.2331  -15.6379   13.2568 C   0  0  1  0  0  0  0  0  0  0  0  0
   13.3041  -14.6322   12.0641 C   0  0  1  0  0  0  0  0  0  0  0  0
   14.6414  -14.5984   11.2443 C   0  0  0  0  0  0  0  0  0  0  0  0
   11.1002  -14.5008   13.7481 C   0  0  1  0  0  0  0  0  0  0  0  0
   11.3775  -13.0277   13.7017 C   0  0  1  0  0  0  0  0  0  0  0  0
   12.1407  -15.5114    6.8520 C   0  0  1  0  0  0  0  0  0  0  0  0
   10.0916  -12.2952   13.1779 C   0  0  0  0  0  0  0  0  0  0  0  0
    8.9231  -12.4787   13.9901 C   0  0  0  0  0  0  0  0  0  0  0  0
    8.6025  -13.8896   14.0296 C   0  0  2  0  0  0  0  0  0  0  0  0
    7.3253  -14.1561   14.9199 C   0  0  0  0  0  0  0  0  0  0  0  0
    6.8717  -21.8751   13.7574 C   0  0  2  0  0  0  0  0  0  0  0  0
    6.6340  -21.0260   11.5721 C   0  0  0  0  0  0  0  0  0  0  0  0
    5.9137  -21.1178   14.4047 C   0  0  0  0  0  0  0  0  0  0  0  0
    6.3789  -22.2701   12.5572 C   0  0  1  0  0  0  0  0  0  0  0  0
   12.5859  -16.2635    5.5164 C   0  0  0  0  0  0  0  0  0  0  0  0
   13.9995  -16.9713    5.7871 C   0  0  0  0  0  0  0  0  0  0  0  0
   13.8128  -17.9937    7.0020 C   0  0  1  0  0  0  0  0  0  0  0  0
   15.1205  -18.7163    7.3476 C   0  0  0  0  0  0  0  0  0  0  0  0
    8.5278  -19.7234   10.5502 C   0  0  1  0  0  0  0  0  0  0  0  0
    8.9172  -20.3360    9.1013 C   0  0  0  0  0  0  0  0  0  0  0  0
    9.3863  -19.1798    8.1364 C   0  0  2  0  0  0  0  0  0  0  0  0
    7.2643  -22.9811   14.6013 F   0  0  0  0  0  0  0  0  0  0  0  0
    6.8496  -15.6367   14.8775 N   0  0  0  0  0  0  0  0  0  0  0  0
   10.8046  -14.8246    6.7012 N   0  0  0  0  0  0  0  0  0  0  0  0
   11.6473  -12.4565   14.9484 N   0  0  0  0  0  0  0  0  0  0  0  0
    5.9542  -20.4000   15.6230 N   0  0  0  0  0  0  0  0  0  0  0  0
   16.1334  -17.7958    7.6908 N   0  0  0  0  0  0  0  0  0  0  0  0
    8.0764  -20.8205   11.4248 N   0  0  0  0  0  0  0  0  0  0  0  0
    9.7574  -19.7263    6.8124 N   0  0  0  0  0  0  0  0  0  0  0  0
   10.9814  -17.4323    7.8421 O   0  0  0  0  0  0  0  0  0  0  0  0
   11.5716  -17.2254   10.6361 O   0  0  0  0  0  0  0  0  0  0  0  0
    9.5945  -18.5404   12.3691 O   0  0  0  0  0  0  0  0  0  0  0  0
   12.3440  -17.8956   13.5066 O   0  0  0  0  0  0  0  0  0  0  0  0
   12.1034  -15.0609   11.4006 O   0  0  0  0  0  0  0  0  0  0  0  0
   14.4857  -13.6082   10.2082 O   0  0  0  0  0  0  0  0  0  0  0  0
   12.1419  -15.2564   14.2407 O   0  0  0  0  0  0  0  0  0  0  0  0
    7.0362  -23.4458   12.0357 O   0  0  0  0  0  0  0  0  0  0  0  0
    5.7376  -20.3665   11.0207 O   0  0  0  0  0  0  0  0  0  0  0  0
    9.7824  -14.6822   14.5408 O   0  0  0  0  0  0  0  0  0  0  0  0
   13.3316  -17.2458    8.2346 O   0  0  0  0  0  0  0  0  0  0  0  0
  1 36  1  6  0  0  0
  2 36  1  6  0  0  0
  2  3  1  0  0  0  0
  3 37  1  1  0  0  0
  3  4  1  0  0  0  0
  4 38  1  1  0  0  0
  5 37  1  6  0  0  0
  5  6  1  0  0  0  0
  6  7  1  0  0  0  0
  6 39  1  1  0  0  0
  7 42  1  1  0  0  0
  8  9  1  6  0  0  0
  8  7  1  0  0  0  0
 10 42  1  1  0  0  0
 10 11  1  0  0  0  0
 11 31  1  1  0  0  0
 11 13  1  0  0  0  0
 12 30  1  6  0  0  0
 12  1  1  0  0  0  0
 14 13  1  0  0  0  0
 15 16  1  1  0  0  0
 15 14  1  0  0  0  0
 17 19  1  1  0  0  0
 17 28  1  0  0  0  0
 18 34  1  0  0  0  0
 19 32  1  0  0  0  0
 20 18  1  6  0  0  0
 20 17  1  0  0  0  0
 20 43  1  0  0  0  0
 21 12  1  0  0  0  0
 22 21  1  0  0  0  0
 22 23  1  0  0  0  0
 23 24  1  1  0  0  0
 23 46  1  0  0  0  0
 24 33  1  0  0  0  0
 25 34  1  1  0  0  0
 25  4  1  0  0  0  0
 26 25  1  0  0  0  0
 27 35  1  6  0  0  0
 27 26  1  0  0  0  0
 27  2  1  0  0  0  0
 29 16  1  0  0  0  0
 40  8  1  0  0  0  0
 40  5  1  0  0  0  0
 41  9  1  0  0  0  0
 44 18  2  0  0  0  0
 45 15  1  0  0  0  0
 45 10  1  0  0  0  0
 46  1  1  0  0  0  0
M  END
>  <CHROM.1>
-179.87296583,56.19188039,170.76045632,125.85222213,-90.63594765,-179.83425104
-83.62649610,174.02849469,-174.97131779,64.40117557,83.05026591,58.66271335
145.78566483,10.47023029,-17.35883507,11.20714059,-0.08150663,-0.79750934
-2.36312348

>  <Name>
lig.pdb

>  <RI>
0

>  <Rbt.Current_Directory>
/home/afrankz/demos/rdock_decoys_rna/rnas/3wru

>  <Rbt.Executable>
rbdock ($Id: //depot/dev/client3/rdock/2013.1/src/exe/rbdock.cxx#4 $)

>  <Rbt.Library>
libRbt.so (2013.1, Build901 2013/11/27)

>  <Rbt.Parameter_File>
/export/apps/rDock/src/rDock_2013.1_src/data/scripts/dock_solv.prm

>  <Rbt.Receptor>
prm/pocket_docking_6.prm

>  <SCORE>
3.80248

>  <SCORE.INTER>
2.06492

>  <SCORE.INTER.CONST>
1

>  <SCORE.INTER.POLAR>
0

>  <SCORE.INTER.ROT>
13

>  <SCORE.INTER.SOLV>
17.2395

>  <SCORE.INTER.VDW>
-16.6365

>  <SCORE.INTER.norm>
0.0448896

>  <SCORE.INTRA>
1.73622

>  <SCORE.INTRA.DIHEDRAL>
-2.63809

>  <SCORE.INTRA.DIHEDRAL.0>
19.7146

>  <SCORE.INTRA.POLAR>
0

>  <SCORE.INTRA.POLAR.0>
0

>  <SCORE.INTRA.REPUL>
0

>  <SCORE.INTRA.REPUL.0>
0

>  <SCORE.INTRA.SOLV>
-2.2376

>  <SCORE.INTRA.SOLV.lig_0>
-116.697

>  <SCORE.INTRA.VDW>
4.17407

>  <SCORE.INTRA.VDW.0>
-7.06424

>  <SCORE.INTRA.norm>
0.037744

>  <SCORE.RESTR>
0.0013369

>  <SCORE.RESTR.CAVITY>
0.0013369

>  <SCORE.RESTR.norm>
2.90631e-05

>  <SCORE.SYSTEM>
0

>  <SCORE.SYSTEM.CONST>
0

>  <SCORE.SYSTEM.DIHEDRAL>
0

>  <SCORE.SYSTEM.SOLV>
0

>  <SCORE.SYSTEM.norm>
0

>  <SCORE.heavy>
46

>  <SCORE.norm>
0.0826627

>  <RMSD>
9.900

$$$$
lig.pdb
 OpenBabel03061811583D
libRbt.so/2013.1/901 2013/11/27
 46 49  0  0  0  0  0  0  0  0999 V2000
   13.4568  -15.7375   10.3648 C   0  0  1  0  0  0  0  0  0  0  0  0
   12.3990  -13.8607    9.0357 C   0  0  1  0  0  0  0  0  0  0  0  0
   13.5602  -13.5887    8.0321 C   0  0  1  0  0  0  0  0  0  0  0  0
   13.4371  -12.0736    7.4914 C   0  0  2  0  0  0  0  0  0  0  0  0
   16.0744  -13.7269    8.3449 C   0  0  2  0  0  0  0  0  0  0  0  0
   17.1105  -14.3368    9.3314 C   0  0  1  0  0  0  0  0  0  0  0  0
   18.1827  -14.6749    8.3240 C   0  0  1  0  0  0  0  0  0  0  0  0
   17.4186  -15.3562    7.1445 C   0  0  1  0  0  0  0  0  0  0  0  0
   17.0794  -16.8795    7.3058 C   0  0  0  0  0  0  0  0  0  0  0  0
   19.7358  -12.8122    8.7734 C   0  0  1  0  0  0  0  0  0  0  0  0
   20.3714  -11.5471    8.2790 C   0  0  1  0  0  0  0  0  0  0  0  0
   13.3737  -17.2813   10.4204 C   0  0  1  0  0  0  0  0  0  0  0  0
   21.3717  -11.0315    9.3735 C   0  0  0  0  0  0  0  0  0  0  0  0
   22.4349  -11.9409    9.6916 C   0  0  0  0  0  0  0  0  0  0  0  0
   21.8596  -13.1649   10.2074 C   0  0  2  0  0  0  0  0  0  0  0  0
   22.9854  -14.2125   10.5681 C   0  0  0  0  0  0  0  0  0  0  0  0
   12.1894   -8.5392    4.3326 C   0  0  2  0  0  0  0  0  0  0  0  0
   10.9056  -10.3389    5.1488 C   0  0  0  0  0  0  0  0  0  0  0  0
   12.2096   -7.3496    3.6294 C   0  0  0  0  0  0  0  0  0  0  0  0
   10.9192   -8.7846    4.7398 C   0  0  1  0  0  0  0  0  0  0  0  0
   12.0245  -17.7575   11.1280 C   0  0  0  0  0  0  0  0  0  0  0  0
   11.9841  -17.1304   12.6036 C   0  0  0  0  0  0  0  0  0  0  0  0
   12.0431  -15.5389   12.4634 C   0  0  1  0  0  0  0  0  0  0  0  0
   12.0220  -14.8431   13.8297 C   0  0  0  0  0  0  0  0  0  0  0  0
   12.0573  -11.9389    6.7112 C   0  0  1  0  0  0  0  0  0  0  0  0
   10.8932  -12.2074    7.8061 C   0  0  0  0  0  0  0  0  0  0  0  0
   11.0127  -13.6756    8.3701 C   0  0  2  0  0  0  0  0  0  0  0  0
   13.1324   -8.4699    5.4260 F   0  0  0  0  0  0  0  0  0  0  0  0
   24.1333  -13.6046   11.4243 N   0  0  0  0  0  0  0  0  0  0  0  0
   13.4956  -17.8095    9.0113 N   0  0  0  0  0  0  0  0  0  0  0  0
   21.1386  -11.7064    7.1216 N   0  0  0  0  0  0  0  0  0  0  0  0
   13.2612   -6.6686    2.9722 N   0  0  0  0  0  0  0  0  0  0  0  0
   11.5281  -13.5258   13.7207 N   0  0  0  0  0  0  0  0  0  0  0  0
   11.9115  -10.5687    6.1880 N   0  0  0  0  0  0  0  0  0  0  0  0
    9.9630  -13.9310    9.3811 N   0  0  0  0  0  0  0  0  0  0  0  0
   12.4510  -15.2021    9.5040 O   0  0  0  0  0  0  0  0  0  0  0  0
   14.8410  -13.7984    8.7861 O   0  0  0  0  0  0  0  0  0  0  0  0
   14.4715  -11.8589    6.6083 O   0  0  0  0  0  0  0  0  0  0  0  0
   17.4775  -13.3492   10.2463 O   0  0  0  0  0  0  0  0  0  0  0  0
   16.3340  -14.4159    7.0709 O   0  0  0  0  0  0  0  0  0  0  0  0
   18.3287  -17.5867    7.4371 O   0  0  0  0  0  0  0  0  0  0  0  0
   18.8668  -13.3955    7.8772 O   0  0  0  0  0  0  0  0  0  0  0  0
   10.5236   -7.9803    5.8725 O   0  0  0  0  0  0  0  0  0  0  0  0
   10.1447  -11.1908    4.6611 O   0  0  0  0  0  0  0  0  0  0  0  0
   20.8883  -13.7500    9.2094 O   0  0  0  0  0  0  0  0  0  0  0  0
   13.3125  -15.1335   11.7324 O   0  0  0  0  0  0  0  0  0  0  0  0
  1 36  1  6  0  0  0
  2 36  1  6  0  0  0
  2  3  1  0  0  0  0
  3 37  1  1  0  0  0
  3  4  1  0  0  0  0
  4 38  1  6  0  0  0
  5 37  1  1  0  0  0
  5  6  1  0  0  0  0
  6  7  1  0  0  0  0
  6 39  1  1  0  0  0
  7 42  1  6  0  0  0
  8  9  1  1  0  0  0
  8  7  1  0  0  0  0
 10 42  1  6  0  0  0
 10 11  1  0  0  0  0
 11 31  1  6  0  0  0
 11 13  1  0  0  0  0
 12 30  1  6  0  0  0
 12  1  1  0  0  0  0
 14 13  1  0  0  0  0
 15 16  1  6  0  0  0
 15 14  1  0  0  0  0
 17 19  1  1  0  0  0
 17 28  1  0  0  0  0
 18 34  1  0  0  0  0
 19 32  1  0  0  0  0
 20 18  1  1  0  0  0
 20 17  1  0  0  0  0
 20 43  1  0  0  0  0
 21 12  1  0  0  0  0
 22 21  1  0  0  0  0
 22 23  1  0  0  0  0
 23 24  1  1  0  0  0
 23 46  1  0  0  0  0
 24 33  1  0  0  0  0
 25 34  1  1  0  0  0
 25  4  1  0  0  0  0
 26 25  1  0  0  0  0
 27 35  1  1  0  0  0
 27 26  1  0  0  0  0
 27  2  1  0  0  0  0
 29 16  1  0  0  0  0
 40  8  1  0  0  0  0
 40  5  1  0  0  0  0
 41  9  1  0  0  0  0
 44 18  2  0  0  0  0
 45 15  1  0  0  0  0
 45 10  1  0  0  0  0
 46  1  1  0  0  0  0
M  END
>  <CHROM.1>
-167.70671973,69.06313359,177.50285483,-166.14492769,74.30660582,-60.94784809
-179.55151691,48.54056614,-178.20148939,57.80004927,163.90197412,-155.69854137
163.74492464,15.12032335,-13.11406510,8.40573144,2.68179637,-0.03314066,-0.70508765

>  <Name>
lig.pdb

>  <RI>
0

>  <Rbt.Current_Directory>
/home/afrankz/demos/rdock_decoys_rna/rnas/3wru

>  <Rbt.Executable>
rbdock ($Id: //depot/dev/client3/rdock/2013.1/src/exe/rbdock.cxx#4 $)

>  <Rbt.Library>
libRbt.so (2013.1, Build901 2013/11/27)

>  <Rbt.Parameter_File>
/export/apps/rDock/src/rDock_2013.1_src/data/scripts/dock_solv.prm

>  <Rbt.Receptor>
prm/pocket_docking_8.prm

>  <SCORE>
-10.1686

>  <SCORE.INTER>
-4.62634

>  <SCORE.INTER.CONST>
1

>  <SCORE.INTER.POLAR>
0

>  <SCORE.INTER.ROT>
13

>  <SCORE.INTER.SOLV>
20.3056

>  <SCORE.INTER.VDW>
-22.1194

>  <SCORE.INTER.norm>
-0.100573

>  <SCORE.INTRA>
-5.54826

>  <SCORE.INTRA.DIHEDRAL>
-12.3014

>  <SCORE.INTRA.DIHEDRAL.0>
19.7146

>  <SCORE.INTRA.POLAR>
0

>  <SCORE.INTRA.POLAR.0>
0

>  <SCORE.INTRA.REPUL>
0

>  <SCORE.INTRA.REPUL.0>
0

>  <SCORE.INTRA.SOLV>
-3.25412

>  <SCORE.INTRA.SOLV.lig_0>
-116.697

>  <SCORE.INTRA.VDW>
2.2295

>  <SCORE.INTRA.VDW.0>
-7.06424

>  <SCORE.INTRA.norm>
-0.120614

>  <SCORE.RESTR>
0.00600843

>  <SCORE.RESTR.CAVITY>
0.00600843

>  <SCORE.RESTR.norm>
0.000130618

>  <SCORE.SYSTEM>
0

>  <SCORE.SYSTEM.CONST>
0

>  <SCORE.SYSTEM.DIHEDRAL>
0

>  <SCORE.SYSTEM.SOLV>
0

>  <SCORE.SYSTEM.norm>
0

>  <SCORE.heavy>
46

>  <SCORE.norm>
-0.221056

>  <RMSD>
9.909

$$$$
lig.pdb
 OpenBabel03061811583D
libRbt.so/2013.1/901 2013/11/27
 46 49  0  0  0  0  0  0  0  0999 V2000
   11.5415  -14.5295   12.2433 C   0  0  1  0  0  0  0  0  0  0  0  0
   10.0079  -16.1668   11.0707 C   0  0  1  0  0  0  0  0  0  0  0  0
   10.9624  -16.3087    9.8466 C   0  0  1  0  0  0  0  0  0  0  0  0
   10.1224  -16.8841    8.5951 C   0  0  2  0  0  0  0  0  0  0  0  0
   12.4637  -14.5909    8.7361 C   0  0  2  0  0  0  0  0  0  0  0  0
   12.6865  -13.0529    8.6745 C   0  0  1  0  0  0  0  0  0  0  0  0
   14.1309  -13.0695    8.2359 C   0  0  1  0  0  0  0  0  0  0  0  0
   14.8126  -14.1325    9.1548 C   0  0  1  0  0  0  0  0  0  0  0  0
   15.2450  -13.6587   10.5867 C   0  0  0  0  0  0  0  0  0  0  0  0
   15.4546  -13.4987    6.1994 C   0  0  1  0  0  0  0  0  0  0  0  0
   16.1190  -12.1573    6.1095 C   0  0  1  0  0  0  0  0  0  0  0  0
   12.0220  -14.2344   13.6839 C   0  0  1  0  0  0  0  0  0  0  0  0
   17.5016  -12.3338    5.3873 C   0  0  0  0  0  0  0  0  0  0  0  0
   17.4199  -12.8539    4.0526 C   0  0  0  0  0  0  0  0  0  0  0  0
   16.8142  -14.1675    4.1029 C   0  0  2  0  0  0  0  0  0  0  0  0
   16.6886  -14.7897    2.6565 C   0  0  0  0  0  0  0  0  0  0  0  0
    7.2404  -18.1657    5.0372 C   0  0  2  0  0  0  0  0  0  0  0  0
    7.6830  -18.1313    7.3515 C   0  0  0  0  0  0  0  0  0  0  0  0
    8.5691  -18.2882    4.6773 C   0  0  0  0  0  0  0  0  0  0  0  0
    7.0115  -18.9336    6.1314 C   0  0  1  0  0  0  0  0  0  0  0  0
   10.7979  -13.8285   14.6245 C   0  0  0  0  0  0  0  0  0  0  0  0
   10.0810  -12.5431   13.9874 C   0  0  0  0  0  0  0  0  0  0  0  0
    9.5875  -12.9331   12.5176 C   0  0  1  0  0  0  0  0  0  0  0  0
    8.8954  -11.7583   11.8161 C   0  0  0  0  0  0  0  0  0  0  0  0
    9.5864  -18.3305    8.9841 C   0  0  1  0  0  0  0  0  0  0  0  0
    8.5859  -18.1167   10.2408 C   0  0  0  0  0  0  0  0  0  0  0  0
    9.3817  -17.5266   11.4682 C   0  0  2  0  0  0  0  0  0  0  0  0
    6.4014  -18.5152    3.9131 F   0  0  0  0  0  0  0  0  0  0  0  0
   16.0004  -16.1849    2.6498 N   0  0  0  0  0  0  0  0  0  0  0  0
   12.7537  -15.4524   14.1941 N   0  0  0  0  0  0  0  0  0  0  0  0
   15.4179  -11.2215    5.3439 N   0  0  0  0  0  0  0  0  0  0  0  0
    9.3082  -17.7138    3.6166 N   0  0  0  0  0  0  0  0  0  0  0  0
    9.7695  -10.6582   11.6868 N   0  0  0  0  0  0  0  0  0  0  0  0
    8.8223  -18.8988    7.8591 N   0  0  0  0  0  0  0  0  0  0  0  0
    8.4777  -17.3141   12.6201 N   0  0  0  0  0  0  0  0  0  0  0  0
   10.7232  -15.6992   12.2069 O   0  0  0  0  0  0  0  0  0  0  0  0
   11.5031  -14.9383    9.5592 O   0  0  0  0  0  0  0  0  0  0  0  0
   10.9861  -17.0004    7.5290 O   0  0  0  0  0  0  0  0  0  0  0  0
   11.8087  -12.5212    7.7290 O   0  0  0  0  0  0  0  0  0  0  0  0
   13.7936  -15.1401    9.0443 O   0  0  0  0  0  0  0  0  0  0  0  0
   14.0592  -13.1942   11.2622 O   0  0  0  0  0  0  0  0  0  0  0  0
   14.2024  -13.4715    6.7739 O   0  0  0  0  0  0  0  0  0  0  0  0
    5.6059  -19.1345    6.3968 O   0  0  0  0  0  0  0  0  0  0  0  0
    7.2932  -17.0295    7.7719 O   0  0  0  0  0  0  0  0  0  0  0  0
   15.4613  -14.0969    4.7712 O   0  0  0  0  0  0  0  0  0  0  0  0
   10.7749  -13.3696   11.6752 O   0  0  0  0  0  0  0  0  0  0  0  0
  1 36  1  1  0  0  0
  2 36  1  1  0  0  0
  2  3  1  0  0  0  0
  3 37  1  6  0  0  0
  3  4  1  0  0  0  0
  4 38  1  6  0  0  0
  5 37  1  1  0  0  0
  5  6  1  0  0  0  0
  6  7  1  0  0  0  0
  6 39  1  6  0  0  0
  7 42  1  6  0  0  0
  8  9  1  1  0  0  0
  8  7  1  0  0  0  0
 10 42  1  6  0  0  0
 10 11  1  0  0  0  0
 11 31  1  6  0  0  0
 11 13  1  0  0  0  0
 12 30  1  1  0  0  0
 12  1  1  0  0  0  0
 14 13  1  0  0  0  0
 15 16  1  6  0  0  0
 15 14  1  0  0  0  0
 17 19  1  6  0  0  0
 17 28  1  0  0  0  0
 18 34  1  0  0  0  0
 19 32  1  0  0  0  0
 20 18  1  1  0  0  0
 20 17  1  0  0  0  0
 20 43  1  0  0  0  0
 21 12  1  0  0  0  0
 22 21  1  0  0  0  0
 22 23  1  0  0  0  0
 23 24  1  6  0  0  0
 23 46  1  0  0  0  0
 24 33  1  0  0  0  0
 25 34  1  6  0  0  0
 25  4  1  0  0  0  0
 26 25  1  0  0  0  0
 27 35  1  1  0  0  0
 27 26  1  0  0  0  0
 27  2  1  0  0  0  0
 29 16  1  0  0  0  0
 40  8  1  0  0  0  0
 40  5  1  0  0  0  0
 41  9  1  0  0  0  0
 44 18  2  0  0  0  0
 45 15  1  0  0  0  0
 45 10  1  0  0  0  0
 46  1  1  0  0  0  0
M  END
>  <CHROM.1>
173.03207514,53.15668760,170.55391707,177.38296223,178.15361152,59.09965121
-65.13209789,-178.13273544,179.36398996,-113.25474362,74.56424152,60.11536496
-56.72149989,11.58504902,-15.15367551,8.50077700,-2.86121629,-0.55791176
-1.92206331

>  <Name>
lig.pdb

>  <RI>
0

>  <Rbt.Current_Directory>
/home/afrankz/demos/rdock_decoys_rna/rnas/3wru

>  <Rbt.Executable>
rbdock ($Id: //depot/dev/client3/rdock/2013.1/src/exe/rbdock.cxx#4 $)

>  <Rbt.Library>
libRbt.so (2013.1, Build901 2013/11/27)

>  <Rbt.Parameter_File>
/export/apps/rDock/src/rDock_2013.1_src/data/scripts/dock_solv.prm

>  <Rbt.Receptor>
prm/pocket_docking_7.prm

>  <SCORE>
-0.935804

>  <SCORE.INTER>
5.22408

>  <SCORE.INTER.CONST>
1

>  <SCORE.INTER.POLAR>
0

>  <SCORE.INTER.ROT>
13

>  <SCORE.INTER.SOLV>
19.981

>  <SCORE.INTER.VDW>
-15.4443

>  <SCORE.INTER.norm>
0.113567

>  <SCORE.INTRA>
-6.15988

>  <SCORE.INTRA.DIHEDRAL>
-15.3164

>  <SCORE.INTRA.DIHEDRAL.0>
19.7146

>  <SCORE.INTRA.POLAR>
0

>  <SCORE.INTRA.POLAR.0>
0

>  <SCORE.INTRA.REPUL>
0

>  <SCORE.INTRA.REPUL.0>
0

>  <SCORE.INTRA.SOLV>
-1.08671

>  <SCORE.INTRA.SOLV.lig_0>
-116.697

>  <SCORE.INTRA.VDW>
2.04169

>  <SCORE.INTRA.VDW.0>
-7.06424

>  <SCORE.INTRA.norm>
-0.133911

>  <SCORE.RESTR>
0

>  <SCORE.RESTR.CAVITY>
0

>  <SCORE.RESTR.norm>
0

>  <SCORE.SYSTEM>
0

>  <SCORE.SYSTEM.CONST>
0

>  <SCORE.SYSTEM.DIHEDRAL>
0

>  <SCORE.SYSTEM.SOLV>
0

>  <SCORE.SYSTEM.norm>
0

>  <SCORE.heavy>
46

>  <SCORE.norm>
-0.0203436

>  <RMSD>
9.912

$$$$
lig.pdb
 OpenBabel03061811583D
libRbt.so/2013.1/901 2013/11/27
 46 49  0  0  0  0  0  0  0  0999 V2000
   14.5959  -16.1325    9.8818 C   0  0  1  0  0  0  0  0  0  0  0  0
   12.2464  -15.8951   10.7936 C   0  0  1  0  0  0  0  0  0  0  0  0
   10.9033  -15.2555   10.3282 C   0  0  1  0  0  0  0  0  0  0  0  0
    9.8389  -15.3415   11.5375 C   0  0  2  0  0  0  0  0  0  0  0  0
   10.9317  -13.1907    8.8538 C   0  0  2  0  0  0  0  0  0  0  0  0
   11.1353  -14.0632    7.5826 C   0  0  1  0  0  0  0  0  0  0  0  0
   10.1791  -13.3310    6.6725 C   0  0  1  0  0  0  0  0  0  0  0  0
    8.8933  -13.1214    7.5338 C   0  0  1  0  0  0  0  0  0  0  0  0
    7.8954  -14.3289    7.6232 C   0  0  0  0  0  0  0  0  0  0  0  0
   10.1713  -11.3179    5.2474 C   0  0  1  0  0  0  0  0  0  0  0  0
   10.1230  -12.0581    3.9441 C   0  0  1  0  0  0  0  0  0  0  0  0
   15.2589  -15.0912   10.8142 C   0  0  1  0  0  0  0  0  0  0  0  0
    9.4396  -11.1362    2.8729 C   0  0  0  0  0  0  0  0  0  0  0  0
   10.1174   -9.8955    2.6280 C   0  0  0  0  0  0  0  0  0  0  0  0
   10.1525   -9.1353    3.8592 C   0  0  2  0  0  0  0  0  0  0  0  0
   10.8975   -7.7577    3.6538 C   0  0  0  0  0  0  0  0  0  0  0  0
    5.6592  -17.8868   13.7957 C   0  0  2  0  0  0  0  0  0  0  0  0
    7.8708  -18.2655   13.0759 C   0  0  0  0  0  0  0  0  0  0  0  0
    4.6854  -18.1145   14.7497 C   0  0  0  0  0  0  0  0  0  0  0  0
    6.8714  -18.1744   14.3314 C   0  0  1  0  0  0  0  0  0  0  0  0
   15.2429  -13.6381   10.1537 C   0  0  0  0  0  0  0  0  0  0  0  0
   16.0123  -13.7177    8.7486 C   0  0  0  0  0  0  0  0  0  0  0  0
   15.2546  -14.7869    7.8329 C   0  0  1  0  0  0  0  0  0  0  0  0
   15.9259  -14.9451    6.4634 C   0  0  0  0  0  0  0  0  0  0  0  0
    9.5790  -16.8780   11.8576 C   0  0  1  0  0  0  0  0  0  0  0  0
   10.9983  -17.4800   12.3567 C   0  0  0  0  0  0  0  0  0  0  0  0
   12.0634  -17.3791   11.1976 C   0  0  2  0  0  0  0  0  0  0  0  0
    5.5583  -16.5263   13.3179 F   0  0  0  0  0  0  0  0  0  0  0  0
   12.3958   -7.9252    3.2699 N   0  0  0  0  0  0  0  0  0  0  0  0
   14.5389  -15.1224   12.1408 N   0  0  0  0  0  0  0  0  0  0  0  0
   11.3789  -12.3708    3.4165 N   0  0  0  0  0  0  0  0  0  0  0  0
    4.2949  -19.2945   15.4254 N   0  0  0  0  0  0  0  0  0  0  0  0
   17.2564  -15.3949    6.5994 N   0  0  0  0  0  0  0  0  0  0  0  0
    8.5990  -17.0010   12.9515 N   0  0  0  0  0  0  0  0  0  0  0  0
   13.3689  -17.9140   11.6435 N   0  0  0  0  0  0  0  0  0  0  0  0
   13.1989  -15.8739    9.7383 O   0  0  0  0  0  0  0  0  0  0  0  0
   11.2060  -13.8308    9.9656 O   0  0  0  0  0  0  0  0  0  0  0  0
    8.6634  -14.7717   11.1020 O   0  0  0  0  0  0  0  0  0  0  0  0
   12.4736  -13.9706    7.1981 O   0  0  0  0  0  0  0  0  0  0  0  0
    9.5542  -12.6874    8.7341 O   0  0  0  0  0  0  0  0  0  0  0  0
    8.6219  -15.4474    8.1702 O   0  0  0  0  0  0  0  0  0  0  0  0
   10.7965  -12.0056    6.2647 O   0  0  0  0  0  0  0  0  0  0  0  0
    7.3372  -17.1627   15.2511 O   0  0  0  0  0  0  0  0  0  0  0  0
    8.0020  -19.2638   12.3488 O   0  0  0  0  0  0  0  0  0  0  0  0
   10.8127   -9.9393    4.9543 O   0  0  0  0  0  0  0  0  0  0  0  0
   15.2411  -16.1398    8.5255 O   0  0  0  0  0  0  0  0  0  0  0  0
  1 36  1  6  0  0  0
  2 36  1  6  0  0  0
  2  3  1  0  0  0  0
  3 37  1  1  0  0  0
  3  4  1  0  0  0  0
  4 38  1  6  0  0  0
  5 37  1  1  0  0  0
  5  6  1  0  0  0  0
  6  7  1  0  0  0  0
  6 39  1  6  0  0  0
  7 42  1  1  0  0  0
  8  9  1  1  0  0  0
  8  7  1  0  0  0  0
 10 42  1  1  0  0  0
 10 11  1  0  0  0  0
 11 31  1  6  0  0  0
 11 13  1  0  0  0  0
 12 30  1  1  0  0  0
 12  1  1  0  0  0  0
 14 13  1  0  0  0  0
 15 16  1  6  0  0  0
 15 14  1  0  0  0  0
 17 19  1  1  0  0  0
 17 28  1  0  0  0  0
 18 34  1  0  0  0  0
 19 32  1  0  0  0  0
 20 18  1  6  0  0  0
 20 17  1  0  0  0  0
 20 43  1  0  0  0  0
 21 12  1  0  0  0  0
 22 21  1  0  0  0  0
 22 23  1  0  0  0  0
 23 24  1  6  0  0  0
 23 46  1  0  0  0  0
 24 33  1  0  0  0  0
 25 34  1  1  0  0  0
 25  4  1  0  0  0  0
 26 25  1  0  0  0  0
 27 35  1  1  0  0  0
 27 26  1  0  0  0  0
 27  2  1  0  0  0  0
 29 16  1  0  0  0  0
 40  8  1  0  0  0  0
 40  5  1  0  0  0  0
 41  9  1  0  0  0  0
 44 18  2  0  0  0  0
 45 15  1  0  0  0  0
 45 10  1  0  0  0  0
 46  1  1  0  0  0  0
M  END
>  <CHROM.1>
-62.04414447,167.11368211,127.36062239,-39.52072130,168.58626139,58.53471003
-61.00587864,-63.43274043,-62.12124808,99.02180408,165.30441541,60.75117253
158.47475338,10.74778032,-14.58969770,9.14154556,-1.19112759,-0.11840433
2.26007424

>  <Name>
lig.pdb

>  <RI>
0

>  <Rbt.Current_Directory>
/home/afrankz/demos/rdock_decoys_rna/rnas/3wru

>  <Rbt.Executable>
rbdock ($Id: //depot/dev/client3/rdock/2013.1/src/exe/rbdock.cxx#4 $)

>  <Rbt.Library>
libRbt.so (2013.1, Build901 2013/11/27)

>  <Rbt.Parameter_File>
/export/apps/rDock/src/rDock_2013.1_src/data/scripts/dock_solv.prm

>  <Rbt.Receptor>
prm/pocket_docking_7.prm

>  <SCORE>
-1.85046

>  <SCORE.INTER>
-2.44882

>  <SCORE.INTER.CONST>
1

>  <SCORE.INTER.POLAR>
0

>  <SCORE.INTER.ROT>
13

>  <SCORE.INTER.SOLV>
18.3699

>  <SCORE.INTER.VDW>
-20.0225

>  <SCORE.INTER.norm>
-0.0532351

>  <SCORE.INTRA>
0.598361

>  <SCORE.INTRA.DIHEDRAL>
-6.16836

>  <SCORE.INTRA.DIHEDRAL.0>
19.7146

>  <SCORE.INTRA.POLAR>
0

>  <SCORE.INTRA.POLAR.0>
0

>  <SCORE.INTRA.REPUL>
0

>  <SCORE.INTRA.REPUL.0>
0

>  <SCORE.INTRA.SOLV>
5.63645

>  <SCORE.INTRA.SOLV.lig_0>
-116.697

>  <SCORE.INTRA.VDW>
0.864313

>  <SCORE.INTRA.VDW.0>
-7.06424

>  <SCORE.INTRA.norm>
0.0130078

>  <SCORE.RESTR>
0

>  <SCORE.RESTR.CAVITY>
0

>  <SCORE.RESTR.norm>
0

>  <SCORE.SYSTEM>
0

>  <SCORE.SYSTEM.CONST>
0

>  <SCORE.SYSTEM.DIHEDRAL>
0

>  <SCORE.SYSTEM.SOLV>
0

>  <SCORE.SYSTEM.norm>
0

>  <SCORE.heavy>
46

>  <SCORE.norm>
-0.0402273

>  <RMSD>
9.914

$$$$
lig.pdb
 OpenBabel03061811583D
libRbt.so/2013.1/901 2013/11/27
 46 49  0  0  0  0  0  0  0  0999 V2000
    8.1678  -19.1584    6.6277 C   0  0  1  0  0  0  0  0  0  0  0  0
    8.4092  -18.0828    8.9064 C   0  0  1  0  0  0  0  0  0  0  0  0
    7.0058  -17.4060    8.9518 C   0  0  1  0  0  0  0  0  0  0  0  0
    7.0590  -16.1654    9.9819 C   0  0  2  0  0  0  0  0  0  0  0  0
    7.2867  -16.0003    6.8583 C   0  0  2  0  0  0  0  0  0  0  0  0
    6.4898  -14.6648    6.8556 C   0  0  1  0  0  0  0  0  0  0  0  0
    7.6469  -13.7327    6.5889 C   0  0  1  0  0  0  0  0  0  0  0  0
    8.7737  -14.2113    7.5587 C   0  0  1  0  0  0  0  0  0  0  0  0
    8.6962  -13.7029    9.0410 C   0  0  0  0  0  0  0  0  0  0  0  0
    8.8528  -12.8560    4.6240 C   0  0  1  0  0  0  0  0  0  0  0  0
    9.1973  -13.0211    3.1738 C   0  0  1  0  0  0  0  0  0  0  0  0
    8.2954  -20.5654    5.9972 C   0  0  1  0  0  0  0  0  0  0  0  0
   10.1331  -11.8354    2.7462 C   0  0  0  0  0  0  0  0  0  0  0  0
   11.3711  -11.7572    3.4672 C   0  0  0  0  0  0  0  0  0  0  0  0
   11.0786  -11.5615    4.8712 C   0  0  2  0  0  0  0  0  0  0  0  0
   12.4075  -11.4767    5.7208 C   0  0  0  0  0  0  0  0  0  0  0  0
    8.5205  -14.7244   15.3734 C   0  0  2  0  0  0  0  0  0  0  0  0
    7.2598  -15.9705   13.8206 C   0  0  0  0  0  0  0  0  0  0  0  0
    9.5507  -14.3041   14.5536 C   0  0  0  0  0  0  0  0  0  0  0  0
    7.3516  -14.6236   14.6929 C   0  0  1  0  0  0  0  0  0  0  0  0
    9.7959  -21.1015    6.0912 C   0  0  0  0  0  0  0  0  0  0  0  0
   10.7509  -20.0523    5.3432 C   0  0  0  0  0  0  0  0  0  0  0  0
   10.5874  -18.6361    6.0667 C   0  0  1  0  0  0  0  0  0  0  0  0
   11.4570  -17.5557    5.4124 C   0  0  0  0  0  0  0  0  0  0  0  0
    7.3866  -16.7395   11.4289 C   0  0  1  0  0  0  0  0  0  0  0  0
    8.8599  -17.4063   11.3255 C   0  0  0  0  0  0  0  0  0  0  0  0
    8.8377  -18.6049   10.3003 C   0  0  2  0  0  0  0  0  0  0  0  0
    8.5326  -13.9551   16.5971 F   0  0  0  0  0  0  0  0  0  0  0  0
   13.3063  -10.2687    5.3294 N   0  0  0  0  0  0  0  0  0  0  0  0
    7.3177  -21.4823    6.6921 N   0  0  0  0  0  0  0  0  0  0  0  0
    9.9173  -14.1838    2.8853 N   0  0  0  0  0  0  0  0  0  0  0  0
    9.8501  -13.0362   14.0021 N   0  0  0  0  0  0  0  0  0  0  0  0
   11.1619  -17.4302    4.0383 N   0  0  0  0  0  0  0  0  0  0  0  0
    7.4313  -15.6362   12.4052 N   0  0  0  0  0  0  0  0  0  0  0  0
   10.1804  -19.2160   10.1860 N   0  0  0  0  0  0  0  0  0  0  0  0
    8.3903  -19.2079    8.0374 O   0  0  0  0  0  0  0  0  0  0  0  0
    6.7028  -16.9456    7.5557 O   0  0  0  0  0  0  0  0  0  0  0  0
    5.8101  -15.5859   10.0043 O   0  0  0  0  0  0  0  0  0  0  0  0
    5.5502  -14.7179    5.8253 O   0  0  0  0  0  0  0  0  0  0  0  0
    8.6350  -15.6198    7.3084 O   0  0  0  0  0  0  0  0  0  0  0  0
    9.8389  -14.2370    9.7390 O   0  0  0  0  0  0  0  0  0  0  0  0
    8.0696  -13.8670    5.1372 O   0  0  0  0  0  0  0  0  0  0  0  0
    6.2000  -14.5260   15.5591 O   0  0  0  0  0  0  0  0  0  0  0  0
    7.0866  -17.1065   14.2918 O   0  0  0  0  0  0  0  0  0  0  0  0
   10.1901  -12.6710    5.3823 O   0  0  0  0  0  0  0  0  0  0  0  0
    9.1351  -18.1920    6.0062 O   0  0  0  0  0  0  0  0  0  0  0  0
  1 36  1  1  0  0  0
  2 36  1  6  0  0  0
  2  3  1  0  0  0  0
  3 37  1  6  0  0  0
  3  4  1  0  0  0  0
  4 38  1  1  0  0  0
  5 37  1  1  0  0  0
  5  6  1  0  0  0  0
  6  7  1  0  0  0  0
  6 39  1  6  0  0  0
  7 42  1  6  0  0  0
  8  9  1  1  0  0  0
  8  7  1  0  0  0  0
 10 42  1  1  0  0  0
 10 11  1  0  0  0  0
 11 31  1  1  0  0  0
 11 13  1  0  0  0  0
 12 30  1  1  0  0  0
 12  1  1  0  0  0  0
 14 13  1  0  0  0  0
 15 16  1  1  0  0  0
 15 14  1  0  0  0  0
 17 19  1  6  0  0  0
 17 28  1  0  0  0  0
 18 34  1  0  0  0  0
 19 32  1  0  0  0  0
 20 18  1  6  0  0  0
 20 17  1  0  0  0  0
 20 43  1  0  0  0  0
 21 12  1  0  0  0  0
 22 21  1  0  0  0  0
 22 23  1  0  0  0  0
 23 24  1  6  0  0  0
 23 46  1  0  0  0  0
 24 33  1  0  0  0  0
 25 34  1  1  0  0  0
 25  4  1  0  0  0  0
 26 25  1  0  0  0  0
 27 35  1  6  0  0  0
 27 26  1  0  0  0  0
 27  2  1  0  0  0  0
 29 16  1  0  0  0  0
 40  8  1  0  0  0  0
 40  5  1  0  0  0  0
 41  9  1  0  0  0  0
 44 18  2  0  0  0  0
 45 15  1  0  0  0  0
 45 10  1  0  0  0  0
 46  1  1  0  0  0  0
M  END
>  <CHROM.1>
176.84624746,64.54444558,-67.70420747,-99.89918082,163.01436731,-178.71148030
-177.96463604,62.48346676,65.62746594,-110.27561059,83.21358257,56.74975624
159.45993636,8.77631907,-15.71423365,8.39397727,0.65099554,-1.28405145,-2.37400179

>  <Name>
lig.pdb

>  <RI>
0

>  <Rbt.Current_Directory>
/home/afrankz/demos/rdock_decoys_rna/rnas/3wru

>  <Rbt.Executable>
rbdock ($Id: //depot/dev/client3/rdock/2013.1/src/exe/rbdock.cxx#4 $)

>  <Rbt.Library>
libRbt.so (2013.1, Build901 2013/11/27)

>  <Rbt.Parameter_File>
/export/apps/rDock/src/rDock_2013.1_src/data/scripts/dock_solv.prm

>  <Rbt.Receptor>
prm/pocket_docking_7.prm

>  <SCORE>
-2.84252

>  <SCORE.INTER>
0.721539

>  <SCORE.INTER.CONST>
1

>  <SCORE.INTER.POLAR>
0

>  <SCORE.INTER.ROT>
13

>  <SCORE.INTER.SOLV>
16.945

>  <SCORE.INTER.VDW>
-17.434

>  <SCORE.INTER.norm>
0.0156856

>  <SCORE.INTRA>
-3.56406

>  <SCORE.INTRA.DIHEDRAL>
-7.9634

>  <SCORE.INTRA.DIHEDRAL.0>
19.7146

>  <SCORE.INTRA.POLAR>
0

>  <SCORE.INTRA.POLAR.0>
0

>  <SCORE.INTRA.REPUL>
0.0906138

>  <SCORE.INTRA.REPUL.0>
0

>  <SCORE.INTRA.SOLV>
0.491763

>  <SCORE.INTRA.SOLV.lig_0>
-116.697

>  <SCORE.INTRA.VDW>
-0.281314

>  <SCORE.INTRA.VDW.0>
-7.06424

>  <SCORE.INTRA.norm>
-0.0774796

>  <SCORE.RESTR>
0

>  <SCORE.RESTR.CAVITY>
0

>  <SCORE.RESTR.norm>
0

>  <SCORE.SYSTEM>
0

>  <SCORE.SYSTEM.CONST>
0

>  <SCORE.SYSTEM.DIHEDRAL>
0

>  <SCORE.SYSTEM.SOLV>
0

>  <SCORE.SYSTEM.norm>
0

>  <SCORE.heavy>
46

>  <SCORE.norm>
-0.061794

>  <RMSD>
9.930

$$$$
lig.pdb
 OpenBabel03061811583D
libRbt.so/2013.1/901 2013/11/27
 46 49  0  0  0  0  0  0  0  0999 V2000
   13.6591  -15.3864   10.5917 C   0  0  1  0  0  0  0  0  0  0  0  0
   12.5760  -13.7238    9.0199 C   0  0  1  0  0  0  0  0  0  0  0  0
   13.6658  -13.4474    7.9403 C   0  0  1  0  0  0  0  0  0  0  0  0
   13.4215  -11.9792    7.3178 C   0  0  2  0  0  0  0  0  0  0  0  0
   16.1958  -13.4014    8.1266 C   0  0  2  0  0  0  0  0  0  0  0  0
   17.2848  -14.1657    8.9320 C   0  0  1  0  0  0  0  0  0  0  0  0
   18.2814  -14.3480    7.8129 C   0  0  1  0  0  0  0  0  0  0  0  0
   17.4286  -14.8303    6.5967 C   0  0  1  0  0  0  0  0  0  0  0  0
   17.0747  -16.3579    6.5405 C   0  0  0  0  0  0  0  0  0  0  0  0
   19.8298  -12.5485    8.4820 C   0  0  1  0  0  0  0  0  0  0  0  0
   20.4401  -11.2180    8.1558 C   0  0  1  0  0  0  0  0  0  0  0  0
   13.6253  -16.9096   10.8601 C   0  0  1  0  0  0  0  0  0  0  0  0
   21.4489  -10.8396    9.2974 C   0  0  0  0  0  0  0  0  0  0  0  0
   22.5295  -11.7665    9.4757 C   0  0  0  0  0  0  0  0  0  0  0  0
   21.9793  -13.0581    9.8278 C   0  0  2  0  0  0  0  0  0  0  0  0
   23.1250  -14.1267   10.0287 C   0  0  0  0  0  0  0  0  0  0  0  0
   11.5431   -8.8770    3.6635 C   0  0  2  0  0  0  0  0  0  0  0  0
   10.6277  -10.5328    5.0681 C   0  0  0  0  0  0  0  0  0  0  0  0
   11.3991   -7.6691    3.0074 C   0  0  0  0  0  0  0  0  0  0  0  0
   10.5324   -9.0118    4.5577 C   0  0  1  0  0  0  0  0  0  0  0  0
   12.2247  -17.3502   11.4862 C   0  0  0  0  0  0  0  0  0  0  0  0
   12.0012  -16.5265   12.8440 C   0  0  0  0  0  0  0  0  0  0  0  0
   12.0187  -14.9691   12.4830 C   0  0  1  0  0  0  0  0  0  0  0  0
   11.8238  -14.0917   13.7254 C   0  0  0  0  0  0  0  0  0  0  0  0
   11.9982  -11.9754    6.6070 C   0  0  1  0  0  0  0  0  0  0  0  0
   10.9100  -12.2428    7.7775 C   0  0  0  0  0  0  0  0  0  0  0  0
   11.1490  -13.6630    8.4207 C   0  0  2  0  0  0  0  0  0  0  0  0
   12.8523   -8.9425    4.2728 F   0  0  0  0  0  0  0  0  0  0  0  0
   22.6002  -15.5912   10.0323 N   0  0  0  0  0  0  0  0  0  0  0  0
   13.9190  -17.6222    9.5619 N   0  0  0  0  0  0  0  0  0  0  0  0
   21.1924  -11.2067    6.9779 N   0  0  0  0  0  0  0  0  0  0  0  0
   10.4167   -7.2083    2.0998 N   0  0  0  0  0  0  0  0  0  0  0  0
   10.4545  -13.9427   14.0316 N   0  0  0  0  0  0  0  0  0  0  0  0
   11.7412  -10.6518    6.0118 N   0  0  0  0  0  0  0  0  0  0  0  0
   10.1696  -13.9160    9.5007 N   0  0  0  0  0  0  0  0  0  0  0  0
   12.7350  -15.0278    9.5639 O   0  0  0  0  0  0  0  0  0  0  0  0
   14.9936  -13.5334    8.6349 O   0  0  0  0  0  0  0  0  0  0  0  0
   14.3945  -11.7596    6.3685 O   0  0  0  0  0  0  0  0  0  0  0  0
   17.7291  -13.3367    9.9629 O   0  0  0  0  0  0  0  0  0  0  0  0
   16.3579  -13.8832    6.7457 O   0  0  0  0  0  0  0  0  0  0  0  0
   18.3149  -17.0894    6.6094 O   0  0  0  0  0  0  0  0  0  0  0  0
   18.9561  -13.0189    7.5259 O   0  0  0  0  0  0  0  0  0  0  0  0
   10.6494   -8.1133    5.6825 O   0  0  0  0  0  0  0  0  0  0  0  0
    9.8600  -11.4445    4.7185 O   0  0  0  0  0  0  0  0  0  0  0  0
   21.0018  -13.5181    8.7721 O   0  0  0  0  0  0  0  0  0  0  0  0
   13.3451  -14.6058   11.8359 O   0  0  0  0  0  0  0  0  0  0  0  0
  1 36  1  6  0  0  0
  2 36  1  6  0  0  0
  2  3  1  0  0  0  0
  3 37  1  1  0  0  0
  3  4  1  0  0  0  0
  4 38  1  6  0  0  0
  5 37  1  1  0  0  0
  5  6  1  0  0  0  0
  6  7  1  0  0  0  0
  6 39  1  1  0  0  0
  7 42  1  6  0  0  0
  8  9  1  1  0  0  0
  8  7  1  0  0  0  0
 10 42  1  6  0  0  0
 10 11  1  0  0  0  0
 11 31  1  6  0  0  0
 11 13  1  0  0  0  0
 12 30  1  6  0  0  0
 12  1  1  0  0  0  0
 14 13  1  0  0  0  0
 15 16  1  6  0  0  0
 15 14  1  0  0  0  0
 17 19  1  1  0  0  0
 17 28  1  0  0  0  0
 18 34  1  0  0  0  0
 19 32  1  0  0  0  0
 20 18  1  1  0  0  0
 20 17  1  0  0  0  0
 20 43  1  0  0  0  0
 21 12  1  0  0  0  0
 22 21  1  0  0  0  0
 22 23  1  0  0  0  0
 23 24  1  1  0  0  0
 23 46  1  0  0  0  0
 24 33  1  0  0  0  0
 25 34  1  1  0  0  0
 25  4  1  0  0  0  0
 26 25  1  0  0  0  0
 27 35  1  1  0  0  0
 27 26  1  0  0  0  0
 27  2  1  0  0  0  0
 29 16  1  0  0  0  0
 40  8  1  0  0  0  0
 40  5  1  0  0  0  0
 41  9  1  0  0  0  0
 44 18  2  0  0  0  0
 45 15  1  0  0  0  0
 45 10  1  0  0  0  0
 46  1  1  0  0  0  0
M  END
>  <CHROM.1>
-175.92769190,81.61948261,178.39243407,-153.47303033,70.30891437,-55.28019392
-178.68572371,-164.68561155,-67.17747052,76.15879236,170.03127846,-83.97400079
166.80192504,15.01664886,-13.01060710,8.17595407,0.45096697,-0.02950585,2.31609311

>  <Name>
lig.pdb

>  <RI>
0

>  <Rbt.Current_Directory>
/home/afrankz/demos/rdock_decoys_rna/rnas/3wru

>  <Rbt.Executable>
rbdock ($Id: //depot/dev/client3/rdock/2013.1/src/exe/rbdock.cxx#4 $)

>  <Rbt.Library>
libRbt.so (2013.1, Build901 2013/11/27)

>  <Rbt.Parameter_File>
/export/apps/rDock/src/rDock_2013.1_src/data/scripts/dock_solv.prm

>  <Rbt.Receptor>
prm/pocket_docking_4.prm

>  <SCORE>
-7.30505

>  <SCORE.INTER>
-3.29084

>  <SCORE.INTER.CONST>
1

>  <SCORE.INTER.POLAR>
0

>  <SCORE.INTER.ROT>
13

>  <SCORE.INTER.SOLV>
20.8735

>  <SCORE.INTER.VDW>
-21.4184

>  <SCORE.INTER.norm>
-0.07154

>  <SCORE.INTRA>
-4.01421

>  <SCORE.INTRA.DIHEDRAL>
-9.4765

>  <SCORE.INTRA.DIHEDRAL.0>
19.7146

>  <SCORE.INTRA.POLAR>
0

>  <SCORE.INTRA.POLAR.0>
0

>  <SCORE.INTRA.REPUL>
0

>  <SCORE.INTRA.REPUL.0>
0

>  <SCORE.INTRA.SOLV>
-2.50224

>  <SCORE.INTRA.SOLV.lig_0>
-116.697

>  <SCORE.INTRA.VDW>
1.97516

>  <SCORE.INTRA.VDW.0>
-7.06424

>  <SCORE.INTRA.norm>
-0.0872654

>  <SCORE.RESTR>
0

>  <SCORE.RESTR.CAVITY>
0

>  <SCORE.RESTR.norm>
0

>  <SCORE.SYSTEM>
0

>  <SCORE.SYSTEM.CONST>
0

>  <SCORE.SYSTEM.DIHEDRAL>
0

>  <SCORE.SYSTEM.SOLV>
0

>  <SCORE.SYSTEM.norm>
0

>  <SCORE.heavy>
46

>  <SCORE.norm>
-0.158805

>  <RMSD>
10.011

$$$$
lig.pdb
 OpenBabel03061811583D
libRbt.so/2013.1/901 2013/11/27
 46 49  0  0  0  0  0  0  0  0999 V2000
    9.3954   -6.0834    1.7385 C   0  0  1  0  0  0  0  0  0  0  0  0
   10.1533   -4.0264    3.0044 C   0  0  1  0  0  0  0  0  0  0  0  0
   11.5244   -4.5647    3.5142 C   0  0  1  0  0  0  0  0  0  0  0  0
   11.9513   -3.7376    4.8320 C   0  0  2  0  0  0  0  0  0  0  0  0
   12.2329   -6.9679    3.9150 C   0  0  2  0  0  0  0  0  0  0  0  0
   12.5271   -7.6658    2.5566 C   0  0  1  0  0  0  0  0  0  0  0  0
   13.9260   -8.1415    2.8659 C   0  0  1  0  0  0  0  0  0  0  0  0
   14.6291   -6.9091    3.5185 C   0  0  1  0  0  0  0  0  0  0  0  0
   15.2058   -5.8236    2.5434 C   0  0  0  0  0  0  0  0  0  0  0  0
   12.6059   -9.6277    4.3262 C   0  0  1  0  0  0  0  0  0  0  0  0
   12.5837   -9.9009    5.8006 C   0  0  1  0  0  0  0  0  0  0  0  0
    9.7880   -6.6830    0.3675 C   0  0  1  0  0  0  0  0  0  0  0  0
   11.1219  -10.2992    6.2113 C   0  0  0  0  0  0  0  0  0  0  0  0
   10.6124  -11.4706    5.5579 C   0  0  0  0  0  0  0  0  0  0  0  0
   10.5853  -11.2308    4.1307 C   0  0  2  0  0  0  0  0  0  0  0  0
   10.0401  -12.4935    3.3539 C   0  0  0  0  0  0  0  0  0  0  0  0
   13.5506   -1.3412    8.4574 C   0  0  2  0  0  0  0  0  0  0  0  0
   13.8756   -1.6497    6.1440 C   0  0  0  0  0  0  0  0  0  0  0  0
   14.4539   -2.2840    8.9104 C   0  0  0  0  0  0  0  0  0  0  0  0
   14.0980   -0.6808    7.4069 C   0  0  1  0  0  0  0  0  0  0  0  0
    8.9321   -6.0289   -0.8103 C   0  0  0  0  0  0  0  0  0  0  0  0
    7.3787   -6.2812   -0.5009 C   0  0  0  0  0  0  0  0  0  0  0  0
    7.0431   -5.6102    0.9108 C   0  0  1  0  0  0  0  0  0  0  0  0
    5.5744   -5.8090    1.3040 C   0  0  0  0  0  0  0  0  0  0  0  0
   12.1327   -2.2120    4.4194 C   0  0  1  0  0  0  0  0  0  0  0  0
   10.6763   -1.7037    3.9231 C   0  0  0  0  0  0  0  0  0  0  0  0
   10.2259   -2.5202    2.6509 C   0  0  2  0  0  0  0  0  0  0  0  0
   13.1792   -0.4661    9.5464 F   0  0  0  0  0  0  0  0  0  0  0  0
    8.7327  -13.0708    3.9685 N   0  0  0  0  0  0  0  0  0  0  0  0
   11.2717   -6.4814    0.1739 N   0  0  0  0  0  0  0  0  0  0  0  0
   13.3852  -10.9757    6.1957 N   0  0  0  0  0  0  0  0  0  0  0  0
   15.7723   -2.1543    9.4069 N   0  0  0  0  0  0  0  0  0  0  0  0
    5.2279   -7.1769    1.2971 N   0  0  0  0  0  0  0  0  0  0  0  0
   12.5369   -1.4215    5.5960 N   0  0  0  0  0  0  0  0  0  0  0  0
    8.8909   -2.0752    2.1936 N   0  0  0  0  0  0  0  0  0  0  0  0
    9.7628   -4.7057    1.8181 O   0  0  0  0  0  0  0  0  0  0  0  0
   11.3298   -6.0210    3.8211 O   0  0  0  0  0  0  0  0  0  0  0  0
   13.1631   -4.2306    5.2615 O   0  0  0  0  0  0  0  0  0  0  0  0
   11.5996   -8.6939    2.3830 O   0  0  0  0  0  0  0  0  0  0  0  0
   13.5547   -6.5391    4.3987 O   0  0  0  0  0  0  0  0  0  0  0  0
   14.0998   -5.0114    2.1016 O   0  0  0  0  0  0  0  0  0  0  0  0
   13.8517   -9.3127    3.8287 O   0  0  0  0  0  0  0  0  0  0  0  0
   13.4736    0.5971    7.1552 O   0  0  0  0  0  0  0  0  0  0  0  0
   14.7223   -2.4469    5.7077 O   0  0  0  0  0  0  0  0  0  0  0  0
   11.9617  -10.8545    3.6350 O   0  0  0  0  0  0  0  0  0  0  0  0
    7.9212   -6.2192    1.9917 O   0  0  0  0  0  0  0  0  0  0  0  0
  1 36  1  6  0  0  0
  2 36  1  6  0  0  0
  2  3  1  0  0  0  0
  3 37  1  1  0  0  0
  3  4  1  0  0  0  0
  4 38  1  6  0  0  0
  5 37  1  6  0  0  0
  5  6  1  0  0  0  0
  6  7  1  0  0  0  0
  6 39  1  1  0  0  0
  7 42  1  1  0  0  0
  8  9  1  6  0  0  0
  8  7  1  0  0  0  0
 10 42  1  6  0  0  0
 10 11  1  0  0  0  0
 11 31  1  6  0  0  0
 11 13  1  0  0  0  0
 12 30  1  6  0  0  0
 12  1  1  0  0  0  0
 14 13  1  0  0  0  0
 15 16  1  6  0  0  0
 15 14  1  0  0  0  0
 17 19  1  1  0  0  0
 17 28  1  0  0  0  0
 18 34  1  0  0  0  0
 19 32  1  0  0  0  0
 20 18  1  6  0  0  0
 20 17  1  0  0  0  0
 20 43  1  0  0  0  0
 21 12  1  0  0  0  0
 22 21  1  0  0  0  0
 22 23  1  0  0  0  0
 23 24  1  1  0  0  0
 23 46  1  0  0  0  0
 24 33  1  0  0  0  0
 25 34  1  1  0  0  0
 25  4  1  0  0  0  0
 26 25  1  0  0  0  0
 27 35  1  1  0  0  0
 27 26  1  0  0  0  0
 27  2  1  0  0  0  0
 29 16  1  0  0  0  0
 40  8  1  0  0  0  0
 40  5  1  0  0  0  0
 41  9  1  0  0  0  0
 44 18  2  0  0  0  0
 45 15  1  0  0  0  0
 45 10  1  0  0  0  0
 46  1  1  0  0  0  0
M  END
>  <CHROM.1>
-148.27165078,67.65748716,159.14208047,-88.97773330,-6.07244536,78.92829236
-135.44728672,47.85551050,59.33054619,84.47352643,80.75830515,55.22287721
68.88661943,11.57588705,-5.81951798,3.98237078,2.15344380,0.76333220,-3.05223980

>  <Name>
lig.pdb

>  <RI>
0

>  <Rbt.Current_Directory>
/home/afrankz/demos/rdock_decoys_rna/rnas/3wru

>  <Rbt.Executable>
rbdock ($Id: //depot/dev/client3/rdock/2013.1/src/exe/rbdock.cxx#4 $)

>  <Rbt.Library>
libRbt.so (2013.1, Build901 2013/11/27)

>  <Rbt.Parameter_File>
/export/apps/rDock/src/rDock_2013.1_src/data/scripts/dock_solv.prm

>  <Rbt.Receptor>
prm/blind_docking_20.prm

>  <SCORE>
34.5895

>  <SCORE.INTER>
8.74296

>  <SCORE.INTER.CONST>
1

>  <SCORE.INTER.POLAR>
0

>  <SCORE.INTER.ROT>
13

>  <SCORE.INTER.SOLV>
35.1747

>  <SCORE.INTER.VDW>
-18.1629

>  <SCORE.INTER.norm>
0.190064

>  <SCORE.INTRA>
17.154

>  <SCORE.INTRA.DIHEDRAL>
7.399

>  <SCORE.INTRA.DIHEDRAL.0>
19.7146

>  <SCORE.INTRA.POLAR>
0

>  <SCORE.INTRA.POLAR.0>
0

>  <SCORE.INTRA.REPUL>
0.020171

>  <SCORE.INTRA.REPUL.0>
0

>  <SCORE.INTRA.SOLV>
5.63587

>  <SCORE.INTRA.SOLV.lig_0>
-116.697

>  <SCORE.INTRA.VDW>
10.5357

>  <SCORE.INTRA.VDW.0>
-7.06424

>  <SCORE.INTRA.norm>
0.372912

>  <SCORE.RESTR>
8.69254

>  <SCORE.RESTR.CAVITY>
8.69254

>  <SCORE.RESTR.norm>
0.188968

>  <SCORE.SYSTEM>
0

>  <SCORE.SYSTEM.CONST>
0

>  <SCORE.SYSTEM.DIHEDRAL>
0

>  <SCORE.SYSTEM.SOLV>
0

>  <SCORE.SYSTEM.norm>
0

>  <SCORE.heavy>
46

>  <SCORE.norm>
0.751945

>  <RMSD>
10.050

$$$$
lig.pdb
 OpenBabel03061811583D
libRbt.so/2013.1/901 2013/11/27
 46 49  0  0  0  0  0  0  0  0999 V2000
   12.0302  -13.5904    7.7896 C   0  0  1  0  0  0  0  0  0  0  0  0
    9.9032  -12.2202    7.7114 C   0  0  1  0  0  0  0  0  0  0  0  0
    8.8632  -13.1134    6.9695 C   0  0  1  0  0  0  0  0  0  0  0  0
    7.3882  -12.7631    7.5213 C   0  0  2  0  0  0  0  0  0  0  0  0
    9.9553  -13.1201    4.6793 C   0  0  2  0  0  0  0  0  0  0  0  0
    9.4434  -13.4748    3.2542 C   0  0  1  0  0  0  0  0  0  0  0  0
   10.7042  -13.1449    2.4923 C   0  0  1  0  0  0  0  0  0  0  0  0
   11.1644  -11.7664    3.0643 C   0  0  1  0  0  0  0  0  0  0  0  0
   10.4675  -10.4881    2.4795 C   0  0  0  0  0  0  0  0  0  0  0  0
   12.8579  -14.2159    1.9462 C   0  0  1  0  0  0  0  0  0  0  0  0
   12.5866  -14.5475    0.5091 C   0  0  1  0  0  0  0  0  0  0  0  0
   13.3749  -13.6770    7.0295 C   0  0  1  0  0  0  0  0  0  0  0  0
   13.9513  -14.5544   -0.2666 C   0  0  0  0  0  0  0  0  0  0  0  0
   14.9097  -15.5087    0.2124 C   0  0  0  0  0  0  0  0  0  0  0  0
   15.2242  -15.1983    1.5908 C   0  0  2  0  0  0  0  0  0  0  0  0
   16.2716  -16.2245    2.1782 C   0  0  0  0  0  0  0  0  0  0  0  0
    4.2066  -12.6904   12.5588 C   0  0  2  0  0  0  0  0  0  0  0  0
    5.6031  -13.5076   10.8455 C   0  0  0  0  0  0  0  0  0  0  0  0
    4.6371  -11.3803   12.6503 C   0  0  0  0  0  0  0  0  0  0  0  0
    4.1217  -13.0320   11.2490 C   0  0  1  0  0  0  0  0  0  0  0  0
   13.1479  -14.1156    5.5117 C   0  0  0  0  0  0  0  0  0  0  0  0
   12.3971  -15.5328    5.5063 C   0  0  0  0  0  0  0  0  0  0  0  0
   11.0092  -15.3570    6.2800 C   0  0  1  0  0  0  0  0  0  0  0  0
   10.2175  -16.6689    6.3399 C   0  0  0  0  0  0  0  0  0  0  0  0
    7.3433  -13.1213    9.0707 C   0  0  1  0  0  0  0  0  0  0  0  0
    8.4227  -12.1491    9.7888 C   0  0  0  0  0  0  0  0  0  0  0  0
    9.8703  -12.4550    9.2419 C   0  0  2  0  0  0  0  0  0  0  0  0
    2.9545  -12.8377   13.2659 F   0  0  0  0  0  0  0  0  0  0  0  0
   16.7188  -15.8781    3.6274 N   0  0  0  0  0  0  0  0  0  0  0  0
   14.0638  -12.3381    7.1392 N   0  0  0  0  0  0  0  0  0  0  0  0
   12.0399  -15.8181    0.3082 N   0  0  0  0  0  0  0  0  0  0  0  0
    5.8599  -10.7694   12.2859 N   0  0  0  0  0  0  0  0  0  0  0  0
    9.0113  -16.5015    7.0528 N   0  0  0  0  0  0  0  0  0  0  0  0
    6.0043  -12.8275    9.6122 N   0  0  0  0  0  0  0  0  0  0  0  0
   10.8656  -11.5653    9.8801 N   0  0  0  0  0  0  0  0  0  0  0  0
   11.2219  -12.5296    7.2793 O   0  0  0  0  0  0  0  0  0  0  0  0
    8.9893  -12.7997    5.5071 O   0  0  0  0  0  0  0  0  0  0  0  0
    6.4898  -13.5639    6.8523 O   0  0  0  0  0  0  0  0  0  0  0  0
    9.1026  -14.8279    3.2358 O   0  0  0  0  0  0  0  0  0  0  0  0
   10.9700  -12.0786    4.4538 O   0  0  0  0  0  0  0  0  0  0  0  0
    9.0992  -10.4989    2.9329 O   0  0  0  0  0  0  0  0  0  0  0  0
   11.7382  -14.2260    2.7494 O   0  0  0  0  0  0  0  0  0  0  0  0
    3.1838  -14.1027   11.0039 O   0  0  0  0  0  0  0  0  0  0  0  0
    6.2885  -14.3124   11.4974 O   0  0  0  0  0  0  0  0  0  0  0  0
   13.9660  -15.1850    2.4265 O   0  0  0  0  0  0  0  0  0  0  0  0
   11.2685  -14.8818    7.7003 O   0  0  0  0  0  0  0  0  0  0  0  0
  1 36  1  6  0  0  0
  2 36  1  6  0  0  0
  2  3  1  0  0  0  0
  3 37  1  6  0  0  0
  3  4  1  0  0  0  0
  4 38  1  6  0  0  0
  5 37  1  1  0  0  0
  5  6  1  0  0  0  0
  6  7  1  0  0  0  0
  6 39  1  1  0  0  0
  7 42  1  1  0  0  0
  8  9  1  6  0  0  0
  8  7  1  0  0  0  0
 10 42  1  1  0  0  0
 10 11  1  0  0  0  0
 11 31  1  1  0  0  0
 11 13  1  0  0  0  0
 12 30  1  6  0  0  0
 12  1  1  0  0  0  0
 14 13  1  0  0  0  0
 15 16  1  1  0  0  0
 15 14  1  0  0  0  0
 17 19  1  6  0  0  0
 17 28  1  0  0  0  0
 18 34  1  0  0  0  0
 19 32  1  0  0  0  0
 20 18  1  1  0  0  0
 20 17  1  0  0  0  0
 20 43  1  0  0  0  0
 21 12  1  0  0  0  0
 22 21  1  0  0  0  0
 22 23  1  0  0  0  0
 23 24  1  1  0  0  0
 23 46  1  0  0  0  0
 24 33  1  0  0  0  0
 25 34  1  1  0  0  0
 25  4  1  0  0  0  0
 26 25  1  0  0  0  0
 27 35  1  1  0  0  0
 27 26  1  0  0  0  0
 27  2  1  0  0  0  0
 29 16  1  0  0  0  0
 40  8  1  0  0  0  0
 40  5  1  0  0  0  0
 41  9  1  0  0  0  0
 44 18  2  0  0  0  0
 45 15  1  0  0  0  0
 45 10  1  0  0  0  0
 46  1  1  0  0  0  0
M  END
>  <CHROM.1>
176.81499839,-83.99630757,71.98546999,142.89311862,168.52081995,68.95247246
-67.45480333,176.03613521,-65.08924416,-130.63714519,85.38680507,178.63119408
158.51680441,9.93451255,-13.58894246,6.27430164,-0.80832662,-0.28710935,1.63506079

>  <Name>
lig.pdb

>  <RI>
0

>  <Rbt.Current_Directory>
/home/afrankz/demos/rdock_decoys_rna/rnas/3wru

>  <Rbt.Executable>
rbdock ($Id: //depot/dev/client3/rdock/2013.1/src/exe/rbdock.cxx#4 $)

>  <Rbt.Library>
libRbt.so (2013.1, Build901 2013/11/27)

>  <Rbt.Parameter_File>
/export/apps/rDock/src/rDock_2013.1_src/data/scripts/dock_solv.prm

>  <Rbt.Receptor>
prm/pocket_docking_8.prm

>  <SCORE>
-4.57511

>  <SCORE.INTER>
-4.09078

>  <SCORE.INTER.CONST>
1

>  <SCORE.INTER.POLAR>
0

>  <SCORE.INTER.ROT>
13

>  <SCORE.INTER.SOLV>
21.3366

>  <SCORE.INTER.VDW>
-22.1061

>  <SCORE.INTER.norm>
-0.08893

>  <SCORE.INTRA>
-0.484327

>  <SCORE.INTRA.DIHEDRAL>
-5.6255

>  <SCORE.INTRA.DIHEDRAL.0>
19.7146

>  <SCORE.INTRA.POLAR>
0

>  <SCORE.INTRA.POLAR.0>
0

>  <SCORE.INTRA.REPUL>
0.298832

>  <SCORE.INTRA.REPUL.0>
0

>  <SCORE.INTRA.SOLV>
4.21153

>  <SCORE.INTRA.SOLV.lig_0>
-116.697

>  <SCORE.INTRA.VDW>
-1.2715

>  <SCORE.INTRA.VDW.0>
-7.06424

>  <SCORE.INTRA.norm>
-0.0105289

>  <SCORE.RESTR>
0

>  <SCORE.RESTR.CAVITY>
0

>  <SCORE.RESTR.norm>
0

>  <SCORE.SYSTEM>
0

>  <SCORE.SYSTEM.CONST>
0

>  <SCORE.SYSTEM.DIHEDRAL>
0

>  <SCORE.SYSTEM.SOLV>
0

>  <SCORE.SYSTEM.norm>
0

>  <SCORE.heavy>
46

>  <SCORE.norm>
-0.0994589

>  <RMSD>
10.064

$$$$
lig.pdb
 OpenBabel03061811583D
libRbt.so/2013.1/901 2013/11/27
 46 49  0  0  0  0  0  0  0  0999 V2000
    9.7653  -14.3590   13.1428 C   0  0  1  0  0  0  0  0  0  0  0  0
    8.6505  -15.5856   11.2296 C   0  0  1  0  0  0  0  0  0  0  0  0
    8.8982  -17.1117   11.4282 C   0  0  1  0  0  0  0  0  0  0  0  0
    8.8702  -17.8358    9.9867 C   0  0  2  0  0  0  0  0  0  0  0  0
   11.4031  -16.7951   11.6788 C   0  0  2  0  0  0  0  0  0  0  0  0
   12.6037  -17.4319   12.4350 C   0  0  1  0  0  0  0  0  0  0  0  0
   13.6524  -17.2295   11.3681 C   0  0  1  0  0  0  0  0  0  0  0  0
   12.9632  -17.6849   10.0427 C   0  0  1  0  0  0  0  0  0  0  0  0
   12.9471  -19.2254    9.7453 C   0  0  0  0  0  0  0  0  0  0  0  0
   15.2221  -15.4515   10.6911 C   0  0  1  0  0  0  0  0  0  0  0  0
   15.4619  -13.9810   10.5208 C   0  0  1  0  0  0  0  0  0  0  0  0
    9.3606  -13.6962   14.4808 C   0  0  1  0  0  0  0  0  0  0  0  0
   16.8123  -13.7832    9.7453 C   0  0  0  0  0  0  0  0  0  0  0  0
   16.8447  -14.3697    8.4363 C   0  0  0  0  0  0  0  0  0  0  0  0
   16.6517  -15.7986    8.5634 C   0  0  2  0  0  0  0  0  0  0  0  0
   16.6685  -16.5010    7.1487 C   0  0  0  0  0  0  0  0  0  0  0  0
    6.2065  -18.6039    5.4115 C   0  0  2  0  0  0  0  0  0  0  0  0
    6.1292  -19.0452    7.7250 C   0  0  0  0  0  0  0  0  0  0  0  0
    6.6369  -18.9977    4.1587 C   0  0  0  0  0  0  0  0  0  0  0  0
    6.2708  -19.6679    6.2501 C   0  0  1  0  0  0  0  0  0  0  0  0
    8.4416  -12.4153   14.2309 C   0  0  0  0  0  0  0  0  0  0  0  0
    9.2556  -11.3868   13.3078 C   0  0  0  0  0  0  0  0  0  0  0  0
    9.6108  -12.1305   11.9379 C   0  0  1  0  0  0  0  0  0  0  0  0
   10.4052  -11.2278   10.9863 C   0  0  0  0  0  0  0  0  0  0  0  0
    7.4195  -17.6393    9.3641 C   0  0  1  0  0  0  0  0  0  0  0  0
    7.2300  -16.0430    9.1594 C   0  0  0  0  0  0  0  0  0  0  0  0
    7.2833  -15.3111   10.5556 C   0  0  2  0  0  0  0  0  0  0  0  0
    4.8792  -18.0402    5.3110 F   0  0  0  0  0  0  0  0  0  0  0  0
   15.5320  -16.0070    6.2082 N   0  0  0  0  0  0  0  0  0  0  0  0
    8.6704  -14.7360   15.3305 N   0  0  0  0  0  0  0  0  0  0  0  0
   14.4941  -13.3285    9.7519 N   0  0  0  0  0  0  0  0  0  0  0  0
    6.1557  -19.9903    3.2729 N   0  0  0  0  0  0  0  0  0  0  0  0
   10.5858  -11.8476    9.7316 N   0  0  0  0  0  0  0  0  0  0  0  0
    7.3475  -18.2995    8.0483 N   0  0  0  0  0  0  0  0  0  0  0  0
    7.1242  -13.8502   10.3830 N   0  0  0  0  0  0  0  0  0  0  0  0
    8.6281  -14.9185   12.4848 O   0  0  0  0  0  0  0  0  0  0  0  0
   10.2412  -17.2498   12.0840 O   0  0  0  0  0  0  0  0  0  0  0  0
    9.0904  -19.1799   10.1889 O   0  0  0  0  0  0  0  0  0  0  0  0
   12.8259  -16.6976   13.6006 O   0  0  0  0  0  0  0  0  0  0  0  0
   11.7100  -17.0145   10.2565 O   0  0  0  0  0  0  0  0  0  0  0  0
   12.3222  -19.4085    8.4592 O   0  0  0  0  0  0  0  0  0  0  0  0
   14.0353  -15.7614   11.3190 O   0  0  0  0  0  0  0  0  0  0  0  0
    5.2167  -20.6294    6.0250 O   0  0  0  0  0  0  0  0  0  0  0  0
    5.1312  -19.1736    8.4530 O   0  0  0  0  0  0  0  0  0  0  0  0
   15.3589  -16.0916    9.2877 O   0  0  0  0  0  0  0  0  0  0  0  0
   10.4344  -13.3748   12.2265 O   0  0  0  0  0  0  0  0  0  0  0  0
  1 36  1  6  0  0  0
  2 36  1  1  0  0  0
  2  3  1  0  0  0  0
  3 37  1  6  0  0  0
  3  4  1  0  0  0  0
  4 38  1  1  0  0  0
  5 37  1  1  0  0  0
  5  6  1  0  0  0  0
  6  7  1  0  0  0  0
  6 39  1  1  0  0  0
  7 42  1  6  0  0  0
  8  9  1  1  0  0  0
  8  7  1  0  0  0  0
 10 42  1  6  0  0  0
 10 11  1  0  0  0  0
 11 31  1  6  0  0  0
 11 13  1  0  0  0  0
 12 30  1  1  0  0  0
 12  1  1  0  0  0  0
 14 13  1  0  0  0  0
 15 16  1  6  0  0  0
 15 14  1  0  0  0  0
 17 19  1  6  0  0  0
 17 28  1  0  0  0  0
 18 34  1  0  0  0  0
 19 32  1  0  0  0  0
 20 18  1  1  0  0  0
 20 17  1  0  0  0  0
 20 43  1  0  0  0  0
 21 12  1  0  0  0  0
 22 21  1  0  0  0  0
 22 23  1  0  0  0  0
 23 24  1  6  0  0  0
 23 46  1  0  0  0  0
 24 33  1  0  0  0  0
 25 34  1  6  0  0  0
 25  4  1  0  0  0  0
 26 25  1  0  0  0  0
 27 35  1  6  0  0  0
 27 26  1  0  0  0  0
 27  2  1  0  0  0  0
 29 16  1  0  0  0  0
 40  8  1  0  0  0  0
 40  5  1  0  0  0  0
 41  9  1  0  0  0  0
 44 18  2  0  0  0  0
 45 15  1  0  0  0  0
 45 10  1  0  0  0  0
 46  1  1  0  0  0  0
M  END
>  <CHROM.1>
179.26836535,89.72433220,-55.97299342,-165.78774645,162.11594067,-177.50521606
172.65272051,-61.46894902,59.49668138,-70.26824135,165.75812022,-173.72649020
138.58233629,10.43314357,-16.23185666,9.88808387,0.63762507,0.09711445,0.90893017

>  <Name>
lig.pdb

>  <RI>
0

>  <Rbt.Current_Directory>
/home/afrankz/demos/rdock_decoys_rna/rnas/3wru

>  <Rbt.Executable>
rbdock ($Id: //depot/dev/client3/rdock/2013.1/src/exe/rbdock.cxx#4 $)

>  <Rbt.Library>
libRbt.so (2013.1, Build901 2013/11/27)

>  <Rbt.Parameter_File>
/export/apps/rDock/src/rDock_2013.1_src/data/scripts/dock_solv.prm

>  <Rbt.Receptor>
prm/pocket_docking_6.prm

>  <SCORE>
-4.85903

>  <SCORE.INTER>
0.0575517

>  <SCORE.INTER.CONST>
1

>  <SCORE.INTER.POLAR>
0

>  <SCORE.INTER.ROT>
13

>  <SCORE.INTER.SOLV>
20.6504

>  <SCORE.INTER.VDW>
-19.1118

>  <SCORE.INTER.norm>
0.00125112

>  <SCORE.INTRA>
-4.91658

>  <SCORE.INTRA.DIHEDRAL>
-10.5272

>  <SCORE.INTRA.DIHEDRAL.0>
19.7146

>  <SCORE.INTRA.POLAR>
0

>  <SCORE.INTRA.POLAR.0>
0

>  <SCORE.INTRA.REPUL>
0

>  <SCORE.INTRA.REPUL.0>
0

>  <SCORE.INTRA.SOLV>
0.734005

>  <SCORE.INTRA.SOLV.lig_0>
-116.697

>  <SCORE.INTRA.VDW>
-0.0199685

>  <SCORE.INTRA.VDW.0>
-7.06424

>  <SCORE.INTRA.norm>
-0.106882

>  <SCORE.RESTR>
0

>  <SCORE.RESTR.CAVITY>
0

>  <SCORE.RESTR.norm>
0

>  <SCORE.SYSTEM>
0

>  <SCORE.SYSTEM.CONST>
0

>  <SCORE.SYSTEM.DIHEDRAL>
0

>  <SCORE.SYSTEM.SOLV>
0

>  <SCORE.SYSTEM.norm>
0

>  <SCORE.heavy>
46

>  <SCORE.norm>
-0.105631

>  <RMSD>
10.097

$$$$
lig.pdb
 OpenBabel03061811583D
libRbt.so/2013.1/901 2013/11/27
 46 49  0  0  0  0  0  0  0  0999 V2000
   11.5383  -16.1128   12.9032 C   0  0  1  0  0  0  0  0  0  0  0  0
    9.6016  -16.9472   11.5029 C   0  0  1  0  0  0  0  0  0  0  0  0
    9.9558  -16.6708   10.0103 C   0  0  1  0  0  0  0  0  0  0  0  0
    9.2638  -17.8030    9.0926 C   0  0  2  0  0  0  0  0  0  0  0  0
    9.4880  -14.6474    8.5526 C   0  0  2  0  0  0  0  0  0  0  0  0
    8.6766  -13.3207    8.5721 C   0  0  1  0  0  0  0  0  0  0  0  0
    9.4492  -12.5888    7.5015 C   0  0  1  0  0  0  0  0  0  0  0  0
   10.9500  -12.8367    7.8554 C   0  0  1  0  0  0  0  0  0  0  0  0
   11.5813  -11.9114    8.9540 C   0  0  0  0  0  0  0  0  0  0  0  0
    9.2014  -12.3280    5.0614 C   0  0  1  0  0  0  0  0  0  0  0  0
    9.1846  -13.0267    3.7345 C   0  0  1  0  0  0  0  0  0  0  0  0
   11.9964  -14.7792   13.5396 C   0  0  1  0  0  0  0  0  0  0  0  0
    9.3710  -11.9534    2.6042 C   0  0  0  0  0  0  0  0  0  0  0  0
   10.5981  -11.2132    2.6752 C   0  0  0  0  0  0  0  0  0  0  0  0
   10.6344  -10.4948    3.9312 C   0  0  2  0  0  0  0  0  0  0  0  0
   11.9713   -9.6654    4.0715 C   0  0  0  0  0  0  0  0  0  0  0  0
    7.7118  -22.6148    8.3056 C   0  0  2  0  0  0  0  0  0  0  0  0
    9.7879  -21.6390    8.8444 C   0  0  0  0  0  0  0  0  0  0  0  0
    6.9115  -23.2666    7.3865 C   0  0  0  0  0  0  0  0  0  0  0  0
    8.9910  -22.6233    7.8549 C   0  0  1  0  0  0  0  0  0  0  0  0
   12.1969  -13.6524   12.4270 C   0  0  0  0  0  0  0  0  0  0  0  0
   13.2792  -14.1807   11.3678 C   0  0  0  0  0  0  0  0  0  0  0  0
   12.7242  -15.5393   10.7337 C   0  0  1  0  0  0  0  0  0  0  0  0
   13.6999  -16.1336    9.7108 C   0  0  0  0  0  0  0  0  0  0  0  0
    9.8777  -19.2125    9.5016 C   0  0  1  0  0  0  0  0  0  0  0  0
    9.4583  -19.4543   11.0480 C   0  0  0  0  0  0  0  0  0  0  0  0
   10.1012  -18.3400   11.9607 C   0  0  2  0  0  0  0  0  0  0  0  0
    7.5629  -23.2365    9.6021 F   0  0  0  0  0  0  0  0  0  0  0  0
   12.0718   -8.8925    5.4179 N   0  0  0  0  0  0  0  0  0  0  0  0
   10.9765  -14.3794   14.5786 N   0  0  0  0  0  0  0  0  0  0  0  0
   10.2281  -13.9389    3.5548 N   0  0  0  0  0  0  0  0  0  0  0  0
    5.5130  -23.4760    7.3454 N   0  0  0  0  0  0  0  0  0  0  0  0
   14.0477  -15.1818    8.7289 N   0  0  0  0  0  0  0  0  0  0  0  0
    9.2798  -20.2760    8.6747 N   0  0  0  0  0  0  0  0  0  0  0  0
    9.7163  -18.5408   13.3753 N   0  0  0  0  0  0  0  0  0  0  0  0
   10.2284  -15.9908   12.3477 O   0  0  0  0  0  0  0  0  0  0  0  0
    9.4258  -15.3043    9.6865 O   0  0  0  0  0  0  0  0  0  0  0  0
    9.5914  -17.5373    7.7818 O   0  0  0  0  0  0  0  0  0  0  0  0
    7.3561  -13.6103    8.2264 O   0  0  0  0  0  0  0  0  0  0  0  0
   10.8371  -14.2438    8.1257 O   0  0  0  0  0  0  0  0  0  0  0  0
   12.9995  -12.1692    8.9702 O   0  0  0  0  0  0  0  0  0  0  0  0
    9.0947  -13.1718    6.1455 O   0  0  0  0  0  0  0  0  0  0  0  0
    9.5926  -23.9361    7.8866 O   0  0  0  0  0  0  0  0  0  0  0  0
   10.6787  -21.9985    9.6317 O   0  0  0  0  0  0  0  0  0  0  0  0
   10.4784  -11.4526    5.0888 O   0  0  0  0  0  0  0  0  0  0  0  0
   12.4913  -16.5627   11.8330 O   0  0  0  0  0  0  0  0  0  0  0  0
  1 36  1  6  0  0  0
  2 36  1  1  0  0  0
  2  3  1  0  0  0  0
  3 37  1  6  0  0  0
  3  4  1  0  0  0  0
  4 38  1  6  0  0  0
  5 37  1  1  0  0  0
  5  6  1  0  0  0  0
  6  7  1  0  0  0  0
  6 39  1  6  0  0  0
  7 42  1  6  0  0  0
  8  9  1  1  0  0  0
  8  7  1  0  0  0  0
 10 42  1  1  0  0  0
 10 11  1  0  0  0  0
 11 31  1  1  0  0  0
 11 13  1  0  0  0  0
 12 30  1  1  0  0  0
 12  1  1  0  0  0  0
 14 13  1  0  0  0  0
 15 16  1  1  0  0  0
 15 14  1  0  0  0  0
 17 19  1  6  0  0  0
 17 28  1  0  0  0  0
 18 34  1  0  0  0  0
 19 32  1  0  0  0  0
 20 18  1  1  0  0  0
 20 17  1  0  0  0  0
 20 43  1  0  0  0  0
 21 12  1  0  0  0  0
 22 21  1  0  0  0  0
 22 23  1  0  0  0  0
 23 24  1  6  0  0  0
 23 46  1  0  0  0  0
 24 33  1  0  0  0  0
 25 34  1  6  0  0  0
 25  4  1  0  0  0  0
 26 25  1  0  0  0  0
 27 35  1  1  0  0  0
 27 26  1  0  0  0  0
 27  2  1  0  0  0  0
 29 16  1  0  0  0  0
 40  8  1  0  0  0  0
 40  5  1  0  0  0  0
 41  9  1  0  0  0  0
 44 18  2  0  0  0  0
 45 15  1  0  0  0  0
 45 10  1  0  0  0  0
 46  1  1  0  0  0  0
M  END
>  <CHROM.1>
169.01543814,-88.29300338,179.96348764,173.41721906,152.30133001,-171.24096416
165.17072752,-178.99851093,-176.56770433,-65.45142360,170.53883804,-53.33689379
175.97143145,10.21434687,-16.05919436,8.62716240,-2.00010505,-1.11471115
-0.74872947

>  <Name>
lig.pdb

>  <RI>
0

>  <Rbt.Current_Directory>
/home/afrankz/demos/rdock_decoys_rna/rnas/3wru

>  <Rbt.Executable>
rbdock ($Id: //depot/dev/client3/rdock/2013.1/src/exe/rbdock.cxx#4 $)

>  <Rbt.Library>
libRbt.so (2013.1, Build901 2013/11/27)

>  <Rbt.Parameter_File>
/export/apps/rDock/src/rDock_2013.1_src/data/scripts/dock_solv.prm

>  <Rbt.Receptor>
prm/pocket_docking_7.prm

>  <SCORE>
-3.99279

>  <SCORE.INTER>
0.0919704

>  <SCORE.INTER.CONST>
1

>  <SCORE.INTER.POLAR>
0

>  <SCORE.INTER.ROT>
13

>  <SCORE.INTER.SOLV>
23.2698

>  <SCORE.INTER.VDW>
-19.962

>  <SCORE.INTER.norm>
0.00199936

>  <SCORE.INTRA>
-4.08476

>  <SCORE.INTRA.DIHEDRAL>
-9.65765

>  <SCORE.INTRA.DIHEDRAL.0>
19.7146

>  <SCORE.INTRA.POLAR>
0

>  <SCORE.INTRA.POLAR.0>
0

>  <SCORE.INTRA.REPUL>
0

>  <SCORE.INTRA.REPUL.0>
0

>  <SCORE.INTRA.SOLV>
-0.155159

>  <SCORE.INTRA.SOLV.lig_0>
-116.697

>  <SCORE.INTRA.VDW>
0.821642

>  <SCORE.INTRA.VDW.0>
-7.06424

>  <SCORE.INTRA.norm>
-0.0887992

>  <SCORE.RESTR>
0

>  <SCORE.RESTR.CAVITY>
0

>  <SCORE.RESTR.norm>
0

>  <SCORE.SYSTEM>
0

>  <SCORE.SYSTEM.CONST>
0

>  <SCORE.SYSTEM.DIHEDRAL>
0

>  <SCORE.SYSTEM.SOLV>
0

>  <SCORE.SYSTEM.norm>
0

>  <SCORE.heavy>
46

>  <SCORE.norm>
-0.0867998

>  <RMSD>
10.103

$$$$
lig.pdb
 OpenBabel03061811583D
libRbt.so/2013.1/901 2013/11/27
 46 49  0  0  0  0  0  0  0  0999 V2000
   13.6565   -4.9184    1.8138 C   0  0  1  0  0  0  0  0  0  0  0  0
   13.2939   -7.1907    2.8688 C   0  0  1  0  0  0  0  0  0  0  0  0
   11.8789   -7.8196    2.6899 C   0  0  1  0  0  0  0  0  0  0  0  0
   11.5862   -8.8055    3.9331 C   0  0  2  0  0  0  0  0  0  0  0  0
    9.6677   -6.6727    2.2068 C   0  0  2  0  0  0  0  0  0  0  0  0
    9.2598   -5.3143    1.5688 C   0  0  1  0  0  0  0  0  0  0  0  0
    8.1731   -5.8308    0.6571 C   0  0  1  0  0  0  0  0  0  0  0  0
    8.7902   -7.0964   -0.0187 C   0  0  1  0  0  0  0  0  0  0  0  0
    9.7240   -6.8548   -1.2562 C   0  0  0  0  0  0  0  0  0  0  0  0
    5.7849   -6.4307    0.7995 C   0  0  1  0  0  0  0  0  0  0  0  0
    4.8323   -5.2728    0.7705 C   0  0  1  0  0  0  0  0  0  0  0  0
   15.1167   -4.4211    1.9308 C   0  0  1  0  0  0  0  0  0  0  0  0
    3.5334   -5.7155    0.0081 C   0  0  0  0  0  0  0  0  0  0  0  0
    2.8359   -6.8202    0.6011 C   0  0  0  0  0  0  0  0  0  0  0  0
    3.7146   -7.9704    0.6142 C   0  0  2  0  0  0  0  0  0  0  0  0
    3.0026   -9.2204    1.2665 C   0  0  0  0  0  0  0  0  0  0  0  0
   10.9179  -11.4655    7.6861 C   0  0  2  0  0  0  0  0  0  0  0  0
   12.5569  -10.3911    6.3776 C   0  0  0  0  0  0  0  0  0  0  0  0
   10.2277  -12.3405    6.8688 C   0  0  0  0  0  0  0  0  0  0  0  0
   12.2435  -11.5730    7.4207 C   0  0  1  0  0  0  0  0  0  0  0  0
   15.7519   -4.8340    3.3358 C   0  0  0  0  0  0  0  0  0  0  0  0
   14.8417   -4.2106    4.5000 C   0  0  0  0  0  0  0  0  0  0  0  0
   13.3618   -4.7915    4.3316 C   0  0  1  0  0  0  0  0  0  0  0  0
   12.4067   -4.2415    5.3977 C   0  0  0  0  0  0  0  0  0  0  0  0
   12.6637   -9.9754    3.8990 C   0  0  1  0  0  0  0  0  0  0  0  0
   14.1050   -9.2662    4.1126 C   0  0  0  0  0  0  0  0  0  0  0  0
   14.3989   -8.2746    2.9217 C   0  0  2  0  0  0  0  0  0  0  0  0
   10.5921  -11.7368    9.0681 F   0  0  0  0  0  0  0  0  0  0  0  0
    1.7580   -9.7007    0.4662 N   0  0  0  0  0  0  0  0  0  0  0  0
   15.8981   -4.9793    0.7658 N   0  0  0  0  0  0  0  0  0  0  0  0
    4.3978   -4.8573    2.0322 N   0  0  0  0  0  0  0  0  0  0  0  0
   10.1169  -12.4159    5.4605 N   0  0  0  0  0  0  0  0  0  0  0  0
   12.1860   -2.8596    5.2169 N   0  0  0  0  0  0  0  0  0  0  0  0
   12.4227  -10.9085    5.0142 N   0  0  0  0  0  0  0  0  0  0  0  0
   15.7073   -7.6097    3.1099 N   0  0  0  0  0  0  0  0  0  0  0  0
   13.6042   -6.3447    1.7691 O   0  0  0  0  0  0  0  0  0  0  0  0
   10.9016   -6.6810    2.6525 O   0  0  0  0  0  0  0  0  0  0  0  0
   10.3335   -9.3475    3.7517 O   0  0  0  0  0  0  0  0  0  0  0  0
    8.8017   -4.4739    2.5843 O   0  0  0  0  0  0  0  0  0  0  0  0
    9.3606   -7.6700    1.1694 O   0  0  0  0  0  0  0  0  0  0  0  0
   10.9919   -6.3880   -0.7536 O   0  0  0  0  0  0  0  0  0  0  0  0
    6.9528   -6.1842    1.4880 O   0  0  0  0  0  0  0  0  0  0  0  0
   13.0695  -11.4166    8.5952 O   0  0  0  0  0  0  0  0  0  0  0  0
   12.8489   -9.2268    6.6964 O   0  0  0  0  0  0  0  0  0  0  0  0
    4.9950   -7.6450    1.3466 O   0  0  0  0  0  0  0  0  0  0  0  0
   12.8189   -4.4268    2.9596 O   0  0  0  0  0  0  0  0  0  0  0  0
  1 36  1  1  0  0  0
  2 36  1  6  0  0  0
  2  3  1  0  0  0  0
  3 37  1  1  0  0  0
  3  4  1  0  0  0  0
  4 38  1  6  0  0  0
  5 37  1  6  0  0  0
  5  6  1  0  0  0  0
  6  7  1  0  0  0  0
  6 39  1  1  0  0  0
  7 42  1  1  0  0  0
  8  9  1  6  0  0  0
  8  7  1  0  0  0  0
 10 42  1  1  0  0  0
 10 11  1  0  0  0  0
 11 31  1  1  0  0  0
 11 13  1  0  0  0  0
 12 30  1  6  0  0  0
 12  1  1  0  0  0  0
 14 13  1  0  0  0  0
 15 16  1  1  0  0  0
 15 14  1  0  0  0  0
 17 19  1  6  0  0  0
 17 28  1  0  0  0  0
 18 34  1  0  0  0  0
 19 32  1  0  0  0  0
 20 18  1  6  0  0  0
 20 17  1  0  0  0  0
 20 43  1  0  0  0  0
 21 12  1  0  0  0  0
 22 21  1  0  0  0  0
 22 23  1  0  0  0  0
 23 24  1  1  0  0  0
 23 46  1  0  0  0  0
 24 33  1  0  0  0  0
 25 34  1  1  0  0  0
 25  4  1  0  0  0  0
 26 25  1  0  0  0  0
 27 35  1  1  0  0  0
 27 26  1  0  0  0  0
 27  2  1  0  0  0  0
 29 16  1  0  0  0  0
 40  8  1  0  0  0  0
 40  5  1  0  0  0  0
 41  9  1  0  0  0  0
 44 18  2  0  0  0  0
 45 15  1  0  0  0  0
 45 10  1  0  0  0  0
 46  1  1  0  0  0  0
M  END
>  <CHROM.1>
99.96415141,108.12283778,161.89303526,-146.50325617,168.08106363,76.38401612
-99.60706776,63.29496500,-61.78065547,-92.25819275,96.00053593,67.46838198
-63.19904075,10.34194496,-7.46905590,3.09909589,-0.38204989,-0.27262901,-0.69900606

>  <Name>
lig.pdb

>  <RI>
0

>  <Rbt.Current_Directory>
/home/afrankz/demos/rdock_decoys_rna/rnas/3wru

>  <Rbt.Executable>
rbdock ($Id: //depot/dev/client3/rdock/2013.1/src/exe/rbdock.cxx#4 $)

>  <Rbt.Library>
libRbt.so (2013.1, Build901 2013/11/27)

>  <Rbt.Parameter_File>
/export/apps/rDock/src/rDock_2013.1_src/data/scripts/dock_solv.prm

>  <Rbt.Receptor>
prm/blind_docking_20.prm

>  <SCORE>
23.0822

>  <SCORE.INTER>
11.6632

>  <SCORE.INTER.CONST>
1

>  <SCORE.INTER.POLAR>
0

>  <SCORE.INTER.ROT>
13

>  <SCORE.INTER.SOLV>
45.9578

>  <SCORE.INTER.VDW>
-19.8105

>  <SCORE.INTER.norm>
0.253548

>  <SCORE.INTRA>
9.49604

>  <SCORE.INTRA.DIHEDRAL>
10.021

>  <SCORE.INTRA.DIHEDRAL.0>
19.7146

>  <SCORE.INTRA.POLAR>
0

>  <SCORE.INTRA.POLAR.0>
0

>  <SCORE.INTRA.REPUL>
0

>  <SCORE.INTRA.REPUL.0>
0

>  <SCORE.INTRA.SOLV>
5.88534

>  <SCORE.INTRA.SOLV.lig_0>
-116.697

>  <SCORE.INTRA.VDW>
1.54286

>  <SCORE.INTRA.VDW.0>
-7.06424

>  <SCORE.INTRA.norm>
0.206436

>  <SCORE.RESTR>
1.92293

>  <SCORE.RESTR.CAVITY>
1.92293

>  <SCORE.RESTR.norm>
0.0418029

>  <SCORE.SYSTEM>
0

>  <SCORE.SYSTEM.CONST>
0

>  <SCORE.SYSTEM.DIHEDRAL>
0

>  <SCORE.SYSTEM.SOLV>
0

>  <SCORE.SYSTEM.norm>
0

>  <SCORE.heavy>
46

>  <SCORE.norm>
0.501787

>  <RMSD>
10.174

$$$$
lig.pdb
 OpenBabel03061811583D
libRbt.so/2013.1/901 2013/11/27
 46 49  0  0  0  0  0  0  0  0999 V2000
   14.5155  -16.6221   10.8775 C   0  0  1  0  0  0  0  0  0  0  0  0
   12.0353  -16.2913   10.4937 C   0  0  1  0  0  0  0  0  0  0  0  0
   11.1119  -15.9591    9.2827 C   0  0  1  0  0  0  0  0  0  0  0  0
    9.6187  -15.6815    9.8271 C   0  0  2  0  0  0  0  0  0  0  0  0
   11.1851  -14.0204    7.6474 C   0  0  2  0  0  0  0  0  0  0  0  0
   12.0411  -12.7657    7.3134 C   0  0  1  0  0  0  0  0  0  0  0  0
   11.6029  -12.5908    5.8794 C   0  0  1  0  0  0  0  0  0  0  0  0
   11.6684  -14.0257    5.2665 C   0  0  1  0  0  0  0  0  0  0  0  0
   13.0747  -14.5266    4.7835 C   0  0  0  0  0  0  0  0  0  0  0  0
    9.9211  -11.0601    4.9243 C   0  0  1  0  0  0  0  0  0  0  0  0
    9.9924  -11.5275    3.5012 C   0  0  1  0  0  0  0  0  0  0  0  0
   14.8105  -15.2304   11.4852 C   0  0  1  0  0  0  0  0  0  0  0  0
    9.7246  -10.3000    2.5599 C   0  0  0  0  0  0  0  0  0  0  0  0
   10.6617   -9.2222    2.6970 C   0  0  0  0  0  0  0  0  0  0  0  0
   10.5959   -8.7199    4.0528 C   0  0  2  0  0  0  0  0  0  0  0  0
   11.6160   -7.5333    4.2680 C   0  0  0  0  0  0  0  0  0  0  0  0
    5.5686  -14.3812   12.1950 C   0  0  2  0  0  0  0  0  0  0  0  0
    7.4964  -15.7166   11.9644 C   0  0  0  0  0  0  0  0  0  0  0  0
    5.2857  -14.1693   10.8590 C   0  0  0  0  0  0  0  0  0  0  0  0
    5.9400  -15.6747   12.3632 C   0  0  1  0  0  0  0  0  0  0  0  0
   15.2314  -14.1878   10.3521 C   0  0  0  0  0  0  0  0  0  0  0  0
   16.5218  -14.7648    9.5944 C   0  0  0  0  0  0  0  0  0  0  0  0
   16.1320  -16.1842    8.9704 C   0  0  1  0  0  0  0  0  0  0  0  0
   17.3113  -16.8272    8.2307 C   0  0  0  0  0  0  0  0  0  0  0  0
    9.0878  -17.0155   10.5124 C   0  0  1  0  0  0  0  0  0  0  0  0
   10.0680  -17.2952   11.7721 C   0  0  0  0  0  0  0  0  0  0  0  0
   11.5409  -17.5408   11.2640 C   0  0  2  0  0  0  0  0  0  0  0  0
    4.4234  -14.0111   12.9957 F   0  0  0  0  0  0  0  0  0  0  0  0
   11.3251   -6.3055    3.3580 N   0  0  0  0  0  0  0  0  0  0  0  0
   13.5870  -14.7812   12.2471 N   0  0  0  0  0  0  0  0  0  0  0  0
   11.2448  -12.0186    3.1220 N   0  0  0  0  0  0  0  0  0  0  0  0
    4.2723  -14.6932   10.0223 N   0  0  0  0  0  0  0  0  0  0  0  0
   16.9252  -18.0366    7.6147 N   0  0  0  0  0  0  0  0  0  0  0  0
    7.7171  -16.8079   11.0131 N   0  0  0  0  0  0  0  0  0  0  0  0
   12.4504  -17.7853   12.4053 N   0  0  0  0  0  0  0  0  0  0  0  0
   13.3538  -16.5819   10.0480 O   0  0  0  0  0  0  0  0  0  0  0  0
   11.6883  -14.7413    8.6210 O   0  0  0  0  0  0  0  0  0  0  0  0
    8.8240  -15.3915    8.7407 O   0  0  0  0  0  0  0  0  0  0  0  0
   11.6479  -11.7293    8.1611 O   0  0  0  0  0  0  0  0  0  0  0  0
   11.0334  -14.7125    6.3577 O   0  0  0  0  0  0  0  0  0  0  0  0
   12.9295  -15.9073    4.3955 O   0  0  0  0  0  0  0  0  0  0  0  0
   10.1884  -12.0405    5.8549 O   0  0  0  0  0  0  0  0  0  0  0  0
    5.7734  -16.1386   13.7209 O   0  0  0  0  0  0  0  0  0  0  0  0
    8.3567  -14.9300   12.3931 O   0  0  0  0  0  0  0  0  0  0  0  0
   10.8592   -9.8335    5.0390 O   0  0  0  0  0  0  0  0  0  0  0  0
   15.6810  -17.1256   10.0751 O   0  0  0  0  0  0  0  0  0  0  0  0
  1 36  1  6  0  0  0
  2 36  1  6  0  0  0
  2  3  1  0  0  0  0
  3 37  1  1  0  0  0
  3  4  1  0  0  0  0
  4 38  1  6  0  0  0
  5 37  1  1  0  0  0
  5  6  1  0  0  0  0
  6  7  1  0  0  0  0
  6 39  1  1  0  0  0
  7 42  1  1  0  0  0
  8  9  1  1  0  0  0
  8  7  1  0  0  0  0
 10 42  1  1  0  0  0
 10 11  1  0  0  0  0
 11 31  1  6  0  0  0
 11 13  1  0  0  0  0
 12 30  1  6  0  0  0
 12  1  1  0  0  0  0
 14 13  1  0  0  0  0
 15 16  1  6  0  0  0
 15 14  1  0  0  0  0
 17 19  1  6  0  0  0
 17 28  1  0  0  0  0
 18 34  1  0  0  0  0
 19 32  1  0  0  0  0
 20 18  1  1  0  0  0
 20 17  1  0  0  0  0
 20 43  1  0  0  0  0
 21 12  1  0  0  0  0
 22 21  1  0  0  0  0
 22 23  1  0  0  0  0
 23 24  1  1  0  0  0
 23 46  1  0  0  0  0
 24 33  1  0  0  0  0
 25 34  1  1  0  0  0
 25  4  1  0  0  0  0
 26 25  1  0  0  0  0
 27 35  1  1  0  0  0
 27 26  1  0  0  0  0
 27  2  1  0  0  0  0
 29 16  1  0  0  0  0
 40  8  1  0  0  0  0
 40  5  1  0  0  0  0
 41  9  1  0  0  0  0
 44 18  2  0  0  0  0
 45 15  1  0  0  0  0
 45 10  1  0  0  0  0
 46  1  1  0  0  0  0
M  END
>  <CHROM.1>
-63.74353399,164.64179536,-172.63667316,175.51424412,138.59004657,173.89072872
66.39213967,61.74292058,65.28218491,-129.99691933,82.38038455,-176.23003955
-57.08757676,10.97189919,-14.20110967,8.48080344,-1.82965619,0.28591723,-0.86848577

>  <Name>
lig.pdb

>  <RI>
0

>  <Rbt.Current_Directory>
/home/afrankz/demos/rdock_decoys_rna/rnas/3wru

>  <Rbt.Executable>
rbdock ($Id: //depot/dev/client3/rdock/2013.1/src/exe/rbdock.cxx#4 $)

>  <Rbt.Library>
libRbt.so (2013.1, Build901 2013/11/27)

>  <Rbt.Parameter_File>
/export/apps/rDock/src/rDock_2013.1_src/data/scripts/dock_solv.prm

>  <Rbt.Receptor>
prm/pocket_docking_6.prm

>  <SCORE>
-0.564101

>  <SCORE.INTER>
-1.65948

>  <SCORE.INTER.CONST>
1

>  <SCORE.INTER.POLAR>
0

>  <SCORE.INTER.ROT>
13

>  <SCORE.INTER.SOLV>
23.5865

>  <SCORE.INTER.VDW>
-21.2352

>  <SCORE.INTER.norm>
-0.0360756

>  <SCORE.INTRA>
1.09538

>  <SCORE.INTRA.DIHEDRAL>
-8.16979

>  <SCORE.INTRA.DIHEDRAL.0>
19.7146

>  <SCORE.INTRA.POLAR>
0

>  <SCORE.INTRA.POLAR.0>
0

>  <SCORE.INTRA.REPUL>
0

>  <SCORE.INTRA.REPUL.0>
0

>  <SCORE.INTRA.SOLV>
4.64857

>  <SCORE.INTRA.SOLV.lig_0>
-116.697

>  <SCORE.INTRA.VDW>
2.85599

>  <SCORE.INTRA.VDW.0>
-7.06424

>  <SCORE.INTRA.norm>
0.0238125

>  <SCORE.RESTR>
0

>  <SCORE.RESTR.CAVITY>
0

>  <SCORE.RESTR.norm>
0

>  <SCORE.SYSTEM>
0

>  <SCORE.SYSTEM.CONST>
0

>  <SCORE.SYSTEM.DIHEDRAL>
0

>  <SCORE.SYSTEM.SOLV>
0

>  <SCORE.SYSTEM.norm>
0

>  <SCORE.heavy>
46

>  <SCORE.norm>
-0.0122631

>  <RMSD>
10.175

$$$$
lig.pdb
 OpenBabel03061811583D
libRbt.so/2013.1/901 2013/11/27
 46 49  0  0  0  0  0  0  0  0999 V2000
   16.4440  -17.1220    9.0414 C   0  0  1  0  0  0  0  0  0  0  0  0
   14.0252  -16.8293    8.3545 C   0  0  1  0  0  0  0  0  0  0  0  0
   13.2597  -16.0976    7.2106 C   0  0  1  0  0  0  0  0  0  0  0  0
   11.6798  -16.1336    7.5353 C   0  0  2  0  0  0  0  0  0  0  0  0
   13.6257  -13.7820    6.2402 C   0  0  2  0  0  0  0  0  0  0  0  0
   14.2541  -12.4097    6.6153 C   0  0  1  0  0  0  0  0  0  0  0  0
   14.4786  -11.8940    5.2144 C   0  0  1  0  0  0  0  0  0  0  0  0
   15.1131  -13.0964    4.4458 C   0  0  1  0  0  0  0  0  0  0  0  0
   16.6570  -13.3143    4.6211 C   0  0  0  0  0  0  0  0  0  0  0  0
   12.6169  -10.2873    5.0241 C   0  0  1  0  0  0  0  0  0  0  0  0
   11.1466  -10.1404    4.7681 C   0  0  1  0  0  0  0  0  0  0  0  0
   16.4998  -16.0122   10.1177 C   0  0  1  0  0  0  0  0  0  0  0  0
   10.7009   -8.7085    5.2322 C   0  0  0  0  0  0  0  0  0  0  0  0
   11.3567   -7.6266    4.5554 C   0  0  0  0  0  0  0  0  0  0  0  0
   12.7789   -7.7146    4.8094 C   0  0  2  0  0  0  0  0  0  0  0  0
   13.5583   -6.5506    4.0797 C   0  0  0  0  0  0  0  0  0  0  0  0
    7.2539  -19.1970    7.8920 C   0  0  2  0  0  0  0  0  0  0  0  0
    8.8663  -17.9519    6.7076 C   0  0  0  0  0  0  0  0  0  0  0  0
    6.0836  -19.2086    8.6271 C   0  0  0  0  0  0  0  0  0  0  0  0
    7.3537  -18.0075    7.2481 C   0  0  1  0  0  0  0  0  0  0  0  0
   16.9741  -14.6250    9.4865 C   0  0  0  0  0  0  0  0  0  0  0  0
   18.4154  -14.8450    8.8184 C   0  0  0  0  0  0  0  0  0  0  0  0
   18.2716  -15.9794    7.7012 C   0  0  1  0  0  0  0  0  0  0  0  0
   19.6079  -16.2728    7.0084 C   0  0  0  0  0  0  0  0  0  0  0  0
   11.2153  -17.6550    7.5573 C   0  0  1  0  0  0  0  0  0  0  0  0
   12.0230  -18.3546    8.7755 C   0  0  0  0  0  0  0  0  0  0  0  0
   13.5738  -18.3045    8.4922 C   0  0  2  0  0  0  0  0  0  0  0  0
    7.2722  -20.3308    6.9955 F   0  0  0  0  0  0  0  0  0  0  0  0
   13.3568   -6.5542    2.5371 N   0  0  0  0  0  0  0  0  0  0  0  0
   15.1368  -15.9104   10.7590 N   0  0  0  0  0  0  0  0  0  0  0  0
   10.7897  -10.2204    3.4191 N   0  0  0  0  0  0  0  0  0  0  0  0
    5.5467  -20.1686    9.5168 N   0  0  0  0  0  0  0  0  0  0  0  0
   20.5644  -16.7469    7.9311 N   0  0  0  0  0  0  0  0  0  0  0  0
    9.7705  -17.7317    7.8383 N   0  0  0  0  0  0  0  0  0  0  0  0
   14.3255  -18.9290    9.6032 N   0  0  0  0  0  0  0  0  0  0  0  0
   15.4205  -16.8531    8.0825 O   0  0  0  0  0  0  0  0  0  0  0  0
   13.7791  -14.6899    7.1747 O   0  0  0  0  0  0  0  0  0  0  0  0
   11.0271  -15.4829    6.5122 O   0  0  0  0  0  0  0  0  0  0  0  0
   13.3139  -11.6833    7.3473 O   0  0  0  0  0  0  0  0  0  0  0  0
   14.2176  -14.1094    4.9334 O   0  0  0  0  0  0  0  0  0  0  0  0
   16.9042  -13.5293    6.0249 O   0  0  0  0  0  0  0  0  0  0  0  0
   13.1444  -11.4919    4.6124 O   0  0  0  0  0  0  0  0  0  0  0  0
    6.4363  -17.8866    6.1390 O   0  0  0  0  0  0  0  0  0  0  0  0
    9.1969  -18.0916    5.5185 O   0  0  0  0  0  0  0  0  0  0  0  0
   13.3074   -9.0619    4.3766 O   0  0  0  0  0  0  0  0  0  0  0  0
   17.7615  -17.2635    8.3344 O   0  0  0  0  0  0  0  0  0  0  0  0
  1 36  1  6  0  0  0
  2 36  1  6  0  0  0
  2  3  1  0  0  0  0
  3 37  1  1  0  0  0
  3  4  1  0  0  0  0
  4 38  1  6  0  0  0
  5 37  1  1  0  0  0
  5  6  1  0  0  0  0
  6  7  1  0  0  0  0
  6 39  1  1  0  0  0
  7 42  1  6  0  0  0
  8  9  1  1  0  0  0
  8  7  1  0  0  0  0
 10 42  1  6  0  0  0
 10 11  1  0  0  0  0
 11 31  1  6  0  0  0
 11 13  1  0  0  0  0
 12 30  1  6  0  0  0
 12  1  1  0  0  0  0
 14 13  1  0  0  0  0
 15 16  1  6  0  0  0
 15 14  1  0  0  0  0
 17 19  1  6  0  0  0
 17 28  1  0  0  0  0
 18 34  1  0  0  0  0
 19 32  1  0  0  0  0
 20 18  1  6  0  0  0
 20 17  1  0  0  0  0
 20 43  1  0  0  0  0
 21 12  1  0  0  0  0
 22 21  1  0  0  0  0
 22 23  1  0  0  0  0
 23 24  1  1  0  0  0
 23 46  1  0  0  0  0
 24 33  1  0  0  0  0
 25 34  1  1  0  0  0
 25  4  1  0  0  0  0
 26 25  1  0  0  0  0
 27 35  1  1  0  0  0
 27 26  1  0  0  0  0
 27  2  1  0  0  0  0
 29 16  1  0  0  0  0
 40  8  1  0  0  0  0
 40  5  1  0  0  0  0
 41  9  1  0  0  0  0
 44 18  2  0  0  0  0
 45 15  1  0  0  0  0
 45 10  1  0  0  0  0
 46  1  1  0  0  0  0
M  END
>  <CHROM.1>
-65.44771777,162.99049746,165.99992023,176.72624398,77.47580179,59.71239405
-161.16360986,-59.00836452,-176.37595737,-72.53659405,167.47371416,61.45879353
100.77751388,12.99351073,-14.69795414,6.80242530,-2.08051983,-0.16091232
-0.41955866

>  <Name>
lig.pdb

>  <RI>
0

>  <Rbt.Current_Directory>
/home/afrankz/demos/rdock_decoys_rna/rnas/3wru

>  <Rbt.Executable>
rbdock ($Id: //depot/dev/client3/rdock/2013.1/src/exe/rbdock.cxx#4 $)

>  <Rbt.Library>
libRbt.so (2013.1, Build901 2013/11/27)

>  <Rbt.Parameter_File>
/export/apps/rDock/src/rDock_2013.1_src/data/scripts/dock_solv.prm

>  <Rbt.Receptor>
prm/pocket_docking_8.prm

>  <SCORE>
-2.22569

>  <SCORE.INTER>
0.661719

>  <SCORE.INTER.CONST>
1

>  <SCORE.INTER.POLAR>
0

>  <SCORE.INTER.ROT>
13

>  <SCORE.INTER.SOLV>
19.8132

>  <SCORE.INTER.VDW>
-18.4299

>  <SCORE.INTER.norm>
0.0143852

>  <SCORE.INTRA>
-2.88741

>  <SCORE.INTRA.DIHEDRAL>
-11.5693

>  <SCORE.INTRA.DIHEDRAL.0>
19.7146

>  <SCORE.INTRA.POLAR>
0

>  <SCORE.INTRA.POLAR.0>
0

>  <SCORE.INTRA.REPUL>
0.0109322

>  <SCORE.INTRA.REPUL.0>
0

>  <SCORE.INTRA.SOLV>
3.15365

>  <SCORE.INTRA.SOLV.lig_0>
-116.697

>  <SCORE.INTRA.VDW>
1.26576

>  <SCORE.INTRA.VDW.0>
-7.06424

>  <SCORE.INTRA.norm>
-0.0627699

>  <SCORE.RESTR>
0

>  <SCORE.RESTR.CAVITY>
0

>  <SCORE.RESTR.norm>
0

>  <SCORE.SYSTEM>
0

>  <SCORE.SYSTEM.CONST>
0

>  <SCORE.SYSTEM.DIHEDRAL>
0

>  <SCORE.SYSTEM.SOLV>
0

>  <SCORE.SYSTEM.norm>
0

>  <SCORE.heavy>
46

>  <SCORE.norm>
-0.0483847

>  <RMSD>
10.186

$$$$
lig.pdb
 OpenBabel03061811583D
libRbt.so/2013.1/901 2013/11/27
 46 49  0  0  0  0  0  0  0  0999 V2000
   13.6699  -15.0774   11.5036 C   0  0  1  0  0  0  0  0  0  0  0  0
   11.3584  -14.9708   10.4772 C   0  0  1  0  0  0  0  0  0  0  0  0
   11.0842  -16.2506    9.6306 C   0  0  1  0  0  0  0  0  0  0  0  0
    9.5054  -16.5790    9.6795 C   0  0  2  0  0  0  0  0  0  0  0  0
   11.2716  -14.8986    7.4917 C   0  0  2  0  0  0  0  0  0  0  0  0
    9.7912  -14.8461    7.0180 C   0  0  1  0  0  0  0  0  0  0  0  0
    9.6898  -13.3534    6.8175 C   0  0  1  0  0  0  0  0  0  0  0  0
   10.3431  -12.7361    8.0948 C   0  0  1  0  0  0  0  0  0  0  0  0
    9.4399  -12.6332    9.3736 C   0  0  0  0  0  0  0  0  0  0  0  0
   10.8424  -11.6501    5.4559 C   0  0  1  0  0  0  0  0  0  0  0  0
    9.9998  -10.8319    4.5235 C   0  0  1  0  0  0  0  0  0  0  0  0
   15.1007  -14.5869   11.1788 C   0  0  1  0  0  0  0  0  0  0  0  0
   10.5942   -9.3803    4.4593 C   0  0  0  0  0  0  0  0  0  0  0  0
   11.9452   -9.3051    3.9821 C   0  0  0  0  0  0  0  0  0  0  0  0
   12.7967  -10.0563    4.8797 C   0  0  2  0  0  0  0  0  0  0  0  0
   14.3009  -10.0178    4.3992 C   0  0  0  0  0  0  0  0  0  0  0  0
    5.4614  -19.1396   11.2375 C   0  0  2  0  0  0  0  0  0  0  0  0
    7.2351  -18.0758   12.3668 C   0  0  0  0  0  0  0  0  0  0  0  0
    5.5886  -20.4319   11.7106 C   0  0  0  0  0  0  0  0  0  0  0  0
    5.6435  -18.2770   12.2681 C   0  0  1  0  0  0  0  0  0  0  0  0
   15.6747  -15.3145    9.8792 C   0  0  0  0  0  0  0  0  0  0  0  0
   15.6598  -16.8965   10.1426 C   0  0  0  0  0  0  0  0  0  0  0  0
   14.1504  -17.3313   10.4401 C   0  0  1  0  0  0  0  0  0  0  0  0
   14.0325  -18.8346   10.7186 C   0  0  0  0  0  0  0  0  0  0  0  0
    9.1114  -16.8827   11.1906 C   0  0  1  0  0  0  0  0  0  0  0  0
    9.3943  -15.5152   12.0129 C   0  0  0  0  0  0  0  0  0  0  0  0
   10.9297  -15.1591   11.9535 C   0  0  2  0  0  0  0  0  0  0  0  0
    4.1782  -18.9867   10.5897 F   0  0  0  0  0  0  0  0  0  0  0  0
   15.2462  -10.8819    5.2825 N   0  0  0  0  0  0  0  0  0  0  0  0
   15.0584  -13.0861   11.0201 N   0  0  0  0  0  0  0  0  0  0  0  0
    9.9974  -11.2899    3.2030 N   0  0  0  0  0  0  0  0  0  0  0  0
    6.6714  -21.0996   12.3296 N   0  0  0  0  0  0  0  0  0  0  0  0
   14.2984  -19.5885    9.5559 N   0  0  0  0  0  0  0  0  0  0  0  0
    7.6751  -17.2015   11.2775 N   0  0  0  0  0  0  0  0  0  0  0  0
   11.2012  -13.9049   12.6902 N   0  0  0  0  0  0  0  0  0  0  0  0
   12.7484  -14.6724   10.4906 O   0  0  0  0  0  0  0  0  0  0  0  0
   11.5373  -15.9487    8.2318 O   0  0  0  0  0  0  0  0  0  0  0  0
    9.2897  -17.7114    8.9263 O   0  0  0  0  0  0  0  0  0  0  0  0
    9.6814  -15.5890    5.8419 O   0  0  0  0  0  0  0  0  0  0  0  0
   11.4951  -13.5946    8.1358 O   0  0  0  0  0  0  0  0  0  0  0  0
    8.7462  -13.8892    9.5123 O   0  0  0  0  0  0  0  0  0  0  0  0
   10.4511  -12.9671    5.5624 O   0  0  0  0  0  0  0  0  0  0  0  0
    5.0042  -16.9994   12.0555 O   0  0  0  0  0  0  0  0  0  0  0  0
    7.9572  -18.5773   13.2441 O   0  0  0  0  0  0  0  0  0  0  0  0
   12.3109  -11.4821    4.9943 O   0  0  0  0  0  0  0  0  0  0  0  0
   13.6245  -16.5718   11.6470 O   0  0  0  0  0  0  0  0  0  0  0  0
  1 36  1  6  0  0  0
  2 36  1  1  0  0  0
  2  3  1  0  0  0  0
  3 37  1  6  0  0  0
  3  4  1  0  0  0  0
  4 38  1  6  0  0  0
  5 37  1  1  0  0  0
  5  6  1  0  0  0  0
  6  7  1  0  0  0  0
  6 39  1  6  0  0  0
  7 42  1  6  0  0  0
  8  9  1  1  0  0  0
  8  7  1  0  0  0  0
 10 42  1  6  0  0  0
 10 11  1  0  0  0  0
 11 31  1  6  0  0  0
 11 13  1  0  0  0  0
 12 30  1  6  0  0  0
 12  1  1  0  0  0  0
 14 13  1  0  0  0  0
 15 16  1  6  0  0  0
 15 14  1  0  0  0  0
 17 19  1  1  0  0  0
 17 28  1  0  0  0  0
 18 34  1  0  0  0  0
 19 32  1  0  0  0  0
 20 18  1  6  0  0  0
 20 17  1  0  0  0  0
 20 43  1  0  0  0  0
 21 12  1  0  0  0  0
 22 21  1  0  0  0  0
 22 23  1  0  0  0  0
 23 24  1  1  0  0  0
 23 46  1  0  0  0  0
 24 33  1  0  0  0  0
 25 34  1  6  0  0  0
 25  4  1  0  0  0  0
 26 25  1  0  0  0  0
 27 35  1  1  0  0  0
 27 26  1  0  0  0  0
 27  2  1  0  0  0  0
 29 16  1  0  0  0  0
 40  8  1  0  0  0  0
 40  5  1  0  0  0  0
 41  9  1  0  0  0  0
 44 18  2  0  0  0  0
 45 15  1  0  0  0  0
 45 10  1  0  0  0  0
 46  1  1  0  0  0  0
M  END
>  <CHROM.1>
179.33034431,-94.79810995,-48.48388945,-70.31508568,-159.19919482,45.03607873
-103.25624959,-176.53479664,-60.62266187,75.41248141,85.06393886,-68.30173159
152.29987392,10.63909089,-15.09961313,9.07396986,-1.08047533,0.15283385,2.34736911

>  <Name>
lig.pdb

>  <RI>
0

>  <Rbt.Current_Directory>
/home/afrankz/demos/rdock_decoys_rna/rnas/3wru

>  <Rbt.Executable>
rbdock ($Id: //depot/dev/client3/rdock/2013.1/src/exe/rbdock.cxx#4 $)

>  <Rbt.Library>
libRbt.so (2013.1, Build901 2013/11/27)

>  <Rbt.Parameter_File>
/export/apps/rDock/src/rDock_2013.1_src/data/scripts/dock_solv.prm

>  <Rbt.Receptor>
prm/pocket_docking_4.prm

>  <SCORE>
4.54163

>  <SCORE.INTER>
1.73217

>  <SCORE.INTER.CONST>
1

>  <SCORE.INTER.POLAR>
0

>  <SCORE.INTER.ROT>
13

>  <SCORE.INTER.SOLV>
24.9923

>  <SCORE.INTER.VDW>
-19.4426

>  <SCORE.INTER.norm>
0.0376558

>  <SCORE.INTRA>
2.80947

>  <SCORE.INTRA.DIHEDRAL>
-1.73344

>  <SCORE.INTRA.DIHEDRAL.0>
19.7146

>  <SCORE.INTRA.POLAR>
0

>  <SCORE.INTRA.POLAR.0>
0

>  <SCORE.INTRA.REPUL>
0.11248

>  <SCORE.INTRA.REPUL.0>
0

>  <SCORE.INTRA.SOLV>
2.16437

>  <SCORE.INTRA.SOLV.lig_0>
-116.697

>  <SCORE.INTRA.VDW>
2.0316

>  <SCORE.INTRA.VDW.0>
-7.06424

>  <SCORE.INTRA.norm>
0.0610753

>  <SCORE.RESTR>
0

>  <SCORE.RESTR.CAVITY>
0

>  <SCORE.RESTR.norm>
0

>  <SCORE.SYSTEM>
0

>  <SCORE.SYSTEM.CONST>
0

>  <SCORE.SYSTEM.DIHEDRAL>
0

>  <SCORE.SYSTEM.SOLV>
0

>  <SCORE.SYSTEM.norm>
0

>  <SCORE.heavy>
46

>  <SCORE.norm>
0.0987311

>  <RMSD>
10.215

$$$$
lig.pdb
 OpenBabel03061811583D
libRbt.so/2013.1/901 2013/11/27
 46 49  0  0  0  0  0  0  0  0999 V2000
   11.0398  -14.1831   11.2008 C   0  0  1  0  0  0  0  0  0  0  0  0
    9.7692  -16.0277   10.0215 C   0  0  1  0  0  0  0  0  0  0  0  0
    9.5311  -17.5557   10.2173 C   0  0  1  0  0  0  0  0  0  0  0  0
    8.7137  -18.1223    8.9470 C   0  0  2  0  0  0  0  0  0  0  0  0
   11.8823  -18.1530    9.4738 C   0  0  2  0  0  0  0  0  0  0  0  0
   12.9539  -19.2488    9.7377 C   0  0  1  0  0  0  0  0  0  0  0  0
   13.5086  -19.3388    8.3366 C   0  0  1  0  0  0  0  0  0  0  0  0
   12.2497  -19.3870    7.4136 C   0  0  1  0  0  0  0  0  0  0  0  0
   11.5543  -20.7822    7.2358 C   0  0  0  0  0  0  0  0  0  0  0  0
   15.0280  -18.0823    6.8545 C   0  0  1  0  0  0  0  0  0  0  0  0
   15.9760  -19.2267    6.6534 C   0  0  1  0  0  0  0  0  0  0  0  0
   12.3548  -14.2042   12.0154 C   0  0  1  0  0  0  0  0  0  0  0  0
   16.7068  -19.0320    5.2777 C   0  0  0  0  0  0  0  0  0  0  0  0
   17.4749  -17.8248    5.1712 C   0  0  0  0  0  0  0  0  0  0  0  0
   16.5849  -16.6937    5.3251 C   0  0  2  0  0  0  0  0  0  0  0  0
   17.3775  -15.3310    5.2260 C   0  0  0  0  0  0  0  0  0  0  0  0
    5.7618  -19.5895    5.8153 C   0  0  2  0  0  0  0  0  0  0  0  0
    7.0794  -17.7328    6.4231 C   0  0  0  0  0  0  0  0  0  0  0  0
    4.7634  -20.1346    5.0303 C   0  0  0  0  0  0  0  0  0  0  0  0
    6.0615  -18.3532    5.3451 C   0  0  1  0  0  0  0  0  0  0  0  0
   12.0712  -14.5238   13.5533 C   0  0  0  0  0  0  0  0  0  0  0  0
   11.0669  -13.4091   14.1200 C   0  0  0  0  0  0  0  0  0  0  0  0
    9.7260  -13.4682   13.2514 C   0  0  1  0  0  0  0  0  0  0  0  0
    8.7004  -12.4249   13.7108 C   0  0  0  0  0  0  0  0  0  0  0  0
    7.2995  -17.3949    8.9061 C   0  0  1  0  0  0  0  0  0  0  0  0
    7.6095  -15.8209    8.6778 C   0  0  0  0  0  0  0  0  0  0  0  0
    8.4343  -15.2524    9.8962 C   0  0  2  0  0  0  0  0  0  0  0  0
    6.9002  -20.4801    5.8359 F   0  0  0  0  0  0  0  0  0  0  0  0
   18.0512  -15.1160    3.8404 N   0  0  0  0  0  0  0  0  0  0  0  0
   13.2822  -15.2150   11.3847 N   0  0  0  0  0  0  0  0  0  0  0  0
   16.9951  -19.3001    7.6071 N   0  0  0  0  0  0  0  0  0  0  0  0
    4.0090  -21.3234    5.1675 N   0  0  0  0  0  0  0  0  0  0  0  0
    9.1715  -11.1148   13.4809 N   0  0  0  0  0  0  0  0  0  0  0  0
    6.5137  -17.8955    7.7640 N   0  0  0  0  0  0  0  0  0  0  0  0
    8.7358  -13.8177    9.6955 N   0  0  0  0  0  0  0  0  0  0  0  0
   10.4534  -15.4838   11.1429 O   0  0  0  0  0  0  0  0  0  0  0  0
   10.8854  -18.1936   10.3256 O   0  0  0  0  0  0  0  0  0  0  0  0
    8.5161  -19.4708    9.1439 O   0  0  0  0  0  0  0  0  0  0  0  0
   13.8589  -18.7581   10.6797 O   0  0  0  0  0  0  0  0  0  0  0  0
   11.5171  -18.3328    8.0598 O   0  0  0  0  0  0  0  0  0  0  0  0
   10.5250  -20.6257    6.2388 O   0  0  0  0  0  0  0  0  0  0  0  0
   14.3555  -18.1104    8.0570 O   0  0  0  0  0  0  0  0  0  0  0  0
    6.6881  -18.3801    4.0440 O   0  0  0  0  0  0  0  0  0  0  0  0
    8.1742  -17.2163    6.1450 O   0  0  0  0  0  0  0  0  0  0  0  0
   15.8433  -16.7838    6.6380 O   0  0  0  0  0  0  0  0  0  0  0  0
   10.0497  -13.2180   11.7876 O   0  0  0  0  0  0  0  0  0  0  0  0
  1 36  1  1  0  0  0
  2 36  1  1  0  0  0
  2  3  1  0  0  0  0
  3 37  1  6  0  0  0
  3  4  1  0  0  0  0
  4 38  1  1  0  0  0
  5 37  1  1  0  0  0
  5  6  1  0  0  0  0
  6  7  1  0  0  0  0
  6 39  1  1  0  0  0
  7 42  1  6  0  0  0
  8  9  1  1  0  0  0
  8  7  1  0  0  0  0
 10 42  1  1  0  0  0
 10 11  1  0  0  0  0
 11 31  1  1  0  0  0
 11 13  1  0  0  0  0
 12 30  1  6  0  0  0
 12  1  1  0  0  0  0
 14 13  1  0  0  0  0
 15 16  1  1  0  0  0
 15 14  1  0  0  0  0
 17 19  1  6  0  0  0
 17 28  1  0  0  0  0
 18 34  1  0  0  0  0
 19 32  1  0  0  0  0
 20 18  1  1  0  0  0
 20 17  1  0  0  0  0
 20 43  1  0  0  0  0
 21 12  1  0  0  0  0
 22 21  1  0  0  0  0
 22 23  1  0  0  0  0
 23 24  1  1  0  0  0
 23 46  1  0  0  0  0
 24 33  1  0  0  0  0
 25 34  1  6  0  0  0
 25  4  1  0  0  0  0
 26 25  1  0  0  0  0
 27 35  1  6  0  0  0
 27 26  1  0  0  0  0
 27  2  1  0  0  0  0
 29 16  1  0  0  0  0
 40  8  1  0  0  0  0
 40  5  1  0  0  0  0
 41  9  1  0  0  0  0
 44 18  2  0  0  0  0
 45 15  1  0  0  0  0
 45 10  1  0  0  0  0
 46  1  1  0  0  0  0
M  END
>  <CHROM.1>
-143.46523667,168.25308615,-56.89008466,-163.54796889,174.95874791,-173.59429615
-58.60763194,62.69089297,-172.83518944,-49.83626000,172.85001949,65.43494585
-59.16206894,10.97648537,-17.21396940,8.47212954,-3.07134457,-0.09480514
-2.25921935

>  <Name>
lig.pdb

>  <RI>
0

>  <Rbt.Current_Directory>
/home/afrankz/demos/rdock_decoys_rna/rnas/3wru

>  <Rbt.Executable>
rbdock ($Id: //depot/dev/client3/rdock/2013.1/src/exe/rbdock.cxx#4 $)

>  <Rbt.Library>
libRbt.so (2013.1, Build901 2013/11/27)

>  <Rbt.Parameter_File>
/export/apps/rDock/src/rDock_2013.1_src/data/scripts/dock_solv.prm

>  <Rbt.Receptor>
prm/pocket_docking_8.prm

>  <SCORE>
2.37862

>  <SCORE.INTER>
3.60614

>  <SCORE.INTER.CONST>
1

>  <SCORE.INTER.POLAR>
0

>  <SCORE.INTER.ROT>
13

>  <SCORE.INTER.SOLV>
15.2059

>  <SCORE.INTER.VDW>
-14.9312

>  <SCORE.INTER.norm>
0.0783944

>  <SCORE.INTRA>
-1.22753

>  <SCORE.INTRA.DIHEDRAL>
-11.0621

>  <SCORE.INTRA.DIHEDRAL.0>
19.7146

>  <SCORE.INTRA.POLAR>
0

>  <SCORE.INTRA.POLAR.0>
0

>  <SCORE.INTRA.REPUL>
0.0121106

>  <SCORE.INTRA.REPUL.0>
0

>  <SCORE.INTRA.SOLV>
2.1123

>  <SCORE.INTRA.SOLV.lig_0>
-116.697

>  <SCORE.INTRA.VDW>
3.18684

>  <SCORE.INTRA.VDW.0>
-7.06424

>  <SCORE.INTRA.norm>
-0.0266854

>  <SCORE.RESTR>
0

>  <SCORE.RESTR.CAVITY>
0

>  <SCORE.RESTR.norm>
0

>  <SCORE.SYSTEM>
0

>  <SCORE.SYSTEM.CONST>
0

>  <SCORE.SYSTEM.DIHEDRAL>
0

>  <SCORE.SYSTEM.SOLV>
0

>  <SCORE.SYSTEM.norm>
0

>  <SCORE.heavy>
46

>  <SCORE.norm>
0.0517091

>  <RMSD>
10.261

$$$$
lig.pdb
 OpenBabel03061811583D
libRbt.so/2013.1/901 2013/11/27
 46 49  0  0  0  0  0  0  0  0999 V2000
    7.2242  -14.3211   11.8783 C   0  0  1  0  0  0  0  0  0  0  0  0
    8.2116  -15.1319    9.6930 C   0  0  1  0  0  0  0  0  0  0  0  0
    7.9814  -16.6492    9.9659 C   0  0  1  0  0  0  0  0  0  0  0  0
    7.8685  -17.4211    8.5537 C   0  0  2  0  0  0  0  0  0  0  0  0
   10.4198  -17.2035   10.3956 C   0  0  2  0  0  0  0  0  0  0  0  0
   11.0886  -15.8094   10.2290 C   0  0  1  0  0  0  0  0  0  0  0  0
   12.5175  -16.2345   10.4669 C   0  0  1  0  0  0  0  0  0  0  0  0
   12.4527  -17.1575   11.7251 C   0  0  1  0  0  0  0  0  0  0  0  0
   12.4231  -16.4477   13.1240 C   0  0  0  0  0  0  0  0  0  0  0  0
   14.3543  -17.3384    9.2456 C   0  0  1  0  0  0  0  0  0  0  0  0
   15.2952  -16.1734    9.3242 C   0  0  1  0  0  0  0  0  0  0  0  0
    7.5679  -13.2913   12.9804 C   0  0  1  0  0  0  0  0  0  0  0  0
   16.7666  -16.7159    9.2519 C   0  0  0  0  0  0  0  0  0  0  0  0
   17.0838  -17.4335    8.0506 C   0  0  0  0  0  0  0  0  0  0  0  0
   16.2168  -18.5889    7.9579 C   0  0  2  0  0  0  0  0  0  0  0  0
   16.5137  -19.4166    6.6458 C   0  0  0  0  0  0  0  0  0  0  0  0
    7.0930  -19.6317    4.6218 C   0  0  2  0  0  0  0  0  0  0  0  0
    5.8698  -18.8856    6.4927 C   0  0  0  0  0  0  0  0  0  0  0  0
    7.5108  -20.8550    5.1106 C   0  0  0  0  0  0  0  0  0  0  0  0
    5.8009  -19.4347    4.9838 C   0  0  1  0  0  0  0  0  0  0  0  0
    8.8013  -13.7874   13.8638 C   0  0  0  0  0  0  0  0  0  0  0  0
    8.4186  -15.2056   14.5074 C   0  0  0  0  0  0  0  0  0  0  0  0
    8.1074  -16.2204   13.3119 C   0  0  1  0  0  0  0  0  0  0  0  0
    7.7168  -17.6104   13.8283 C   0  0  0  0  0  0  0  0  0  0  0  0
    6.6000  -16.8518    7.7805 C   0  0  1  0  0  0  0  0  0  0  0  0
    6.9068  -15.2846    7.5051 C   0  0  0  0  0  0  0  0  0  0  0  0
    7.0501  -14.5154    8.8746 C   0  0  2  0  0  0  0  0  0  0  0  0
    7.2942  -19.5891    3.1910 F   0  0  0  0  0  0  0  0  0  0  0  0
   16.3275  -18.5851    5.3442 N   0  0  0  0  0  0  0  0  0  0  0  0
    7.8407  -11.9640   12.3147 N   0  0  0  0  0  0  0  0  0  0  0  0
   15.1802  -15.2720    8.2623 N   0  0  0  0  0  0  0  0  0  0  0  0
    8.7691  -21.5001    5.0668 N   0  0  0  0  0  0  0  0  0  0  0  0
    6.5081  -17.5607   14.5546 N   0  0  0  0  0  0  0  0  0  0  0  0
    6.4529  -17.5422    6.4866 N   0  0  0  0  0  0  0  0  0  0  0  0
    7.3432  -13.0843    8.6387 N   0  0  0  0  0  0  0  0  0  0  0  0
    8.2762  -14.4112   10.9168 O   0  0  0  0  0  0  0  0  0  0  0  0
    9.1615  -17.1295   10.7593 O   0  0  0  0  0  0  0  0  0  0  0  0
    7.6652  -18.7564    8.8214 O   0  0  0  0  0  0  0  0  0  0  0  0
   10.8362  -15.3549    8.9341 O   0  0  0  0  0  0  0  0  0  0  0  0
   11.3069  -17.9256   11.3213 O   0  0  0  0  0  0  0  0  0  0  0  0
   13.6179  -15.6475   13.2255 O   0  0  0  0  0  0  0  0  0  0  0  0
   13.0213  -16.9891    9.2499 O   0  0  0  0  0  0  0  0  0  0  0  0
    5.1199  -18.4739    4.1474 O   0  0  0  0  0  0  0  0  0  0  0  0
    5.4722  -19.5097    7.4902 O   0  0  0  0  0  0  0  0  0  0  0  0
   14.7681  -18.1635    8.0023 O   0  0  0  0  0  0  0  0  0  0  0  0
    6.9682  -15.6809   12.4626 O   0  0  0  0  0  0  0  0  0  0  0  0
  1 36  1  6  0  0  0
  2 36  1  1  0  0  0
  2  3  1  0  0  0  0
  3 37  1  1  0  0  0
  3  4  1  0  0  0  0
  4 38  1  1  0  0  0
  5 37  1  1  0  0  0
  5  6  1  0  0  0  0
  6  7  1  0  0  0  0
  6 39  1  6  0  0  0
  7 42  1  6  0  0  0
  8  9  1  1  0  0  0
  8  7  1  0  0  0  0
 10 42  1  6  0  0  0
 10 11  1  0  0  0  0
 11 31  1  6  0  0  0
 11 13  1  0  0  0  0
 12 30  1  6  0  0  0
 12  1  1  0  0  0  0
 14 13  1  0  0  0  0
 15 16  1  6  0  0  0
 15 14  1  0  0  0  0
 17 19  1  6  0  0  0
 17 28  1  0  0  0  0
 18 34  1  0  0  0  0
 19 32  1  0  0  0  0
 20 18  1  1  0  0  0
 20 17  1  0  0  0  0
 20 43  1  0  0  0  0
 21 12  1  0  0  0  0
 22 21  1  0  0  0  0
 22 23  1  0  0  0  0
 23 24  1  1  0  0  0
 23 46  1  0  0  0  0
 24 33  1  0  0  0  0
 25 34  1  6  0  0  0
 25  4  1  0  0  0  0
 26 25  1  0  0  0  0
 27 35  1  6  0  0  0
 27 26  1  0  0  0  0
 27  2  1  0  0  0  0
 29 16  1  0  0  0  0
 40  8  1  0  0  0  0
 40  5  1  0  0  0  0
 41  9  1  0  0  0  0
 44 18  2  0  0  0  0
 45 15  1  0  0  0  0
 45 10  1  0  0  0  0
 46  1  1  0  0  0  0
M  END
>  <CHROM.1>
-171.64943868,-61.28482638,-65.02843776,69.59051865,173.89116303,-58.85531108
-60.25312543,-58.99848185,-176.71773806,68.68071421,82.07011511,64.36001740
78.18065553,9.89669532,-16.91530513,9.30322113,2.99960021,0.03877549,-2.08626001

>  <Name>
lig.pdb

>  <RI>
0

>  <Rbt.Current_Directory>
/home/afrankz/demos/rdock_decoys_rna/rnas/3wru

>  <Rbt.Executable>
rbdock ($Id: //depot/dev/client3/rdock/2013.1/src/exe/rbdock.cxx#4 $)

>  <Rbt.Library>
libRbt.so (2013.1, Build901 2013/11/27)

>  <Rbt.Parameter_File>
/export/apps/rDock/src/rDock_2013.1_src/data/scripts/dock_solv.prm

>  <Rbt.Receptor>
prm/pocket_docking_7.prm

>  <SCORE>
-3.43479

>  <SCORE.INTER>
2.48824

>  <SCORE.INTER.CONST>
1

>  <SCORE.INTER.POLAR>
0

>  <SCORE.INTER.ROT>
13

>  <SCORE.INTER.SOLV>
13.4208

>  <SCORE.INTER.VDW>
-15.0814

>  <SCORE.INTER.norm>
0.0540922

>  <SCORE.INTRA>
-5.92303

>  <SCORE.INTRA.DIHEDRAL>
-15.7503

>  <SCORE.INTRA.DIHEDRAL.0>
19.7146

>  <SCORE.INTRA.POLAR>
0

>  <SCORE.INTRA.POLAR.0>
0

>  <SCORE.INTRA.REPUL>
0

>  <SCORE.INTRA.REPUL.0>
0

>  <SCORE.INTRA.SOLV>
0.75843

>  <SCORE.INTRA.SOLV.lig_0>
-116.697

>  <SCORE.INTRA.VDW>
1.57289

>  <SCORE.INTRA.VDW.0>
-7.06424

>  <SCORE.INTRA.norm>
-0.128762

>  <SCORE.RESTR>
0

>  <SCORE.RESTR.CAVITY>
0

>  <SCORE.RESTR.norm>
0

>  <SCORE.SYSTEM>
0

>  <SCORE.SYSTEM.CONST>
0

>  <SCORE.SYSTEM.DIHEDRAL>
0

>  <SCORE.SYSTEM.SOLV>
0

>  <SCORE.SYSTEM.norm>
0

>  <SCORE.heavy>
46

>  <SCORE.norm>
-0.0746693

>  <RMSD>
10.286

$$$$
lig.pdb
 OpenBabel03061811583D
libRbt.so/2013.1/901 2013/11/27
 46 49  0  0  0  0  0  0  0  0999 V2000
    9.0532  -14.8882   12.8888 C   0  0  1  0  0  0  0  0  0  0  0  0
    8.4095  -14.6393   10.4533 C   0  0  1  0  0  0  0  0  0  0  0  0
    9.4976  -15.5286    9.7789 C   0  0  1  0  0  0  0  0  0  0  0  0
    8.9035  -16.1245    8.4024 C   0  0  2  0  0  0  0  0  0  0  0  0
   10.9378  -13.8920    8.4806 C   0  0  2  0  0  0  0  0  0  0  0  0
   12.0952  -12.8822    8.7243 C   0  0  1  0  0  0  0  0  0  0  0  0
   12.5233  -12.7059    7.2875 C   0  0  1  0  0  0  0  0  0  0  0  0
   12.5797  -14.1556    6.7094 C   0  0  1  0  0  0  0  0  0  0  0  0
   13.8786  -14.9854    7.0025 C   0  0  0  0  0  0  0  0  0  0  0  0
   11.6451  -11.7327    5.1981 C   0  0  1  0  0  0  0  0  0  0  0  0
   10.5359  -10.9826    4.5231 C   0  0  1  0  0  0  0  0  0  0  0  0
    9.4952  -13.9827   14.0626 C   0  0  1  0  0  0  0  0  0  0  0  0
   10.8121  -10.9692    2.9778 C   0  0  0  0  0  0  0  0  0  0  0  0
   10.8758  -12.2663    2.3678 C   0  0  0  0  0  0  0  0  0  0  0  0
   11.9615  -13.0097    2.9709 C   0  0  2  0  0  0  0  0  0  0  0  0
   12.0759  -14.4550    2.3441 C   0  0  0  0  0  0  0  0  0  0  0  0
    5.7669  -20.4630    6.1953 C   0  0  2  0  0  0  0  0  0  0  0  0
    6.0536  -18.6457    7.6678 C   0  0  0  0  0  0  0  0  0  0  0  0
    5.1368  -20.9899    5.0838 C   0  0  0  0  0  0  0  0  0  0  0  0
    5.5835  -19.1193    6.2056 C   0  0  1  0  0  0  0  0  0  0  0  0
   10.9595  -13.3975   13.8152 C   0  0  0  0  0  0  0  0  0  0  0  0
   11.9684  -14.6311   13.6351 C   0  0  0  0  0  0  0  0  0  0  0  0
   11.4657  -15.4999   12.3907 C   0  0  1  0  0  0  0  0  0  0  0  0
   12.3640  -16.7177   12.1431 C   0  0  0  0  0  0  0  0  0  0  0  0
    7.6554  -17.0435    8.7610 C   0  0  1  0  0  0  0  0  0  0  0  0
    6.5537  -16.0639    9.4338 C   0  0  0  0  0  0  0  0  0  0  0  0
    7.1256  -15.4465   10.7679 C   0  0  2  0  0  0  0  0  0  0  0  0
    7.1609  -20.8454    6.1868 F   0  0  0  0  0  0  0  0  0  0  0  0
   10.8241  -15.3384    2.6141 N   0  0  0  0  0  0  0  0  0  0  0  0
    8.4653  -12.8910   14.2276 N   0  0  0  0  0  0  0  0  0  0  0  0
    9.2760  -11.5699    4.6691 N   0  0  0  0  0  0  0  0  0  0  0  0
    5.0128  -22.3212    4.6215 N   0  0  0  0  0  0  0  0  0  0  0  0
   13.6515  -16.3215   11.7231 N   0  0  0  0  0  0  0  0  0  0  0  0
    7.0895  -17.6200    7.5282 N   0  0  0  0  0  0  0  0  0  0  0  0
    6.1344  -14.5391   11.3873 N   0  0  0  0  0  0  0  0  0  0  0  0
    8.8837  -14.1276   11.6921 O   0  0  0  0  0  0  0  0  0  0  0  0
   10.6830  -14.6433    9.5255 O   0  0  0  0  0  0  0  0  0  0  0  0
    9.8814  -16.9051    7.8275 O   0  0  0  0  0  0  0  0  0  0  0  0
   11.5579  -11.7327    9.3052 O   0  0  0  0  0  0  0  0  0  0  0  0
   11.3340  -14.6137    7.2610 O   0  0  0  0  0  0  0  0  0  0  0  0
   14.9877  -14.2651    6.4286 O   0  0  0  0  0  0  0  0  0  0  0  0
   11.4939  -11.8584    6.5620 O   0  0  0  0  0  0  0  0  0  0  0  0
    6.3617  -18.4350    5.1994 O   0  0  0  0  0  0  0  0  0  0  0  0
    5.5890  -19.0807    8.7343 O   0  0  0  0  0  0  0  0  0  0  0  0
   11.7742  -13.0919    4.4675 O   0  0  0  0  0  0  0  0  0  0  0  0
   10.0478  -15.9863   12.6421 O   0  0  0  0  0  0  0  0  0  0  0  0
  1 36  1  6  0  0  0
  2 36  1  1  0  0  0
  2  3  1  0  0  0  0
  3 37  1  6  0  0  0
  3  4  1  0  0  0  0
  4 38  1  1  0  0  0
  5 37  1  1  0  0  0
  5  6  1  0  0  0  0
  6  7  1  0  0  0  0
  6 39  1  6  0  0  0
  7 42  1  6  0  0  0
  8  9  1  1  0  0  0
  8  7  1  0  0  0  0
 10 42  1  1  0  0  0
 10 11  1  0  0  0  0
 11 31  1  6  0  0  0
 11 13  1  0  0  0  0
 12 30  1  6  0  0  0
 12  1  1  0  0  0  0
 14 13  1  0  0  0  0
 15 16  1  6  0  0  0
 15 14  1  0  0  0  0
 17 19  1  6  0  0  0
 17 28  1  0  0  0  0
 18 34  1  0  0  0  0
 19 32  1  0  0  0  0
 20 18  1  1  0  0  0
 20 17  1  0  0  0  0
 20 43  1  0  0  0  0
 21 12  1  0  0  0  0
 22 21  1  0  0  0  0
 22 23  1  0  0  0  0
 23 24  1  1  0  0  0
 23 46  1  0  0  0  0
 24 33  1  0  0  0  0
 25 34  1  6  0  0  0
 25  4  1  0  0  0  0
 26 25  1  0  0  0  0
 27 35  1  6  0  0  0
 27 26  1  0  0  0  0
 27  2  1  0  0  0  0
 29 16  1  0  0  0  0
 40  8  1  0  0  0  0
 40  5  1  0  0  0  0
 41  9  1  0  0  0  0
 44 18  2  0  0  0  0
 45 15  1  0  0  0  0
 45 10  1  0  0  0  0
 46  1  1  0  0  0  0
M  END
>  <CHROM.1>
-176.11961141,-72.79044962,-87.96129541,166.92389143,-172.39472658,-60.18157978
175.07560771,-63.68768476,-179.13335105,124.18524598,167.84563448,-66.73063842
171.42477593,9.70777154,-15.28191288,8.08488291,0.09920696,0.83899421,1.54241680

>  <Name>
lig.pdb

>  <RI>
0

>  <Rbt.Current_Directory>
/home/afrankz/demos/rdock_decoys_rna/rnas/3wru

>  <Rbt.Executable>
rbdock ($Id: //depot/dev/client3/rdock/2013.1/src/exe/rbdock.cxx#4 $)

>  <Rbt.Library>
libRbt.so (2013.1, Build901 2013/11/27)

>  <Rbt.Parameter_File>
/export/apps/rDock/src/rDock_2013.1_src/data/scripts/dock_solv.prm

>  <Rbt.Receptor>
prm/pocket_docking_8.prm

>  <SCORE>
-2.68064

>  <SCORE.INTER>
1.05389

>  <SCORE.INTER.CONST>
1

>  <SCORE.INTER.POLAR>
0

>  <SCORE.INTER.ROT>
13

>  <SCORE.INTER.SOLV>
19.5726

>  <SCORE.INTER.VDW>
-18.0883

>  <SCORE.INTER.norm>
0.0229107

>  <SCORE.INTRA>
-3.73453

>  <SCORE.INTRA.DIHEDRAL>
-11.0096

>  <SCORE.INTRA.DIHEDRAL.0>
19.7146

>  <SCORE.INTRA.POLAR>
0

>  <SCORE.INTRA.POLAR.0>
0

>  <SCORE.INTRA.REPUL>
0

>  <SCORE.INTRA.REPUL.0>
0

>  <SCORE.INTRA.SOLV>
-1.57742

>  <SCORE.INTRA.SOLV.lig_0>
-116.697

>  <SCORE.INTRA.VDW>
2.55901

>  <SCORE.INTRA.VDW.0>
-7.06424

>  <SCORE.INTRA.norm>
-0.0811854

>  <SCORE.RESTR>
0

>  <SCORE.RESTR.CAVITY>
0

>  <SCORE.RESTR.norm>
0

>  <SCORE.SYSTEM>
0

>  <SCORE.SYSTEM.CONST>
0

>  <SCORE.SYSTEM.DIHEDRAL>
0

>  <SCORE.SYSTEM.SOLV>
0

>  <SCORE.SYSTEM.norm>
0

>  <SCORE.heavy>
46

>  <SCORE.norm>
-0.0582747

>  <RMSD>
10.319

$$$$
lig.pdb
 OpenBabel03061811583D
libRbt.so/2013.1/901 2013/11/27
 46 49  0  0  0  0  0  0  0  0999 V2000
    6.9192  -11.1787   11.9223 C   0  0  1  0  0  0  0  0  0  0  0  0
    6.2077  -12.9483   10.2580 C   0  0  1  0  0  0  0  0  0  0  0  0
    7.3225  -13.9805   10.6066 C   0  0  1  0  0  0  0  0  0  0  0  0
    6.7929  -15.4610   10.2452 C   0  0  2  0  0  0  0  0  0  0  0  0
    8.8806  -14.0641    8.6057 C   0  0  2  0  0  0  0  0  0  0  0  0
    9.6513  -13.0116    7.7589 C   0  0  1  0  0  0  0  0  0  0  0  0
   10.4151  -13.9716    6.8792 C   0  0  1  0  0  0  0  0  0  0  0  0
   10.9709  -15.0524    7.8600 C   0  0  1  0  0  0  0  0  0  0  0  0
   12.2904  -14.6979    8.6314 C   0  0  0  0  0  0  0  0  0  0  0  0
   10.0346  -15.2914    4.8305 C   0  0  1  0  0  0  0  0  0  0  0  0
   10.8387  -14.4567    3.8789 C   0  0  1  0  0  0  0  0  0  0  0  0
    7.3614   -9.6962   11.9125 C   0  0  1  0  0  0  0  0  0  0  0  0
   11.3740  -15.3853    2.7319 C   0  0  0  0  0  0  0  0  0  0  0  0
   10.3541  -16.0377    1.9620 C   0  0  0  0  0  0  0  0  0  0  0  0
    9.5769  -16.8829    2.8433 C   0  0  2  0  0  0  0  0  0  0  0  0
    8.4281  -17.6232    2.0514 C   0  0  0  0  0  0  0  0  0  0  0  0
    5.1276  -19.9334   10.9141 C   0  0  2  0  0  0  0  0  0  0  0  0
    4.5326  -17.9226   11.9889 C   0  0  0  0  0  0  0  0  0  0  0  0
    4.8908  -21.2891   10.7870 C   0  0  0  0  0  0  0  0  0  0  0  0
    4.0242  -19.3444   11.4385 C   0  0  1  0  0  0  0  0  0  0  0  0
    8.7613   -9.5207   11.1660 C   0  0  0  0  0  0  0  0  0  0  0  0
    9.8463  -10.4348   11.9140 C   0  0  0  0  0  0  0  0  0  0  0  0
    9.3368  -11.9491   11.8571 C   0  0  1  0  0  0  0  0  0  0  0  0
   10.3065  -12.9058   12.5611 C   0  0  0  0  0  0  0  0  0  0  0  0
    5.5237  -15.7664   11.1544 C   0  0  1  0  0  0  0  0  0  0  0  0
    4.3960  -14.6821   10.7319 C   0  0  0  0  0  0  0  0  0  0  0  0
    4.9056  -13.2236   11.0502 C   0  0  2  0  0  0  0  0  0  0  0  0
    5.5066  -19.3871    9.6306 F   0  0  0  0  0  0  0  0  0  0  0  0
    7.7581  -18.7630    2.8712 N   0  0  0  0  0  0  0  0  0  0  0  0
    6.2652   -8.8831   11.2670 N   0  0  0  0  0  0  0  0  0  0  0  0
   10.1051  -13.4569    3.2340 N   0  0  0  0  0  0  0  0  0  0  0  0
    5.7147  -22.3442   10.3294 N   0  0  0  0  0  0  0  0  0  0  0  0
   10.2341  -12.7609   13.9629 N   0  0  0  0  0  0  0  0  0  0  0  0
    5.0155  -17.1191   10.8639 N   0  0  0  0  0  0  0  0  0  0  0  0
    3.8904  -12.2212   10.6576 N   0  0  0  0  0  0  0  0  0  0  0  0
    6.6238  -11.6328   10.6011 O   0  0  0  0  0  0  0  0  0  0  0  0
    8.5237  -13.6132    9.7849 O   0  0  0  0  0  0  0  0  0  0  0  0
    7.7933  -16.3525   10.5620 O   0  0  0  0  0  0  0  0  0  0  0  0
    8.7179  -12.2307    7.0763 O   0  0  0  0  0  0  0  0  0  0  0  0
    9.7636  -15.2412    8.6166 O   0  0  0  0  0  0  0  0  0  0  0  0
   12.0311  -13.5078    9.4025 O   0  0  0  0  0  0  0  0  0  0  0  0
    9.4647  -14.5795    5.8636 O   0  0  0  0  0  0  0  0  0  0  0  0
    2.9753  -19.1426   10.4663 O   0  0  0  0  0  0  0  0  0  0  0  0
    4.4985  -17.5733   13.1804 O   0  0  0  0  0  0  0  0  0  0  0  0
    9.0016  -16.0695    3.9788 O   0  0  0  0  0  0  0  0  0  0  0  0
    7.9760  -12.0595   12.5251 O   0  0  0  0  0  0  0  0  0  0  0  0
  1 36  1  6  0  0  0
  2 36  1  1  0  0  0
  2  3  1  0  0  0  0
  3 37  1  6  0  0  0
  3  4  1  0  0  0  0
  4 38  1  1  0  0  0
  5 37  1  1  0  0  0
  5  6  1  0  0  0  0
  6  7  1  0  0  0  0
  6 39  1  6  0  0  0
  7 42  1  6  0  0  0
  8  9  1  1  0  0  0
  8  7  1  0  0  0  0
 10 42  1  1  0  0  0
 10 11  1  0  0  0  0
 11 31  1  6  0  0  0
 11 13  1  0  0  0  0
 12 30  1  6  0  0  0
 12  1  1  0  0  0  0
 14 13  1  0  0  0  0
 15 16  1  6  0  0  0
 15 14  1  0  0  0  0
 17 19  1  6  0  0  0
 17 28  1  0  0  0  0
 18 34  1  0  0  0  0
 19 32  1  0  0  0  0
 20 18  1  6  0  0  0
 20 17  1  0  0  0  0
 20 43  1  0  0  0  0
 21 12  1  0  0  0  0
 22 21  1  0  0  0  0
 22 23  1  0  0  0  0
 23 24  1  1  0  0  0
 23 46  1  0  0  0  0
 24 33  1  0  0  0  0
 25 34  1  6  0  0  0
 25  4  1  0  0  0  0
 26 25  1  0  0  0  0
 27 35  1  6  0  0  0
 27 26  1  0  0  0  0
 27  2  1  0  0  0  0
 29 16  1  0  0  0  0
 40  8  1  0  0  0  0
 40  5  1  0  0  0  0
 41  9  1  0  0  0  0
 44 18  2  0  0  0  0
 45 15  1  0  0  0  0
 45 10  1  0  0  0  0
 46  1  1  0  0  0  0
M  END
>  <CHROM.1>
179.11593770,-63.06760023,-93.15514136,148.99793802,168.62415873,59.34434640
-66.99801099,167.79297369,-178.33514725,63.19091303,162.07668080,73.18763089
141.29726781,7.84130787,-14.89239471,8.99066322,-2.33634908,-0.90347947,-2.38234560

>  <Name>
lig.pdb

>  <RI>
0

>  <Rbt.Current_Directory>
/home/afrankz/demos/rdock_decoys_rna/rnas/3wru

>  <Rbt.Executable>
rbdock ($Id: //depot/dev/client3/rdock/2013.1/src/exe/rbdock.cxx#4 $)

>  <Rbt.Library>
libRbt.so (2013.1, Build901 2013/11/27)

>  <Rbt.Parameter_File>
/export/apps/rDock/src/rDock_2013.1_src/data/scripts/dock_solv.prm

>  <Rbt.Receptor>
prm/pocket_docking_8.prm

>  <SCORE>
1.99648

>  <SCORE.INTER>
4.88333

>  <SCORE.INTER.CONST>
1

>  <SCORE.INTER.POLAR>
0

>  <SCORE.INTER.ROT>
13

>  <SCORE.INTER.SOLV>
25.1003

>  <SCORE.INTER.VDW>
-17.3779

>  <SCORE.INTER.norm>
0.106159

>  <SCORE.INTRA>
-2.88685

>  <SCORE.INTRA.DIHEDRAL>
-6.80725

>  <SCORE.INTRA.DIHEDRAL.0>
19.7146

>  <SCORE.INTRA.POLAR>
0

>  <SCORE.INTRA.POLAR.0>
0

>  <SCORE.INTRA.REPUL>
0

>  <SCORE.INTRA.REPUL.0>
0

>  <SCORE.INTRA.SOLV>
-1.46029

>  <SCORE.INTRA.SOLV.lig_0>
-116.697

>  <SCORE.INTRA.VDW>
1.24692

>  <SCORE.INTRA.VDW.0>
-7.06424

>  <SCORE.INTRA.norm>
-0.0627576

>  <SCORE.RESTR>
0

>  <SCORE.RESTR.CAVITY>
0

>  <SCORE.RESTR.norm>
0

>  <SCORE.SYSTEM>
0

>  <SCORE.SYSTEM.CONST>
0

>  <SCORE.SYSTEM.DIHEDRAL>
0

>  <SCORE.SYSTEM.SOLV>
0

>  <SCORE.SYSTEM.norm>
0

>  <SCORE.heavy>
46

>  <SCORE.norm>
0.0434016

>  <RMSD>
10.334

$$$$
lig.pdb
 OpenBabel03061811583D
libRbt.so/2013.1/901 2013/11/27
 46 49  0  0  0  0  0  0  0  0999 V2000
    9.8637  -20.7353    6.3892 C   0  0  1  0  0  0  0  0  0  0  0  0
    9.8124  -19.7109    8.7035 C   0  0  1  0  0  0  0  0  0  0  0  0
   10.7406  -18.4678    8.5522 C   0  0  1  0  0  0  0  0  0  0  0  0
   10.2542  -17.3261    9.5831 C   0  0  2  0  0  0  0  0  0  0  0  0
   13.2399  -18.2242    8.9156 C   0  0  2  0  0  0  0  0  0  0  0  0
   14.4559  -19.0365    9.4451 C   0  0  1  0  0  0  0  0  0  0  0  0
   15.5481  -18.2284    8.7873 C   0  0  1  0  0  0  0  0  0  0  0  0
   15.0593  -18.0221    7.3184 C   0  0  1  0  0  0  0  0  0  0  0  0
   15.3157  -19.2000    6.3141 C   0  0  0  0  0  0  0  0  0  0  0  0
   16.7393  -16.0951    9.1247 C   0  0  1  0  0  0  0  0  0  0  0  0
   16.8219  -14.7958    9.8690 C   0  0  1  0  0  0  0  0  0  0  0  0
   10.5064  -21.9509    5.6803 C   0  0  1  0  0  0  0  0  0  0  0  0
   18.0148  -13.9609    9.2824 C   0  0  0  0  0  0  0  0  0  0  0  0
   17.8963  -13.6414    7.8887 C   0  0  0  0  0  0  0  0  0  0  0  0
   17.8495  -14.8746    7.1324 C   0  0  2  0  0  0  0  0  0  0  0  0
   17.7093  -14.5863    5.5858 C   0  0  0  0  0  0  0  0  0  0  0  0
    5.6293  -13.4287   10.4423 C   0  0  2  0  0  0  0  0  0  0  0  0
    7.1971  -14.9930    9.6373 C   0  0  0  0  0  0  0  0  0  0  0  0
    4.6436  -14.2306   10.9858 C   0  0  0  0  0  0  0  0  0  0  0  0
    6.8409  -13.9300   10.7889 C   0  0  1  0  0  0  0  0  0  0  0  0
   12.0979  -21.8296    5.6646 C   0  0  0  0  0  0  0  0  0  0  0  0
   12.4892  -20.4632    4.9217 C   0  0  0  0  0  0  0  0  0  0  0  0
   11.8166  -19.2561    5.7257 C   0  0  1  0  0  0  0  0  0  0  0  0
   12.1241  -17.8985    5.0824 C   0  0  0  0  0  0  0  0  0  0  0  0
    8.7744  -16.8994    9.1842 C   0  0  1  0  0  0  0  0  0  0  0  0
    7.8562  -18.2197    9.3834 C   0  0  0  0  0  0  0  0  0  0  0  0
    8.3338  -19.3603    8.4041 C   0  0  2  0  0  0  0  0  0  0  0  0
    5.4348  -12.0636   10.8760 F   0  0  0  0  0  0  0  0  0  0  0  0
   17.6328  -15.8818    4.7277 N   0  0  0  0  0  0  0  0  0  0  0  0
   10.0370  -23.2045    6.3785 N   0  0  0  0  0  0  0  0  0  0  0  0
   15.6947  -13.9819    9.7264 N   0  0  0  0  0  0  0  0  0  0  0  0
    4.3682  -15.6097   10.8316 N   0  0  0  0  0  0  0  0  0  0  0  0
   11.5108  -17.7864    3.8166 N   0  0  0  0  0  0  0  0  0  0  0  0
    8.2960  -15.8452   10.0964 N   0  0  0  0  0  0  0  0  0  0  0  0
    7.5118  -20.5775    8.5838 N   0  0  0  0  0  0  0  0  0  0  0  0
   10.1863  -20.7254    7.7803 O   0  0  0  0  0  0  0  0  0  0  0  0
   12.1346  -18.9289    8.8640 O   0  0  0  0  0  0  0  0  0  0  0  0
   11.0878  -16.2409    9.4300 O   0  0  0  0  0  0  0  0  0  0  0  0
   14.4549  -18.9673   10.8389 O   0  0  0  0  0  0  0  0  0  0  0  0
   13.7012  -17.6716    7.6323 O   0  0  0  0  0  0  0  0  0  0  0  0
   16.7196  -19.5210    6.3772 O   0  0  0  0  0  0  0  0  0  0  0  0
   15.6945  -16.9043    9.5150 O   0  0  0  0  0  0  0  0  0  0  0  0
    7.8721  -12.9208   10.8548 O   0  0  0  0  0  0  0  0  0  0  0  0
    6.6115  -15.0736    8.5450 O   0  0  0  0  0  0  0  0  0  0  0  0
   16.7137  -15.7449    7.6166 O   0  0  0  0  0  0  0  0  0  0  0  0
   10.3088  -19.4426    5.7674 O   0  0  0  0  0  0  0  0  0  0  0  0
  1 36  1  1  0  0  0
  2 36  1  6  0  0  0
  2  3  1  0  0  0  0
  3 37  1  1  0  0  0
  3  4  1  0  0  0  0
  4 38  1  6  0  0  0
  5 37  1  6  0  0  0
  5  6  1  0  0  0  0
  6  7  1  0  0  0  0
  6 39  1  1  0  0  0
  7 42  1  1  0  0  0
  8  9  1  6  0  0  0
  8  7  1  0  0  0  0
 10 42  1  1  0  0  0
 10 11  1  0  0  0  0
 11 31  1  6  0  0  0
 11 13  1  0  0  0  0
 12 30  1  1  0  0  0
 12  1  1  0  0  0  0
 14 13  1  0  0  0  0
 15 16  1  6  0  0  0
 15 14  1  0  0  0  0
 17 19  1  1  0  0  0
 17 28  1  0  0  0  0
 18 34  1  0  0  0  0
 19 32  1  0  0  0  0
 20 18  1  6  0  0  0
 20 17  1  0  0  0  0
 20 43  1  0  0  0  0
 21 12  1  0  0  0  0
 22 21  1  0  0  0  0
 22 23  1  0  0  0  0
 23 24  1  6  0  0  0
 23 46  1  0  0  0  0
 24 33  1  0  0  0  0
 25 34  1  1  0  0  0
 25  4  1  0  0  0  0
 26 25  1  0  0  0  0
 27 35  1  1  0  0  0
 27 26  1  0  0  0  0
 27  2  1  0  0  0  0
 29 16  1  0  0  0  0
 40  8  1  0  0  0  0
 40  5  1  0  0  0  0
 41  9  1  0  0  0  0
 44 18  2  0  0  0  0
 45 15  1  0  0  0  0
 45 10  1  0  0  0  0
 46  1  1  0  0  0  0
M  END
>  <CHROM.1>
176.60782403,-78.18877236,-177.18239045,172.88372885,173.85364530,-53.20056198
179.34396592,-179.13051744,-58.43165523,-164.79317251,88.27871741,66.70047234
158.55132483,11.79777919,-17.27724148,8.21479548,2.92370773,0.17138903,0.46243346

>  <Name>
lig.pdb

>  <RI>
0

>  <Rbt.Current_Directory>
/home/afrankz/demos/rdock_decoys_rna/rnas/3wru

>  <Rbt.Executable>
rbdock ($Id: //depot/dev/client3/rdock/2013.1/src/exe/rbdock.cxx#4 $)

>  <Rbt.Library>
libRbt.so (2013.1, Build901 2013/11/27)

>  <Rbt.Parameter_File>
/export/apps/rDock/src/rDock_2013.1_src/data/scripts/dock_solv.prm

>  <Rbt.Receptor>
prm/pocket_docking_7.prm

>  <SCORE>
0.504728

>  <SCORE.INTER>
6.2104

>  <SCORE.INTER.CONST>
1

>  <SCORE.INTER.POLAR>
0

>  <SCORE.INTER.ROT>
13

>  <SCORE.INTER.SOLV>
12.7395

>  <SCORE.INTER.VDW>
-12.3729

>  <SCORE.INTER.norm>
0.135009

>  <SCORE.INTRA>
-5.70567

>  <SCORE.INTRA.DIHEDRAL>
-13.6269

>  <SCORE.INTRA.DIHEDRAL.0>
19.7146

>  <SCORE.INTRA.POLAR>
0

>  <SCORE.INTRA.POLAR.0>
0

>  <SCORE.INTRA.REPUL>
0

>  <SCORE.INTRA.REPUL.0>
0

>  <SCORE.INTRA.SOLV>
0.717116

>  <SCORE.INTRA.SOLV.lig_0>
-116.697

>  <SCORE.INTRA.VDW>
0.749229

>  <SCORE.INTRA.VDW.0>
-7.06424

>  <SCORE.INTRA.norm>
-0.124036

>  <SCORE.RESTR>
0

>  <SCORE.RESTR.CAVITY>
0

>  <SCORE.RESTR.norm>
0

>  <SCORE.SYSTEM>
0

>  <SCORE.SYSTEM.CONST>
0

>  <SCORE.SYSTEM.DIHEDRAL>
0

>  <SCORE.SYSTEM.SOLV>
0

>  <SCORE.SYSTEM.norm>
0

>  <SCORE.heavy>
46

>  <SCORE.norm>
0.0109724

>  <RMSD>
10.398

$$$$
lig.pdb
 OpenBabel03061811583D
libRbt.so/2013.1/901 2013/11/27
 46 49  0  0  0  0  0  0  0  0999 V2000
   10.9268   -9.5220    5.3324 C   0  0  1  0  0  0  0  0  0  0  0  0
   12.3683   -8.6301    3.4523 C   0  0  1  0  0  0  0  0  0  0  0  0
   11.9088   -7.1850    3.8132 C   0  0  1  0  0  0  0  0  0  0  0  0
   12.9617   -6.1331    3.1907 C   0  0  2  0  0  0  0  0  0  0  0  0
   10.1505   -7.2003    1.9840 C   0  0  2  0  0  0  0  0  0  0  0  0
   11.3307   -7.4714    1.0081 C   0  0  1  0  0  0  0  0  0  0  0  0
   10.5631   -8.2446   -0.0368 C   0  0  1  0  0  0  0  0  0  0  0  0
    9.6977   -9.2591    0.7762 C   0  0  1  0  0  0  0  0  0  0  0  0
   10.4053  -10.5791    1.2439 C   0  0  0  0  0  0  0  0  0  0  0  0
    8.3325   -7.4781   -0.7584 C   0  0  1  0  0  0  0  0  0  0  0  0
    7.5938   -7.1132   -2.0114 C   0  0  1  0  0  0  0  0  0  0  0  0
   12.0150   -9.7487    6.4085 C   0  0  1  0  0  0  0  0  0  0  0  0
    6.0586   -7.3303   -1.7656 C   0  0  0  0  0  0  0  0  0  0  0  0
    5.5029   -6.5414   -0.7038 C   0  0  0  0  0  0  0  0  0  0  0  0
    6.1686   -6.8926    0.5324 C   0  0  2  0  0  0  0  0  0  0  0  0
    5.6036   -6.0468    1.7409 C   0  0  0  0  0  0  0  0  0  0  0  0
   16.6622   -3.5664    2.3764 C   0  0  2  0  0  0  0  0  0  0  0  0
   16.1663   -5.8617    2.1804 C   0  0  0  0  0  0  0  0  0  0  0  0
   17.6859   -2.9176    3.0407 C   0  0  0  0  0  0  0  0  0  0  0  0
   17.1651   -4.6709    1.7710 C   0  0  1  0  0  0  0  0  0  0  0  0
   12.5786  -11.2408    6.3483 C   0  0  0  0  0  0  0  0  0  0  0  0
   11.3496  -12.2497    6.5581 C   0  0  0  0  0  0  0  0  0  0  0  0
   10.2856  -11.9770    5.3965 C   0  0  1  0  0  0  0  0  0  0  0  0
    9.0596  -12.8900    5.5179 C   0  0  0  0  0  0  0  0  0  0  0  0
   14.3777   -6.3934    3.8674 C   0  0  1  0  0  0  0  0  0  0  0  0
   14.8120   -7.8947    3.4390 C   0  0  0  0  0  0  0  0  0  0  0  0
   13.7785   -8.9387    4.0135 C   0  0  2  0  0  0  0  0  0  0  0  0
   16.0298   -2.6515    1.4530 F   0  0  0  0  0  0  0  0  0  0  0  0
    5.4887   -4.5284    1.4224 N   0  0  0  0  0  0  0  0  0  0  0  0
   13.1009   -8.7202    6.2027 N   0  0  0  0  0  0  0  0  0  0  0  0
    7.7235   -5.7718   -2.3822 N   0  0  0  0  0  0  0  0  0  0  0  0
   17.6694   -1.8620    3.9824 N   0  0  0  0  0  0  0  0  0  0  0  0
    8.3976  -12.6899    6.7478 N   0  0  0  0  0  0  0  0  0  0  0  0
   15.3684   -5.4412    3.3341 N   0  0  0  0  0  0  0  0  0  0  0  0
   14.1556  -10.3141    3.6193 N   0  0  0  0  0  0  0  0  0  0  0  0
   11.4846   -9.5887    4.0195 O   0  0  0  0  0  0  0  0  0  0  0  0
   10.5412   -7.0060    3.2212 O   0  0  0  0  0  0  0  0  0  0  0  0
   12.5347   -4.8668    3.5230 O   0  0  0  0  0  0  0  0  0  0  0  0
   11.8219   -6.2433    0.5634 O   0  0  0  0  0  0  0  0  0  0  0  0
    9.2378   -8.3357    1.7771 O   0  0  0  0  0  0  0  0  0  0  0  0
    9.4535  -11.3212    2.0321 O   0  0  0  0  0  0  0  0  0  0  0  0
    9.6948   -7.2838   -0.8288 O   0  0  0  0  0  0  0  0  0  0  0  0
   17.2169   -4.5527    0.3324 O   0  0  0  0  0  0  0  0  0  0  0  0
   16.0873   -6.9516    1.5900 O   0  0  0  0  0  0  0  0  0  0  0  0
    7.6608   -6.6989    0.3989 O   0  0  0  0  0  0  0  0  0  0  0  0
    9.8209  -10.5310    5.4536 O   0  0  0  0  0  0  0  0  0  0  0  0
  1 36  1  6  0  0  0
  2 36  1  1  0  0  0
  2  3  1  0  0  0  0
  3 37  1  6  0  0  0
  3  4  1  0  0  0  0
  4 38  1  1  0  0  0
  5 37  1  1  0  0  0
  5  6  1  0  0  0  0
  6  7  1  0  0  0  0
  6 39  1  6  0  0  0
  7 42  1  1  0  0  0
  8  9  1  1  0  0  0
  8  7  1  0  0  0  0
 10 42  1  6  0  0  0
 10 11  1  0  0  0  0
 11 31  1  1  0  0  0
 11 13  1  0  0  0  0
 12 30  1  6  0  0  0
 12  1  1  0  0  0  0
 14 13  1  0  0  0  0
 15 16  1  1  0  0  0
 15 14  1  0  0  0  0
 17 19  1  6  0  0  0
 17 28  1  0  0  0  0
 18 34  1  0  0  0  0
 19 32  1  0  0  0  0
 20 18  1  6  0  0  0
 20 17  1  0  0  0  0
 20 43  1  0  0  0  0
 21 12  1  0  0  0  0
 22 21  1  0  0  0  0
 22 23  1  0  0  0  0
 23 24  1  1  0  0  0
 23 46  1  0  0  0  0
 24 33  1  0  0  0  0
 25 34  1  6  0  0  0
 25  4  1  0  0  0  0
 26 25  1  0  0  0  0
 27 35  1  6  0  0  0
 27 26  1  0  0  0  0
 27  2  1  0  0  0  0
 29 16  1  0  0  0  0
 40  8  1  0  0  0  0
 40  5  1  0  0  0  0
 41  9  1  0  0  0  0
 44 18  2  0  0  0  0
 45 15  1  0  0  0  0
 45 10  1  0  0  0  0
 46  1  1  0  0  0  0
M  END
>  <CHROM.1>
-69.41813917,-41.42543482,-53.15848401,-8.59888240,-117.69936788,176.78127835
-147.53693946,-46.90076393,-168.63642913,-17.16537352,131.19076267,60.14131923
-92.69272295,11.51590479,-7.55955510,2.48242367,-2.90526328,-0.38607479,-0.72332498

>  <Name>
lig.pdb

>  <RI>
0

>  <Rbt.Current_Directory>
/home/afrankz/demos/rdock_decoys_rna/rnas/3wru

>  <Rbt.Executable>
rbdock ($Id: //depot/dev/client3/rdock/2013.1/src/exe/rbdock.cxx#4 $)

>  <Rbt.Library>
libRbt.so (2013.1, Build901 2013/11/27)

>  <Rbt.Parameter_File>
/export/apps/rDock/src/rDock_2013.1_src/data/scripts/dock_solv.prm

>  <Rbt.Receptor>
prm/blind_docking_20.prm

>  <SCORE>
46.163

>  <SCORE.INTER>
10.9815

>  <SCORE.INTER.CONST>
1

>  <SCORE.INTER.POLAR>
0

>  <SCORE.INTER.ROT>
13

>  <SCORE.INTER.SOLV>
41.6633

>  <SCORE.INTER.VDW>
-18.8334

>  <SCORE.INTER.norm>
0.238729

>  <SCORE.INTRA>
27.3627

>  <SCORE.INTRA.DIHEDRAL>
8.81042

>  <SCORE.INTRA.DIHEDRAL.0>
19.7146

>  <SCORE.INTRA.POLAR>
0

>  <SCORE.INTRA.POLAR.0>
0

>  <SCORE.INTRA.REPUL>
0

>  <SCORE.INTRA.REPUL.0>
0

>  <SCORE.INTRA.SOLV>
7.58808

>  <SCORE.INTRA.SOLV.lig_0>
-116.697

>  <SCORE.INTRA.VDW>
19.1635

>  <SCORE.INTRA.VDW.0>
-7.06424

>  <SCORE.INTRA.norm>
0.594842

>  <SCORE.RESTR>
7.81871

>  <SCORE.RESTR.CAVITY>
7.81871

>  <SCORE.RESTR.norm>
0.169972

>  <SCORE.SYSTEM>
0

>  <SCORE.SYSTEM.CONST>
0

>  <SCORE.SYSTEM.DIHEDRAL>
0

>  <SCORE.SYSTEM.SOLV>
0

>  <SCORE.SYSTEM.norm>
0

>  <SCORE.heavy>
46

>  <SCORE.norm>
1.00354

>  <RMSD>
10.446

$$$$
lig.pdb
 OpenBabel03061811583D
libRbt.so/2013.1/901 2013/11/27
 46 49  0  0  0  0  0  0  0  0999 V2000
    9.2274  -11.8754    9.1689 C   0  0  1  0  0  0  0  0  0  0  0  0
    7.7854  -13.7873    8.3485 C   0  0  1  0  0  0  0  0  0  0  0  0
    8.5401  -14.3850    7.1225 C   0  0  1  0  0  0  0  0  0  0  0  0
    7.4667  -15.0787    6.1379 C   0  0  2  0  0  0  0  0  0  0  0  0
    9.9917  -13.2600    5.3718 C   0  0  2  0  0  0  0  0  0  0  0  0
   10.1366  -11.8611    4.7079 C   0  0  1  0  0  0  0  0  0  0  0  0
   11.4539  -12.0977    4.0097 C   0  0  1  0  0  0  0  0  0  0  0  0
   12.3563  -12.7811    5.0857 C   0  0  1  0  0  0  0  0  0  0  0  0
   13.0652  -11.8372    6.1193 C   0  0  0  0  0  0  0  0  0  0  0  0
   12.3507  -13.4332    2.1399 C   0  0  1  0  0  0  0  0  0  0  0  0
   12.0611  -14.1280    0.8429 C   0  0  1  0  0  0  0  0  0  0  0  0
   10.5998  -11.7706    9.8751 C   0  0  1  0  0  0  0  0  0  0  0  0
   13.4205  -14.6043    0.2188 C   0  0  0  0  0  0  0  0  0  0  0  0
   14.1656  -15.5224    1.0316 C   0  0  0  0  0  0  0  0  0  0  0  0
   14.4952  -14.8726    2.2823 C   0  0  2  0  0  0  0  0  0  0  0  0
   15.3109  -15.8410    3.2266 C   0  0  0  0  0  0  0  0  0  0  0  0
    4.9107  -20.2396    4.8215 C   0  0  2  0  0  0  0  0  0  0  0  0
    5.8541  -18.4004    5.9530 C   0  0  0  0  0  0  0  0  0  0  0  0
    3.8514  -20.7917    4.1264 C   0  0  0  0  0  0  0  0  0  0  0  0
    4.6938  -18.9084    4.9636 C   0  0  1  0  0  0  0  0  0  0  0  0
   10.4504  -11.9744   11.4511 C   0  0  0  0  0  0  0  0  0  0  0  0
    9.4366  -10.8625   12.0064 C   0  0  0  0  0  0  0  0  0  0  0  0
    8.0384  -11.0527   11.2549 C   0  0  1  0  0  0  0  0  0  0  0  0
    6.9989  -10.0218   11.7109 C   0  0  0  0  0  0  0  0  0  0  0  0
    6.7702  -16.2705    6.9286 C   0  0  1  0  0  0  0  0  0  0  0  0
    5.9858  -15.5881    8.1716 C   0  0  0  0  0  0  0  0  0  0  0  0
    7.0151  -14.8781    9.1331 C   0  0  2  0  0  0  0  0  0  0  0  0
    6.1475  -20.5432    4.1376 F   0  0  0  0  0  0  0  0  0  0  0  0
   16.7697  -16.0805    2.7420 N   0  0  0  0  0  0  0  0  0  0  0  0
   11.5268  -12.7877    9.2541 N   0  0  0  0  0  0  0  0  0  0  0  0
   11.2880  -15.2850    0.9736 N   0  0  0  0  0  0  0  0  0  0  0  0
    2.4863  -20.9425    4.4657 N   0  0  0  0  0  0  0  0  0  0  0  0
    7.4837   -8.7066   11.5488 N   0  0  0  0  0  0  0  0  0  0  0  0
    5.7887  -16.9412    6.0572 N   0  0  0  0  0  0  0  0  0  0  0  0
    6.3113  -14.2392   10.2671 N   0  0  0  0  0  0  0  0  0  0  0  0
    8.7052  -13.2013    9.2607 O   0  0  0  0  0  0  0  0  0  0  0  0
    9.2427  -13.2425    6.4487 O   0  0  0  0  0  0  0  0  0  0  0  0
    8.1569  -15.5982    5.0655 O   0  0  0  0  0  0  0  0  0  0  0  0
    9.0576  -11.6733    3.8432 O   0  0  0  0  0  0  0  0  0  0  0  0
   11.3770  -13.7154    5.5692 O   0  0  0  0  0  0  0  0  0  0  0  0
   13.8717  -12.6683    6.9777 O   0  0  0  0  0  0  0  0  0  0  0  0
   11.2278  -13.0072    2.8156 O   0  0  0  0  0  0  0  0  0  0  0  0
    4.7695  -18.1870    3.7146 O   0  0  0  0  0  0  0  0  0  0  0  0
    6.6582  -19.1439    6.5389 O   0  0  0  0  0  0  0  0  0  0  0  0
   13.2399  -14.3908    2.9706 O   0  0  0  0  0  0  0  0  0  0  0  0
    8.2370  -10.9102    9.7548 O   0  0  0  0  0  0  0  0  0  0  0  0
  1 36  1  1  0  0  0
  2 36  1  1  0  0  0
  2  3  1  0  0  0  0
  3 37  1  6  0  0  0
  3  4  1  0  0  0  0
  4 38  1  6  0  0  0
  5 37  1  1  0  0  0
  5  6  1  0  0  0  0
  6  7  1  0  0  0  0
  6 39  1  6  0  0  0
  7 42  1  6  0  0  0
  8  9  1  1  0  0  0
  8  7  1  0  0  0  0
 10 42  1  1  0  0  0
 10 11  1  0  0  0  0
 11 31  1  1  0  0  0
 11 13  1  0  0  0  0
 12 30  1  6  0  0  0
 12  1  1  0  0  0  0
 14 13  1  0  0  0  0
 15 16  1  1  0  0  0
 15 14  1  0  0  0  0
 17 19  1  6  0  0  0
 17 28  1  0  0  0  0
 18 34  1  0  0  0  0
 19 32  1  0  0  0  0
 20 18  1  1  0  0  0
 20 17  1  0  0  0  0
 20 43  1  0  0  0  0
 21 12  1  0  0  0  0
 22 21  1  0  0  0  0
 22 23  1  0  0  0  0
 23 24  1  1  0  0  0
 23 46  1  0  0  0  0
 24 33  1  0  0  0  0
 25 34  1  6  0  0  0
 25  4  1  0  0  0  0
 26 25  1  0  0  0  0
 27 35  1  1  0  0  0
 27 26  1  0  0  0  0
 27  2  1  0  0  0  0
 29 16  1  0  0  0  0
 40  8  1  0  0  0  0
 40  5  1  0  0  0  0
 41  9  1  0  0  0  0
 44 18  2  0  0  0  0
 45 15  1  0  0  0  0
 45 10  1  0  0  0  0
 46  1  1  0  0  0  0
M  END
>  <CHROM.1>
-154.51044604,84.47336320,-179.41153877,160.08753225,-173.80548084,-178.08710129
-170.03213268,71.97863844,-66.06406492,174.09063245,172.11025205,55.40567288
129.88438264,9.31485686,-14.53982180,6.03259591,0.32972329,0.55372115,0.86057069

>  <Name>
lig.pdb

>  <RI>
0

>  <Rbt.Current_Directory>
/home/afrankz/demos/rdock_decoys_rna/rnas/3wru

>  <Rbt.Executable>
rbdock ($Id: //depot/dev/client3/rdock/2013.1/src/exe/rbdock.cxx#4 $)

>  <Rbt.Library>
libRbt.so (2013.1, Build901 2013/11/27)

>  <Rbt.Parameter_File>
/export/apps/rDock/src/rDock_2013.1_src/data/scripts/dock_solv.prm

>  <Rbt.Receptor>
prm/pocket_docking_8.prm

>  <SCORE>
-4.12146

>  <SCORE.INTER>
-1.95051

>  <SCORE.INTER.CONST>
1

>  <SCORE.INTER.POLAR>
0

>  <SCORE.INTER.ROT>
13

>  <SCORE.INTER.SOLV>
25.1809

>  <SCORE.INTER.VDW>
-21.9606

>  <SCORE.INTER.norm>
-0.0424024

>  <SCORE.INTRA>
-2.17095

>  <SCORE.INTRA.DIHEDRAL>
-8.85408

>  <SCORE.INTRA.DIHEDRAL.0>
19.7146

>  <SCORE.INTRA.POLAR>
0

>  <SCORE.INTRA.POLAR.0>
0

>  <SCORE.INTRA.REPUL>
0

>  <SCORE.INTRA.REPUL.0>
0

>  <SCORE.INTRA.SOLV>
0.716466

>  <SCORE.INTRA.SOLV.lig_0>
-116.697

>  <SCORE.INTRA.VDW>
1.89785

>  <SCORE.INTRA.VDW.0>
-7.06424

>  <SCORE.INTRA.norm>
-0.0471947

>  <SCORE.RESTR>
0

>  <SCORE.RESTR.CAVITY>
0

>  <SCORE.RESTR.norm>
0

>  <SCORE.SYSTEM>
0

>  <SCORE.SYSTEM.CONST>
0

>  <SCORE.SYSTEM.DIHEDRAL>
0

>  <SCORE.SYSTEM.SOLV>
0

>  <SCORE.SYSTEM.norm>
0

>  <SCORE.heavy>
46

>  <SCORE.norm>
-0.089597

>  <RMSD>
10.466

$$$$
lig.pdb
 OpenBabel03061811583D
libRbt.so/2013.1/901 2013/11/27
 46 49  0  0  0  0  0  0  0  0999 V2000
    6.6490  -14.7104   12.7610 C   0  0  1  0  0  0  0  0  0  0  0  0
    6.8371  -17.1771   12.2247 C   0  0  1  0  0  0  0  0  0  0  0  0
    8.0298  -17.3976   13.2038 C   0  0  1  0  0  0  0  0  0  0  0  0
    8.8094  -18.7449   12.7798 C   0  0  2  0  0  0  0  0  0  0  0  0
    9.7126  -15.8535   12.0984 C   0  0  2  0  0  0  0  0  0  0  0  0
   11.0273  -16.6838   12.0659 C   0  0  1  0  0  0  0  0  0  0  0  0
   11.3313  -16.5341   10.5948 C   0  0  1  0  0  0  0  0  0  0  0  0
    9.9704  -16.8064    9.8785 C   0  0  1  0  0  0  0  0  0  0  0  0
    9.5768  -18.3082    9.6520 C   0  0  0  0  0  0  0  0  0  0  0  0
   13.1475  -14.8654   10.6220 C   0  0  1  0  0  0  0  0  0  0  0  0
   13.5500  -13.4330   10.4349 C   0  0  1  0  0  0  0  0  0  0  0  0
    5.5548  -13.7009   13.1816 C   0  0  1  0  0  0  0  0  0  0  0  0
   15.0830  -13.3018   10.7465 C   0  0  0  0  0  0  0  0  0  0  0  0
   15.9365  -14.0925    9.9069 C   0  0  0  0  0  0  0  0  0  0  0  0
   15.6005  -15.4888   10.0877 C   0  0  2  0  0  0  0  0  0  0  0  0
   16.5041  -16.4117    9.1785 C   0  0  0  0  0  0  0  0  0  0  0  0
    8.8518  -23.5176   10.9453 C   0  0  2  0  0  0  0  0  0  0  0  0
    7.7423  -22.4742   12.7435 C   0  0  0  0  0  0  0  0  0  0  0  0
    9.7992  -24.4185   10.4972 C   0  0  0  0  0  0  0  0  0  0  0  0
    8.6692  -23.7014   12.2766 C   0  0  1  0  0  0  0  0  0  0  0  0
    4.4954  -13.4818   12.0079 C   0  0  0  0  0  0  0  0  0  0  0  0
    5.2838  -12.9616   10.7117 C   0  0  0  0  0  0  0  0  0  0  0  0
    6.3718  -14.0663   10.3217 C   0  0  1  0  0  0  0  0  0  0  0  0
    7.1913  -13.6532    9.0932 C   0  0  0  0  0  0  0  0  0  0  0  0
    7.8020  -19.9666   12.9326 C   0  0  1  0  0  0  0  0  0  0  0  0
    6.6016  -19.6945   11.8784 C   0  0  0  0  0  0  0  0  0  0  0  0
    5.8432  -18.3646   12.2577 C   0  0  2  0  0  0  0  0  0  0  0  0
    7.6361  -23.6740   10.1790 F   0  0  0  0  0  0  0  0  0  0  0  0
   15.9647  -17.8659    9.0579 N   0  0  0  0  0  0  0  0  0  0  0  0
    4.9069  -14.2100   14.4467 N   0  0  0  0  0  0  0  0  0  0  0  0
   13.3960  -12.9612    9.1283 N   0  0  0  0  0  0  0  0  0  0  0  0
   10.3325  -24.6520    9.2078 N   0  0  0  0  0  0  0  0  0  0  0  0
    7.9697  -12.5079    9.3643 N   0  0  0  0  0  0  0  0  0  0  0  0
    8.4812  -21.2224   12.5664 N   0  0  0  0  0  0  0  0  0  0  0  0
    4.7515  -18.0964   11.2956 N   0  0  0  0  0  0  0  0  0  0  0  0
    6.1004  -16.0179   12.5921 O   0  0  0  0  0  0  0  0  0  0  0  0
    8.9156  -16.1918   13.0840 O   0  0  0  0  0  0  0  0  0  0  0  0
    9.8558  -18.9172   13.6582 O   0  0  0  0  0  0  0  0  0  0  0  0
   11.9551  -16.0673   12.9063 O   0  0  0  0  0  0  0  0  0  0  0  0
    9.1512  -16.0060   10.7469 O   0  0  0  0  0  0  0  0  0  0  0  0
    8.3684  -18.3222    8.8661 O   0  0  0  0  0  0  0  0  0  0  0  0
   11.8258  -15.1236   10.3299 O   0  0  0  0  0  0  0  0  0  0  0  0
    8.0160  -24.9509   12.5902 O   0  0  0  0  0  0  0  0  0  0  0  0
    6.5810  -22.5884   13.1689 O   0  0  0  0  0  0  0  0  0  0  0  0
   14.1372  -15.7195    9.7920 O   0  0  0  0  0  0  0  0  0  0  0  0
    7.3222  -14.2863   11.4871 O   0  0  0  0  0  0  0  0  0  0  0  0
  1 36  1  6  0  0  0
  2 36  1  1  0  0  0
  2  3  1  0  0  0  0
  3 37  1  6  0  0  0
  3  4  1  0  0  0  0
  4 38  1  1  0  0  0
  5 37  1  1  0  0  0
  5  6  1  0  0  0  0
  6  7  1  0  0  0  0
  6 39  1  1  0  0  0
  7 42  1  1  0  0  0
  8  9  1  1  0  0  0
  8  7  1  0  0  0  0
 10 42  1  6  0  0  0
 10 11  1  0  0  0  0
 11 31  1  6  0  0  0
 11 13  1  0  0  0  0
 12 30  1  1  0  0  0
 12  1  1  0  0  0  0
 14 13  1  0  0  0  0
 15 16  1  6  0  0  0
 15 14  1  0  0  0  0
 17 19  1  6  0  0  0
 17 28  1  0  0  0  0
 18 34  1  0  0  0  0
 19 32  1  0  0  0  0
 20 18  1  6  0  0  0
 20 17  1  0  0  0  0
 20 43  1  0  0  0  0
 21 12  1  0  0  0  0
 22 21  1  0  0  0  0
 22 23  1  0  0  0  0
 23 24  1  6  0  0  0
 23 46  1  0  0  0  0
 24 33  1  0  0  0  0
 25 34  1  6  0  0  0
 25  4  1  0  0  0  0
 26 25  1  0  0  0  0
 27 35  1  6  0  0  0
 27 26  1  0  0  0  0
 27  2  1  0  0  0  0
 29 16  1  0  0  0  0
 40  8  1  0  0  0  0
 40  5  1  0  0  0  0
 41  9  1  0  0  0  0
 44 18  2  0  0  0  0
 45 15  1  0  0  0  0
 45 10  1  0  0  0  0
 46  1  1  0  0  0  0
M  END
>  <CHROM.1>
-179.23101426,54.79837346,-72.58173525,-76.03080553,80.29873719,-174.34831633
-175.73577993,-165.63249480,179.13383231,-64.90309054,171.28726958,64.95702332
175.37262950,9.37494295,-17.42197704,11.28650317,1.00544379,0.25919699,-0.02992515

>  <Name>
lig.pdb

>  <RI>
0

>  <Rbt.Current_Directory>
/home/afrankz/demos/rdock_decoys_rna/rnas/3wru

>  <Rbt.Executable>
rbdock ($Id: //depot/dev/client3/rdock/2013.1/src/exe/rbdock.cxx#4 $)

>  <Rbt.Library>
libRbt.so (2013.1, Build901 2013/11/27)

>  <Rbt.Parameter_File>
/export/apps/rDock/src/rDock_2013.1_src/data/scripts/dock_solv.prm

>  <Rbt.Receptor>
prm/pocket_docking_7.prm

>  <SCORE>
-0.471988

>  <SCORE.INTER>
5.23145

>  <SCORE.INTER.CONST>
1

>  <SCORE.INTER.POLAR>
0

>  <SCORE.INTER.ROT>
13

>  <SCORE.INTER.SOLV>
17.7396

>  <SCORE.INTER.VDW>
-14.6922

>  <SCORE.INTER.norm>
0.113727

>  <SCORE.INTRA>
-5.70491

>  <SCORE.INTRA.DIHEDRAL>
-13.4794

>  <SCORE.INTRA.DIHEDRAL.0>
19.7146

>  <SCORE.INTRA.POLAR>
0

>  <SCORE.INTRA.POLAR.0>
0

>  <SCORE.INTRA.REPUL>
0.215152

>  <SCORE.INTRA.REPUL.0>
0

>  <SCORE.INTRA.SOLV>
-1.32487

>  <SCORE.INTRA.SOLV.lig_0>
-116.697

>  <SCORE.INTRA.VDW>
0.621463

>  <SCORE.INTRA.VDW.0>
-7.06424

>  <SCORE.INTRA.norm>
-0.12402

>  <SCORE.RESTR>
0.00147575

>  <SCORE.RESTR.CAVITY>
0.00147575

>  <SCORE.RESTR.norm>
3.20815e-05

>  <SCORE.SYSTEM>
0

>  <SCORE.SYSTEM.CONST>
0

>  <SCORE.SYSTEM.DIHEDRAL>
0

>  <SCORE.SYSTEM.SOLV>
0

>  <SCORE.SYSTEM.norm>
0

>  <SCORE.heavy>
46

>  <SCORE.norm>
-0.0102606

>  <RMSD>
10.489

$$$$
lig.pdb
 OpenBabel03061811583D
libRbt.so/2013.1/901 2013/11/27
 46 49  0  0  0  0  0  0  0  0999 V2000
    8.9325  -18.0950    8.5642 C   0  0  1  0  0  0  0  0  0  0  0  0
    7.8880  -16.3469   10.0679 C   0  0  1  0  0  0  0  0  0  0  0  0
    6.4625  -16.2908    9.4398 C   0  0  1  0  0  0  0  0  0  0  0  0
    5.8047  -14.8548    9.7686 C   0  0  2  0  0  0  0  0  0  0  0  0
    7.3294  -15.7710    7.1125 C   0  0  2  0  0  0  0  0  0  0  0  0
    6.6726  -14.3976    6.7945 C   0  0  1  0  0  0  0  0  0  0  0  0
    7.9253  -13.6552    6.3965 C   0  0  1  0  0  0  0  0  0  0  0  0
    8.9705  -14.0215    7.4976 C   0  0  1  0  0  0  0  0  0  0  0  0
    8.9042  -13.2067    8.8368 C   0  0  0  0  0  0  0  0  0  0  0  0
    9.5955  -13.6799    4.5816 C   0  0  1  0  0  0  0  0  0  0  0  0
    9.5737  -12.2832    4.0360 C   0  0  1  0  0  0  0  0  0  0  0  0
    8.7042  -19.6197    8.4363 C   0  0  1  0  0  0  0  0  0  0  0  0
   11.0126  -11.9282    3.5186 C   0  0  0  0  0  0  0  0  0  0  0  0
   11.5028  -12.7810    2.4741 C   0  0  0  0  0  0  0  0  0  0  0  0
   11.5717  -14.1368    2.9763 C   0  0  2  0  0  0  0  0  0  0  0  0
   12.0978  -15.1273    1.8641 C   0  0  0  0  0  0  0  0  0  0  0  0
    5.4301  -10.5363   12.6860 C   0  0  2  0  0  0  0  0  0  0  0  0
    5.5982  -12.2297   11.0559 C   0  0  0  0  0  0  0  0  0  0  0  0
    6.4851   -9.7246   12.3142 C   0  0  0  0  0  0  0  0  0  0  0  0
    4.7789  -10.9456   11.5690 C   0  0  1  0  0  0  0  0  0  0  0  0
    9.6307  -20.4255    9.4563 C   0  0  0  0  0  0  0  0  0  0  0  0
   11.1593  -20.0497    9.1491 C   0  0  0  0  0  0  0  0  0  0  0  0
   11.3232  -18.4697    9.3300 C   0  0  1  0  0  0  0  0  0  0  0  0
   12.7569  -18.0069    9.0444 C   0  0  0  0  0  0  0  0  0  0  0  0
    5.6628  -14.7273   11.3480 C   0  0  1  0  0  0  0  0  0  0  0  0
    7.1708  -14.7678   11.9400 C   0  0  0  0  0  0  0  0  0  0  0  0
    7.8440  -16.1542   11.6041 C   0  0  2  0  0  0  0  0  0  0  0  0
    4.5771   -9.8257   13.6117 F   0  0  0  0  0  0  0  0  0  0  0  0
   11.0768  -15.3490    0.7115 N   0  0  0  0  0  0  0  0  0  0  0  0
    7.2367  -19.8955    8.6592 N   0  0  0  0  0  0  0  0  0  0  0  0
    8.7312  -12.1123    2.9339 N   0  0  0  0  0  0  0  0  0  0  0  0
    7.4799   -9.0730   13.0804 N   0  0  0  0  0  0  0  0  0  0  0  0
   13.6540  -18.5081   10.0114 N   0  0  0  0  0  0  0  0  0  0  0  0
    5.0517  -13.4307   11.6911 N   0  0  0  0  0  0  0  0  0  0  0  0
    9.2270  -16.2008   12.1280 N   0  0  0  0  0  0  0  0  0  0  0  0
    8.4849  -17.6157    9.8327 O   0  0  0  0  0  0  0  0  0  0  0  0
    6.6335  -16.4889    7.9618 O   0  0  0  0  0  0  0  0  0  0  0  0
    4.5487  -14.8306    9.2047 O   0  0  0  0  0  0  0  0  0  0  0  0
    5.7612  -14.5790    5.7535 O   0  0  0  0  0  0  0  0  0  0  0  0
    8.6964  -15.4318    7.5384 O   0  0  0  0  0  0  0  0  0  0  0  0
    9.2323  -11.8382    8.5242 O   0  0  0  0  0  0  0  0  0  0  0  0
    8.3720  -14.1319    5.0262 O   0  0  0  0  0  0  0  0  0  0  0  0
    3.4047  -11.3137   11.8188 O   0  0  0  0  0  0  0  0  0  0  0  0
    6.5324  -12.1909   10.2384 O   0  0  0  0  0  0  0  0  0  0  0  0
   10.2196  -14.5778    3.4853 O   0  0  0  0  0  0  0  0  0  0  0  0
   10.3815  -17.7430    8.3839 O   0  0  0  0  0  0  0  0  0  0  0  0
  1 36  1  1  0  0  0
  2 36  1  1  0  0  0
  2  3  1  0  0  0  0
  3 37  1  6  0  0  0
  3  4  1  0  0  0  0
  4 38  1  6  0  0  0
  5 37  1  1  0  0  0
  5  6  1  0  0  0  0
  6  7  1  0  0  0  0
  6 39  1  6  0  0  0
  7 42  1  6  0  0  0
  8  9  1  1  0  0  0
  8  7  1  0  0  0  0
 10 42  1  6  0  0  0
 10 11  1  0  0  0  0
 11 31  1  6  0  0  0
 11 13  1  0  0  0  0
 12 30  1  1  0  0  0
 12  1  1  0  0  0  0
 14 13  1  0  0  0  0
 15 16  1  6  0  0  0
 15 14  1  0  0  0  0
 17 19  1  6  0  0  0
 17 28  1  0  0  0  0
 18 34  1  0  0  0  0
 19 32  1  0  0  0  0
 20 18  1  1  0  0  0
 20 17  1  0  0  0  0
 20 43  1  0  0  0  0
 21 12  1  0  0  0  0
 22 21  1  0  0  0  0
 22 23  1  0  0  0  0
 23 24  1  6  0  0  0
 23 46  1  0  0  0  0
 24 33  1  0  0  0  0
 25 34  1  6  0  0  0
 25  4  1  0  0  0  0
 26 25  1  0  0  0  0
 27 35  1  6  0  0  0
 27 26  1  0  0  0  0
 27  2  1  0  0  0  0
 29 16  1  0  0  0  0
 40  8  1  0  0  0  0
 40  5  1  0  0  0  0
 41  9  1  0  0  0  0
 44 18  2  0  0  0  0
 45 15  1  0  0  0  0
 45 10  1  0  0  0  0
 46  1  1  0  0  0  0
M  END
>  <CHROM.1>
-145.02300129,70.02107080,-59.01384344,-73.12471119,-172.05548843,-65.14834373
-79.20501903,-69.85367070,-178.36897350,89.04381618,84.39328297,-66.69689237
-48.11298852,8.22602920,-14.68638298,8.33365586,-0.24930402,-0.99183833,2.38390228

>  <Name>
lig.pdb

>  <RI>
0

>  <Rbt.Current_Directory>
/home/afrankz/demos/rdock_decoys_rna/rnas/3wru

>  <Rbt.Executable>
rbdock ($Id: //depot/dev/client3/rdock/2013.1/src/exe/rbdock.cxx#4 $)

>  <Rbt.Library>
libRbt.so (2013.1, Build901 2013/11/27)

>  <Rbt.Parameter_File>
/export/apps/rDock/src/rDock_2013.1_src/data/scripts/dock_solv.prm

>  <Rbt.Receptor>
prm/pocket_docking_8.prm

>  <SCORE>
-0.772865

>  <SCORE.INTER>
1.68821

>  <SCORE.INTER.CONST>
1

>  <SCORE.INTER.POLAR>
0

>  <SCORE.INTER.ROT>
13

>  <SCORE.INTER.SOLV>
23.8723

>  <SCORE.INTER.VDW>
-19.0986

>  <SCORE.INTER.norm>
0.0367003

>  <SCORE.INTRA>
-2.47283

>  <SCORE.INTRA.DIHEDRAL>
-7.77263

>  <SCORE.INTRA.DIHEDRAL.0>
19.7146

>  <SCORE.INTRA.POLAR>
0

>  <SCORE.INTRA.POLAR.0>
0

>  <SCORE.INTRA.REPUL>
0.0659246

>  <SCORE.INTRA.REPUL.0>
0

>  <SCORE.INTRA.SOLV>
0.546032

>  <SCORE.INTRA.SOLV.lig_0>
-116.697

>  <SCORE.INTRA.VDW>
0.810852

>  <SCORE.INTRA.VDW.0>
-7.06424

>  <SCORE.INTRA.norm>
-0.0537571

>  <SCORE.RESTR>
0.011747

>  <SCORE.RESTR.CAVITY>
0.011747

>  <SCORE.RESTR.norm>
0.00025537

>  <SCORE.SYSTEM>
0

>  <SCORE.SYSTEM.CONST>
0

>  <SCORE.SYSTEM.DIHEDRAL>
0

>  <SCORE.SYSTEM.SOLV>
0

>  <SCORE.SYSTEM.norm>
0

>  <SCORE.heavy>
46

>  <SCORE.norm>
-0.0168014

>  <RMSD>
10.512

$$$$
lig.pdb
 OpenBabel03061811583D
libRbt.so/2013.1/901 2013/11/27
 46 49  0  0  0  0  0  0  0  0999 V2000
    9.0524  -15.1535   12.8737 C   0  0  1  0  0  0  0  0  0  0  0  0
    8.3192  -15.2485   10.4527 C   0  0  1  0  0  0  0  0  0  0  0  0
    9.1512  -16.5045   10.0526 C   0  0  1  0  0  0  0  0  0  0  0  0
    8.4207  -17.2410    8.8169 C   0  0  2  0  0  0  0  0  0  0  0  0
   10.8954  -15.4300    8.5556 C   0  0  2  0  0  0  0  0  0  0  0  0
   12.3403  -14.8593    8.6291 C   0  0  1  0  0  0  0  0  0  0  0  0
   12.6510  -14.8890    7.1521 C   0  0  1  0  0  0  0  0  0  0  0  0
   12.1645  -16.2934    6.6724 C   0  0  1  0  0  0  0  0  0  0  0  0
   13.1390  -17.5001    6.9093 C   0  0  0  0  0  0  0  0  0  0  0  0
   12.4040  -12.4999    6.5911 C   0  0  1  0  0  0  0  0  0  0  0  0
   11.5863  -11.4353    5.9226 C   0  0  1  0  0  0  0  0  0  0  0  0
    9.6037  -14.1049   13.8685 C   0  0  1  0  0  0  0  0  0  0  0  0
   12.3180  -10.0583    6.1035 C   0  0  0  0  0  0  0  0  0  0  0  0
   13.6340   -9.9981    5.5348 C   0  0  0  0  0  0  0  0  0  0  0  0
   14.4648  -10.9909    6.1823 C   0  0  2  0  0  0  0  0  0  0  0  0
   15.9289  -10.9788    5.5896 C   0  0  0  0  0  0  0  0  0  0  0  0
    6.3411  -19.6480    5.5002 C   0  0  2  0  0  0  0  0  0  0  0  0
    6.2529  -17.7564    6.9028 C   0  0  0  0  0  0  0  0  0  0  0  0
    5.6699  -20.6309    4.7977 C   0  0  0  0  0  0  0  0  0  0  0  0
    5.4541  -18.6895    5.8661 C   0  0  1  0  0  0  0  0  0  0  0  0
   11.1041  -13.7012   13.5027 C   0  0  0  0  0  0  0  0  0  0  0  0
   11.9998  -15.0315   13.5212 C   0  0  0  0  0  0  0  0  0  0  0  0
   11.3889  -16.0506   12.4516 C   0  0  1  0  0  0  0  0  0  0  0  0
   12.1737  -17.3670   12.4025 C   0  0  0  0  0  0  0  0  0  0  0  0
    6.9870  -17.7242    9.3086 C   0  0  1  0  0  0  0  0  0  0  0  0
    6.1642  -16.3802    9.6861 C   0  0  0  0  0  0  0  0  0  0  0  0
    6.8780  -15.6279   10.8745 C   0  0  2  0  0  0  0  0  0  0  0  0
    7.4289  -19.1375    4.6967 F   0  0  0  0  0  0  0  0  0  0  0  0
   16.8589  -12.0441    6.2380 N   0  0  0  0  0  0  0  0  0  0  0  0
    8.6748  -12.9147   13.8597 N   0  0  0  0  0  0  0  0  0  0  0  0
   11.4475  -11.6025    4.5419 N   0  0  0  0  0  0  0  0  0  0  0  0
    4.6190  -21.4993    5.1754 N   0  0  0  0  0  0  0  0  0  0  0  0
   13.4763  -17.1628   11.8999 N   0  0  0  0  0  0  0  0  0  0  0  0
    6.2896  -18.4160    8.2097 N   0  0  0  0  0  0  0  0  0  0  0  0
    6.1442  -14.3909   11.2220 N   0  0  0  0  0  0  0  0  0  0  0  0
    8.9119  -14.5944   11.5673 O   0  0  0  0  0  0  0  0  0  0  0  0
   10.5165  -16.0138    9.6677 O   0  0  0  0  0  0  0  0  0  0  0  0
    9.1732  -18.3450    8.4835 O   0  0  0  0  0  0  0  0  0  0  0  0
   12.2767  -13.5760    9.1735 O   0  0  0  0  0  0  0  0  0  0  0  0
   10.9018  -16.2864    7.3591 O   0  0  0  0  0  0  0  0  0  0  0  0
   13.2560  -17.6849    8.3342 O   0  0  0  0  0  0  0  0  0  0  0  0
   11.8903  -13.7719    6.4610 O   0  0  0  0  0  0  0  0  0  0  0  0
    4.9907  -17.8938    4.7533 O   0  0  0  0  0  0  0  0  0  0  0  0
    6.7642  -16.6610    6.6177 O   0  0  0  0  0  0  0  0  0  0  0  0
   13.8470  -12.3626    6.0463 O   0  0  0  0  0  0  0  0  0  0  0  0
    9.9432  -16.3607   12.8037 O   0  0  0  0  0  0  0  0  0  0  0  0
  1 36  1  6  0  0  0
  2 36  1  1  0  0  0
  2  3  1  0  0  0  0
  3 37  1  6  0  0  0
  3  4  1  0  0  0  0
  4 38  1  1  0  0  0
  5 37  1  1  0  0  0
  5  6  1  0  0  0  0
  6  7  1  0  0  0  0
  6 39  1  6  0  0  0
  7 42  1  6  0  0  0
  8  9  1  1  0  0  0
  8  7  1  0  0  0  0
 10 42  1  6  0  0  0
 10 11  1  0  0  0  0
 11 31  1  6  0  0  0
 11 13  1  0  0  0  0
 12 30  1  6  0  0  0
 12  1  1  0  0  0  0
 14 13  1  0  0  0  0
 15 16  1  6  0  0  0
 15 14  1  0  0  0  0
 17 19  1  6  0  0  0
 17 28  1  0  0  0  0
 18 34  1  0  0  0  0
 19 32  1  0  0  0  0
 20 18  1  1  0  0  0
 20 17  1  0  0  0  0
 20 43  1  0  0  0  0
 21 12  1  0  0  0  0
 22 21  1  0  0  0  0
 22 23  1  0  0  0  0
 23 24  1  1  0  0  0
 23 46  1  0  0  0  0
 24 33  1  0  0  0  0
 25 34  1  6  0  0  0
 25  4  1  0  0  0  0
 26 25  1  0  0  0  0
 27 35  1  6  0  0  0
 27 26  1  0  0  0  0
 27  2  1  0  0  0  0
 29 16  1  0  0  0  0
 40  8  1  0  0  0  0
 40  5  1  0  0  0  0
 41  9  1  0  0  0  0
 44 18  2  0  0  0  0
 45 15  1  0  0  0  0
 45 10  1  0  0  0  0
 46  1  1  0  0  0  0
M  END
>  <CHROM.1>
-173.90584269,-63.99909297,-77.09325674,170.46044712,77.60452715,65.85245651
-178.20858276,-179.14520039,-61.64397563,-78.71837394,169.34387332,-66.81349661
-48.86386845,10.08624220,-15.52118169,8.47889544,3.07964340,-0.70320453,-1.62230945

>  <Name>
lig.pdb

>  <RI>
0

>  <Rbt.Current_Directory>
/home/afrankz/demos/rdock_decoys_rna/rnas/3wru

>  <Rbt.Executable>
rbdock ($Id: //depot/dev/client3/rdock/2013.1/src/exe/rbdock.cxx#4 $)

>  <Rbt.Library>
libRbt.so (2013.1, Build901 2013/11/27)

>  <Rbt.Parameter_File>
/export/apps/rDock/src/rDock_2013.1_src/data/scripts/dock_solv.prm

>  <Rbt.Receptor>
prm/pocket_docking_7.prm

>  <SCORE>
-4.24183

>  <SCORE.INTER>
1.38898

>  <SCORE.INTER.CONST>
1

>  <SCORE.INTER.POLAR>
0

>  <SCORE.INTER.ROT>
13

>  <SCORE.INTER.SOLV>
16.1731

>  <SCORE.INTER.VDW>
-16.7317

>  <SCORE.INTER.norm>
0.0301953

>  <SCORE.INTRA>
-5.63081

>  <SCORE.INTRA.DIHEDRAL>
-14.0662

>  <SCORE.INTRA.DIHEDRAL.0>
19.7146

>  <SCORE.INTRA.POLAR>
0

>  <SCORE.INTRA.POLAR.0>
0

>  <SCORE.INTRA.REPUL>
0

>  <SCORE.INTRA.REPUL.0>
0

>  <SCORE.INTRA.SOLV>
0.39907

>  <SCORE.INTRA.SOLV.lig_0>
-116.697

>  <SCORE.INTRA.VDW>
1.20273

>  <SCORE.INTRA.VDW.0>
-7.06424

>  <SCORE.INTRA.norm>
-0.122409

>  <SCORE.RESTR>
0

>  <SCORE.RESTR.CAVITY>
0

>  <SCORE.RESTR.norm>
0

>  <SCORE.SYSTEM>
0

>  <SCORE.SYSTEM.CONST>
0

>  <SCORE.SYSTEM.DIHEDRAL>
0

>  <SCORE.SYSTEM.SOLV>
0

>  <SCORE.SYSTEM.norm>
0

>  <SCORE.heavy>
46

>  <SCORE.norm>
-0.0922137

>  <RMSD>
10.533

$$$$
lig.pdb
 OpenBabel03061811583D
libRbt.so/2013.1/901 2013/11/27
 46 49  0  0  0  0  0  0  0  0999 V2000
   11.0960  -15.0898   12.1274 C   0  0  1  0  0  0  0  0  0  0  0  0
    9.9293  -17.2917   11.6820 C   0  0  1  0  0  0  0  0  0  0  0  0
   10.7400  -17.5975   10.3863 C   0  0  1  0  0  0  0  0  0  0  0  0
    9.9151  -18.6590    9.4942 C   0  0  2  0  0  0  0  0  0  0  0  0
   11.8274  -15.9512    8.7909 C   0  0  2  0  0  0  0  0  0  0  0  0
   13.2329  -15.7554    9.4271 C   0  0  1  0  0  0  0  0  0  0  0  0
   14.0593  -16.0285    8.1937 C   0  0  1  0  0  0  0  0  0  0  0  0
   13.4260  -17.3115    7.5677 C   0  0  1  0  0  0  0  0  0  0  0  0
   13.8663  -18.6888    8.1767 C   0  0  0  0  0  0  0  0  0  0  0  0
   14.6887  -13.7231    7.5832 C   0  0  1  0  0  0  0  0  0  0  0  0
   14.4556  -12.5471    6.6824 C   0  0  1  0  0  0  0  0  0  0  0  0
   11.9838  -14.4613   13.2274 C   0  0  1  0  0  0  0  0  0  0  0  0
   15.3930  -11.3746    7.1415 C   0  0  0  0  0  0  0  0  0  0  0  0
   16.7957  -11.6723    7.0915 C   0  0  0  0  0  0  0  0  0  0  0  0
   17.0660  -12.7834    7.9789 C   0  0  2  0  0  0  0  0  0  0  0  0
   18.5987  -13.1646    7.9595 C   0  0  0  0  0  0  0  0  0  0  0  0
    9.2303  -24.4903    8.5311 C   0  0  2  0  0  0  0  0  0  0  0  0
    9.5674  -22.3750    9.5134 C   0  0  0  0  0  0  0  0  0  0  0  0
    8.3405  -25.4254    8.0372 C   0  0  0  0  0  0  0  0  0  0  0  0
    8.6043  -23.2897    8.6084 C   0  0  1  0  0  0  0  0  0  0  0  0
   11.1343  -14.1537   14.5433 C   0  0  0  0  0  0  0  0  0  0  0  0
    9.9339  -13.1672   14.1459 C   0  0  0  0  0  0  0  0  0  0  0  0
    9.0476  -13.8948   13.0319 C   0  0  1  0  0  0  0  0  0  0  0  0
    7.8735  -13.0211   12.5744 C   0  0  0  0  0  0  0  0  0  0  0  0
    9.7785  -20.0053   10.3306 C   0  0  1  0  0  0  0  0  0  0  0  0
    8.9106  -19.6313   11.6469 C   0  0  0  0  0  0  0  0  0  0  0  0
    9.6866  -18.5714   12.5201 C   0  0  2  0  0  0  0  0  0  0  0  0
   10.4120  -24.4615    7.6990 F   0  0  0  0  0  0  0  0  0  0  0  0
   19.1129  -13.5546    6.5440 N   0  0  0  0  0  0  0  0  0  0  0  0
   13.1336  -15.4016   13.4978 N   0  0  0  0  0  0  0  0  0  0  0  0
   14.7811  -12.7787    5.3430 N   0  0  0  0  0  0  0  0  0  0  0  0
    7.6864  -25.5258    6.7868 N   0  0  0  0  0  0  0  0  0  0  0  0
    6.9745  -12.7831   13.6356 N   0  0  0  0  0  0  0  0  0  0  0  0
    9.0402  -21.0091    9.5434 N   0  0  0  0  0  0  0  0  0  0  0  0
    8.8997  -18.2106   13.7201 N   0  0  0  0  0  0  0  0  0  0  0  0
   10.6452  -16.3884   12.5144 O   0  0  0  0  0  0  0  0  0  0  0  0
   10.9107  -16.2922    9.6652 O   0  0  0  0  0  0  0  0  0  0  0  0
   10.6508  -18.9124    8.3582 O   0  0  0  0  0  0  0  0  0  0  0  0
   13.3224  -14.4440    9.8956 O   0  0  0  0  0  0  0  0  0  0  0  0
   12.0517  -16.9115    7.6987 O   0  0  0  0  0  0  0  0  0  0  0  0
   15.3036  -18.7577    8.0896 O   0  0  0  0  0  0  0  0  0  0  0  0
   13.9556  -14.8421    7.2525 O   0  0  0  0  0  0  0  0  0  0  0  0
    8.4139  -22.6675    7.3188 O   0  0  0  0  0  0  0  0  0  0  0  0
   10.5836  -22.7836   10.0991 O   0  0  0  0  0  0  0  0  0  0  0  0
   16.2165  -13.9745    7.6030 O   0  0  0  0  0  0  0  0  0  0  0  0
    9.9083  -14.2225   11.8228 O   0  0  0  0  0  0  0  0  0  0  0  0
  1 36  1  1  0  0  0
  2 36  1  1  0  0  0
  2  3  1  0  0  0  0
  3 37  1  6  0  0  0
  3  4  1  0  0  0  0
  4 38  1  6  0  0  0
  5 37  1  1  0  0  0
  5  6  1  0  0  0  0
  6  7  1  0  0  0  0
  6 39  1  6  0  0  0
  7 42  1  6  0  0  0
  8  9  1  1  0  0  0
  8  7  1  0  0  0  0
 10 42  1  6  0  0  0
 10 11  1  0  0  0  0
 11 31  1  6  0  0  0
 11 13  1  0  0  0  0
 12 30  1  1  0  0  0
 12  1  1  0  0  0  0
 14 13  1  0  0  0  0
 15 16  1  6  0  0  0
 15 14  1  0  0  0  0
 17 19  1  6  0  0  0
 17 28  1  0  0  0  0
 18 34  1  0  0  0  0
 19 32  1  0  0  0  0
 20 18  1  1  0  0  0
 20 17  1  0  0  0  0
 20 43  1  0  0  0  0
 21 12  1  0  0  0  0
 22 21  1  0  0  0  0
 22 23  1  0  0  0  0
 23 24  1  6  0  0  0
 23 46  1  0  0  0  0
 24 33  1  0  0  0  0
 25 34  1  6  0  0  0
 25  4  1  0  0  0  0
 26 25  1  0  0  0  0
 27 35  1  1  0  0  0
 27 26  1  0  0  0  0
 27  2  1  0  0  0  0
 29 16  1  0  0  0  0
 40  8  1  0  0  0  0
 40  5  1  0  0  0  0
 41  9  1  0  0  0  0
 44 18  2  0  0  0  0
 45 15  1  0  0  0  0
 45 10  1  0  0  0  0
 46  1  1  0  0  0  0
M  END
>  <CHROM.1>
-173.15180245,57.29672014,156.73386841,-71.36820778,76.35181182,-56.05241238
-175.06452235,-58.81385696,63.80280461,174.32408083,166.36404438,-63.83546495
135.12111296,11.77105175,-17.09626616,9.61851094,0.79432507,0.70884846,0.51342039

>  <Name>
lig.pdb

>  <RI>
0

>  <Rbt.Current_Directory>
/home/afrankz/demos/rdock_decoys_rna/rnas/3wru

>  <Rbt.Executable>
rbdock ($Id: //depot/dev/client3/rdock/2013.1/src/exe/rbdock.cxx#4 $)

>  <Rbt.Library>
libRbt.so (2013.1, Build901 2013/11/27)

>  <Rbt.Parameter_File>
/export/apps/rDock/src/rDock_2013.1_src/data/scripts/dock_solv.prm

>  <Rbt.Receptor>
prm/pocket_docking_8.prm

>  <SCORE>
0.603387

>  <SCORE.INTER>
4.81041

>  <SCORE.INTER.CONST>
1

>  <SCORE.INTER.POLAR>
0

>  <SCORE.INTER.ROT>
13

>  <SCORE.INTER.SOLV>
14.9162

>  <SCORE.INTER.VDW>
-14.0318

>  <SCORE.INTER.norm>
0.104574

>  <SCORE.INTRA>
-4.20702

>  <SCORE.INTRA.DIHEDRAL>
-12.2923

>  <SCORE.INTRA.DIHEDRAL.0>
19.7146

>  <SCORE.INTRA.POLAR>
0

>  <SCORE.INTRA.POLAR.0>
0

>  <SCORE.INTRA.REPUL>
0

>  <SCORE.INTRA.REPUL.0>
0

>  <SCORE.INTRA.SOLV>
-0.287865

>  <SCORE.INTRA.SOLV.lig_0>
-116.697

>  <SCORE.INTRA.VDW>
2.08306

>  <SCORE.INTRA.VDW.0>
-7.06424

>  <SCORE.INTRA.norm>
-0.091457

>  <SCORE.RESTR>
0

>  <SCORE.RESTR.CAVITY>
0

>  <SCORE.RESTR.norm>
0

>  <SCORE.SYSTEM>
0

>  <SCORE.SYSTEM.CONST>
0

>  <SCORE.SYSTEM.DIHEDRAL>
0

>  <SCORE.SYSTEM.SOLV>
0

>  <SCORE.SYSTEM.norm>
0

>  <SCORE.heavy>
46

>  <SCORE.norm>
0.0131171

>  <RMSD>
10.533

$$$$
lig.pdb
 OpenBabel03061811583D
libRbt.so/2013.1/901 2013/11/27
 46 49  0  0  0  0  0  0  0  0999 V2000
   13.0677   -5.5324    1.9964 C   0  0  1  0  0  0  0  0  0  0  0  0
   11.9753   -6.4311    4.0957 C   0  0  1  0  0  0  0  0  0  0  0  0
   11.1022   -7.3545    3.1931 C   0  0  1  0  0  0  0  0  0  0  0  0
   10.4968   -8.5453    4.0978 C   0  0  2  0  0  0  0  0  0  0  0  0
    8.9478   -6.8592    1.9476 C   0  0  2  0  0  0  0  0  0  0  0  0
    8.2266   -5.6672    1.2563 C   0  0  1  0  0  0  0  0  0  0  0  0
    7.5559   -6.4439    0.1492 C   0  0  1  0  0  0  0  0  0  0  0  0
    8.6714   -7.3840   -0.4084 C   0  0  1  0  0  0  0  0  0  0  0  0
    9.6727   -6.7599   -1.4427 C   0  0  0  0  0  0  0  0  0  0  0  0
    5.1552   -7.0092    0.1811 C   0  0  1  0  0  0  0  0  0  0  0  0
    4.5809   -5.6613    0.5011 C   0  0  1  0  0  0  0  0  0  0  0  0
   13.4916   -6.9942    1.7194 C   0  0  1  0  0  0  0  0  0  0  0  0
    3.1491   -5.5662   -0.1353 C   0  0  0  0  0  0  0  0  0  0  0  0
    2.2145   -6.5460    0.3393 C   0  0  0  0  0  0  0  0  0  0  0  0
    2.7192   -7.8634    0.0157 C   0  0  2  0  0  0  0  0  0  0  0  0
    1.7338   -8.9886    0.5235 C   0  0  0  0  0  0  0  0  0  0  0  0
    9.1824  -12.8682    5.7668 C   0  0  2  0  0  0  0  0  0  0  0  0
   11.0968  -11.8317    4.8647 C   0  0  0  0  0  0  0  0  0  0  0  0
    8.5958  -12.2391    6.8486 C   0  0  0  0  0  0  0  0  0  0  0  0
   10.5270  -12.8781    5.9435 C   0  0  1  0  0  0  0  0  0  0  0  0
   14.7466   -7.4066    2.6155 C   0  0  0  0  0  0  0  0  0  0  0  0
   15.9473   -6.3934    2.2930 C   0  0  0  0  0  0  0  0  0  0  0  0
   15.4460   -4.9133    2.6309 C   0  0  1  0  0  0  0  0  0  0  0  0
   16.5261   -3.8637    2.3424 C   0  0  0  0  0  0  0  0  0  0  0  0
   11.7124   -9.4010    4.6645 C   0  0  1  0  0  0  0  0  0  0  0  0
   12.5662   -8.3989    5.6093 C   0  0  0  0  0  0  0  0  0  0  0  0
   13.1439   -7.2095    4.7493 C   0  0  2  0  0  0  0  0  0  0  0  0
    8.7754  -12.2095    4.5462 F   0  0  0  0  0  0  0  0  0  0  0  0
    1.6528   -9.0747    2.0747 N   0  0  0  0  0  0  0  0  0  0  0  0
   12.2976   -7.8846    1.9662 N   0  0  0  0  0  0  0  0  0  0  0  0
    4.3955   -5.4277    1.8666 N   0  0  0  0  0  0  0  0  0  0  0  0
    8.5606  -12.5772    8.2218 N   0  0  0  0  0  0  0  0  0  0  0  0
   16.5593   -3.5336    0.9709 N   0  0  0  0  0  0  0  0  0  0  0  0
   11.2004  -10.5107    5.4883 N   0  0  0  0  0  0  0  0  0  0  0  0
   13.9160   -6.2788    5.6019 N   0  0  0  0  0  0  0  0  0  0  0  0
   12.5597   -5.3902    3.3234 O   0  0  0  0  0  0  0  0  0  0  0  0
   10.0134   -6.4946    2.6204 O   0  0  0  0  0  0  0  0  0  0  0  0
    9.7316   -9.3456    3.2791 O   0  0  0  0  0  0  0  0  0  0  0  0
    7.3410   -5.1002    2.1736 O   0  0  0  0  0  0  0  0  0  0  0  0
    9.1820   -7.8236    0.8612 O   0  0  0  0  0  0  0  0  0  0  0  0
   10.3754   -5.6948   -0.7719 O   0  0  0  0  0  0  0  0  0  0  0  0
    6.3989   -7.2377    0.7285 O   0  0  0  0  0  0  0  0  0  0  0  0
   10.9256  -12.4730    7.2714 O   0  0  0  0  0  0  0  0  0  0  0  0
   11.4090  -12.1201    3.6977 O   0  0  0  0  0  0  0  0  0  0  0  0
    4.0968   -8.0573    0.6042 O   0  0  0  0  0  0  0  0  0  0  0  0
   14.2162   -4.5845    1.8005 O   0  0  0  0  0  0  0  0  0  0  0  0
  1 36  1  1  0  0  0
  2 36  1  6  0  0  0
  2  3  1  0  0  0  0
  3 37  1  1  0  0  0
  3  4  1  0  0  0  0
  4 38  1  6  0  0  0
  5 37  1  6  0  0  0
  5  6  1  0  0  0  0
  6  7  1  0  0  0  0
  6 39  1  1  0  0  0
  7 42  1  1  0  0  0
  8  9  1  1  0  0  0
  8  7  1  0  0  0  0
 10 42  1  1  0  0  0
 10 11  1  0  0  0  0
 11 31  1  1  0  0  0
 11 13  1  0  0  0  0
 12 30  1  1  0  0  0
 12  1  1  0  0  0  0
 14 13  1  0  0  0  0
 15 16  1  1  0  0  0
 15 14  1  0  0  0  0
 17 19  1  1  0  0  0
 17 28  1  0  0  0  0
 18 34  1  0  0  0  0
 19 32  1  0  0  0  0
 20 18  1  6  0  0  0
 20 17  1  0  0  0  0
 20 43  1  0  0  0  0
 21 12  1  0  0  0  0
 22 21  1  0  0  0  0
 22 23  1  0  0  0  0
 23 24  1  6  0  0  0
 23 46  1  0  0  0  0
 24 33  1  0  0  0  0
 25 34  1  1  0  0  0
 25  4  1  0  0  0  0
 26 25  1  0  0  0  0
 27 35  1  1  0  0  0
 27 26  1  0  0  0  0
 27  2  1  0  0  0  0
 29 16  1  0  0  0  0
 40  8  1  0  0  0  0
 40  5  1  0  0  0  0
 41  9  1  0  0  0  0
 44 18  2  0  0  0  0
 45 15  1  0  0  0  0
 45 10  1  0  0  0  0
 46  1  1  0  0  0  0
M  END
>  <CHROM.1>
-25.30070169,-38.32282003,-170.34010194,-167.23455528,123.00637406,62.18401084
-69.82409582,-67.27977684,-63.50373108,92.15071388,-108.88626778,81.34268452
98.40933494,9.67822348,-7.82278501,2.66736877,-0.11347812,-0.23064272,-0.67428804

>  <Name>
lig.pdb

>  <RI>
0

>  <Rbt.Current_Directory>
/home/afrankz/demos/rdock_decoys_rna/rnas/3wru

>  <Rbt.Executable>
rbdock ($Id: //depot/dev/client3/rdock/2013.1/src/exe/rbdock.cxx#4 $)

>  <Rbt.Library>
libRbt.so (2013.1, Build901 2013/11/27)

>  <Rbt.Parameter_File>
/export/apps/rDock/src/rDock_2013.1_src/data/scripts/dock_solv.prm

>  <Rbt.Receptor>
prm/blind_docking_20.prm

>  <SCORE>
47.7431

>  <SCORE.INTER>
7.24601

>  <SCORE.INTER.CONST>
1

>  <SCORE.INTER.POLAR>
0

>  <SCORE.INTER.ROT>
13

>  <SCORE.INTER.SOLV>
38.3518

>  <SCORE.INTER.VDW>
-20.2199

>  <SCORE.INTER.norm>
0.157522

>  <SCORE.INTRA>
38.4706

>  <SCORE.INTRA.DIHEDRAL>
4.29219

>  <SCORE.INTRA.DIHEDRAL.0>
19.7146

>  <SCORE.INTRA.POLAR>
0

>  <SCORE.INTRA.POLAR.0>
0

>  <SCORE.INTRA.REPUL>
0

>  <SCORE.INTRA.REPUL.0>
0

>  <SCORE.INTRA.SOLV>
12.6891

>  <SCORE.INTRA.SOLV.lig_0>
-116.697

>  <SCORE.INTRA.VDW>
29.98

>  <SCORE.INTRA.VDW.0>
-7.06424

>  <SCORE.INTRA.norm>
0.836318

>  <SCORE.RESTR>
2.02644

>  <SCORE.RESTR.CAVITY>
2.02644

>  <SCORE.RESTR.norm>
0.044053

>  <SCORE.SYSTEM>
0

>  <SCORE.SYSTEM.CONST>
0

>  <SCORE.SYSTEM.DIHEDRAL>
0

>  <SCORE.SYSTEM.SOLV>
0

>  <SCORE.SYSTEM.norm>
0

>  <SCORE.heavy>
46

>  <SCORE.norm>
1.03789

>  <RMSD>
10.562

$$$$
lig.pdb
 OpenBabel03061811583D
libRbt.so/2013.1/901 2013/11/27
 46 49  0  0  0  0  0  0  0  0999 V2000
    8.8920  -14.7419   12.9995 C   0  0  1  0  0  0  0  0  0  0  0  0
    8.4479  -15.6697   10.6865 C   0  0  1  0  0  0  0  0  0  0  0  0
    9.4709  -16.8343   10.8506 C   0  0  1  0  0  0  0  0  0  0  0  0
    9.0623  -18.0313    9.8490 C   0  0  2  0  0  0  0  0  0  0  0  0
   11.2238  -15.7229    9.3912 C   0  0  2  0  0  0  0  0  0  0  0  0
   11.3272  -16.7368    8.2165 C   0  0  1  0  0  0  0  0  0  0  0  0
   11.1545  -15.7575    7.0807 C   0  0  1  0  0  0  0  0  0  0  0  0
    9.9512  -14.8595    7.5104 C   0  0  1  0  0  0  0  0  0  0  0  0
    8.5128  -15.4289    7.2480 C   0  0  0  0  0  0  0  0  0  0  0  0
   12.5584  -14.2129    5.7666 C   0  0  1  0  0  0  0  0  0  0  0  0
   12.1236  -12.7829    5.8889 C   0  0  1  0  0  0  0  0  0  0  0  0
    8.9845  -13.3548   13.6782 C   0  0  1  0  0  0  0  0  0  0  0  0
   12.2744  -12.0949    4.4859 C   0  0  0  0  0  0  0  0  0  0  0  0
   11.4902  -12.6858    3.4398 C   0  0  0  0  0  0  0  0  0  0  0  0
   11.9074  -14.0611    3.2678 C   0  0  2  0  0  0  0  0  0  0  0  0
   11.0700  -14.7697    2.1312 C   0  0  0  0  0  0  0  0  0  0  0  0
    4.8820  -21.1084    7.8926 C   0  0  2  0  0  0  0  0  0  0  0  0
    6.0987  -20.5094    9.8197 C   0  0  0  0  0  0  0  0  0  0  0  0
    4.7804  -21.8923    6.7589 C   0  0  0  0  0  0  0  0  0  0  0  0
    5.8310  -21.6360    8.7052 C   0  0  1  0  0  0  0  0  0  0  0  0
   10.3320  -12.6043   13.2671 C   0  0  0  0  0  0  0  0  0  0  0  0
   11.5709  -13.5306   13.6906 C   0  0  0  0  0  0  0  0  0  0  0  0
   11.4223  -14.9288   12.9298 C   0  0  1  0  0  0  0  0  0  0  0  0
   12.5603  -15.8948   13.2808 C   0  0  0  0  0  0  0  0  0  0  0  0
    7.6245  -18.5621   10.2754 C   0  0  1  0  0  0  0  0  0  0  0  0
    6.6050  -17.3208   10.0618 C   0  0  0  0  0  0  0  0  0  0  0  0
    7.0042  -16.1266   11.0118 C   0  0  2  0  0  0  0  0  0  0  0  0
    3.5866  -21.0049    8.5257 F   0  0  0  0  0  0  0  0  0  0  0  0
   11.4443  -16.2677    1.9409 N   0  0  0  0  0  0  0  0  0  0  0  0
    7.7543  -12.5646   13.3021 N   0  0  0  0  0  0  0  0  0  0  0  0
   10.7800  -12.6210    6.2383 N   0  0  0  0  0  0  0  0  0  0  0  0
    4.0420  -21.7195    5.5646 N   0  0  0  0  0  0  0  0  0  0  0  0
   13.7957  -15.4241   12.7877 N   0  0  0  0  0  0  0  0  0  0  0  0
    7.2185  -19.6689    9.3907 N   0  0  0  0  0  0  0  0  0  0  0  0
    6.0887  -14.9804   10.8185 N   0  0  0  0  0  0  0  0  0  0  0  0
    8.7528  -14.6104   11.5844 O   0  0  0  0  0  0  0  0  0  0  0  0
   10.8215  -16.2740   10.5116 O   0  0  0  0  0  0  0  0  0  0  0  0
    9.9789  -19.0457   10.0130 O   0  0  0  0  0  0  0  0  0  0  0  0
   12.5858  -17.3374    8.2663 O   0  0  0  0  0  0  0  0  0  0  0  0
   10.3671  -14.6462    8.8695 O   0  0  0  0  0  0  0  0  0  0  0  0
    7.5717  -14.5033    7.8275 O   0  0  0  0  0  0  0  0  0  0  0  0
   12.4271  -14.9444    6.9269 O   0  0  0  0  0  0  0  0  0  0  0  0
    5.4105  -22.8615    9.3438 O   0  0  0  0  0  0  0  0  0  0  0  0
    5.4397  -20.3788   10.8643 O   0  0  0  0  0  0  0  0  0  0  0  0
   11.7811  -14.8152    4.5705 O   0  0  0  0  0  0  0  0  0  0  0  0
   10.1008  -15.5800   13.3034 O   0  0  0  0  0  0  0  0  0  0  0  0
  1 36  1  6  0  0  0
  2 36  1  1  0  0  0
  2  3  1  0  0  0  0
  3 37  1  6  0  0  0
  3  4  1  0  0  0  0
  4 38  1  1  0  0  0
  5 37  1  1  0  0  0
  5  6  1  0  0  0  0
  6  7  1  0  0  0  0
  6 39  1  6  0  0  0
  7 42  1  1  0  0  0
  8  9  1  1  0  0  0
  8  7  1  0  0  0  0
 10 42  1  1  0  0  0
 10 11  1  0  0  0  0
 11 31  1  6  0  0  0
 11 13  1  0  0  0  0
 12 30  1  6  0  0  0
 12  1  1  0  0  0  0
 14 13  1  0  0  0  0
 15 16  1  6  0  0  0
 15 14  1  0  0  0  0
 17 19  1  6  0  0  0
 17 28  1  0  0  0  0
 18 34  1  0  0  0  0
 19 32  1  0  0  0  0
 20 18  1  1  0  0  0
 20 17  1  0  0  0  0
 20 43  1  0  0  0  0
 21 12  1  0  0  0  0
 22 21  1  0  0  0  0
 22 23  1  0  0  0  0
 23 24  1  1  0  0  0
 23 46  1  0  0  0  0
 24 33  1  0  0  0  0
 25 34  1  6  0  0  0
 25  4  1  0  0  0  0
 26 25  1  0  0  0  0
 27 35  1  6  0  0  0
 27 26  1  0  0  0  0
 27  2  1  0  0  0  0
 29 16  1  0  0  0  0
 40  8  1  0  0  0  0
 40  5  1  0  0  0  0
 41  9  1  0  0  0  0
 44 18  2  0  0  0  0
 45 15  1  0  0  0  0
 45 10  1  0  0  0  0
 46  1  1  0  0  0  0
M  END
>  <CHROM.1>
-170.30780176,-54.94284525,-59.19724748,-68.93213872,166.24304818,174.79980209
95.29195546,-177.91148963,-173.52870260,-93.24066947,168.24906519,-66.80646283
164.78181714,9.25471532,-16.37122047,8.93058090,-0.10838386,0.83645577,1.40964068

>  <Name>
lig.pdb

>  <RI>
0

>  <Rbt.Current_Directory>
/home/afrankz/demos/rdock_decoys_rna/rnas/3wru

>  <Rbt.Executable>
rbdock ($Id: //depot/dev/client3/rdock/2013.1/src/exe/rbdock.cxx#4 $)

>  <Rbt.Library>
libRbt.so (2013.1, Build901 2013/11/27)

>  <Rbt.Parameter_File>
/export/apps/rDock/src/rDock_2013.1_src/data/scripts/dock_solv.prm

>  <Rbt.Receptor>
prm/pocket_docking_6.prm

>  <SCORE>
4.35077

>  <SCORE.INTER>
7.97744

>  <SCORE.INTER.CONST>
1

>  <SCORE.INTER.POLAR>
0

>  <SCORE.INTER.ROT>
13

>  <SCORE.INTER.SOLV>
12.1157

>  <SCORE.INTER.VDW>
-10.9869

>  <SCORE.INTER.norm>
0.173423

>  <SCORE.INTRA>
-3.62666

>  <SCORE.INTRA.DIHEDRAL>
-10.2159

>  <SCORE.INTRA.DIHEDRAL.0>
19.7146

>  <SCORE.INTRA.POLAR>
0

>  <SCORE.INTRA.POLAR.0>
0

>  <SCORE.INTRA.REPUL>
0

>  <SCORE.INTRA.REPUL.0>
0

>  <SCORE.INTRA.SOLV>
2.73868

>  <SCORE.INTRA.SOLV.lig_0>
-116.697

>  <SCORE.INTRA.VDW>
0.111926

>  <SCORE.INTRA.VDW.0>
-7.06424

>  <SCORE.INTRA.norm>
-0.0788405

>  <SCORE.RESTR>
0

>  <SCORE.RESTR.CAVITY>
0

>  <SCORE.RESTR.norm>
0

>  <SCORE.SYSTEM>
0

>  <SCORE.SYSTEM.CONST>
0

>  <SCORE.SYSTEM.DIHEDRAL>
0

>  <SCORE.SYSTEM.SOLV>
0

>  <SCORE.SYSTEM.norm>
0

>  <SCORE.heavy>
46

>  <SCORE.norm>
0.094582

>  <RMSD>
10.570

$$$$
lig.pdb
 OpenBabel03061811583D
libRbt.so/2013.1/901 2013/11/27
 46 49  0  0  0  0  0  0  0  0999 V2000
    6.2400  -18.5089    5.0121 C   0  0  1  0  0  0  0  0  0  0  0  0
    7.0748  -19.7172    7.0739 C   0  0  1  0  0  0  0  0  0  0  0  0
    5.9589  -19.2385    8.0512 C   0  0  1  0  0  0  0  0  0  0  0  0
    6.5150  -19.3325    9.5628 C   0  0  2  0  0  0  0  0  0  0  0  0
    6.3527  -16.7399    7.8522 C   0  0  2  0  0  0  0  0  0  0  0  0
    5.6788  -15.4603    7.2801 C   0  0  1  0  0  0  0  0  0  0  0  0
    6.3618  -14.4500    8.1700 C   0  0  1  0  0  0  0  0  0  0  0  0
    6.2709  -15.0596    9.6050 C   0  0  1  0  0  0  0  0  0  0  0  0
    4.9248  -14.8452   10.3821 C   0  0  0  0  0  0  0  0  0  0  0  0
    8.4608  -13.1549    8.1491 C   0  0  1  0  0  0  0  0  0  0  0  0
    9.8842  -13.0593    7.6870 C   0  0  1  0  0  0  0  0  0  0  0  0
    5.6073  -18.8686    3.6470 C   0  0  1  0  0  0  0  0  0  0  0  0
   10.5169  -11.7552    8.2896 C   0  0  0  0  0  0  0  0  0  0  0  0
   10.5350  -11.7035    9.7234 C   0  0  0  0  0  0  0  0  0  0  0  0
    9.1717  -11.7577   10.2067 C   0  0  2  0  0  0  0  0  0  0  0  0
    9.1275  -11.7135   11.7850 C   0  0  0  0  0  0  0  0  0  0  0  0
    7.7742  -23.4719   13.8680 C   0  0  2  0  0  0  0  0  0  0  0  0
    7.3547  -22.3288   11.8505 C   0  0  0  0  0  0  0  0  0  0  0  0
    8.4064  -23.5249   15.0958 C   0  0  0  0  0  0  0  0  0  0  0  0
    7.9404  -22.2320   13.3441 C   0  0  1  0  0  0  0  0  0  0  0  0
    6.6806  -19.5449    2.6783 C   0  0  0  0  0  0  0  0  0  0  0  0
    7.9009  -18.5213    2.4898 C   0  0  0  0  0  0  0  0  0  0  0  0
    8.5195  -18.2222    3.9333 C   0  0  1  0  0  0  0  0  0  0  0  0
    9.6926  -17.2375    3.8601 C   0  0  0  0  0  0  0  0  0  0  0  0
    6.8361  -20.8587    9.8762 C   0  0  1  0  0  0  0  0  0  0  0  0
    8.0137  -21.2907    8.8502 C   0  0  0  0  0  0  0  0  0  0  0  0
    7.5002  -21.1782    7.3631 C   0  0  2  0  0  0  0  0  0  0  0  0
    6.3851  -23.8405   14.0238 F   0  0  0  0  0  0  0  0  0  0  0  0
    9.8648  -12.9111   12.4501 N   0  0  0  0  0  0  0  0  0  0  0  0
    4.4217  -19.7682    3.9008 N   0  0  0  0  0  0  0  0  0  0  0  0
   10.7006  -14.1048    8.1276 N   0  0  0  0  0  0  0  0  0  0  0  0
    8.5956  -24.5915   16.0057 N   0  0  0  0  0  0  0  0  0  0  0  0
   10.2678  -17.0381    5.1331 N   0  0  0  0  0  0  0  0  0  0  0  0
    7.3359  -20.9903   11.2566 N   0  0  0  0  0  0  0  0  0  0  0  0
    8.5698  -21.5578    6.4138 N   0  0  0  0  0  0  0  0  0  0  0  0
    6.6066  -19.6865    5.7318 O   0  0  0  0  0  0  0  0  0  0  0  0
    5.6332  -17.8225    7.6749 O   0  0  0  0  0  0  0  0  0  0  0  0
    5.5127  -18.9056   10.4050 O   0  0  0  0  0  0  0  0  0  0  0  0
    6.0172  -15.3536    5.9305 O   0  0  0  0  0  0  0  0  0  0  0  0
    6.6532  -16.3993    9.2518 O   0  0  0  0  0  0  0  0  0  0  0  0
    4.7863  -13.4302   10.6200 O   0  0  0  0  0  0  0  0  0  0  0  0
    7.8042  -14.2897    7.7250 O   0  0  0  0  0  0  0  0  0  0  0  0
    7.2331  -21.2088   14.0783 O   0  0  0  0  0  0  0  0  0  0  0  0
    6.9955  -23.3824   11.2997 O   0  0  0  0  0  0  0  0  0  0  0  0
    8.4799  -12.9969    9.6894 O   0  0  0  0  0  0  0  0  0  0  0  0
    7.4498  -17.6357    4.8400 O   0  0  0  0  0  0  0  0  0  0  0  0
  1 36  1  6  0  0  0
  2 36  1  6  0  0  0
  2  3  1  0  0  0  0
  3 37  1  6  0  0  0
  3  4  1  0  0  0  0
  4 38  1  1  0  0  0
  5 37  1  1  0  0  0
  5  6  1  0  0  0  0
  6  7  1  0  0  0  0
  6 39  1  6  0  0  0
  7 42  1  6  0  0  0
  8  9  1  6  0  0  0
  8  7  1  0  0  0  0
 10 42  1  1  0  0  0
 10 11  1  0  0  0  0
 11 31  1  1  0  0  0
 11 13  1  0  0  0  0
 12 30  1  1  0  0  0
 12  1  1  0  0  0  0
 14 13  1  0  0  0  0
 15 16  1  1  0  0  0
 15 14  1  0  0  0  0
 17 19  1  1  0  0  0
 17 28  1  0  0  0  0
 18 34  1  0  0  0  0
 19 32  1  0  0  0  0
 20 18  1  6  0  0  0
 20 17  1  0  0  0  0
 20 43  1  0  0  0  0
 21 12  1  0  0  0  0
 22 21  1  0  0  0  0
 22 23  1  0  0  0  0
 23 24  1  6  0  0  0
 23 46  1  0  0  0  0
 24 33  1  0  0  0  0
 25 34  1  1  0  0  0
 25  4  1  0  0  0  0
 26 25  1  0  0  0  0
 27 35  1  6  0  0  0
 27 26  1  0  0  0  0
 27  2  1  0  0  0  0
 29 16  1  0  0  0  0
 40  8  1  0  0  0  0
 40  5  1  0  0  0  0
 41  9  1  0  0  0  0
 44 18  2  0  0  0  0
 45 15  1  0  0  0  0
 45 10  1  0  0  0  0
 46  1  1  0  0  0  0
M  END
>  <CHROM.1>
-172.69449749,64.99978672,-71.70559280,178.22315584,161.60291153,-64.94623110
179.52330462,-61.04208970,-175.96581504,172.96474166,172.48125745,-177.03940650
164.31954384,7.46349623,-17.83875714,8.74752238,1.11647842,-1.36838288,-1.00356740

>  <Name>
lig.pdb

>  <RI>
0

>  <Rbt.Current_Directory>
/home/afrankz/demos/rdock_decoys_rna/rnas/3wru

>  <Rbt.Executable>
rbdock ($Id: //depot/dev/client3/rdock/2013.1/src/exe/rbdock.cxx#4 $)

>  <Rbt.Library>
libRbt.so (2013.1, Build901 2013/11/27)

>  <Rbt.Parameter_File>
/export/apps/rDock/src/rDock_2013.1_src/data/scripts/dock_solv.prm

>  <Rbt.Receptor>
prm/pocket_docking_8.prm

>  <SCORE>
-4.9758

>  <SCORE.INTER>
2.59022

>  <SCORE.INTER.CONST>
1

>  <SCORE.INTER.POLAR>
0

>  <SCORE.INTER.ROT>
13

>  <SCORE.INTER.SOLV>
14.5312

>  <SCORE.INTER.VDW>
-15.3836

>  <SCORE.INTER.norm>
0.0563092

>  <SCORE.INTRA>
-7.56602

>  <SCORE.INTRA.DIHEDRAL>
-15.4536

>  <SCORE.INTRA.DIHEDRAL.0>
19.7146

>  <SCORE.INTRA.POLAR>
0

>  <SCORE.INTRA.POLAR.0>
0

>  <SCORE.INTRA.REPUL>
0

>  <SCORE.INTRA.REPUL.0>
0

>  <SCORE.INTRA.SOLV>
-2.20871

>  <SCORE.INTRA.SOLV.lig_0>
-116.697

>  <SCORE.INTRA.VDW>
1.26512

>  <SCORE.INTRA.VDW.0>
-7.06424

>  <SCORE.INTRA.norm>
-0.164479

>  <SCORE.RESTR>
0

>  <SCORE.RESTR.CAVITY>
0

>  <SCORE.RESTR.norm>
0

>  <SCORE.SYSTEM>
0

>  <SCORE.SYSTEM.CONST>
0

>  <SCORE.SYSTEM.DIHEDRAL>
0

>  <SCORE.SYSTEM.SOLV>
0

>  <SCORE.SYSTEM.norm>
0

>  <SCORE.heavy>
46

>  <SCORE.norm>
-0.10817

>  <RMSD>
10.572

$$$$
lig.pdb
 OpenBabel03061811583D
libRbt.so/2013.1/901 2013/11/27
 46 49  0  0  0  0  0  0  0  0999 V2000
   13.4974  -15.0682    9.7050 C   0  0  1  0  0  0  0  0  0  0  0  0
   13.8441  -13.0756    8.1828 C   0  0  1  0  0  0  0  0  0  0  0  0
   14.9571  -12.6732    7.1683 C   0  0  1  0  0  0  0  0  0  0  0  0
   14.8013  -11.1059    6.8190 C   0  0  2  0  0  0  0  0  0  0  0  0
   17.4560  -13.0969    7.2868 C   0  0  2  0  0  0  0  0  0  0  0  0
   17.6705  -14.4987    6.6483 C   0  0  1  0  0  0  0  0  0  0  0  0
   18.7209  -14.1079    5.6370 C   0  0  1  0  0  0  0  0  0  0  0  0
   18.1771  -12.7963    4.9864 C   0  0  1  0  0  0  0  0  0  0  0  0
   17.1212  -12.9601    3.8375 C   0  0  0  0  0  0  0  0  0  0  0  0
   21.0701  -13.3570    5.5985 C   0  0  1  0  0  0  0  0  0  0  0  0
   21.6242  -14.3155    4.5871 C   0  0  1  0  0  0  0  0  0  0  0  0
   14.5905  -14.9515   10.7935 C   0  0  1  0  0  0  0  0  0  0  0  0
   22.8222  -13.6213    3.8472 C   0  0  0  0  0  0  0  0  0  0  0  0
   23.9094  -13.2319    4.6987 C   0  0  0  0  0  0  0  0  0  0  0  0
   23.4192  -12.2764    5.6692 C   0  0  2  0  0  0  0  0  0  0  0  0
   24.5734  -11.8159    6.6443 C   0  0  0  0  0  0  0  0  0  0  0  0
   11.1785   -7.3182    3.7124 C   0  0  2  0  0  0  0  0  0  0  0  0
   12.0255   -9.1036    4.9961 C   0  0  0  0  0  0  0  0  0  0  0  0
   11.0371   -5.9590    3.5057 C   0  0  0  0  0  0  0  0  0  0  0  0
   12.0377   -7.5165    4.7428 C   0  0  1  0  0  0  0  0  0  0  0  0
   15.8757  -15.8171   10.4101 C   0  0  0  0  0  0  0  0  0  0  0  0
   15.4157  -17.3423   10.2246 C   0  0  0  0  0  0  0  0  0  0  0  0
   14.3124  -17.3861    9.0684 C   0  0  1  0  0  0  0  0  0  0  0  0
   13.7973  -18.8094    8.8228 C   0  0  0  0  0  0  0  0  0  0  0  0
   13.3868  -10.8940    6.1226 C   0  0  1  0  0  0  0  0  0  0  0  0
   12.2751  -11.3038    7.2281 C   0  0  0  0  0  0  0  0  0  0  0  0
   12.4281  -12.8275    7.6064 C   0  0  2  0  0  0  0  0  0  0  0  0
   11.6081   -7.9510    2.4857 F   0  0  0  0  0  0  0  0  0  0  0  0
   25.1644  -12.9838    7.4852 N   0  0  0  0  0  0  0  0  0  0  0  0
   14.9208  -13.4893   10.9730 N   0  0  0  0  0  0  0  0  0  0  0  0
   22.1565  -15.4846    5.1380 N   0  0  0  0  0  0  0  0  0  0  0  0
   11.9643   -4.9737    3.0924 N   0  0  0  0  0  0  0  0  0  0  0  0
   12.9237  -18.8487    7.7154 N   0  0  0  0  0  0  0  0  0  0  0  0
   13.2099   -9.4728    5.7742 N   0  0  0  0  0  0  0  0  0  0  0  0
   11.4267  -13.2131    8.6251 N   0  0  0  0  0  0  0  0  0  0  0  0
   13.9247  -14.4627    8.4844 O   0  0  0  0  0  0  0  0  0  0  0  0
   16.2719  -12.9575    7.8342 O   0  0  0  0  0  0  0  0  0  0  0  0
   15.7934  -10.7761    5.9228 O   0  0  0  0  0  0  0  0  0  0  0  0
   18.1282  -15.3663    7.6407 O   0  0  0  0  0  0  0  0  0  0  0  0
   17.7707  -12.1509    6.2046 O   0  0  0  0  0  0  0  0  0  0  0  0
   15.9607  -13.5974    4.4077 O   0  0  0  0  0  0  0  0  0  0  0  0
   20.0371  -13.8677    6.3541 O   0  0  0  0  0  0  0  0  0  0  0  0
   13.3832   -7.0815    4.4485 O   0  0  0  0  0  0  0  0  0  0  0  0
   11.1360   -9.8750    4.6006 O   0  0  0  0  0  0  0  0  0  0  0  0
   22.2666  -12.8640    6.4489 O   0  0  0  0  0  0  0  0  0  0  0  0
   13.1349  -16.5028    9.4470 O   0  0  0  0  0  0  0  0  0  0  0  0
  1 36  1  6  0  0  0
  2 36  1  6  0  0  0
  2  3  1  0  0  0  0
  3 37  1  1  0  0  0
  3  4  1  0  0  0  0
  4 38  1  6  0  0  0
  5 37  1  6  0  0  0
  5  6  1  0  0  0  0
  6  7  1  0  0  0  0
  6 39  1  1  0  0  0
  7 42  1  1  0  0  0
  8  9  1  6  0  0  0
  8  7  1  0  0  0  0
 10 42  1  1  0  0  0
 10 11  1  0  0  0  0
 11 31  1  1  0  0  0
 11 13  1  0  0  0  0
 12 30  1  6  0  0  0
 12  1  1  0  0  0  0
 14 13  1  0  0  0  0
 15 16  1  1  0  0  0
 15 14  1  0  0  0  0
 17 19  1  6  0  0  0
 17 28  1  0  0  0  0
 18 34  1  0  0  0  0
 19 32  1  0  0  0  0
 20 18  1  6  0  0  0
 20 17  1  0  0  0  0
 20 43  1  0  0  0  0
 21 12  1  0  0  0  0
 22 21  1  0  0  0  0
 22 23  1  0  0  0  0
 23 24  1  1  0  0  0
 23 46  1  0  0  0  0
 24 33  1  0  0  0  0
 25 34  1  1  0  0  0
 25  4  1  0  0  0  0
 26 25  1  0  0  0  0
 27 35  1  1  0  0  0
 27 26  1  0  0  0  0
 27  2  1  0  0  0  0
 29 16  1  0  0  0  0
 40  8  1  0  0  0  0
 40  5  1  0  0  0  0
 41  9  1  0  0  0  0
 44 18  2  0  0  0  0
 45 15  1  0  0  0  0
 45 10  1  0  0  0  0
 46  1  1  0  0  0  0
M  END
>  <CHROM.1>
-83.12261429,152.37776487,161.49415493,-79.10959151,-172.97181956,62.71235507
-69.62471481,-62.03145918,64.59684931,162.01475893,174.69121589,-174.28296274
173.69933411,16.13736638,-12.64964556,6.52550239,2.67396615,0.17557426,-0.57905376

>  <Name>
lig.pdb

>  <RI>
0

>  <Rbt.Current_Directory>
/home/afrankz/demos/rdock_decoys_rna/rnas/3wru

>  <Rbt.Executable>
rbdock ($Id: //depot/dev/client3/rdock/2013.1/src/exe/rbdock.cxx#4 $)

>  <Rbt.Library>
libRbt.so (2013.1, Build901 2013/11/27)

>  <Rbt.Parameter_File>
/export/apps/rDock/src/rDock_2013.1_src/data/scripts/dock_solv.prm

>  <Rbt.Receptor>
prm/pocket_docking_6.prm

>  <SCORE>
0.0289275

>  <SCORE.INTER>
0.605224

>  <SCORE.INTER.CONST>
1

>  <SCORE.INTER.POLAR>
0

>  <SCORE.INTER.ROT>
13

>  <SCORE.INTER.SOLV>
15.9868

>  <SCORE.INTER.VDW>
-17.1921

>  <SCORE.INTER.norm>
0.0131571

>  <SCORE.INTRA>
-0.576297

>  <SCORE.INTRA.DIHEDRAL>
-8.57096

>  <SCORE.INTRA.DIHEDRAL.0>
19.7146

>  <SCORE.INTRA.POLAR>
0

>  <SCORE.INTRA.POLAR.0>
0

>  <SCORE.INTRA.REPUL>
0

>  <SCORE.INTRA.REPUL.0>
0

>  <SCORE.INTRA.SOLV>
3.22638

>  <SCORE.INTRA.SOLV.lig_0>
-116.697

>  <SCORE.INTRA.VDW>
2.09599

>  <SCORE.INTRA.VDW.0>
-7.06424

>  <SCORE.INTRA.norm>
-0.0125282

>  <SCORE.RESTR>
0

>  <SCORE.RESTR.CAVITY>
0

>  <SCORE.RESTR.norm>
0

>  <SCORE.SYSTEM>
0

>  <SCORE.SYSTEM.CONST>
0

>  <SCORE.SYSTEM.DIHEDRAL>
0

>  <SCORE.SYSTEM.SOLV>
0

>  <SCORE.SYSTEM.norm>
0

>  <SCORE.heavy>
46

>  <SCORE.norm>
0.000628858

>  <RMSD>
10.574

$$$$
lig.pdb
 OpenBabel03061811583D
libRbt.so/2013.1/901 2013/11/27
 46 49  0  0  0  0  0  0  0  0999 V2000
    8.9663  -13.0074    9.8167 C   0  0  1  0  0  0  0  0  0  0  0  0
    7.6290  -15.1546    9.7214 C   0  0  1  0  0  0  0  0  0  0  0  0
    7.7670  -16.5435    9.0273 C   0  0  1  0  0  0  0  0  0  0  0  0
    6.3987  -17.3710    9.2416 C   0  0  2  0  0  0  0  0  0  0  0  0
    9.0884  -15.7593    7.0082 C   0  0  2  0  0  0  0  0  0  0  0  0
   10.3392  -16.6776    7.1132 C   0  0  1  0  0  0  0  0  0  0  0  0
   11.0827  -16.1547    5.9079 C   0  0  1  0  0  0  0  0  0  0  0  0
   10.0050  -16.0750    4.7805 C   0  0  1  0  0  0  0  0  0  0  0  0
    9.6819  -17.4051    4.0135 C   0  0  0  0  0  0  0  0  0  0  0  0
   12.5507  -14.2596    5.3273 C   0  0  1  0  0  0  0  0  0  0  0  0
   13.8809  -14.9517    5.3107 C   0  0  1  0  0  0  0  0  0  0  0  0
    8.2228  -12.1962    8.7293 C   0  0  1  0  0  0  0  0  0  0  0  0
   14.8131  -14.2145    4.2851 C   0  0  0  0  0  0  0  0  0  0  0  0
   15.0605  -12.8331    4.5835 C   0  0  0  0  0  0  0  0  0  0  0  0
   13.7992  -12.1232    4.5733 C   0  0  2  0  0  0  0  0  0  0  0  0
   14.0070  -10.5931    4.9057 C   0  0  0  0  0  0  0  0  0  0  0  0
    2.7831  -19.9329   10.3040 C   0  0  2  0  0  0  0  0  0  0  0  0
    5.0446  -19.8336   10.9589 C   0  0  0  0  0  0  0  0  0  0  0  0
    1.6298  -20.6914   10.2359 C   0  0  0  0  0  0  0  0  0  0  0  0
    3.5923  -20.4529   11.2601 C   0  0  1  0  0  0  0  0  0  0  0  0
    8.9152  -12.3806    7.3029 C   0  0  0  0  0  0  0  0  0  0  0  0
   10.4432  -11.9081    7.4225 C   0  0  0  0  0  0  0  0  0  0  0  0
   11.1503  -12.8080    8.5389 C   0  0  1  0  0  0  0  0  0  0  0  0
   12.6211  -12.4224    8.7373 C   0  0  0  0  0  0  0  0  0  0  0  0
    6.2044  -17.6069   10.8028 C   0  0  1  0  0  0  0  0  0  0  0  0
    6.0435  -16.1361   11.4637 C   0  0  0  0  0  0  0  0  0  0  0  0
    7.3612  -15.2984   11.2401 C   0  0  2  0  0  0  0  0  0  0  0  0
    2.4379  -18.5497   10.5437 F   0  0  0  0  0  0  0  0  0  0  0  0
   12.6976   -9.7606    4.7933 N   0  0  0  0  0  0  0  0  0  0  0  0
    6.7778  -12.6334    8.7224 N   0  0  0  0  0  0  0  0  0  0  0  0
   14.5639  -14.9085    6.5294 N   0  0  0  0  0  0  0  0  0  0  0  0
    0.4526  -20.5377    9.4665 N   0  0  0  0  0  0  0  0  0  0  0  0
   13.2231  -13.2154    9.7372 N   0  0  0  0  0  0  0  0  0  0  0  0
    4.9684  -18.3735   11.0416 N   0  0  0  0  0  0  0  0  0  0  0  0
    7.2241  -13.9474   11.8278 N   0  0  0  0  0  0  0  0  0  0  0  0
    8.8333  -14.4107    9.5880 O   0  0  0  0  0  0  0  0  0  0  0  0
    8.0229  -16.2760    7.5727 O   0  0  0  0  0  0  0  0  0  0  0  0
    6.5459  -18.5914    8.6211 O   0  0  0  0  0  0  0  0  0  0  0  0
   10.9709  -16.4190    8.3303 O   0  0  0  0  0  0  0  0  0  0  0  0
    8.9681  -15.4696    5.5705 O   0  0  0  0  0  0  0  0  0  0  0  0
    8.7778  -17.0741    2.9406 O   0  0  0  0  0  0  0  0  0  0  0  0
   11.6518  -14.7848    6.2301 O   0  0  0  0  0  0  0  0  0  0  0  0
    3.1824  -20.1018   12.5998 O   0  0  0  0  0  0  0  0  0  0  0  0
    6.0609  -20.5038   10.7129 O   0  0  0  0  0  0  0  0  0  0  0  0
   12.8338  -12.7535    5.5494 O   0  0  0  0  0  0  0  0  0  0  0  0
   10.4240  -12.6484    9.8644 O   0  0  0  0  0  0  0  0  0  0  0  0
  1 36  1  6  0  0  0
  2 36  1  1  0  0  0
  2  3  1  0  0  0  0
  3 37  1  6  0  0  0
  3  4  1  0  0  0  0
  4 38  1  6  0  0  0
  5 37  1  6  0  0  0
  5  6  1  0  0  0  0
  6  7  1  0  0  0  0
  6 39  1  1  0  0  0
  7 42  1  1  0  0  0
  8  9  1  1  0  0  0
  8  7  1  0  0  0  0
 10 42  1  1  0  0  0
 10 11  1  0  0  0  0
 11 31  1  1  0  0  0
 11 13  1  0  0  0  0
 12 30  1  6  0  0  0
 12  1  1  0  0  0  0
 14 13  1  0  0  0  0
 15 16  1  1  0  0  0
 15 14  1  0  0  0  0
 17 19  1  1  0  0  0
 17 28  1  0  0  0  0
 18 34  1  0  0  0  0
 19 32  1  0  0  0  0
 20 18  1  6  0  0  0
 20 17  1  0  0  0  0
 20 43  1  0  0  0  0
 21 12  1  0  0  0  0
 22 21  1  0  0  0  0
 22 23  1  0  0  0  0
 23 24  1  1  0  0  0
 23 46  1  0  0  0  0
 24 33  1  0  0  0  0
 25 34  1  6  0  0  0
 25  4  1  0  0  0  0
 26 25  1  0  0  0  0
 27 35  1  6  0  0  0
 27 26  1  0  0  0  0
 27  2  1  0  0  0  0
 29 16  1  0  0  0  0
 40  8  1  0  0  0  0
 40  5  1  0  0  0  0
 41  9  1  0  0  0  0
 44 18  2  0  0  0  0
 45 15  1  0  0  0  0
 45 10  1  0  0  0  0
 46  1  1  0  0  0  0
M  END
>  <CHROM.1>
-68.95010014,164.47015110,69.01803881,67.16291746,169.21774569,-174.12852051
-70.60032851,175.27894782,176.26936685,59.86899800,162.65012203,179.26428319
85.06392578,8.82200948,-15.59046714,8.10893230,0.07666589,0.70736738,0.78558797

>  <Name>
lig.pdb

>  <RI>
0

>  <Rbt.Current_Directory>
/home/afrankz/demos/rdock_decoys_rna/rnas/3wru

>  <Rbt.Executable>
rbdock ($Id: //depot/dev/client3/rdock/2013.1/src/exe/rbdock.cxx#4 $)

>  <Rbt.Library>
libRbt.so (2013.1, Build901 2013/11/27)

>  <Rbt.Parameter_File>
/export/apps/rDock/src/rDock_2013.1_src/data/scripts/dock_solv.prm

>  <Rbt.Receptor>
prm/pocket_docking_7.prm

>  <SCORE>
1.07062

>  <SCORE.INTER>
7.47842

>  <SCORE.INTER.CONST>
1

>  <SCORE.INTER.POLAR>
0

>  <SCORE.INTER.ROT>
13

>  <SCORE.INTER.SOLV>
19.1048

>  <SCORE.INTER.VDW>
-13.6493

>  <SCORE.INTER.norm>
0.162574

>  <SCORE.INTRA>
-6.4201

>  <SCORE.INTRA.DIHEDRAL>
-13.8222

>  <SCORE.INTRA.DIHEDRAL.0>
19.7146

>  <SCORE.INTRA.POLAR>
0

>  <SCORE.INTRA.POLAR.0>
0

>  <SCORE.INTRA.REPUL>
0

>  <SCORE.INTRA.REPUL.0>
0

>  <SCORE.INTRA.SOLV>
3.99307

>  <SCORE.INTRA.SOLV.lig_0>
-116.697

>  <SCORE.INTRA.VDW>
-1.50556

>  <SCORE.INTRA.VDW.0>
-7.06424

>  <SCORE.INTRA.norm>
-0.139567

>  <SCORE.RESTR>
0.0123085

>  <SCORE.RESTR.CAVITY>
0.0123085

>  <SCORE.RESTR.norm>
0.000267577

>  <SCORE.SYSTEM>
0

>  <SCORE.SYSTEM.CONST>
0

>  <SCORE.SYSTEM.DIHEDRAL>
0

>  <SCORE.SYSTEM.SOLV>
0

>  <SCORE.SYSTEM.norm>
0

>  <SCORE.heavy>
46

>  <SCORE.norm>
0.0232744

>  <RMSD>
10.611

$$$$
lig.pdb
 OpenBabel03061811583D
libRbt.so/2013.1/901 2013/11/27
 46 49  0  0  0  0  0  0  0  0999 V2000
   13.2090   -4.9136    1.5241 C   0  0  1  0  0  0  0  0  0  0  0  0
   12.6564   -7.0291    2.7997 C   0  0  1  0  0  0  0  0  0  0  0  0
   11.3078   -7.7749    2.5656 C   0  0  1  0  0  0  0  0  0  0  0  0
   10.9253   -8.5917    3.9032 C   0  0  2  0  0  0  0  0  0  0  0  0
    9.0705   -6.8777    1.7733 C   0  0  2  0  0  0  0  0  0  0  0  0
    8.5002   -5.5796    1.1342 C   0  0  1  0  0  0  0  0  0  0  0  0
    7.5180   -6.2276    0.1886 C   0  0  1  0  0  0  0  0  0  0  0  0
    8.3181   -7.3908   -0.4791 C   0  0  1  0  0  0  0  0  0  0  0  0
    9.2436   -7.0118   -1.6881 C   0  0  0  0  0  0  0  0  0  0  0  0
    5.1090   -6.7308    0.3531 C   0  0  1  0  0  0  0  0  0  0  0  0
    4.3451   -5.4534    0.5366 C   0  0  1  0  0  0  0  0  0  0  0  0
   14.3220   -4.4137    2.4752 C   0  0  1  0  0  0  0  0  0  0  0  0
    2.9562   -5.5962   -0.1809 C   0  0  0  0  0  0  0  0  0  0  0  0
    2.1289   -6.6572    0.3176 C   0  0  0  0  0  0  0  0  0  0  0  0
    2.8202   -7.9142    0.1244 C   0  0  2  0  0  0  0  0  0  0  0  0
    1.9594   -9.1234    0.6645 C   0  0  0  0  0  0  0  0  0  0  0  0
    9.4504  -11.8432    7.1115 C   0  0  2  0  0  0  0  0  0  0  0  0
   10.8423  -11.6021    5.2254 C   0  0  0  0  0  0  0  0  0  0  0  0
    8.5424  -12.8850    7.0986 C   0  0  0  0  0  0  0  0  0  0  0  0
   10.6452  -12.2992    6.6601 C   0  0  1  0  0  0  0  0  0  0  0  0
   13.8990   -4.6040    4.0025 C   0  0  0  0  0  0  0  0  0  0  0  0
   12.5340   -3.7987    4.2486 C   0  0  0  0  0  0  0  0  0  0  0  0
   11.4289   -4.3891    3.2557 C   0  0  1  0  0  0  0  0  0  0  0  0
   10.0821   -3.6715    3.4069 C   0  0  0  0  0  0  0  0  0  0  0  0
   12.0606   -9.6760    4.1607 C   0  0  1  0  0  0  0  0  0  0  0  0
   13.4269   -8.8441    4.4199 C   0  0  0  0  0  0  0  0  0  0  0  0
   13.8043   -8.0142    3.1327 C   0  0  2  0  0  0  0  0  0  0  0  0
    9.5229  -11.2824    8.4418 F   0  0  0  0  0  0  0  0  0  0  0  0
    1.4636   -8.9160    2.1244 N   0  0  0  0  0  0  0  0  0  0  0  0
   15.5944   -5.1539    2.1396 N   0  0  0  0  0  0  0  0  0  0  0  0
    4.0450   -5.1522    1.8680 N   0  0  0  0  0  0  0  0  0  0  0  0
    7.1866  -12.9499    7.4973 N   0  0  0  0  0  0  0  0  0  0  0  0
   10.1505   -2.3537    2.9071 N   0  0  0  0  0  0  0  0  0  0  0  0
   11.7414  -10.4553    5.3703 N   0  0  0  0  0  0  0  0  0  0  0  0
   15.0441   -7.2389    3.3592 N   0  0  0  0  0  0  0  0  0  0  0  0
   13.0472   -6.3288    1.6258 O   0  0  0  0  0  0  0  0  0  0  0  0
   10.2818   -6.7248    2.2533 O   0  0  0  0  0  0  0  0  0  0  0  0
    9.7333   -9.2408    3.6711 O   0  0  0  0  0  0  0  0  0  0  0  0
    7.9059   -4.8200    2.1427 O   0  0  0  0  0  0  0  0  0  0  0  0
    8.9287   -7.8956    0.7202 O   0  0  0  0  0  0  0  0  0  0  0  0
    8.5622   -7.4132   -2.8934 O   0  0  0  0  0  0  0  0  0  0  0  0
    6.3348   -6.7514    0.9822 O   0  0  0  0  0  0  0  0  0  0  0  0
   11.7472  -11.9496    7.5259 O   0  0  0  0  0  0  0  0  0  0  0  0
   10.3195  -11.9974    4.1704 O   0  0  0  0  0  0  0  0  0  0  0  0
    4.1713   -7.8796    0.7989 O   0  0  0  0  0  0  0  0  0  0  0  0
   11.8980   -4.2419    1.8175 O   0  0  0  0  0  0  0  0  0  0  0  0
  1 36  1  1  0  0  0
  2 36  1  6  0  0  0
  2  3  1  0  0  0  0
  3 37  1  1  0  0  0
  3  4  1  0  0  0  0
  4 38  1  6  0  0  0
  5 37  1  6  0  0  0
  5  6  1  0  0  0  0
  6  7  1  0  0  0  0
  6 39  1  1  0  0  0
  7 42  1  1  0  0  0
  8  9  1  6  0  0  0
  8  7  1  0  0  0  0
 10 42  1  1  0  0  0
 10 11  1  0  0  0  0
 11 31  1  1  0  0  0
 11 13  1  0  0  0  0
 12 30  1  6  0  0  0
 12  1  1  0  0  0  0
 14 13  1  0  0  0  0
 15 16  1  1  0  0  0
 15 14  1  0  0  0  0
 17 19  1  1  0  0  0
 17 28  1  0  0  0  0
 18 34  1  0  0  0  0
 19 32  1  0  0  0  0
 20 18  1  6  0  0  0
 20 17  1  0  0  0  0
 20 43  1  0  0  0  0
 21 12  1  0  0  0  0
 22 21  1  0  0  0  0
 22 23  1  0  0  0  0
 23 24  1  6  0  0  0
 23 46  1  0  0  0  0
 24 33  1  0  0  0  0
 25 34  1  1  0  0  0
 25  4  1  0  0  0  0
 26 25  1  0  0  0  0
 27 35  1  1  0  0  0
 27 26  1  0  0  0  0
 27  2  1  0  0  0  0
 29 16  1  0  0  0  0
 40  8  1  0  0  0  0
 40  5  1  0  0  0  0
 41  9  1  0  0  0  0
 44 18  2  0  0  0  0
 45 15  1  0  0  0  0
 45 10  1  0  0  0  0
 46  1  1  0  0  0  0
M  END
>  <CHROM.1>
62.00803561,118.04696047,167.53740500,-160.14019341,147.41086316,-102.75027315
-88.78869174,-51.52887200,178.19102437,100.09419754,110.19430983,70.25039320
84.61307717,9.30857151,-7.58525205,2.74486755,-0.40563284,-0.26852488,-0.67806263

>  <Name>
lig.pdb

>  <RI>
0

>  <Rbt.Current_Directory>
/home/afrankz/demos/rdock_decoys_rna/rnas/3wru

>  <Rbt.Executable>
rbdock ($Id: //depot/dev/client3/rdock/2013.1/src/exe/rbdock.cxx#4 $)

>  <Rbt.Library>
libRbt.so (2013.1, Build901 2013/11/27)

>  <Rbt.Parameter_File>
/export/apps/rDock/src/rDock_2013.1_src/data/scripts/dock_solv.prm

>  <Rbt.Receptor>
prm/blind_docking_20.prm

>  <SCORE>
14.9209

>  <SCORE.INTER>
1.57186

>  <SCORE.INTER.CONST>
1

>  <SCORE.INTER.POLAR>
0

>  <SCORE.INTER.ROT>
13

>  <SCORE.INTER.SOLV>
38.9903

>  <SCORE.INTER.VDW>
-24.2155

>  <SCORE.INTER.norm>
0.034171

>  <SCORE.INTRA>
9.79382

>  <SCORE.INTRA.DIHEDRAL>
9.22466

>  <SCORE.INTRA.DIHEDRAL.0>
19.7146

>  <SCORE.INTRA.POLAR>
0

>  <SCORE.INTRA.POLAR.0>
0

>  <SCORE.INTRA.REPUL>
0

>  <SCORE.INTRA.REPUL.0>
0

>  <SCORE.INTRA.SOLV>
5.49698

>  <SCORE.INTRA.SOLV.lig_0>
-116.697

>  <SCORE.INTRA.VDW>
2.433

>  <SCORE.INTRA.VDW.0>
-7.06424

>  <SCORE.INTRA.norm>
0.212909

>  <SCORE.RESTR>
3.5552

>  <SCORE.RESTR.CAVITY>
3.5552

>  <SCORE.RESTR.norm>
0.0772869

>  <SCORE.SYSTEM>
0

>  <SCORE.SYSTEM.CONST>
0

>  <SCORE.SYSTEM.DIHEDRAL>
0

>  <SCORE.SYSTEM.SOLV>
0

>  <SCORE.SYSTEM.norm>
0

>  <SCORE.heavy>
46

>  <SCORE.norm>
0.324367

>  <RMSD>
10.623

$$$$
lig.pdb
 OpenBabel03061811583D
libRbt.so/2013.1/901 2013/11/27
 46 49  0  0  0  0  0  0  0  0999 V2000
   10.4935  -14.0612   11.5281 C   0  0  1  0  0  0  0  0  0  0  0  0
    8.5910  -15.4612   10.6179 C   0  0  1  0  0  0  0  0  0  0  0  0
    9.5101  -16.2856    9.6664 C   0  0  1  0  0  0  0  0  0  0  0  0
    8.6032  -16.9371    8.5019 C   0  0  2  0  0  0  0  0  0  0  0  0
   10.3372  -14.3605    8.2354 C   0  0  2  0  0  0  0  0  0  0  0  0
   10.1992  -14.8721    6.7732 C   0  0  1  0  0  0  0  0  0  0  0  0
    9.4030  -13.7139    6.2220 C   0  0  1  0  0  0  0  0  0  0  0  0
    8.2924  -13.4525    7.2885 C   0  0  1  0  0  0  0  0  0  0  0  0
    7.0194  -14.3676    7.2250 C   0  0  0  0  0  0  0  0  0  0  0  0
    9.9104  -11.5360    5.1814 C   0  0  1  0  0  0  0  0  0  0  0  0
    9.8848  -11.9770    3.7483 C   0  0  1  0  0  0  0  0  0  0  0  0
   11.5500  -14.3558   12.6191 C   0  0  1  0  0  0  0  0  0  0  0  0
    9.4623  -10.7546    2.8586 C   0  0  0  0  0  0  0  0  0  0  0  0
   10.3414   -9.6233    2.9358 C   0  0  0  0  0  0  0  0  0  0  0  0
   10.3645   -9.1461    4.3021 C   0  0  2  0  0  0  0  0  0  0  0  0
   11.3264   -7.9022    4.4520 C   0  0  0  0  0  0  0  0  0  0  0  0
    4.9015  -21.6315    7.4841 C   0  0  2  0  0  0  0  0  0  0  0  0
    6.2127  -19.9071    8.4114 C   0  0  0  0  0  0  0  0  0  0  0  0
    3.9581  -22.0368    6.5589 C   0  0  0  0  0  0  0  0  0  0  0  0
    5.3219  -20.3832    7.1612 C   0  0  1  0  0  0  0  0  0  0  0  0
   11.0113  -13.9452   14.0644 C   0  0  0  0  0  0  0  0  0  0  0  0
   10.6398  -12.3853   14.0363 C   0  0  0  0  0  0  0  0  0  0  0  0
    9.5262  -12.1651   12.9106 C   0  0  1  0  0  0  0  0  0  0  0  0
    9.1106  -10.6935   12.7970 C   0  0  0  0  0  0  0  0  0  0  0  0
    7.5651  -17.9315    9.1833 C   0  0  1  0  0  0  0  0  0  0  0  0
    6.6267  -17.0179   10.1375 C   0  0  0  0  0  0  0  0  0  0  0  0
    7.4991  -16.3470   11.2675 C   0  0  2  0  0  0  0  0  0  0  0  0
    5.9760  -22.5972    7.5329 F   0  0  0  0  0  0  0  0  0  0  0  0
   12.7971   -8.2162    4.0535 N   0  0  0  0  0  0  0  0  0  0  0  0
   11.9117  -15.8195   12.5400 N   0  0  0  0  0  0  0  0  0  0  0  0
   11.1264  -12.3844    3.2525 N   0  0  0  0  0  0  0  0  0  0  0  0
    3.1890  -23.2204    6.4636 N   0  0  0  0  0  0  0  0  0  0  0  0
    8.4939  -10.2472   13.9852 N   0  0  0  0  0  0  0  0  0  0  0  0
    6.7235  -18.5599    8.1493 N   0  0  0  0  0  0  0  0  0  0  0  0
    6.6568  -15.4989   12.1397 N   0  0  0  0  0  0  0  0  0  0  0  0
    9.3508  -14.9035   11.6824 O   0  0  0  0  0  0  0  0  0  0  0  0
   10.5189  -15.3275    9.1030 O   0  0  0  0  0  0  0  0  0  0  0  0
    9.4364  -17.6589    7.6768 O   0  0  0  0  0  0  0  0  0  0  0  0
   11.4786  -14.9953    6.2301 O   0  0  0  0  0  0  0  0  0  0  0  0
    9.1385  -13.5339    8.4475 O   0  0  0  0  0  0  0  0  0  0  0  0
    6.3958  -14.1484    5.9439 O   0  0  0  0  0  0  0  0  0  0  0  0
   10.3166  -12.5118    6.0655 O   0  0  0  0  0  0  0  0  0  0  0  0
    6.1176  -20.3489    5.9562 O   0  0  0  0  0  0  0  0  0  0  0  0
    6.4114  -20.5822    9.4348 O   0  0  0  0  0  0  0  0  0  0  0  0
   10.7796  -10.2558    5.2391 O   0  0  0  0  0  0  0  0  0  0  0  0
   10.0590  -12.6239   11.5631 O   0  0  0  0  0  0  0  0  0  0  0  0
  1 36  1  1  0  0  0
  2 36  1  1  0  0  0
  2  3  1  0  0  0  0
  3 37  1  6  0  0  0
  3  4  1  0  0  0  0
  4 38  1  6  0  0  0
  5 37  1  1  0  0  0
  5  6  1  0  0  0  0
  6  7  1  0  0  0  0
  6 39  1  6  0  0  0
  7 42  1  1  0  0  0
  8  9  1  1  0  0  0
  8  7  1  0  0  0  0
 10 42  1  1  0  0  0
 10 11  1  0  0  0  0
 11 31  1  6  0  0  0
 11 13  1  0  0  0  0
 12 30  1  1  0  0  0
 12  1  1  0  0  0  0
 14 13  1  0  0  0  0
 15 16  1  6  0  0  0
 15 14  1  0  0  0  0
 17 19  1  6  0  0  0
 17 28  1  0  0  0  0
 18 34  1  0  0  0  0
 19 32  1  0  0  0  0
 20 18  1  1  0  0  0
 20 17  1  0  0  0  0
 20 43  1  0  0  0  0
 21 12  1  0  0  0  0
 22 21  1  0  0  0  0
 22 23  1  0  0  0  0
 23 24  1  6  0  0  0
 23 46  1  0  0  0  0
 24 33  1  0  0  0  0
 25 34  1  6  0  0  0
 25  4  1  0  0  0  0
 26 25  1  0  0  0  0
 27 35  1  1  0  0  0
 27 26  1  0  0  0  0
 27  2  1  0  0  0  0
 29 16  1  0  0  0  0
 40  8  1  0  0  0  0
 40  5  1  0  0  0  0
 41  9  1  0  0  0  0
 44 18  2  0  0  0  0
 45 15  1  0  0  0  0
 45 10  1  0  0  0  0
 46  1  1  0  0  0  0
M  END
>  <CHROM.1>
-143.35335675,55.96794805,-70.62527846,-76.97355115,158.58054807,-61.33644046
-66.18850685,-59.62216053,-177.80792036,179.62810738,170.72275907,-64.03118687
150.07117339,8.78695489,-14.97778926,8.27559992,-0.30501943,1.09595426,1.75718254

>  <Name>
lig.pdb

>  <RI>
0

>  <Rbt.Current_Directory>
/home/afrankz/demos/rdock_decoys_rna/rnas/3wru

>  <Rbt.Executable>
rbdock ($Id: //depot/dev/client3/rdock/2013.1/src/exe/rbdock.cxx#4 $)

>  <Rbt.Library>
libRbt.so (2013.1, Build901 2013/11/27)

>  <Rbt.Parameter_File>
/export/apps/rDock/src/rDock_2013.1_src/data/scripts/dock_solv.prm

>  <Rbt.Receptor>
prm/pocket_docking_8.prm

>  <SCORE>
-8.47754

>  <SCORE.INTER>
-5.91689

>  <SCORE.INTER.CONST>
1

>  <SCORE.INTER.POLAR>
0

>  <SCORE.INTER.ROT>
13

>  <SCORE.INTER.SOLV>
14.1243

>  <SCORE.INTER.VDW>
-20.9194

>  <SCORE.INTER.norm>
-0.128628

>  <SCORE.INTRA>
-2.56065

>  <SCORE.INTRA.DIHEDRAL>
-8.78027

>  <SCORE.INTRA.DIHEDRAL.0>
19.7146

>  <SCORE.INTRA.POLAR>
0

>  <SCORE.INTRA.POLAR.0>
0

>  <SCORE.INTRA.REPUL>
0.134502

>  <SCORE.INTRA.REPUL.0>
0

>  <SCORE.INTRA.SOLV>
-1.0693

>  <SCORE.INTRA.SOLV.lig_0>
-116.697

>  <SCORE.INTRA.VDW>
1.69163

>  <SCORE.INTRA.VDW.0>
-7.06424

>  <SCORE.INTRA.norm>
-0.0556663

>  <SCORE.RESTR>
0

>  <SCORE.RESTR.CAVITY>
0

>  <SCORE.RESTR.norm>
0

>  <SCORE.SYSTEM>
0

>  <SCORE.SYSTEM.CONST>
0

>  <SCORE.SYSTEM.DIHEDRAL>
0

>  <SCORE.SYSTEM.SOLV>
0

>  <SCORE.SYSTEM.norm>
0

>  <SCORE.heavy>
46

>  <SCORE.norm>
-0.184294

>  <RMSD>
10.637

$$$$
lig.pdb
 OpenBabel03061811583D
libRbt.so/2013.1/901 2013/11/27
 46 49  0  0  0  0  0  0  0  0999 V2000
   10.0748   -8.6614    0.6190 C   0  0  1  0  0  0  0  0  0  0  0  0
   11.1507   -9.2609    2.8306 C   0  0  1  0  0  0  0  0  0  0  0  0
   11.6477   -8.4889    4.0903 C   0  0  1  0  0  0  0  0  0  0  0  0
   11.9339   -9.5497    5.2717 C   0  0  2  0  0  0  0  0  0  0  0  0
   13.4206   -6.6773    4.2017 C   0  0  2  0  0  0  0  0  0  0  0  0
   14.2848   -5.8774    3.1858 C   0  0  1  0  0  0  0  0  0  0  0  0
   14.1535   -4.5170    3.8269 C   0  0  1  0  0  0  0  0  0  0  0  0
   12.6335   -4.3792    4.1579 C   0  0  1  0  0  0  0  0  0  0  0  0
   11.6915   -3.9268    2.9876 C   0  0  0  0  0  0  0  0  0  0  0  0
   14.8614   -3.3670    5.8909 C   0  0  1  0  0  0  0  0  0  0  0  0
   15.6245   -2.1648    5.4206 C   0  0  1  0  0  0  0  0  0  0  0  0
   10.6559   -7.9674   -0.6355 C   0  0  1  0  0  0  0  0  0  0  0  0
   15.4177   -1.0060    6.4593 C   0  0  0  0  0  0  0  0  0  0  0  0
   15.8735   -1.3014    7.7873 C   0  0  0  0  0  0  0  0  0  0  0  0
   15.1321   -2.4383    8.2900 C   0  0  2  0  0  0  0  0  0  0  0  0
   15.5980   -2.8181    9.7507 C   0  0  0  0  0  0  0  0  0  0  0  0
    9.9949  -12.2178    9.5640 C   0  0  2  0  0  0  0  0  0  0  0  0
    9.6048  -11.9334    7.2575 C   0  0  0  0  0  0  0  0  0  0  0  0
   10.1886  -13.0647   10.6388 C   0  0  0  0  0  0  0  0  0  0  0  0
   10.0770  -12.9394    8.4186 C   0  0  1  0  0  0  0  0  0  0  0  0
   10.5082   -6.3813   -0.5333 C   0  0  0  0  0  0  0  0  0  0  0  0
    8.9524   -6.0331   -0.3577 C   0  0  0  0  0  0  0  0  0  0  0  0
    8.4331   -6.7577    0.9694 C   0  0  1  0  0  0  0  0  0  0  0  0
    6.9433   -6.4939    1.2195 C   0  0  0  0  0  0  0  0  0  0  0  0
   10.5613  -10.2685    5.6324 C   0  0  1  0  0  0  0  0  0  0  0  0
   10.1089  -11.0698    4.2985 C   0  0  0  0  0  0  0  0  0  0  0  0
    9.8516  -10.0527    3.1207 C   0  0  2  0  0  0  0  0  0  0  0  0
   10.9520  -11.1361    9.6230 F   0  0  0  0  0  0  0  0  0  0  0  0
   17.1309   -3.0604    9.8589 N   0  0  0  0  0  0  0  0  0  0  0  0
   12.0953   -8.3973   -0.7861 N   0  0  0  0  0  0  0  0  0  0  0  0
   17.0072   -2.3562    5.3496 N   0  0  0  0  0  0  0  0  0  0  0  0
    9.5457  -14.2693   11.0089 N   0  0  0  0  0  0  0  0  0  0  0  0
    6.6855   -5.1116    1.3369 N   0  0  0  0  0  0  0  0  0  0  0  0
   10.7770  -11.2392    6.7203 N   0  0  0  0  0  0  0  0  0  0  0  0
    9.4496  -10.7718    1.8916 N   0  0  0  0  0  0  0  0  0  0  0  0
   10.8491   -8.3532    1.7786 O   0  0  0  0  0  0  0  0  0  0  0  0
   12.9003   -7.7665    3.6880 O   0  0  0  0  0  0  0  0  0  0  0  0
   12.3702   -8.8444    6.3710 O   0  0  0  0  0  0  0  0  0  0  0  0
   15.5798   -6.3968    3.2085 O   0  0  0  0  0  0  0  0  0  0  0  0
   12.4546   -5.6926    4.7138 O   0  0  0  0  0  0  0  0  0  0  0  0
   10.3562   -3.8320    3.5225 O   0  0  0  0  0  0  0  0  0  0  0  0
   15.0018   -4.4760    5.0851 O   0  0  0  0  0  0  0  0  0  0  0  0
   11.4145  -13.4087    8.1411 O   0  0  0  0  0  0  0  0  0  0  0  0
    8.4302  -11.7930    6.8793 O   0  0  0  0  0  0  0  0  0  0  0  0
   15.2847   -3.6182    7.3591 O   0  0  0  0  0  0  0  0  0  0  0  0
    8.6472   -8.2580    0.8540 O   0  0  0  0  0  0  0  0  0  0  0  0
  1 36  1  1  0  0  0
  2 36  1  6  0  0  0
  2  3  1  0  0  0  0
  3 37  1  6  0  0  0
  3  4  1  0  0  0  0
  4 38  1  1  0  0  0
  5 37  1  6  0  0  0
  5  6  1  0  0  0  0
  6  7  1  0  0  0  0
  6 39  1  1  0  0  0
  7 42  1  1  0  0  0
  8  9  1  6  0  0  0
  8  7  1  0  0  0  0
 10 42  1  6  0  0  0
 10 11  1  0  0  0  0
 11 31  1  1  0  0  0
 11 13  1  0  0  0  0
 12 30  1  1  0  0  0
 12  1  1  0  0  0  0
 14 13  1  0  0  0  0
 15 16  1  1  0  0  0
 15 14  1  0  0  0  0
 17 19  1  1  0  0  0
 17 28  1  0  0  0  0
 18 34  1  0  0  0  0
 19 32  1  0  0  0  0
 20 18  1  6  0  0  0
 20 17  1  0  0  0  0
 20 43  1  0  0  0  0
 21 12  1  0  0  0  0
 22 21  1  0  0  0  0
 22 23  1  0  0  0  0
 23 24  1  6  0  0  0
 23 46  1  0  0  0  0
 24 33  1  0  0  0  0
 25 34  1  1  0  0  0
 25  4  1  0  0  0  0
 26 25  1  0  0  0  0
 27 35  1  6  0  0  0
 27 26  1  0  0  0  0
 27  2  1  0  0  0  0
 29 16  1  0  0  0  0
 40  8  1  0  0  0  0
 40  5  1  0  0  0  0
 41  9  1  0  0  0  0
 44 18  2  0  0  0  0
 45 15  1  0  0  0  0
 45 10  1  0  0  0  0
 46  1  1  0  0  0  0
M  END
>  <CHROM.1>
-141.92567686,-163.74990302,154.44153621,-153.31740102,-171.70557630,-178.44540512
-80.23033246,-54.45362916,-53.94791945,91.34143267,171.00413712,-58.70705411
175.69383388,11.88029604,-7.37473017,4.83948252,2.58417676,0.89625586,2.21573006

>  <Name>
lig.pdb

>  <RI>
0

>  <Rbt.Current_Directory>
/home/afrankz/demos/rdock_decoys_rna/rnas/3wru

>  <Rbt.Executable>
rbdock ($Id: //depot/dev/client3/rdock/2013.1/src/exe/rbdock.cxx#4 $)

>  <Rbt.Library>
libRbt.so (2013.1, Build901 2013/11/27)

>  <Rbt.Parameter_File>
/export/apps/rDock/src/rDock_2013.1_src/data/scripts/dock_solv.prm

>  <Rbt.Receptor>
prm/blind_docking_20.prm

>  <SCORE>
11.6286

>  <SCORE.INTER>
3.01063

>  <SCORE.INTER.CONST>
1

>  <SCORE.INTER.POLAR>
0

>  <SCORE.INTER.ROT>
13

>  <SCORE.INTER.SOLV>
43.0999

>  <SCORE.INTER.VDW>
-24.6262

>  <SCORE.INTER.norm>
0.0654484

>  <SCORE.INTRA>
2.6162

>  <SCORE.INTRA.DIHEDRAL>
-3.10433

>  <SCORE.INTRA.DIHEDRAL.0>
19.7146

>  <SCORE.INTRA.POLAR>
0

>  <SCORE.INTRA.POLAR.0>
0

>  <SCORE.INTRA.REPUL>
0

>  <SCORE.INTRA.REPUL.0>
0

>  <SCORE.INTRA.SOLV>
-0.449446

>  <SCORE.INTRA.SOLV.lig_0>
-116.697

>  <SCORE.INTRA.VDW>
4.39309

>  <SCORE.INTRA.VDW.0>
-7.06424

>  <SCORE.INTRA.norm>
0.056874

>  <SCORE.RESTR>
6.00176

>  <SCORE.RESTR.CAVITY>
6.00176

>  <SCORE.RESTR.norm>
0.130473

>  <SCORE.SYSTEM>
0

>  <SCORE.SYSTEM.CONST>
0

>  <SCORE.SYSTEM.DIHEDRAL>
0

>  <SCORE.SYSTEM.SOLV>
0

>  <SCORE.SYSTEM.norm>
0

>  <SCORE.heavy>
46

>  <SCORE.norm>
0.252795

>  <RMSD>
10.698

$$$$
lig.pdb
 OpenBabel03061811583D
libRbt.so/2013.1/901 2013/11/27
 46 49  0  0  0  0  0  0  0  0999 V2000
    5.8203  -18.7036    4.8234 C   0  0  1  0  0  0  0  0  0  0  0  0
    6.6411  -18.8048    7.2159 C   0  0  1  0  0  0  0  0  0  0  0  0
    5.9354  -17.4662    7.5900 C   0  0  1  0  0  0  0  0  0  0  0  0
    6.6175  -16.8739    8.9268 C   0  0  2  0  0  0  0  0  0  0  0  0
    7.2302  -16.0113    5.9637 C   0  0  2  0  0  0  0  0  0  0  0  0
    7.6436  -14.7131    6.7136 C   0  0  1  0  0  0  0  0  0  0  0  0
    9.1252  -14.7719    6.4298 C   0  0  1  0  0  0  0  0  0  0  0  0
    9.5263  -16.2531    6.7198 C   0  0  1  0  0  0  0  0  0  0  0  0
    9.7906  -16.6354    8.2184 C   0  0  0  0  0  0  0  0  0  0  0  0
    9.3815  -13.0613    4.6714 C   0  0  1  0  0  0  0  0  0  0  0  0
    9.3628  -12.7650    3.2015 C   0  0  1  0  0  0  0  0  0  0  0  0
    4.9495  -19.5592    3.8731 C   0  0  1  0  0  0  0  0  0  0  0  0
    9.4388  -11.2093    3.0061 C   0  0  0  0  0  0  0  0  0  0  0  0
   10.6170  -10.5930    3.5452 C   0  0  0  0  0  0  0  0  0  0  0  0
   10.6514  -10.8280    4.9730 C   0  0  2  0  0  0  0  0  0  0  0  0
   11.9359  -10.1786    5.6237 C   0  0  0  0  0  0  0  0  0  0  0  0
    6.1939  -16.8767   14.8307 C   0  0  2  0  0  0  0  0  0  0  0  0
    6.2543  -17.6447   12.6036 C   0  0  0  0  0  0  0  0  0  0  0  0
    6.8633  -16.4707   15.9695 C   0  0  0  0  0  0  0  0  0  0  0  0
    7.0899  -17.0108   13.8215 C   0  0  1  0  0  0  0  0  0  0  0  0
    5.7251  -20.8773    3.4162 C   0  0  0  0  0  0  0  0  0  0  0  0
    7.0878  -20.4330    2.6965 C   0  0  0  0  0  0  0  0  0  0  0  0
    7.9434  -19.5826    3.7456 C   0  0  1  0  0  0  0  0  0  0  0  0
    9.2683  -19.0983    3.1443 C   0  0  0  0  0  0  0  0  0  0  0  0
    6.3774  -17.9147   10.1057 C   0  0  1  0  0  0  0  0  0  0  0  0
    7.1505  -19.2714    9.6726 C   0  0  0  0  0  0  0  0  0  0  0  0
    6.5178  -19.8527    8.3498 C   0  0  2  0  0  0  0  0  0  0  0  0
    5.1376  -15.9367   14.5304 F   0  0  0  0  0  0  0  0  0  0  0  0
   12.2294  -10.7095    7.0562 N   0  0  0  0  0  0  0  0  0  0  0  0
    3.6540  -19.8763    4.5806 N   0  0  0  0  0  0  0  0  0  0  0  0
   10.4562  -13.2803    2.4997 N   0  0  0  0  0  0  0  0  0  0  0  0
    7.5058  -15.2526   16.2933 N   0  0  0  0  0  0  0  0  0  0  0  0
   10.1248  -18.5922    4.1450 N   0  0  0  0  0  0  0  0  0  0  0  0
    6.9755  -17.4036   11.3521 N   0  0  0  0  0  0  0  0  0  0  0  0
    7.2224  -21.0859    7.9349 N   0  0  0  0  0  0  0  0  0  0  0  0
    6.0390  -19.3785    6.0627 O   0  0  0  0  0  0  0  0  0  0  0  0
    6.1210  -16.5394    6.4241 O   0  0  0  0  0  0  0  0  0  0  0  0
    5.9776  -15.6945    9.2360 O   0  0  0  0  0  0  0  0  0  0  0  0
    6.9900  -13.6351    6.1153 O   0  0  0  0  0  0  0  0  0  0  0  0
    8.4218  -16.8713    6.0387 O   0  0  0  0  0  0  0  0  0  0  0  0
   10.2545  -18.0002    8.2386 O   0  0  0  0  0  0  0  0  0  0  0  0
    9.3684  -14.4049    4.9771 O   0  0  0  0  0  0  0  0  0  0  0  0
    7.6705  -15.7537   13.4105 O   0  0  0  0  0  0  0  0  0  0  0  0
    5.1781  -18.2524   12.7264 O   0  0  0  0  0  0  0  0  0  0  0  0
   10.5992  -12.3096    5.2629 O   0  0  0  0  0  0  0  0  0  0  0  0
    7.1451  -18.3712    4.1988 O   0  0  0  0  0  0  0  0  0  0  0  0
  1 36  1  1  0  0  0
  2 36  1  6  0  0  0
  2  3  1  0  0  0  0
  3 37  1  6  0  0  0
  3  4  1  0  0  0  0
  4 38  1  1  0  0  0
  5 37  1  1  0  0  0
  5  6  1  0  0  0  0
  6  7  1  0  0  0  0
  6 39  1  6  0  0  0
  7 42  1  6  0  0  0
  8  9  1  1  0  0  0
  8  7  1  0  0  0  0
 10 42  1  6  0  0  0
 10 11  1  0  0  0  0
 11 31  1  6  0  0  0
 11 13  1  0  0  0  0
 12 30  1  1  0  0  0
 12  1  1  0  0  0  0
 14 13  1  0  0  0  0
 15 16  1  6  0  0  0
 15 14  1  0  0  0  0
 17 19  1  1  0  0  0
 17 28  1  0  0  0  0
 18 34  1  0  0  0  0
 19 32  1  0  0  0  0
 20 18  1  6  0  0  0
 20 17  1  0  0  0  0
 20 43  1  0  0  0  0
 21 12  1  0  0  0  0
 22 21  1  0  0  0  0
 22 23  1  0  0  0  0
 23 24  1  6  0  0  0
 23 46  1  0  0  0  0
 24 33  1  0  0  0  0
 25 34  1  1  0  0  0
 25  4  1  0  0  0  0
 26 25  1  0  0  0  0
 27 35  1  6  0  0  0
 27 26  1  0  0  0  0
 27  2  1  0  0  0  0
 29 16  1  0  0  0  0
 40  8  1  0  0  0  0
 40  5  1  0  0  0  0
 41  9  1  0  0  0  0
 44 18  2  0  0  0  0
 45 15  1  0  0  0  0
 45 10  1  0  0  0  0
 46  1  1  0  0  0  0
M  END
>  <CHROM.1>
-171.13779237,52.17294422,-66.20576397,-84.30452345,80.84066410,-175.08833647
-168.91232795,-164.52932043,68.70641535,160.47470228,173.58508637,-168.01399277
142.17005690,7.77418552,-16.39428588,7.45949533,0.88939859,-1.07007364,-1.87083529

>  <Name>
lig.pdb

>  <RI>
0

>  <Rbt.Current_Directory>
/home/afrankz/demos/rdock_decoys_rna/rnas/3wru

>  <Rbt.Executable>
rbdock ($Id: //depot/dev/client3/rdock/2013.1/src/exe/rbdock.cxx#4 $)

>  <Rbt.Library>
libRbt.so (2013.1, Build901 2013/11/27)

>  <Rbt.Parameter_File>
/export/apps/rDock/src/rDock_2013.1_src/data/scripts/dock_solv.prm

>  <Rbt.Receptor>
prm/pocket_docking_7.prm

>  <SCORE>
-3.07539

>  <SCORE.INTER>
0.0699019

>  <SCORE.INTER.CONST>
1

>  <SCORE.INTER.POLAR>
0

>  <SCORE.INTER.ROT>
13

>  <SCORE.INTER.SOLV>
22.7594

>  <SCORE.INTER.VDW>
-19.8065

>  <SCORE.INTER.norm>
0.00151961

>  <SCORE.INTRA>
-3.14529

>  <SCORE.INTRA.DIHEDRAL>
-9.72095

>  <SCORE.INTRA.DIHEDRAL.0>
19.7146

>  <SCORE.INTRA.POLAR>
0

>  <SCORE.INTRA.POLAR.0>
0

>  <SCORE.INTRA.REPUL>
0.146489

>  <SCORE.INTRA.REPUL.0>
0

>  <SCORE.INTRA.SOLV>
0.799057

>  <SCORE.INTRA.SOLV.lig_0>
-116.697

>  <SCORE.INTRA.VDW>
0.583209

>  <SCORE.INTRA.VDW.0>
-7.06424

>  <SCORE.INTRA.norm>
-0.0683759

>  <SCORE.RESTR>
0

>  <SCORE.RESTR.CAVITY>
0

>  <SCORE.RESTR.norm>
0

>  <SCORE.SYSTEM>
0

>  <SCORE.SYSTEM.CONST>
0

>  <SCORE.SYSTEM.DIHEDRAL>
0

>  <SCORE.SYSTEM.SOLV>
0

>  <SCORE.SYSTEM.norm>
0

>  <SCORE.heavy>
46

>  <SCORE.norm>
-0.0668563

>  <RMSD>
10.717

$$$$
lig.pdb
 OpenBabel03061811583D
libRbt.so/2013.1/901 2013/11/27
 46 49  0  0  0  0  0  0  0  0999 V2000
   11.1829  -11.2334    4.6842 C   0  0  1  0  0  0  0  0  0  0  0  0
   11.6940   -8.8501    4.0011 C   0  0  1  0  0  0  0  0  0  0  0  0
   10.8933   -7.5801    3.5818 C   0  0  1  0  0  0  0  0  0  0  0  0
   11.9106   -6.3317    3.4845 C   0  0  2  0  0  0  0  0  0  0  0  0
    9.1223   -7.4670    1.7684 C   0  0  2  0  0  0  0  0  0  0  0  0
    9.1698   -5.9956    1.2670 C   0  0  1  0  0  0  0  0  0  0  0  0
    8.0393   -6.0791    0.2700 C   0  0  1  0  0  0  0  0  0  0  0  0
    8.3012   -7.4022   -0.5173 C   0  0  1  0  0  0  0  0  0  0  0  0
    9.3408   -7.3349   -1.6905 C   0  0  0  0  0  0  0  0  0  0  0  0
    5.6205   -6.5604    0.3064 C   0  0  1  0  0  0  0  0  0  0  0  0
    4.7064   -5.4584   -0.1397 C   0  0  1  0  0  0  0  0  0  0  0  0
   12.2773  -11.9147    3.8289 C   0  0  1  0  0  0  0  0  0  0  0  0
    3.4797   -6.0985   -0.8813 C   0  0  0  0  0  0  0  0  0  0  0  0
    2.6973   -6.9976   -0.0825 C   0  0  0  0  0  0  0  0  0  0  0  0
    3.5396   -8.0968    0.3386 C   0  0  2  0  0  0  0  0  0  0  0  0
    2.7330   -9.1190    1.2326 C   0  0  0  0  0  0  0  0  0  0  0  0
   15.4480   -3.3355    5.6269 C   0  0  2  0  0  0  0  0  0  0  0  0
   13.1334   -3.7698    5.7103 C   0  0  0  0  0  0  0  0  0  0  0  0
   16.4649   -2.5578    5.1063 C   0  0  0  0  0  0  0  0  0  0  0  0
   14.2781   -2.6591    5.5123 C   0  0  1  0  0  0  0  0  0  0  0  0
   11.7161  -12.3080    2.3874 C   0  0  0  0  0  0  0  0  0  0  0  0
   10.4590  -13.2836    2.5880 C   0  0  0  0  0  0  0  0  0  0  0  0
    9.3632  -12.5026    3.4512 C   0  0  1  0  0  0  0  0  0  0  0  0
    8.1195  -13.3617    3.7092 C   0  0  0  0  0  0  0  0  0  0  0  0
   12.5257   -6.0829    4.9304 C   0  0  1  0  0  0  0  0  0  0  0  0
   13.3620   -7.4207    5.3000 C   0  0  0  0  0  0  0  0  0  0  0  0
   12.3898   -8.6607    5.3718 C   0  0  2  0  0  0  0  0  0  0  0  0
   15.7646   -3.6944    6.9909 F   0  0  0  0  0  0  0  0  0  0  0  0
    1.5074   -9.7362    0.4997 N   0  0  0  0  0  0  0  0  0  0  0  0
   13.4587  -10.9784    3.7448 N   0  0  0  0  0  0  0  0  0  0  0  0
    4.1581   -4.7109    0.9062 N   0  0  0  0  0  0  0  0  0  0  0  0
   16.9852   -1.3054    5.5089 N   0  0  0  0  0  0  0  0  0  0  0  0
    8.4175  -14.4407    4.5683 N   0  0  0  0  0  0  0  0  0  0  0  0
   13.4535   -4.9384    4.8878 N   0  0  0  0  0  0  0  0  0  0  0  0
   13.1422   -9.8929    5.6963 N   0  0  0  0  0  0  0  0  0  0  0  0
   10.8220   -9.9649    4.1366 O   0  0  0  0  0  0  0  0  0  0  0  0
   10.2693   -7.8827    2.2507 O   0  0  0  0  0  0  0  0  0  0  0  0
   11.1805   -5.2246    3.1139 O   0  0  0  0  0  0  0  0  0  0  0  0
    8.9141   -5.1553    2.3513 O   0  0  0  0  0  0  0  0  0  0  0  0
    8.6032   -8.2271    0.6203 O   0  0  0  0  0  0  0  0  0  0  0  0
   10.6120   -6.9684   -1.1181 O   0  0  0  0  0  0  0  0  0  0  0  0
    6.7192   -6.1298    1.0178 O   0  0  0  0  0  0  0  0  0  0  0  0
   14.1256   -1.6214    6.5053 O   0  0  0  0  0  0  0  0  0  0  0  0
   12.1499   -3.6448    6.4585 O   0  0  0  0  0  0  0  0  0  0  0  0
    4.7479   -7.5778    1.0819 O   0  0  0  0  0  0  0  0  0  0  0  0
    9.9573  -12.0952    4.7896 O   0  0  0  0  0  0  0  0  0  0  0  0
  1 36  1  6  0  0  0
  2 36  1  1  0  0  0
  2  3  1  0  0  0  0
  3 37  1  6  0  0  0
  3  4  1  0  0  0  0
  4 38  1  1  0  0  0
  5 37  1  6  0  0  0
  5  6  1  0  0  0  0
  6  7  1  0  0  0  0
  6 39  1  1  0  0  0
  7 42  1  1  0  0  0
  8  9  1  6  0  0  0
  8  7  1  0  0  0  0
 10 42  1  1  0  0  0
 10 11  1  0  0  0  0
 11 31  1  1  0  0  0
 11 13  1  0  0  0  0
 12 30  1  6  0  0  0
 12  1  1  0  0  0  0
 14 13  1  0  0  0  0
 15 16  1  1  0  0  0
 15 14  1  0  0  0  0
 17 19  1  1  0  0  0
 17 28  1  0  0  0  0
 18 34  1  0  0  0  0
 19 32  1  0  0  0  0
 20 18  1  1  0  0  0
 20 17  1  0  0  0  0
 20 43  1  0  0  0  0
 21 12  1  0  0  0  0
 22 21  1  0  0  0  0
 22 23  1  0  0  0  0
 23 24  1  1  0  0  0
 23 46  1  0  0  0  0
 24 33  1  0  0  0  0
 25 34  1  6  0  0  0
 25  4  1  0  0  0  0
 26 25  1  0  0  0  0
 27 35  1  6  0  0  0
 27 26  1  0  0  0  0
 27  2  1  0  0  0  0
 29 16  1  0  0  0  0
 40  8  1  0  0  0  0
 40  5  1  0  0  0  0
 41  9  1  0  0  0  0
 44 18  2  0  0  0  0
 45 15  1  0  0  0  0
 45 10  1  0  0  0  0
 46  1  1  0  0  0  0
M  END
>  <CHROM.1>
-62.80670875,-170.79136816,146.93101280,76.91346907,-163.22599544,61.80089219
-102.37705059,59.54934435,63.79910020,-46.89721314,163.31709921,68.04396328
118.16734161,9.96232414,-7.40972737,2.96034578,-0.32177928,0.51204951,3.04531951

>  <Name>
lig.pdb

>  <RI>
0

>  <Rbt.Current_Directory>
/home/afrankz/demos/rdock_decoys_rna/rnas/3wru

>  <Rbt.Executable>
rbdock ($Id: //depot/dev/client3/rdock/2013.1/src/exe/rbdock.cxx#4 $)

>  <Rbt.Library>
libRbt.so (2013.1, Build901 2013/11/27)

>  <Rbt.Parameter_File>
/export/apps/rDock/src/rDock_2013.1_src/data/scripts/dock_solv.prm

>  <Rbt.Receptor>
prm/blind_docking_20.prm

>  <SCORE>
27.2851

>  <SCORE.INTER>
12.0086

>  <SCORE.INTER.CONST>
1

>  <SCORE.INTER.POLAR>
0

>  <SCORE.INTER.ROT>
13

>  <SCORE.INTER.SOLV>
33.9405

>  <SCORE.INTER.VDW>
-15.5744

>  <SCORE.INTER.norm>
0.261056

>  <SCORE.INTRA>
10.5829

>  <SCORE.INTRA.DIHEDRAL>
-3.20234

>  <SCORE.INTRA.DIHEDRAL.0>
19.7146

>  <SCORE.INTRA.POLAR>
0

>  <SCORE.INTRA.POLAR.0>
0

>  <SCORE.INTRA.REPUL>
0

>  <SCORE.INTRA.REPUL.0>
0

>  <SCORE.INTRA.SOLV>
6.14598

>  <SCORE.INTRA.SOLV.lig_0>
-116.697

>  <SCORE.INTRA.VDW>
9.11104

>  <SCORE.INTRA.VDW.0>
-7.06424

>  <SCORE.INTRA.norm>
0.230062

>  <SCORE.RESTR>
4.69365

>  <SCORE.RESTR.CAVITY>
4.69365

>  <SCORE.RESTR.norm>
0.102036

>  <SCORE.SYSTEM>
0

>  <SCORE.SYSTEM.CONST>
0

>  <SCORE.SYSTEM.DIHEDRAL>
0

>  <SCORE.SYSTEM.SOLV>
0

>  <SCORE.SYSTEM.norm>
0

>  <SCORE.heavy>
46

>  <SCORE.norm>
0.593155

>  <RMSD>
10.721

$$$$
lig.pdb
 OpenBabel03061811583D
libRbt.so/2013.1/901 2013/11/27
 46 49  0  0  0  0  0  0  0  0999 V2000
    9.7659  -13.9952   12.4830 C   0  0  1  0  0  0  0  0  0  0  0  0
    7.5100  -15.0385   12.0029 C   0  0  1  0  0  0  0  0  0  0  0  0
    8.1334  -16.4445   11.7490 C   0  0  1  0  0  0  0  0  0  0  0  0
    7.0852  -17.3340   10.9046 C   0  0  2  0  0  0  0  0  0  0  0  0
   10.4525  -17.0044   10.8853 C   0  0  2  0  0  0  0  0  0  0  0  0
   11.5767  -16.4091    9.9906 C   0  0  1  0  0  0  0  0  0  0  0  0
   12.7420  -17.1505   10.6000 C   0  0  1  0  0  0  0  0  0  0  0  0
   12.5315  -17.0217   12.1421 C   0  0  1  0  0  0  0  0  0  0  0  0
   13.0172  -15.6902   12.8150 C   0  0  0  0  0  0  0  0  0  0  0  0
   13.5209  -18.9504    9.1042 C   0  0  1  0  0  0  0  0  0  0  0  0
   14.9781  -18.7019    9.3570 C   0  0  1  0  0  0  0  0  0  0  0  0
   10.3945  -13.0309   13.5165 C   0  0  1  0  0  0  0  0  0  0  0  0
   15.7809  -19.0907    8.0652 C   0  0  0  0  0  0  0  0  0  0  0  0
   15.4244  -18.3483    6.8903 C   0  0  0  0  0  0  0  0  0  0  0  0
   14.0289  -18.5920    6.5933 C   0  0  2  0  0  0  0  0  0  0  0  0
   13.5740  -17.7910    5.3102 C   0  0  0  0  0  0  0  0  0  0  0  0
    3.8068  -20.7021    9.9353 C   0  0  2  0  0  0  0  0  0  0  0  0
    4.0001  -19.3022   11.8210 C   0  0  0  0  0  0  0  0  0  0  0  0
    4.2914  -21.8595   10.5147 C   0  0  0  0  0  0  0  0  0  0  0  0
    3.0005  -20.0722   10.8254 C   0  0  1  0  0  0  0  0  0  0  0  0
    9.7546  -11.5730   13.4033 C   0  0  0  0  0  0  0  0  0  0  0  0
    9.9867  -11.0384   11.9091 C   0  0  0  0  0  0  0  0  0  0  0  0
    9.2864  -12.0662   10.9046 C   0  0  1  0  0  0  0  0  0  0  0  0
    9.4643  -11.6464    9.4406 C   0  0  0  0  0  0  0  0  0  0  0  0
    5.7730  -17.5181   11.7851 C   0  0  1  0  0  0  0  0  0  0  0  0
    5.1597  -16.0329   11.9947 C   0  0  0  0  0  0  0  0  0  0  0  0
    6.1820  -15.1361   12.7939 C   0  0  2  0  0  0  0  0  0  0  0  0
    3.1388  -21.0262    8.6950 F   0  0  0  0  0  0  0  0  0  0  0  0
   13.6943  -16.2491    5.4786 N   0  0  0  0  0  0  0  0  0  0  0  0
   10.2103  -13.6293   14.8904 N   0  0  0  0  0  0  0  0  0  0  0  0
   15.2964  -17.3632    9.6020 N   0  0  0  0  0  0  0  0  0  0  0  0
    5.0859  -22.0678   11.6666 N   0  0  0  0  0  0  0  0  0  0  0  0
   10.8227  -11.6904    9.0615 N   0  0  0  0  0  0  0  0  0  0  0  0
    4.7919  -18.3390   11.0530 N   0  0  0  0  0  0  0  0  0  0  0  0
    5.6403  -13.7721   12.9820 N   0  0  0  0  0  0  0  0  0  0  0  0
    8.3905  -14.2378   12.7807 O   0  0  0  0  0  0  0  0  0  0  0  0
    9.4043  -16.2215   10.9822 O   0  0  0  0  0  0  0  0  0  0  0  0
    7.6579  -18.5685   10.6943 O   0  0  0  0  0  0  0  0  0  0  0  0
   11.3102  -16.7547    8.6651 O   0  0  0  0  0  0  0  0  0  0  0  0
   11.1263  -17.3234   12.1539 O   0  0  0  0  0  0  0  0  0  0  0  0
   14.3532  -15.4306   12.3396 O   0  0  0  0  0  0  0  0  0  0  0  0
   12.6980  -18.6004   10.1526 O   0  0  0  0  0  0  0  0  0  0  0  0
    2.1060  -19.1232   10.2046 O   0  0  0  0  0  0  0  0  0  0  0  0
    4.0647  -19.4960   13.0461 O   0  0  0  0  0  0  0  0  0  0  0  0
   13.1681  -18.2289    7.7803 O   0  0  0  0  0  0  0  0  0  0  0  0
    9.8833  -13.4520   11.0877 O   0  0  0  0  0  0  0  0  0  0  0  0
  1 36  1  1  0  0  0
  2 36  1  1  0  0  0
  2  3  1  0  0  0  0
  3 37  1  6  0  0  0
  3  4  1  0  0  0  0
  4 38  1  1  0  0  0
  5 37  1  1  0  0  0
  5  6  1  0  0  0  0
  6  7  1  0  0  0  0
  6 39  1  6  0  0  0
  7 42  1  6  0  0  0
  8  9  1  6  0  0  0
  8  7  1  0  0  0  0
 10 42  1  1  0  0  0
 10 11  1  0  0  0  0
 11 31  1  6  0  0  0
 11 13  1  0  0  0  0
 12 30  1  1  0  0  0
 12  1  1  0  0  0  0
 14 13  1  0  0  0  0
 15 16  1  6  0  0  0
 15 14  1  0  0  0  0
 17 19  1  1  0  0  0
 17 28  1  0  0  0  0
 18 34  1  0  0  0  0
 19 32  1  0  0  0  0
 20 18  1  1  0  0  0
 20 17  1  0  0  0  0
 20 43  1  0  0  0  0
 21 12  1  0  0  0  0
 22 21  1  0  0  0  0
 22 23  1  0  0  0  0
 23 24  1  6  0  0  0
 23 46  1  0  0  0  0
 24 33  1  0  0  0  0
 25 34  1  6  0  0  0
 25  4  1  0  0  0  0
 26 25  1  0  0  0  0
 27 35  1  6  0  0  0
 27 26  1  0  0  0  0
 27  2  1  0  0  0  0
 29 16  1  0  0  0  0
 40  8  1  0  0  0  0
 40  5  1  0  0  0  0
 41  9  1  0  0  0  0
 44 18  2  0  0  0  0
 45 15  1  0  0  0  0
 45 10  1  0  0  0  0
 46  1  1  0  0  0  0
M  END
>  <CHROM.1>
177.64250626,52.26080598,157.39981415,-179.86847270,98.94621506,-47.94857341
58.94118375,-61.89215169,-60.89153391,60.83485262,79.91407500,64.91656701
141.82848073,9.40558712,-16.75401572,10.65755530,0.12236417,0.30171311,0.48797163

>  <Name>
lig.pdb

>  <RI>
0

>  <Rbt.Current_Directory>
/home/afrankz/demos/rdock_decoys_rna/rnas/3wru

>  <Rbt.Executable>
rbdock ($Id: //depot/dev/client3/rdock/2013.1/src/exe/rbdock.cxx#4 $)

>  <Rbt.Library>
libRbt.so (2013.1, Build901 2013/11/27)

>  <Rbt.Parameter_File>
/export/apps/rDock/src/rDock_2013.1_src/data/scripts/dock_solv.prm

>  <Rbt.Receptor>
prm/pocket_docking_7.prm

>  <SCORE>
0.809344

>  <SCORE.INTER>
1.58502

>  <SCORE.INTER.CONST>
1

>  <SCORE.INTER.POLAR>
0

>  <SCORE.INTER.ROT>
13

>  <SCORE.INTER.SOLV>
20.1447

>  <SCORE.INTER.VDW>
-17.9249

>  <SCORE.INTER.norm>
0.034457

>  <SCORE.INTRA>
-0.775676

>  <SCORE.INTRA.DIHEDRAL>
-8.41608

>  <SCORE.INTRA.DIHEDRAL.0>
19.7146

>  <SCORE.INTRA.POLAR>
0

>  <SCORE.INTRA.POLAR.0>
0

>  <SCORE.INTRA.REPUL>
0

>  <SCORE.INTRA.REPUL.0>
0

>  <SCORE.INTRA.SOLV>
3.52109

>  <SCORE.INTRA.SOLV.lig_0>
-116.697

>  <SCORE.INTRA.VDW>
1.67182

>  <SCORE.INTRA.VDW.0>
-7.06424

>  <SCORE.INTRA.norm>
-0.0168625

>  <SCORE.RESTR>
0

>  <SCORE.RESTR.CAVITY>
0

>  <SCORE.RESTR.norm>
0

>  <SCORE.SYSTEM>
0

>  <SCORE.SYSTEM.CONST>
0

>  <SCORE.SYSTEM.DIHEDRAL>
0

>  <SCORE.SYSTEM.SOLV>
0

>  <SCORE.SYSTEM.norm>
0

>  <SCORE.heavy>
46

>  <SCORE.norm>
0.0175944

>  <RMSD>
10.725

$$$$
lig.pdb
 OpenBabel03061811583D
libRbt.so/2013.1/901 2013/11/27
 46 49  0  0  0  0  0  0  0  0999 V2000
    8.0282  -16.1963   13.4232 C   0  0  1  0  0  0  0  0  0  0  0  0
    6.8324  -16.2548   11.1928 C   0  0  1  0  0  0  0  0  0  0  0  0
    7.9278  -15.9332   10.1314 C   0  0  1  0  0  0  0  0  0  0  0  0
    7.5498  -16.6777    8.7510 C   0  0  2  0  0  0  0  0  0  0  0  0
    8.7785  -13.7011    9.2760 C   0  0  2  0  0  0  0  0  0  0  0  0
    8.1751  -12.3308    8.8553 C   0  0  1  0  0  0  0  0  0  0  0  0
    9.4698  -11.5663    8.7199 C   0  0  1  0  0  0  0  0  0  0  0  0
   10.2859  -11.9381    9.9985 C   0  0  1  0  0  0  0  0  0  0  0  0
    9.9473  -11.1468   11.3104 C   0  0  0  0  0  0  0  0  0  0  0  0
   11.2593  -11.2564    7.0509 C   0  0  1  0  0  0  0  0  0  0  0  0
   10.9190  -10.1876    6.0557 C   0  0  1  0  0  0  0  0  0  0  0  0
    8.1998  -15.2246   14.6146 C   0  0  1  0  0  0  0  0  0  0  0  0
   12.2424   -9.4497    5.6452 C   0  0  0  0  0  0  0  0  0  0  0  0
   13.2350  -10.2896    5.0387 C   0  0  0  0  0  0  0  0  0  0  0  0
   13.6158  -11.3159    5.9858 C   0  0  2  0  0  0  0  0  0  0  0  0
   14.7037  -12.2809    5.3692 C   0  0  0  0  0  0  0  0  0  0  0  0
    5.5551  -20.6915    6.2053 C   0  0  2  0  0  0  0  0  0  0  0  0
    7.2669  -20.4293    7.8034 C   0  0  0  0  0  0  0  0  0  0  0  0
    5.4438  -19.5486    5.4362 C   0  0  0  0  0  0  0  0  0  0  0  0
    6.8691  -20.9933    6.3519 C   0  0  1  0  0  0  0  0  0  0  0  0
    8.9710  -13.9004   14.1677 C   0  0  0  0  0  0  0  0  0  0  0  0
   10.3967  -14.3281   13.5703 C   0  0  0  0  0  0  0  0  0  0  0  0
   10.1377  -15.3033   12.3301 C   0  0  1  0  0  0  0  0  0  0  0  0
   11.4488  -15.7801   11.6938 C   0  0  0  0  0  0  0  0  0  0  0  0
    7.5552  -18.2459    9.0188 C   0  0  1  0  0  0  0  0  0  0  0  0
    6.3860  -18.5205   10.1067 C   0  0  0  0  0  0  0  0  0  0  0  0
    6.7212  -17.7769   11.4567 C   0  0  2  0  0  0  0  0  0  0  0  0
    4.7922  -21.7585    5.5978 F   0  0  0  0  0  0  0  0  0  0  0  0
   15.1769  -13.3811    6.3621 N   0  0  0  0  0  0  0  0  0  0  0  0
    6.8314  -14.9248   15.1775 N   0  0  0  0  0  0  0  0  0  0  0  0
   10.3777  -10.6696    4.8606 N   0  0  0  0  0  0  0  0  0  0  0  0
    5.7476  -19.3021    4.0767 N   0  0  0  0  0  0  0  0  0  0  0  0
   12.1679  -14.6986   11.1421 N   0  0  0  0  0  0  0  0  0  0  0  0
    7.2265  -18.9657    7.7753 N   0  0  0  0  0  0  0  0  0  0  0  0
    5.6552  -18.0086   12.4563 N   0  0  0  0  0  0  0  0  0  0  0  0
    7.1531  -15.6470   12.4375 O   0  0  0  0  0  0  0  0  0  0  0  0
    7.9415  -14.4418    9.9629 O   0  0  0  0  0  0  0  0  0  0  0  0
    8.5307  -16.3790    7.8319 O   0  0  0  0  0  0  0  0  0  0  0  0
    7.4870  -12.5058    7.6540 O   0  0  0  0  0  0  0  0  0  0  0  0
   10.0309  -13.3522    9.9652 O   0  0  0  0  0  0  0  0  0  0  0  0
   10.2043   -9.7525   11.0499 O   0  0  0  0  0  0  0  0  0  0  0  0
   10.1823  -12.0143    7.4565 O   0  0  0  0  0  0  0  0  0  0  0  0
    7.1331  -22.4121    6.2925 O   0  0  0  0  0  0  0  0  0  0  0  0
    7.5453  -21.1382    8.7845 O   0  0  0  0  0  0  0  0  0  0  0  0
   12.4018  -12.0973    6.4300 O   0  0  0  0  0  0  0  0  0  0  0  0
    9.3502  -16.5200   12.7880 O   0  0  0  0  0  0  0  0  0  0  0  0
  1 36  1  6  0  0  0
  2 36  1  1  0  0  0
  2  3  1  0  0  0  0
  3 37  1  6  0  0  0
  3  4  1  0  0  0  0
  4 38  1  6  0  0  0
  5 37  1  1  0  0  0
  5  6  1  0  0  0  0
  6  7  1  0  0  0  0
  6 39  1  6  0  0  0
  7 42  1  6  0  0  0
  8  9  1  1  0  0  0
  8  7  1  0  0  0  0
 10 42  1  6  0  0  0
 10 11  1  0  0  0  0
 11 31  1  6  0  0  0
 11 13  1  0  0  0  0
 12 30  1  6  0  0  0
 12  1  1  0  0  0  0
 14 13  1  0  0  0  0
 15 16  1  6  0  0  0
 15 14  1  0  0  0  0
 17 19  1  6  0  0  0
 17 28  1  0  0  0  0
 18 34  1  0  0  0  0
 19 32  1  0  0  0  0
 20 18  1  1  0  0  0
 20 17  1  0  0  0  0
 20 43  1  0  0  0  0
 21 12  1  0  0  0  0
 22 21  1  0  0  0  0
 22 23  1  0  0  0  0
 23 24  1  1  0  0  0
 23 46  1  0  0  0  0
 24 33  1  0  0  0  0
 25 34  1  6  0  0  0
 25  4  1  0  0  0  0
 26 25  1  0  0  0  0
 27 35  1  1  0  0  0
 27 26  1  0  0  0  0
 27  2  1  0  0  0  0
 29 16  1  0  0  0  0
 40  8  1  0  0  0  0
 40  5  1  0  0  0  0
 41  9  1  0  0  0  0
 44 18  2  0  0  0  0
 45 15  1  0  0  0  0
 45 10  1  0  0  0  0
 46  1  1  0  0  0  0
M  END
>  <CHROM.1>
176.93320077,-83.74217573,172.83236995,156.30425906,168.81323934,-60.46952416
-93.60105682,178.43002689,66.89390460,-68.41207342,99.36491513,-63.89782847
176.17203694,8.97498749,-15.23597300,9.05158406,2.92813515,-0.99965188,-1.87783672

>  <Name>
lig.pdb

>  <RI>
0

>  <Rbt.Current_Directory>
/home/afrankz/demos/rdock_decoys_rna/rnas/3wru

>  <Rbt.Executable>
rbdock ($Id: //depot/dev/client3/rdock/2013.1/src/exe/rbdock.cxx#4 $)

>  <Rbt.Library>
libRbt.so (2013.1, Build901 2013/11/27)

>  <Rbt.Parameter_File>
/export/apps/rDock/src/rDock_2013.1_src/data/scripts/dock_solv.prm

>  <Rbt.Receptor>
prm/pocket_docking_7.prm

>  <SCORE>
0.773279

>  <SCORE.INTER>
2.35656

>  <SCORE.INTER.CONST>
1

>  <SCORE.INTER.POLAR>
0

>  <SCORE.INTER.ROT>
13

>  <SCORE.INTER.SOLV>
15.034

>  <SCORE.INTER.VDW>
-15.7069

>  <SCORE.INTER.norm>
0.0512295

>  <SCORE.INTRA>
-1.58328

>  <SCORE.INTRA.DIHEDRAL>
-4.91241

>  <SCORE.INTRA.DIHEDRAL.0>
19.7146

>  <SCORE.INTRA.POLAR>
0

>  <SCORE.INTRA.POLAR.0>
0

>  <SCORE.INTRA.REPUL>
0

>  <SCORE.INTRA.REPUL.0>
0

>  <SCORE.INTRA.SOLV>
0.44324

>  <SCORE.INTRA.SOLV.lig_0>
-116.697

>  <SCORE.INTRA.VDW>
0.651306

>  <SCORE.INTRA.VDW.0>
-7.06424

>  <SCORE.INTRA.norm>
-0.0344191

>  <SCORE.RESTR>
0

>  <SCORE.RESTR.CAVITY>
0

>  <SCORE.RESTR.norm>
0

>  <SCORE.SYSTEM>
0

>  <SCORE.SYSTEM.CONST>
0

>  <SCORE.SYSTEM.DIHEDRAL>
0

>  <SCORE.SYSTEM.SOLV>
0

>  <SCORE.SYSTEM.norm>
0

>  <SCORE.heavy>
46

>  <SCORE.norm>
0.0168104

>  <RMSD>
10.742

$$$$
lig.pdb
 OpenBabel03061811583D
libRbt.so/2013.1/901 2013/11/27
 46 49  0  0  0  0  0  0  0  0999 V2000
    9.0661   -8.0276    0.6576 C   0  0  1  0  0  0  0  0  0  0  0  0
   10.7417   -9.1319    2.2005 C   0  0  1  0  0  0  0  0  0  0  0  0
   10.6291   -8.1231    3.3835 C   0  0  1  0  0  0  0  0  0  0  0  0
   11.0115   -8.8833    4.7542 C   0  0  2  0  0  0  0  0  0  0  0  0
   12.3146   -6.3072    3.9310 C   0  0  2  0  0  0  0  0  0  0  0  0
   13.4269   -5.4771    3.2293 C   0  0  1  0  0  0  0  0  0  0  0  0
   13.5795   -4.4040    4.2800 C   0  0  1  0  0  0  0  0  0  0  0  0
   12.1171   -3.9927    4.6426 C   0  0  1  0  0  0  0  0  0  0  0  0
   11.4116   -2.9675    3.6872 C   0  0  0  0  0  0  0  0  0  0  0  0
   15.0755   -4.1087    6.2187 C   0  0  1  0  0  0  0  0  0  0  0  0
   14.2892   -3.2361    7.1510 C   0  0  1  0  0  0  0  0  0  0  0  0
    8.9708   -7.6358   -0.8359 C   0  0  1  0  0  0  0  0  0  0  0  0
   15.2824   -2.2613    7.8772 C   0  0  0  0  0  0  0  0  0  0  0  0
   16.0163   -1.3911    7.0039 C   0  0  0  0  0  0  0  0  0  0  0  0
   16.8174   -2.1994    6.1095 C   0  0  2  0  0  0  0  0  0  0  0  0
   17.6441   -1.2938    5.1138 C   0  0  0  0  0  0  0  0  0  0  0  0
   10.6634  -11.5205    8.5644 C   0  0  2  0  0  0  0  0  0  0  0  0
   11.6305  -11.2341    6.4347 C   0  0  0  0  0  0  0  0  0  0  0  0
    9.5879  -12.3535    8.3203 C   0  0  0  0  0  0  0  0  0  0  0  0
   11.7322  -11.9691    7.8604 C   0  0  1  0  0  0  0  0  0  0  0  0
    9.8908   -6.3715   -1.1566 C   0  0  0  0  0  0  0  0  0  0  0  0
    9.4214   -5.1590   -0.2175 C   0  0  0  0  0  0  0  0  0  0  0  0
    9.5760   -5.6266    1.3034 C   0  0  1  0  0  0  0  0  0  0  0  0
    9.1377   -4.5334    2.2854 C   0  0  0  0  0  0  0  0  0  0  0  0
    9.9522  -10.0475    4.9846 C   0  0  1  0  0  0  0  0  0  0  0  0
   10.1323  -11.0721    3.7422 C   0  0  0  0  0  0  0  0  0  0  0  0
    9.7912  -10.3404    2.3871 C   0  0  2  0  0  0  0  0  0  0  0  0
   10.9088  -11.4533    9.9874 F   0  0  0  0  0  0  0  0  0  0  0  0
   17.9470   -1.9954    3.7588 N   0  0  0  0  0  0  0  0  0  0  0  0
    9.3494   -8.8408   -1.6630 N   0  0  0  0  0  0  0  0  0  0  0  0
   13.3589   -2.4101    6.5139 N   0  0  0  0  0  0  0  0  0  0  0  0
    9.2656  -13.6368    8.8207 N   0  0  0  0  0  0  0  0  0  0  0  0
    7.7365   -4.3684    2.2686 N   0  0  0  0  0  0  0  0  0  0  0  0
   10.2589  -10.7606    6.2376 N   0  0  0  0  0  0  0  0  0  0  0  0
    9.9636  -11.2611    1.2416 N   0  0  0  0  0  0  0  0  0  0  0  0
   10.3725   -8.5071    0.9780 O   0  0  0  0  0  0  0  0  0  0  0  0
   11.5880   -7.0059    3.0914 O   0  0  0  0  0  0  0  0  0  0  0  0
   10.9041   -7.9729    5.7818 O   0  0  0  0  0  0  0  0  0  0  0  0
   14.5501   -6.2910    3.0771 O   0  0  0  0  0  0  0  0  0  0  0  0
   11.5793   -5.3220    4.7397 O   0  0  0  0  0  0  0  0  0  0  0  0
   10.1318   -2.6482    4.2687 O   0  0  0  0  0  0  0  0  0  0  0  0
   14.3075   -4.9823    5.4799 O   0  0  0  0  0  0  0  0  0  0  0  0
   12.9948  -11.6479    8.4841 O   0  0  0  0  0  0  0  0  0  0  0  0
   12.5792  -11.0871    5.6467 O   0  0  0  0  0  0  0  0  0  0  0  0
   15.9409   -3.1654    5.3475 O   0  0  0  0  0  0  0  0  0  0  0  0
    8.7314   -6.8661    1.5491 O   0  0  0  0  0  0  0  0  0  0  0  0
  1 36  1  1  0  0  0
  2 36  1  6  0  0  0
  2  3  1  0  0  0  0
  3 37  1  6  0  0  0
  3  4  1  0  0  0  0
  4 38  1  1  0  0  0
  5 37  1  6  0  0  0
  5  6  1  0  0  0  0
  6  7  1  0  0  0  0
  6 39  1  1  0  0  0
  7 42  1  1  0  0  0
  8  9  1  6  0  0  0
  8  7  1  0  0  0  0
 10 42  1  6  0  0  0
 10 11  1  0  0  0  0
 11 31  1  6  0  0  0
 11 13  1  0  0  0  0
 12 30  1  6  0  0  0
 12  1  1  0  0  0  0
 14 13  1  0  0  0  0
 15 16  1  6  0  0  0
 15 14  1  0  0  0  0
 17 19  1  1  0  0  0
 17 28  1  0  0  0  0
 18 34  1  0  0  0  0
 19 32  1  0  0  0  0
 20 18  1  6  0  0  0
 20 17  1  0  0  0  0
 20 43  1  0  0  0  0
 21 12  1  0  0  0  0
 22 21  1  0  0  0  0
 22 23  1  0  0  0  0
 23 24  1  1  0  0  0
 23 46  1  0  0  0  0
 24 33  1  0  0  0  0
 25 34  1  1  0  0  0
 25  4  1  0  0  0  0
 26 25  1  0  0  0  0
 27 35  1  6  0  0  0
 27 26  1  0  0  0  0
 27  2  1  0  0  0  0
 29 16  1  0  0  0  0
 40  8  1  0  0  0  0
 40  5  1  0  0  0  0
 41  9  1  0  0  0  0
 44 18  2  0  0  0  0
 45 15  1  0  0  0  0
 45 10  1  0  0  0  0
 46  1  1  0  0  0  0
M  END
>  <CHROM.1>
-170.08736466,-65.65624200,-144.77319471,166.16853183,150.26972747,-175.19273198
78.24222558,-151.85581116,77.79745279,-19.60009352,89.13079190,71.42821795
-50.88448430,11.79783793,-6.96769345,4.38080072,2.46103541,0.87557825,2.38155695

>  <Name>
lig.pdb

>  <RI>
0

>  <Rbt.Current_Directory>
/home/afrankz/demos/rdock_decoys_rna/rnas/3wru

>  <Rbt.Executable>
rbdock ($Id: //depot/dev/client3/rdock/2013.1/src/exe/rbdock.cxx#4 $)

>  <Rbt.Library>
libRbt.so (2013.1, Build901 2013/11/27)

>  <Rbt.Parameter_File>
/export/apps/rDock/src/rDock_2013.1_src/data/scripts/dock_solv.prm

>  <Rbt.Receptor>
prm/blind_docking_20.prm

>  <SCORE>
11.7961

>  <SCORE.INTER>
-0.343733

>  <SCORE.INTER.CONST>
1

>  <SCORE.INTER.POLAR>
0

>  <SCORE.INTER.ROT>
13

>  <SCORE.INTER.SOLV>
38.507

>  <SCORE.INTER.VDW>
-25.3315

>  <SCORE.INTER.norm>
-0.00747246

>  <SCORE.INTRA>
7.68195

>  <SCORE.INTRA.DIHEDRAL>
-0.120338

>  <SCORE.INTRA.DIHEDRAL.0>
19.7146

>  <SCORE.INTRA.POLAR>
0

>  <SCORE.INTRA.POLAR.0>
0

>  <SCORE.INTRA.REPUL>
0

>  <SCORE.INTRA.REPUL.0>
0

>  <SCORE.INTRA.SOLV>
4.45934

>  <SCORE.INTRA.SOLV.lig_0>
-116.697

>  <SCORE.INTRA.VDW>
5.51245

>  <SCORE.INTRA.VDW.0>
-7.06424

>  <SCORE.INTRA.norm>
0.166999

>  <SCORE.RESTR>
4.45784

>  <SCORE.RESTR.CAVITY>
4.45784

>  <SCORE.RESTR.norm>
0.0969095

>  <SCORE.SYSTEM>
0

>  <SCORE.SYSTEM.CONST>
0

>  <SCORE.SYSTEM.DIHEDRAL>
0

>  <SCORE.SYSTEM.SOLV>
0

>  <SCORE.SYSTEM.norm>
0

>  <SCORE.heavy>
46

>  <SCORE.norm>
0.256436

>  <RMSD>
10.748

$$$$
lig.pdb
 OpenBabel03061811583D
libRbt.so/2013.1/901 2013/11/27
 46 49  0  0  0  0  0  0  0  0999 V2000
   12.4180  -17.1056   12.4708 C   0  0  1  0  0  0  0  0  0  0  0  0
   10.3263  -17.7357   11.1918 C   0  0  1  0  0  0  0  0  0  0  0  0
   10.9828  -18.6810   10.1406 C   0  0  1  0  0  0  0  0  0  0  0  0
    9.8871  -19.7613    9.6555 C   0  0  2  0  0  0  0  0  0  0  0  0
   10.7325  -16.9799    8.2748 C   0  0  2  0  0  0  0  0  0  0  0  0
   11.4833  -16.5010    6.9998 C   0  0  1  0  0  0  0  0  0  0  0  0
   10.2744  -16.1649    6.1605 C   0  0  1  0  0  0  0  0  0  0  0  0
    9.3126  -17.3815    6.3447 C   0  0  1  0  0  0  0  0  0  0  0  0
    9.5885  -18.6441    5.4551 C   0  0  0  0  0  0  0  0  0  0  0  0
   10.2062  -13.7004    6.2337 C   0  0  1  0  0  0  0  0  0  0  0  0
    9.9255  -12.5197    7.1146 C   0  0  1  0  0  0  0  0  0  0  0  0
   13.1537  -15.8186   12.9130 C   0  0  1  0  0  0  0  0  0  0  0  0
   10.5661  -11.2454    6.4585 C   0  0  0  0  0  0  0  0  0  0  0  0
   10.0646  -10.9257    5.1528 C   0  0  0  0  0  0  0  0  0  0  0  0
   10.3497  -12.0310    4.2629 C   0  0  2  0  0  0  0  0  0  0  0  0
    9.8110  -11.7402    2.8069 C   0  0  0  0  0  0  0  0  0  0  0  0
    5.6881  -22.7787   10.7174 C   0  0  2  0  0  0  0  0  0  0  0  0
    7.2144  -21.1696    9.9208 C   0  0  0  0  0  0  0  0  0  0  0  0
    4.6198  -23.6085   10.4345 C   0  0  0  0  0  0  0  0  0  0  0  0
    6.2956  -22.4363    9.5541 C   0  0  1  0  0  0  0  0  0  0  0  0
   13.8009  -15.0695   11.6609 C   0  0  0  0  0  0  0  0  0  0  0  0
   14.8106  -16.0838   10.9370 C   0  0  0  0  0  0  0  0  0  0  0  0
   13.9754  -17.3696   10.4841 C   0  0  1  0  0  0  0  0  0  0  0  0
   14.8605  -18.4108    9.7883 C   0  0  0  0  0  0  0  0  0  0  0  0
    9.4609  -20.6320   10.9168 C   0  0  1  0  0  0  0  0  0  0  0  0
    8.7665  -19.6040   11.9594 C   0  0  0  0  0  0  0  0  0  0  0  0
    9.8136  -18.5202   12.4250 C   0  0  2  0  0  0  0  0  0  0  0  0
    6.5765  -23.4358   11.6493 F   0  0  0  0  0  0  0  0  0  0  0  0
   10.4369  -10.4676    2.1672 N   0  0  0  0  0  0  0  0  0  0  0  0
   12.1695  -14.9454   13.6534 N   0  0  0  0  0  0  0  0  0  0  0  0
    8.5675  -12.2207    7.2557 N   0  0  0  0  0  0  0  0  0  0  0  0
    4.5647  -24.9008    9.8615 N   0  0  0  0  0  0  0  0  0  0  0  0
   15.4066  -17.8955    8.5937 N   0  0  0  0  0  0  0  0  0  0  0  0
    8.4674  -21.6430   10.5127 N   0  0  0  0  0  0  0  0  0  0  0  0
    9.1896  -17.5663   13.3685 N   0  0  0  0  0  0  0  0  0  0  0  0
   11.2753  -16.7930   11.6735 O   0  0  0  0  0  0  0  0  0  0  0  0
   11.4368  -17.8132    9.0032 O   0  0  0  0  0  0  0  0  0  0  0  0
   10.4904  -20.5829    8.7298 O   0  0  0  0  0  0  0  0  0  0  0  0
   12.2660  -15.3973    7.3414 O   0  0  0  0  0  0  0  0  0  0  0  0
    9.4530  -17.5026    7.7700 O   0  0  0  0  0  0  0  0  0  0  0  0
    8.5370  -19.5942    5.7191 O   0  0  0  0  0  0  0  0  0  0  0  0
    9.6511  -14.8809    6.6775 O   0  0  0  0  0  0  0  0  0  0  0  0
    7.1182  -23.4934    9.0137 O   0  0  0  0  0  0  0  0  0  0  0  0
    6.9008  -19.9859    9.7130 O   0  0  0  0  0  0  0  0  0  0  0  0
    9.7544  -13.3090    4.8052 O   0  0  0  0  0  0  0  0  0  0  0  0
   13.3283  -18.0165   11.6977 O   0  0  0  0  0  0  0  0  0  0  0  0
  1 36  1  6  0  0  0
  2 36  1  1  0  0  0
  2  3  1  0  0  0  0
  3 37  1  6  0  0  0
  3  4  1  0  0  0  0
  4 38  1  6  0  0  0
  5 37  1  6  0  0  0
  5  6  1  0  0  0  0
  6  7  1  0  0  0  0
  6 39  1  1  0  0  0
  7 42  1  1  0  0  0
  8  9  1  6  0  0  0
  8  7  1  0  0  0  0
 10 42  1  1  0  0  0
 10 11  1  0  0  0  0
 11 31  1  6  0  0  0
 11 13  1  0  0  0  0
 12 30  1  6  0  0  0
 12  1  1  0  0  0  0
 14 13  1  0  0  0  0
 15 16  1  6  0  0  0
 15 14  1  0  0  0  0
 17 19  1  6  0  0  0
 17 28  1  0  0  0  0
 18 34  1  0  0  0  0
 19 32  1  0  0  0  0
 20 18  1  1  0  0  0
 20 17  1  0  0  0  0
 20 43  1  0  0  0  0
 21 12  1  0  0  0  0
 22 21  1  0  0  0  0
 22 23  1  0  0  0  0
 23 24  1  1  0  0  0
 23 46  1  0  0  0  0
 24 33  1  0  0  0  0
 25 34  1  6  0  0  0
 25  4  1  0  0  0  0
 26 25  1  0  0  0  0
 27 35  1  1  0  0  0
 27 26  1  0  0  0  0
 27  2  1  0  0  0  0
 29 16  1  0  0  0  0
 40  8  1  0  0  0  0
 40  5  1  0  0  0  0
 41  9  1  0  0  0  0
 44 18  2  0  0  0  0
 45 15  1  0  0  0  0
 45 10  1  0  0  0  0
 46  1  1  0  0  0  0
M  END
>  <CHROM.1>
-174.98292541,-67.27888471,-56.07178969,-167.32137560,83.18447793,-176.01571995
-158.59794289,59.67297625,63.88548152,81.83279466,163.87119987,-63.20993474
-59.24026699,10.06209445,-17.50919050,8.89841123,-1.99921932,-0.69139763
-0.75995252

>  <Name>
lig.pdb

>  <RI>
0

>  <Rbt.Current_Directory>
/home/afrankz/demos/rdock_decoys_rna/rnas/3wru

>  <Rbt.Executable>
rbdock ($Id: //depot/dev/client3/rdock/2013.1/src/exe/rbdock.cxx#4 $)

>  <Rbt.Library>
libRbt.so (2013.1, Build901 2013/11/27)

>  <Rbt.Parameter_File>
/export/apps/rDock/src/rDock_2013.1_src/data/scripts/dock_solv.prm

>  <Rbt.Receptor>
prm/pocket_docking_8.prm

>  <SCORE>
-4.87469

>  <SCORE.INTER>
-0.210309

>  <SCORE.INTER.CONST>
1

>  <SCORE.INTER.POLAR>
0

>  <SCORE.INTER.ROT>
13

>  <SCORE.INTER.SOLV>
21.5091

>  <SCORE.INTER.VDW>
-19.5766

>  <SCORE.INTER.norm>
-0.00457193

>  <SCORE.INTRA>
-4.66438

>  <SCORE.INTRA.DIHEDRAL>
-11.7125

>  <SCORE.INTRA.DIHEDRAL.0>
19.7146

>  <SCORE.INTRA.POLAR>
0

>  <SCORE.INTRA.POLAR.0>
0

>  <SCORE.INTRA.REPUL>
0.00419078

>  <SCORE.INTRA.REPUL.0>
0

>  <SCORE.INTRA.SOLV>
0.0211521

>  <SCORE.INTRA.SOLV.lig_0>
-116.697

>  <SCORE.INTRA.VDW>
1.16033

>  <SCORE.INTRA.VDW.0>
-7.06424

>  <SCORE.INTRA.norm>
-0.101399

>  <SCORE.RESTR>
0

>  <SCORE.RESTR.CAVITY>
0

>  <SCORE.RESTR.norm>
0

>  <SCORE.SYSTEM>
0

>  <SCORE.SYSTEM.CONST>
0

>  <SCORE.SYSTEM.DIHEDRAL>
0

>  <SCORE.SYSTEM.SOLV>
0

>  <SCORE.SYSTEM.norm>
0

>  <SCORE.heavy>
46

>  <SCORE.norm>
-0.105971

>  <RMSD>
10.751

$$$$
lig.pdb
 OpenBabel03061811583D
libRbt.so/2013.1/901 2013/11/27
 46 49  0  0  0  0  0  0  0  0999 V2000
   12.4634   -5.2536    2.9512 C   0  0  1  0  0  0  0  0  0  0  0  0
   12.0140   -7.6659    3.5732 C   0  0  1  0  0  0  0  0  0  0  0  0
   10.8043   -7.9875    2.6443 C   0  0  1  0  0  0  0  0  0  0  0  0
    9.9497   -9.1890    3.2993 C   0  0  2  0  0  0  0  0  0  0  0  0
    8.8217   -6.5522    1.9755 C   0  0  2  0  0  0  0  0  0  0  0  0
    8.7398   -5.2390    1.1465 C   0  0  1  0  0  0  0  0  0  0  0  0
    7.6468   -5.6616    0.1949 C   0  0  1  0  0  0  0  0  0  0  0  0
    8.0534   -7.0982   -0.2637 C   0  0  1  0  0  0  0  0  0  0  0  0
    9.1096   -7.2009   -1.4194 C   0  0  0  0  0  0  0  0  0  0  0  0
    5.2458   -6.2213    0.2697 C   0  0  1  0  0  0  0  0  0  0  0  0
    4.1723   -5.2373   -0.0886 C   0  0  1  0  0  0  0  0  0  0  0  0
   12.8557   -4.6374    1.5875 C   0  0  1  0  0  0  0  0  0  0  0  0
    2.9966   -6.0133   -0.7813 C   0  0  0  0  0  0  0  0  0  0  0  0
    2.3855   -7.0267    0.0300 C   0  0  0  0  0  0  0  0  0  0  0  0
    3.3862   -8.0167    0.3674 C   0  0  2  0  0  0  0  0  0  0  0  0
    2.7727   -9.1578    1.2710 C   0  0  0  0  0  0  0  0  0  0  0  0
    8.8174  -12.7719    7.1169 C   0  0  2  0  0  0  0  0  0  0  0  0
    9.7076  -11.4907    5.3509 C   0  0  0  0  0  0  0  0  0  0  0  0
    7.5436  -13.1548    7.4922 C   0  0  0  0  0  0  0  0  0  0  0  0
    8.9082  -12.8222    5.7647 C   0  0  1  0  0  0  0  0  0  0  0  0
   14.4417   -4.5978    1.4115 C   0  0  0  0  0  0  0  0  0  0  0  0
   15.0591   -3.7454    2.6217 C   0  0  0  0  0  0  0  0  0  0  0  0
   14.6382   -4.4573    3.9898 C   0  0  1  0  0  0  0  0  0  0  0  0
   15.1740   -3.7058    5.2143 C   0  0  0  0  0  0  0  0  0  0  0  0
   10.8829  -10.4753    3.3721 C   0  0  1  0  0  0  0  0  0  0  0  0
   12.1037  -10.0901    4.3657 C   0  0  0  0  0  0  0  0  0  0  0  0
   12.9364   -8.8964    3.7577 C   0  0  2  0  0  0  0  0  0  0  0  0
    9.7892  -13.6100    7.7824 F   0  0  0  0  0  0  0  0  0  0  0  0
    2.6176  -10.5125    0.5221 N   0  0  0  0  0  0  0  0  0  0  0  0
   12.1811   -5.4370    0.4990 N   0  0  0  0  0  0  0  0  0  0  0  0
    3.5953   -4.5944    1.0101 N   0  0  0  0  0  0  0  0  0  0  0  0
    6.6322  -12.5939    8.4175 N   0  0  0  0  0  0  0  0  0  0  0  0
   14.7686   -4.3325    6.4117 N   0  0  0  0  0  0  0  0  0  0  0  0
   10.1335  -11.6032    3.9543 N   0  0  0  0  0  0  0  0  0  0  0  0
   14.0479   -8.5250    4.6610 N   0  0  0  0  0  0  0  0  0  0  0  0
   12.8150   -6.6365    3.0074 O   0  0  0  0  0  0  0  0  0  0  0  0
    9.9914   -6.7299    2.5424 O   0  0  0  0  0  0  0  0  0  0  0  0
    8.8896   -9.4540    2.4614 O   0  0  0  0  0  0  0  0  0  0  0  0
    8.3786   -4.2007    2.0060 O   0  0  0  0  0  0  0  0  0  0  0  0
    8.4057   -7.6043    1.0346 O   0  0  0  0  0  0  0  0  0  0  0  0
    8.8986   -8.4627   -2.0838 O   0  0  0  0  0  0  0  0  0  0  0  0
    6.3201   -5.6688    0.9325 O   0  0  0  0  0  0  0  0  0  0  0  0
    9.6210  -13.9849    5.2889 O   0  0  0  0  0  0  0  0  0  0  0  0
    9.9082  -10.5244    6.1049 O   0  0  0  0  0  0  0  0  0  0  0  0
    4.5594   -7.3631    1.0589 O   0  0  0  0  0  0  0  0  0  0  0  0
   13.1231   -4.5273    4.0884 O   0  0  0  0  0  0  0  0  0  0  0  0
  1 36  1  6  0  0  0
  2 36  1  6  0  0  0
  2  3  1  0  0  0  0
  3 37  1  1  0  0  0
  3  4  1  0  0  0  0
  4 38  1  6  0  0  0
  5 37  1  6  0  0  0
  5  6  1  0  0  0  0
  6  7  1  0  0  0  0
  6 39  1  1  0  0  0
  7 42  1  1  0  0  0
  8  9  1  6  0  0  0
  8  7  1  0  0  0  0
 10 42  1  1  0  0  0
 10 11  1  0  0  0  0
 11 31  1  1  0  0  0
 11 13  1  0  0  0  0
 12 30  1  6  0  0  0
 12  1  1  0  0  0  0
 14 13  1  0  0  0  0
 15 16  1  1  0  0  0
 15 14  1  0  0  0  0
 17 19  1  6  0  0  0
 17 28  1  0  0  0  0
 18 34  1  0  0  0  0
 19 32  1  0  0  0  0
 20 18  1  1  0  0  0
 20 17  1  0  0  0  0
 20 43  1  0  0  0  0
 21 12  1  0  0  0  0
 22 21  1  0  0  0  0
 22 23  1  0  0  0  0
 23 24  1  1  0  0  0
 23 46  1  0  0  0  0
 24 33  1  0  0  0  0
 25 34  1  1  0  0  0
 25  4  1  0  0  0  0
 26 25  1  0  0  0  0
 27 35  1  1  0  0  0
 27 26  1  0  0  0  0
 27  2  1  0  0  0  0
 29 16  1  0  0  0  0
 40  8  1  0  0  0  0
 40  5  1  0  0  0  0
 41  9  1  0  0  0  0
 44 18  2  0  0  0  0
 45 15  1  0  0  0  0
 45 10  1  0  0  0  0
 46  1  1  0  0  0  0
M  END
>  <CHROM.1>
-139.01262928,73.53492721,-172.93547027,-137.26632223,-170.62356618,-154.34447184
-113.28707143,108.58391932,-134.40768317,166.74519777,137.52276869,178.74124693
-65.38756815,9.26274494,-7.87914245,2.78536345,-0.20529123,-0.36293641,-0.62960662

>  <Name>
lig.pdb

>  <RI>
0

>  <Rbt.Current_Directory>
/home/afrankz/demos/rdock_decoys_rna/rnas/3wru

>  <Rbt.Executable>
rbdock ($Id: //depot/dev/client3/rdock/2013.1/src/exe/rbdock.cxx#4 $)

>  <Rbt.Library>
libRbt.so (2013.1, Build901 2013/11/27)

>  <Rbt.Parameter_File>
/export/apps/rDock/src/rDock_2013.1_src/data/scripts/dock_solv.prm

>  <Rbt.Receptor>
prm/blind_docking_20.prm

>  <SCORE>
32.0914

>  <SCORE.INTER>
15.3744

>  <SCORE.INTER.CONST>
1

>  <SCORE.INTER.POLAR>
0

>  <SCORE.INTER.ROT>
13

>  <SCORE.INTER.SOLV>
46.3757

>  <SCORE.INTER.VDW>
-17.4756

>  <SCORE.INTER.norm>
0.334226

>  <SCORE.INTRA>
11.2502

>  <SCORE.INTRA.DIHEDRAL>
16.3881

>  <SCORE.INTRA.DIHEDRAL.0>
19.7146

>  <SCORE.INTRA.POLAR>
0

>  <SCORE.INTRA.POLAR.0>
0

>  <SCORE.INTRA.REPUL>
0

>  <SCORE.INTRA.REPUL.0>
0

>  <SCORE.INTRA.SOLV>
-1.02706

>  <SCORE.INTRA.SOLV.lig_0>
-116.697

>  <SCORE.INTRA.VDW>
3.5697

>  <SCORE.INTRA.VDW.0>
-7.06424

>  <SCORE.INTRA.norm>
0.24457

>  <SCORE.RESTR>
5.46683

>  <SCORE.RESTR.CAVITY>
5.46683

>  <SCORE.RESTR.norm>
0.118844

>  <SCORE.SYSTEM>
0

>  <SCORE.SYSTEM.CONST>
0

>  <SCORE.SYSTEM.DIHEDRAL>
0

>  <SCORE.SYSTEM.SOLV>
0

>  <SCORE.SYSTEM.norm>
0

>  <SCORE.heavy>
46

>  <SCORE.norm>
0.69764

>  <RMSD>
10.854

$$$$
lig.pdb
 OpenBabel03061811583D
libRbt.so/2013.1/901 2013/11/27
 46 49  0  0  0  0  0  0  0  0999 V2000
    9.1066   -8.1345    0.6975 C   0  0  1  0  0  0  0  0  0  0  0  0
   10.7612   -9.3181    2.2039 C   0  0  1  0  0  0  0  0  0  0  0  0
   10.7060   -8.2020    3.2906 C   0  0  1  0  0  0  0  0  0  0  0  0
   11.1445   -8.8339    4.7088 C   0  0  2  0  0  0  0  0  0  0  0  0
   12.3432   -6.2872    3.5926 C   0  0  2  0  0  0  0  0  0  0  0  0
   13.6704   -6.8943    4.1299 C   0  0  1  0  0  0  0  0  0  0  0  0
   14.4287   -5.6026    4.3178 C   0  0  1  0  0  0  0  0  0  0  0  0
   14.1687   -4.7953    3.0064 C   0  0  1  0  0  0  0  0  0  0  0  0
   15.0637   -5.1491    1.7672 C   0  0  0  0  0  0  0  0  0  0  0  0
   14.7677   -4.0861    6.2334 C   0  0  1  0  0  0  0  0  0  0  0  0
   14.1199   -3.1669    7.2254 C   0  0  1  0  0  0  0  0  0  0  0  0
    8.9835   -7.7332   -0.7915 C   0  0  1  0  0  0  0  0  0  0  0  0
   15.2373   -2.2940    7.8991 C   0  0  0  0  0  0  0  0  0  0  0  0
   15.9873   -1.4737    6.9918 C   0  0  0  0  0  0  0  0  0  0  0  0
   16.6578   -2.3310    6.0375 C   0  0  2  0  0  0  0  0  0  0  0  0
   17.4955   -1.4811    5.0027 C   0  0  0  0  0  0  0  0  0  0  0  0
    9.3399  -11.7852    9.1633 C   0  0  2  0  0  0  0  0  0  0  0  0
    9.6968  -11.7339    6.8346 C   0  0  0  0  0  0  0  0  0  0  0  0
    9.7338  -12.1870   10.4257 C   0  0  0  0  0  0  0  0  0  0  0  0
   10.2598  -12.2111    8.2623 C   0  0  1  0  0  0  0  0  0  0  0  0
   10.0642   -6.6236   -1.1772 C   0  0  0  0  0  0  0  0  0  0  0  0
    9.8410   -5.3536   -0.2235 C   0  0  0  0  0  0  0  0  0  0  0  0
   10.0128   -5.8389    1.2901 C   0  0  1  0  0  0  0  0  0  0  0  0
    9.8047   -4.6915    2.2858 C   0  0  0  0  0  0  0  0  0  0  0  0
   10.0904   -9.9617    5.0933 C   0  0  1  0  0  0  0  0  0  0  0  0
   10.2104  -11.0998    3.9460 C   0  0  0  0  0  0  0  0  0  0  0  0
    9.8136  -10.4951    2.5442 C   0  0  2  0  0  0  0  0  0  0  0  0
    9.1532  -10.3519    9.1492 F   0  0  0  0  0  0  0  0  0  0  0  0
   18.1660   -2.3500    3.9000 N   0  0  0  0  0  0  0  0  0  0  0  0
    9.1248   -8.9819   -1.6281 N   0  0  0  0  0  0  0  0  0  0  0  0
   13.2263   -2.2528    6.6601 N   0  0  0  0  0  0  0  0  0  0  0  0
   10.6789  -11.6448   11.3280 N   0  0  0  0  0  0  0  0  0  0  0  0
    8.4822   -4.2029    2.2278 N   0  0  0  0  0  0  0  0  0  0  0  0
   10.4484  -10.5571    6.3932 N   0  0  0  0  0  0  0  0  0  0  0  0
    9.9307  -11.5205    1.4839 N   0  0  0  0  0  0  0  0  0  0  0  0
   10.3416   -8.8072    0.9452 O   0  0  0  0  0  0  0  0  0  0  0  0
   11.6568   -7.1260    2.8534 O   0  0  0  0  0  0  0  0  0  0  0  0
   11.0872   -7.8305    5.6500 O   0  0  0  0  0  0  0  0  0  0  0  0
   13.3926   -7.5713    5.3180 O   0  0  0  0  0  0  0  0  0  0  0  0
   12.7552   -5.0425    2.9247 O   0  0  0  0  0  0  0  0  0  0  0  0
   14.9979   -4.0333    0.8568 O   0  0  0  0  0  0  0  0  0  0  0  0
   13.8822   -4.8772    5.5341 O   0  0  0  0  0  0  0  0  0  0  0  0
   11.5703  -11.6451    8.4821 O   0  0  0  0  0  0  0  0  0  0  0  0
    8.7802  -12.2962    6.2131 O   0  0  0  0  0  0  0  0  0  0  0  0
   15.6550   -3.2043    5.3208 O   0  0  0  0  0  0  0  0  0  0  0  0
    9.0057   -6.9354    1.5962 O   0  0  0  0  0  0  0  0  0  0  0  0
  1 36  1  6  0  0  0
  2 36  1  6  0  0  0
  2  3  1  0  0  0  0
  3 37  1  6  0  0  0
  3  4  1  0  0  0  0
  4 38  1  1  0  0  0
  5 37  1  6  0  0  0
  5  6  1  0  0  0  0
  6  7  1  0  0  0  0
  6 39  1  1  0  0  0
  7 42  1  1  0  0  0
  8  9  1  6  0  0  0
  8  7  1  0  0  0  0
 10 42  1  6  0  0  0
 10 11  1  0  0  0  0
 11 31  1  6  0  0  0
 11 13  1  0  0  0  0
 12 30  1  6  0  0  0
 12  1  1  0  0  0  0
 14 13  1  0  0  0  0
 15 16  1  6  0  0  0
 15 14  1  0  0  0  0
 17 19  1  1  0  0  0
 17 28  1  0  0  0  0
 18 34  1  0  0  0  0
 19 32  1  0  0  0  0
 20 18  1  6  0  0  0
 20 17  1  0  0  0  0
 20 43  1  0  0  0  0
 21 12  1  0  0  0  0
 22 21  1  0  0  0  0
 22 23  1  0  0  0  0
 23 24  1  1  0  0  0
 23 46  1  0  0  0  0
 24 33  1  0  0  0  0
 25 34  1  1  0  0  0
 25  4  1  0  0  0  0
 26 25  1  0  0  0  0
 27 35  1  6  0  0  0
 27 26  1  0  0  0  0
 27  2  1  0  0  0  0
 29 16  1  0  0  0  0
 40  8  1  0  0  0  0
 40  5  1  0  0  0  0
 41  9  1  0  0  0  0
 44 18  2  0  0  0  0
 45 15  1  0  0  0  0
 45 10  1  0  0  0  0
 46  1  1  0  0  0  0
M  END
>  <CHROM.1>
-179.38430878,-54.03510980,-150.77719754,83.20815019,149.86176553,-160.60927926
167.11529687,-176.43751317,80.08977020,103.38534404,178.52090067,64.04444501
-172.17264967,11.86224843,-7.15803353,4.37404151,2.61024796,0.87041484,2.01693791

>  <Name>
lig.pdb

>  <RI>
0

>  <Rbt.Current_Directory>
/home/afrankz/demos/rdock_decoys_rna/rnas/3wru

>  <Rbt.Executable>
rbdock ($Id: //depot/dev/client3/rdock/2013.1/src/exe/rbdock.cxx#4 $)

>  <Rbt.Library>
libRbt.so (2013.1, Build901 2013/11/27)

>  <Rbt.Parameter_File>
/export/apps/rDock/src/rDock_2013.1_src/data/scripts/dock_solv.prm

>  <Rbt.Receptor>
prm/blind_docking_20.prm

>  <SCORE>
3.58812

>  <SCORE.INTER>
-2.62106

>  <SCORE.INTER.CONST>
1

>  <SCORE.INTER.POLAR>
0

>  <SCORE.INTER.ROT>
13

>  <SCORE.INTER.SOLV>
43.7419

>  <SCORE.INTER.VDW>
-28.5947

>  <SCORE.INTER.norm>
-0.0569795

>  <SCORE.INTRA>
3.97737

>  <SCORE.INTRA.DIHEDRAL>
-4.31187

>  <SCORE.INTRA.DIHEDRAL.0>
19.7146

>  <SCORE.INTRA.POLAR>
0

>  <SCORE.INTRA.POLAR.0>
0

>  <SCORE.INTRA.REPUL>
0.0171625

>  <SCORE.INTRA.REPUL.0>
0

>  <SCORE.INTRA.SOLV>
0.17312

>  <SCORE.INTRA.SOLV.lig_0>
-116.697

>  <SCORE.INTRA.VDW>
5.96093

>  <SCORE.INTRA.VDW.0>
-7.06424

>  <SCORE.INTRA.norm>
0.0864645

>  <SCORE.RESTR>
2.23181

>  <SCORE.RESTR.CAVITY>
2.23181

>  <SCORE.RESTR.norm>
0.0485175

>  <SCORE.SYSTEM>
0

>  <SCORE.SYSTEM.CONST>
0

>  <SCORE.SYSTEM.DIHEDRAL>
0

>  <SCORE.SYSTEM.SOLV>
0

>  <SCORE.SYSTEM.norm>
0

>  <SCORE.heavy>
46

>  <SCORE.norm>
0.0780026

>  <RMSD>
10.872

$$$$
lig.pdb
 OpenBabel03061811583D
libRbt.so/2013.1/901 2013/11/27
 46 49  0  0  0  0  0  0  0  0999 V2000
    6.6258  -10.9501   12.6139 C   0  0  1  0  0  0  0  0  0  0  0  0
    6.0480  -12.5762   10.7619 C   0  0  1  0  0  0  0  0  0  0  0  0
    6.9740  -13.7621   11.1690 C   0  0  1  0  0  0  0  0  0  0  0  0
    6.3173  -15.1393   10.6447 C   0  0  2  0  0  0  0  0  0  0  0  0
    8.5827  -13.3278    9.2556 C   0  0  2  0  0  0  0  0  0  0  0  0
   10.0971  -13.4763    8.9345 C   0  0  1  0  0  0  0  0  0  0  0  0
    9.9651  -13.8520    7.4783 C   0  0  1  0  0  0  0  0  0  0  0  0
    8.8361  -14.9307    7.4476 C   0  0  1  0  0  0  0  0  0  0  0  0
    9.2523  -16.4025    7.7973 C   0  0  0  0  0  0  0  0  0  0  0  0
   10.5600  -11.6726    6.4886 C   0  0  1  0  0  0  0  0  0  0  0  0
   10.1956  -10.5993    5.5067 C   0  0  1  0  0  0  0  0  0  0  0  0
    7.2442   -9.5397   12.7601 C   0  0  1  0  0  0  0  0  0  0  0  0
   11.4215   -9.6316    5.3488 C   0  0  0  0  0  0  0  0  0  0  0  0
   12.6204  -10.2548    4.8662 C   0  0  0  0  0  0  0  0  0  0  0  0
   13.0243  -11.2760    5.8091 C   0  0  2  0  0  0  0  0  0  0  0  0
   14.3386  -12.0065    5.3255 C   0  0  0  0  0  0  0  0  0  0  0  0
    4.5017  -19.4513   10.1607 C   0  0  2  0  0  0  0  0  0  0  0  0
    4.4225  -17.7554   11.7949 C   0  0  0  0  0  0  0  0  0  0  0  0
    5.5008  -20.1940   10.7609 C   0  0  0  0  0  0  0  0  0  0  0  0
    3.6577  -18.9977   11.1205 C   0  0  1  0  0  0  0  0  0  0  0  0
    8.7854   -9.5438   12.3449 C   0  0  0  0  0  0  0  0  0  0  0  0
    9.5522  -10.6022   13.2744 C   0  0  0  0  0  0  0  0  0  0  0  0
    8.8794  -12.0345   13.0471 C   0  0  1  0  0  0  0  0  0  0  0  0
    9.5390  -13.1194   13.9069 C   0  0  0  0  0  0  0  0  0  0  0  0
    4.9145  -15.3250   11.3718 C   0  0  1  0  0  0  0  0  0  0  0  0
    3.9917  -14.0818   10.8935 C   0  0  0  0  0  0  0  0  0  0  0  0
    4.6315  -12.7214   11.3711 C   0  0  2  0  0  0  0  0  0  0  0  0
    3.8404  -20.2538    9.1566 F   0  0  0  0  0  0  0  0  0  0  0  0
   15.5936  -11.0876    5.3542 N   0  0  0  0  0  0  0  0  0  0  0  0
    6.4311   -8.5809   11.9241 N   0  0  0  0  0  0  0  0  0  0  0  0
    9.9266  -11.0696    4.2183 N   0  0  0  0  0  0  0  0  0  0  0  0
    5.4584  -21.4122   11.4790 N   0  0  0  0  0  0  0  0  0  0  0  0
   10.8563  -13.3795   13.4730 N   0  0  0  0  0  0  0  0  0  0  0  0
    4.2855  -16.5823   10.9291 N   0  0  0  0  0  0  0  0  0  0  0  0
    3.8055  -11.5756   10.9302 N   0  0  0  0  0  0  0  0  0  0  0  0
    6.5751  -11.3465   11.2430 O   0  0  0  0  0  0  0  0  0  0  0  0
    8.3062  -13.5110   10.5248 O   0  0  0  0  0  0  0  0  0  0  0  0
    7.1520  -16.1694   11.0165 O   0  0  0  0  0  0  0  0  0  0  0  0
   10.7137  -12.2436    9.1524 O   0  0  0  0  0  0  0  0  0  0  0  0
    7.9193  -14.2511    8.3214 O   0  0  0  0  0  0  0  0  0  0  0  0
    8.0937  -17.2363    7.5962 O   0  0  0  0  0  0  0  0  0  0  0  0
    9.5783  -12.6204    6.6798 O   0  0  0  0  0  0  0  0  0  0  0  0
    2.3867  -18.5582   10.5937 O   0  0  0  0  0  0  0  0  0  0  0  0
    5.0160  -17.7989   12.8851 O   0  0  0  0  0  0  0  0  0  0  0  0
   11.9072  -12.2718    6.0155 O   0  0  0  0  0  0  0  0  0  0  0  0
    7.4017  -11.9702   13.3971 O   0  0  0  0  0  0  0  0  0  0  0  0
  1 36  1  6  0  0  0
  2 36  1  1  0  0  0
  2  3  1  0  0  0  0
  3 37  1  6  0  0  0
  3  4  1  0  0  0  0
  4 38  1  1  0  0  0
  5 37  1  1  0  0  0
  5  6  1  0  0  0  0
  6  7  1  0  0  0  0
  6 39  1  6  0  0  0
  7 42  1  6  0  0  0
  8  9  1  1  0  0  0
  8  7  1  0  0  0  0
 10 42  1  6  0  0  0
 10 11  1  0  0  0  0
 11 31  1  6  0  0  0
 11 13  1  0  0  0  0
 12 30  1  6  0  0  0
 12  1  1  0  0  0  0
 14 13  1  0  0  0  0
 15 16  1  6  0  0  0
 15 14  1  0  0  0  0
 17 19  1  1  0  0  0
 17 28  1  0  0  0  0
 18 34  1  0  0  0  0
 19 32  1  0  0  0  0
 20 18  1  6  0  0  0
 20 17  1  0  0  0  0
 20 43  1  0  0  0  0
 21 12  1  0  0  0  0
 22 21  1  0  0  0  0
 22 23  1  0  0  0  0
 23 24  1  1  0  0  0
 23 46  1  0  0  0  0
 24 33  1  0  0  0  0
 25 34  1  6  0  0  0
 25  4  1  0  0  0  0
 26 25  1  0  0  0  0
 27 35  1  6  0  0  0
 27 26  1  0  0  0  0
 27  2  1  0  0  0  0
 29 16  1  0  0  0  0
 40  8  1  0  0  0  0
 40  5  1  0  0  0  0
 41  9  1  0  0  0  0
 44 18  2  0  0  0  0
 45 15  1  0  0  0  0
 45 10  1  0  0  0  0
 46  1  1  0  0  0  0
M  END
>  <CHROM.1>
-179.07327015,-69.90464442,-56.35634371,-164.57048663,72.97651747,-175.16605833
170.16832727,68.07915187,64.73050799,78.82218010,77.72442194,-68.43770774
98.52593010,7.92921371,-13.87074857,9.71025927,2.85786387,-0.80569812,-2.54078808

>  <Name>
lig.pdb

>  <RI>
0

>  <Rbt.Current_Directory>
/home/afrankz/demos/rdock_decoys_rna/rnas/3wru

>  <Rbt.Executable>
rbdock ($Id: //depot/dev/client3/rdock/2013.1/src/exe/rbdock.cxx#4 $)

>  <Rbt.Library>
libRbt.so (2013.1, Build901 2013/11/27)

>  <Rbt.Parameter_File>
/export/apps/rDock/src/rDock_2013.1_src/data/scripts/dock_solv.prm

>  <Rbt.Receptor>
prm/pocket_docking_8.prm

>  <SCORE>
-4.1929

>  <SCORE.INTER>
1.04838

>  <SCORE.INTER.CONST>
1

>  <SCORE.INTER.POLAR>
0

>  <SCORE.INTER.ROT>
13

>  <SCORE.INTER.SOLV>
28.0625

>  <SCORE.INTER.VDW>
-20.9219

>  <SCORE.INTER.norm>
0.0227908

>  <SCORE.INTRA>
-5.24127

>  <SCORE.INTRA.DIHEDRAL>
-13.004

>  <SCORE.INTRA.DIHEDRAL.0>
19.7146

>  <SCORE.INTRA.POLAR>
0

>  <SCORE.INTRA.POLAR.0>
0

>  <SCORE.INTRA.REPUL>
0

>  <SCORE.INTRA.REPUL.0>
0

>  <SCORE.INTRA.SOLV>
-0.604157

>  <SCORE.INTRA.SOLV.lig_0>
-116.697

>  <SCORE.INTRA.VDW>
1.56279

>  <SCORE.INTRA.VDW.0>
-7.06424

>  <SCORE.INTRA.norm>
-0.113941

>  <SCORE.RESTR>
0

>  <SCORE.RESTR.CAVITY>
0

>  <SCORE.RESTR.norm>
0

>  <SCORE.SYSTEM>
0

>  <SCORE.SYSTEM.CONST>
0

>  <SCORE.SYSTEM.DIHEDRAL>
0

>  <SCORE.SYSTEM.SOLV>
0

>  <SCORE.SYSTEM.norm>
0

>  <SCORE.heavy>
46

>  <SCORE.norm>
-0.0911499

>  <RMSD>
10.874

$$$$
lig.pdb
 OpenBabel03061811583D
libRbt.so/2013.1/901 2013/11/27
 46 49  0  0  0  0  0  0  0  0999 V2000
    9.7250   -7.4197   -0.1433 C   0  0  1  0  0  0  0  0  0  0  0  0
   11.0394   -7.9478    1.9547 C   0  0  1  0  0  0  0  0  0  0  0  0
   11.4258   -7.1999    3.2666 C   0  0  1  0  0  0  0  0  0  0  0  0
   12.0285   -8.2669    4.3161 C   0  0  2  0  0  0  0  0  0  0  0  0
   13.0647   -5.3035    3.6614 C   0  0  2  0  0  0  0  0  0  0  0  0
   13.8405   -4.2182    2.8621 C   0  0  1  0  0  0  0  0  0  0  0  0
   13.8367   -3.1397    3.9184 C   0  0  1  0  0  0  0  0  0  0  0  0
   12.3702   -3.1149    4.4551 C   0  0  1  0  0  0  0  0  0  0  0  0
   11.3215   -2.3056    3.6144 C   0  0  0  0  0  0  0  0  0  0  0  0
   14.9785   -2.6047    6.0383 C   0  0  1  0  0  0  0  0  0  0  0  0
   16.1934   -1.7348    5.9105 C   0  0  1  0  0  0  0  0  0  0  0  0
    9.8721   -6.3595   -1.2602 C   0  0  1  0  0  0  0  0  0  0  0  0
   16.2716   -0.8007    7.1697 C   0  0  0  0  0  0  0  0  0  0  0  0
   16.3770   -1.4903    8.4235 C   0  0  0  0  0  0  0  0  0  0  0  0
   15.2012   -2.3158    8.5991 C   0  0  2  0  0  0  0  0  0  0  0  0
   15.2644   -3.1098    9.9632 C   0  0  0  0  0  0  0  0  0  0  0  0
   12.2743  -11.6196    7.5201 C   0  0  2  0  0  0  0  0  0  0  0  0
   12.5527  -11.1166    5.2348 C   0  0  0  0  0  0  0  0  0  0  0  0
   11.0501  -12.2529    7.6229 C   0  0  0  0  0  0  0  0  0  0  0  0
   12.9309  -12.1107    6.4398 C   0  0  1  0  0  0  0  0  0  0  0  0
    9.1807   -4.9838   -0.8393 C   0  0  0  0  0  0  0  0  0  0  0  0
    7.6344   -5.2745   -0.5285 C   0  0  0  0  0  0  0  0  0  0  0  0
    7.5638   -6.3517    0.6507 C   0  0  1  0  0  0  0  0  0  0  0  0
    6.1173   -6.7074    1.0148 C   0  0  0  0  0  0  0  0  0  0  0  0
   10.8876   -9.3218    4.6569 C   0  0  1  0  0  0  0  0  0  0  0  0
   10.5463  -10.0807    3.2664 C   0  0  0  0  0  0  0  0  0  0  0  0
    9.9821   -9.0494    2.2147 C   0  0  2  0  0  0  0  0  0  0  0  0
   13.0087  -11.7852    8.7541 F   0  0  0  0  0  0  0  0  0  0  0  0
   15.6363   -2.2101   11.1766 N   0  0  0  0  0  0  0  0  0  0  0  0
   11.3427   -6.1909   -1.5575 N   0  0  0  0  0  0  0  0  0  0  0  0
   17.4015   -2.4375    5.8950 N   0  0  0  0  0  0  0  0  0  0  0  0
    9.9136  -11.9697    8.4163 N   0  0  0  0  0  0  0  0  0  0  0  0
    5.3746   -5.5502    1.3315 N   0  0  0  0  0  0  0  0  0  0  0  0
   11.3948  -10.3098    5.6260 N   0  0  0  0  0  0  0  0  0  0  0  0
    9.6776   -9.7264    0.9347 N   0  0  0  0  0  0  0  0  0  0  0  0
   10.4659   -7.0445    1.0184 O   0  0  0  0  0  0  0  0  0  0  0  0
   12.4467   -6.1661    2.8899 O   0  0  0  0  0  0  0  0  0  0  0  0
   12.3609   -7.5830    5.4641 O   0  0  0  0  0  0  0  0  0  0  0  0
   15.1079   -4.7185    2.5614 O   0  0  0  0  0  0  0  0  0  0  0  0
   12.2026   -4.5373    4.5751 O   0  0  0  0  0  0  0  0  0  0  0  0
   10.0325   -2.5044    4.2285 O   0  0  0  0  0  0  0  0  0  0  0  0
   14.8220   -3.5108    5.0119 O   0  0  0  0  0  0  0  0  0  0  0  0
   14.3644  -12.1393    6.6147 O   0  0  0  0  0  0  0  0  0  0  0  0
   13.1665  -11.0474    4.1573 O   0  0  0  0  0  0  0  0  0  0  0  0
   15.0489   -3.2674    7.4360 O   0  0  0  0  0  0  0  0  0  0  0  0
    8.2846   -7.6222    0.2308 O   0  0  0  0  0  0  0  0  0  0  0  0
  1 36  1  1  0  0  0
  2 36  1  6  0  0  0
  2  3  1  0  0  0  0
  3 37  1  6  0  0  0
  3  4  1  0  0  0  0
  4 38  1  1  0  0  0
  5 37  1  6  0  0  0
  5  6  1  0  0  0  0
  6  7  1  0  0  0  0
  6 39  1  1  0  0  0
  7 42  1  1  0  0  0
  8  9  1  6  0  0  0
  8  7  1  0  0  0  0
 10 42  1  6  0  0  0
 10 11  1  0  0  0  0
 11 31  1  1  0  0  0
 11 13  1  0  0  0  0
 12 30  1  1  0  0  0
 12  1  1  0  0  0  0
 14 13  1  0  0  0  0
 15 16  1  1  0  0  0
 15 14  1  0  0  0  0
 17 19  1  1  0  0  0
 17 28  1  0  0  0  0
 18 34  1  0  0  0  0
 19 32  1  0  0  0  0
 20 18  1  6  0  0  0
 20 17  1  0  0  0  0
 20 43  1  0  0  0  0
 21 12  1  0  0  0  0
 22 21  1  0  0  0  0
 22 23  1  0  0  0  0
 23 24  1  6  0  0  0
 23 46  1  0  0  0  0
 24 33  1  0  0  0  0
 25 34  1  1  0  0  0
 25  4  1  0  0  0  0
 26 25  1  0  0  0  0
 27 35  1  6  0  0  0
 27 26  1  0  0  0  0
 27  2  1  0  0  0  0
 29 16  1  0  0  0  0
 40  8  1  0  0  0  0
 40  5  1  0  0  0  0
 41  9  1  0  0  0  0
 44 18  2  0  0  0  0
 45 15  1  0  0  0  0
 45 10  1  0  0  0  0
 46  1  1  0  0  0  0
M  END
>  <CHROM.1>
-150.87875016,-164.67334077,-179.69780744,-168.72049528,177.77576320,175.59454966
-99.77904173,48.37446993,-168.24944861,-15.47958536,92.95686623,-54.89351424
-59.97608652,12.09718597,-6.47227213,4.26882110,2.87257773,0.88558971,2.72422473

>  <Name>
lig.pdb

>  <RI>
0

>  <Rbt.Current_Directory>
/home/afrankz/demos/rdock_decoys_rna/rnas/3wru

>  <Rbt.Executable>
rbdock ($Id: //depot/dev/client3/rdock/2013.1/src/exe/rbdock.cxx#4 $)

>  <Rbt.Library>
libRbt.so (2013.1, Build901 2013/11/27)

>  <Rbt.Parameter_File>
/export/apps/rDock/src/rDock_2013.1_src/data/scripts/dock_solv.prm

>  <Rbt.Receptor>
prm/blind_docking_20.prm

>  <SCORE>
19.6475

>  <SCORE.INTER>
4.76996

>  <SCORE.INTER.CONST>
1

>  <SCORE.INTER.POLAR>
0

>  <SCORE.INTER.ROT>
13

>  <SCORE.INTER.SOLV>
40.0563

>  <SCORE.INTER.VDW>
-22.4388

>  <SCORE.INTER.norm>
0.103695

>  <SCORE.INTRA>
6.73908

>  <SCORE.INTRA.DIHEDRAL>
-3.00701

>  <SCORE.INTRA.DIHEDRAL.0>
19.7146

>  <SCORE.INTRA.POLAR>
0

>  <SCORE.INTRA.POLAR.0>
0

>  <SCORE.INTRA.REPUL>
0

>  <SCORE.INTRA.REPUL.0>
0

>  <SCORE.INTRA.SOLV>
-0.26044

>  <SCORE.INTRA.SOLV.lig_0>
-116.697

>  <SCORE.INTRA.VDW>
8.37281

>  <SCORE.INTRA.VDW.0>
-7.06424

>  <SCORE.INTRA.norm>
0.146502

>  <SCORE.RESTR>
8.13844

>  <SCORE.RESTR.CAVITY>
8.13844

>  <SCORE.RESTR.norm>
0.176923

>  <SCORE.SYSTEM>
0

>  <SCORE.SYSTEM.CONST>
0

>  <SCORE.SYSTEM.DIHEDRAL>
0

>  <SCORE.SYSTEM.SOLV>
0

>  <SCORE.SYSTEM.norm>
0

>  <SCORE.heavy>
46

>  <SCORE.norm>
0.427119

>  <RMSD>
10.936

$$$$
lig.pdb
 OpenBabel03061811583D
libRbt.so/2013.1/901 2013/11/27
 46 49  0  0  0  0  0  0  0  0999 V2000
    8.7931   -6.8943   -0.4753 C   0  0  1  0  0  0  0  0  0  0  0  0
   10.3239   -7.3089    1.4977 C   0  0  1  0  0  0  0  0  0  0  0  0
   10.2175   -6.8853    2.9940 C   0  0  1  0  0  0  0  0  0  0  0  0
   11.1176   -7.8858    3.8837 C   0  0  2  0  0  0  0  0  0  0  0  0
   11.9409   -5.0496    3.3072 C   0  0  2  0  0  0  0  0  0  0  0  0
   12.6112   -5.7467    4.5252 C   0  0  1  0  0  0  0  0  0  0  0  0
   14.0496   -5.5540    4.1093 C   0  0  1  0  0  0  0  0  0  0  0  0
   14.0828   -5.9514    2.5993 C   0  0  1  0  0  0  0  0  0  0  0  0
   14.1853   -7.4824    2.2714 C   0  0  0  0  0  0  0  0  0  0  0  0
   14.7278   -3.7077    5.5975 C   0  0  1  0  0  0  0  0  0  0  0  0
   13.6650   -2.8685    6.2417 C   0  0  1  0  0  0  0  0  0  0  0  0
    8.8616   -5.8219   -1.5883 C   0  0  1  0  0  0  0  0  0  0  0  0
   14.1584   -2.4521    7.6726 C   0  0  0  0  0  0  0  0  0  0  0  0
   15.3702   -1.6840    7.6902 C   0  0  0  0  0  0  0  0  0  0  0  0
   16.4308   -2.4775    7.1066 C   0  0  2  0  0  0  0  0  0  0  0  0
   17.7932   -1.6783    7.0897 C   0  0  0  0  0  0  0  0  0  0  0  0
   12.0714  -11.3767    7.2841 C   0  0  2  0  0  0  0  0  0  0  0  0
   10.5836  -11.1731    5.4680 C   0  0  0  0  0  0  0  0  0  0  0  0
   13.1154  -12.0440    7.8964 C   0  0  0  0  0  0  0  0  0  0  0  0
   11.6369  -12.1156    6.2331 C   0  0  1  0  0  0  0  0  0  0  0  0
    8.0768   -4.4998   -1.1593 C   0  0  0  0  0  0  0  0  0  0  0  0
    6.5558   -4.8995   -0.8449 C   0  0  0  0  0  0  0  0  0  0  0  0
    6.5650   -5.9837    0.3301 C   0  0  1  0  0  0  0  0  0  0  0  0
    5.1483   -6.4414    0.6972 C   0  0  0  0  0  0  0  0  0  0  0  0
   10.5199   -9.3525    3.7333 C   0  0  1  0  0  0  0  0  0  0  0  0
   10.6792   -9.7451    2.1692 C   0  0  0  0  0  0  0  0  0  0  0  0
    9.8292   -8.7600    1.2776 C   0  0  2  0  0  0  0  0  0  0  0  0
   12.5025  -10.0499    6.9052 F   0  0  0  0  0  0  0  0  0  0  0  0
   17.7848   -0.4784    6.0996 N   0  0  0  0  0  0  0  0  0  0  0  0
   10.3157   -5.5494   -1.8896 N   0  0  0  0  0  0  0  0  0  0  0  0
   13.4023   -1.6676    5.5765 N   0  0  0  0  0  0  0  0  0  0  0  0
   14.4793  -12.1724    7.5434 N   0  0  0  0  0  0  0  0  0  0  0  0
    5.1711   -7.3375    1.7870 N   0  0  0  0  0  0  0  0  0  0  0  0
   11.3082  -10.2981    4.5439 N   0  0  0  0  0  0  0  0  0  0  0  0
    9.9752   -9.0989   -0.1553 N   0  0  0  0  0  0  0  0  0  0  0  0
    9.5099   -6.4726    0.6855 O   0  0  0  0  0  0  0  0  0  0  0  0
   10.7204   -5.4737    3.0802 O   0  0  0  0  0  0  0  0  0  0  0  0
   11.0066   -7.4918    5.1984 O   0  0  0  0  0  0  0  0  0  0  0  0
   12.2525   -5.0504    5.6800 O   0  0  0  0  0  0  0  0  0  0  0  0
   12.8959   -5.2434    2.2047 O   0  0  0  0  0  0  0  0  0  0  0  0
   15.4292   -7.9579    2.8234 O   0  0  0  0  0  0  0  0  0  0  0  0
   14.4347   -4.0994    4.3093 O   0  0  0  0  0  0  0  0  0  0  0  0
   12.6989  -12.4917    5.3292 O   0  0  0  0  0  0  0  0  0  0  0  0
    9.3535  -11.2073    5.6359 O   0  0  0  0  0  0  0  0  0  0  0  0
   16.0528   -2.9145    5.7110 O   0  0  0  0  0  0  0  0  0  0  0  0
    7.3717   -7.1988   -0.0975 O   0  0  0  0  0  0  0  0  0  0  0  0
  1 36  1  1  0  0  0
  2 36  1  6  0  0  0
  2  3  1  0  0  0  0
  3 37  1  6  0  0  0
  3  4  1  0  0  0  0
  4 38  1  1  0  0  0
  5 37  1  6  0  0  0
  5  6  1  0  0  0  0
  6  7  1  0  0  0  0
  6 39  1  1  0  0  0
  7 42  1  6  0  0  0
  8  9  1  1  0  0  0
  8  7  1  0  0  0  0
 10 42  1  6  0  0  0
 10 11  1  0  0  0  0
 11 31  1  6  0  0  0
 11 13  1  0  0  0  0
 12 30  1  1  0  0  0
 12  1  1  0  0  0  0
 14 13  1  0  0  0  0
 15 16  1  6  0  0  0
 15 14  1  0  0  0  0
 17 19  1  6  0  0  0
 17 28  1  0  0  0  0
 18 34  1  0  0  0  0
 19 32  1  0  0  0  0
 20 18  1  6  0  0  0
 20 17  1  0  0  0  0
 20 43  1  0  0  0  0
 21 12  1  0  0  0  0
 22 21  1  0  0  0  0
 22 23  1  0  0  0  0
 23 24  1  6  0  0  0
 23 46  1  0  0  0  0
 24 33  1  0  0  0  0
 25 34  1  1  0  0  0
 25  4  1  0  0  0  0
 26 25  1  0  0  0  0
 27 35  1  6  0  0  0
 27 26  1  0  0  0  0
 27  2  1  0  0  0  0
 29 16  1  0  0  0  0
 40  8  1  0  0  0  0
 40  5  1  0  0  0  0
 41  9  1  0  0  0  0
 44 18  2  0  0  0  0
 45 15  1  0  0  0  0
 45 10  1  0  0  0  0
 46  1  1  0  0  0  0
M  END
>  <CHROM.1>
-140.31973582,-144.74844652,-90.79482353,-48.33319388,78.65777344,-61.78190260
-106.30651617,-68.75503749,78.03924666,84.99185533,-172.06671257,-176.54146139
128.58687597,11.75480884,-6.71541453,3.69030236,2.97755815,0.74386567,2.74802810

>  <Name>
lig.pdb

>  <RI>
0

>  <Rbt.Current_Directory>
/home/afrankz/demos/rdock_decoys_rna/rnas/3wru

>  <Rbt.Executable>
rbdock ($Id: //depot/dev/client3/rdock/2013.1/src/exe/rbdock.cxx#4 $)

>  <Rbt.Library>
libRbt.so (2013.1, Build901 2013/11/27)

>  <Rbt.Parameter_File>
/export/apps/rDock/src/rDock_2013.1_src/data/scripts/dock_solv.prm

>  <Rbt.Receptor>
prm/blind_docking_20.prm

>  <SCORE>
24.3465

>  <SCORE.INTER>
-0.80501

>  <SCORE.INTER.CONST>
1

>  <SCORE.INTER.POLAR>
0

>  <SCORE.INTER.ROT>
13

>  <SCORE.INTER.SOLV>
36.591

>  <SCORE.INTER.VDW>
-25.0004

>  <SCORE.INTER.norm>
-0.0175002

>  <SCORE.INTRA>
15.7741

>  <SCORE.INTRA.DIHEDRAL>
6.77618

>  <SCORE.INTRA.DIHEDRAL.0>
19.7146

>  <SCORE.INTRA.POLAR>
0

>  <SCORE.INTRA.POLAR.0>
0

>  <SCORE.INTRA.REPUL>
0

>  <SCORE.INTRA.REPUL.0>
0

>  <SCORE.INTRA.SOLV>
3.0374

>  <SCORE.INTRA.SOLV.lig_0>
-116.697

>  <SCORE.INTRA.VDW>
10.8673

>  <SCORE.INTRA.VDW.0>
-7.06424

>  <SCORE.INTRA.norm>
0.342915

>  <SCORE.RESTR>
9.37742

>  <SCORE.RESTR.CAVITY>
9.37742

>  <SCORE.RESTR.norm>
0.203857

>  <SCORE.SYSTEM>
0

>  <SCORE.SYSTEM.CONST>
0

>  <SCORE.SYSTEM.DIHEDRAL>
0

>  <SCORE.SYSTEM.SOLV>
0

>  <SCORE.SYSTEM.norm>
0

>  <SCORE.heavy>
46

>  <SCORE.norm>
0.529271

>  <RMSD>
10.998

$$$$
lig.pdb
 OpenBabel03061811583D
libRbt.so/2013.1/901 2013/11/27
 46 49  0  0  0  0  0  0  0  0999 V2000
    8.9903   -7.9554    0.6186 C   0  0  1  0  0  0  0  0  0  0  0  0
   10.8486   -8.6804    2.1771 C   0  0  1  0  0  0  0  0  0  0  0  0
   10.2366   -7.8704    3.3600 C   0  0  1  0  0  0  0  0  0  0  0  0
   10.7761   -8.4889    4.7489 C   0  0  2  0  0  0  0  0  0  0  0  0
   11.8822   -5.9393    3.3289 C   0  0  2  0  0  0  0  0  0  0  0  0
   12.4454   -6.1056    4.7690 C   0  0  1  0  0  0  0  0  0  0  0  0
   13.9143   -6.0500    4.4255 C   0  0  1  0  0  0  0  0  0  0  0  0
   14.0683   -6.9897    3.1876 C   0  0  1  0  0  0  0  0  0  0  0  0
   14.1862   -8.5276    3.4755 C   0  0  0  0  0  0  0  0  0  0  0  0
   15.6229   -4.3760    3.8237 C   0  0  1  0  0  0  0  0  0  0  0  0
   16.0931   -3.0145    4.2409 C   0  0  1  0  0  0  0  0  0  0  0  0
    8.8089   -7.6802   -0.8929 C   0  0  1  0  0  0  0  0  0  0  0  0
   17.6001   -2.8603    3.8292 C   0  0  0  0  0  0  0  0  0  0  0  0
   17.8537   -2.9809    2.4222 C   0  0  0  0  0  0  0  0  0  0  0  0
   17.4441   -4.2997    1.9884 C   0  0  2  0  0  0  0  0  0  0  0  0
   17.6913   -4.4894    0.4399 C   0  0  0  0  0  0  0  0  0  0  0  0
    9.7837  -13.1162    8.5412 C   0  0  2  0  0  0  0  0  0  0  0  0
    9.8446  -11.5576    6.7749 C   0  0  0  0  0  0  0  0  0  0  0  0
    8.5815  -12.6194    9.0082 C   0  0  0  0  0  0  0  0  0  0  0  0
   10.5509  -12.0799    8.1208 C   0  0  1  0  0  0  0  0  0  0  0  0
    9.4983   -6.3027   -1.3114 C   0  0  0  0  0  0  0  0  0  0  0  0
    8.8452   -5.1288   -0.4352 C   0  0  0  0  0  0  0  0  0  0  0  0
    9.0982   -5.4670    1.1067 C   0  0  1  0  0  0  0  0  0  0  0  0
    8.4964   -4.4025    2.0321 C   0  0  0  0  0  0  0  0  0  0  0  0
   10.2642   -9.9916    4.8515 C   0  0  1  0  0  0  0  0  0  0  0  0
   10.9492  -10.7856    3.6160 C   0  0  0  0  0  0  0  0  0  0  0  0
   10.4574  -10.1774    2.2463 C   0  0  2  0  0  0  0  0  0  0  0  0
    9.5328  -14.0931    7.5057 F   0  0  0  0  0  0  0  0  0  0  0  0
   16.9071   -3.4681   -0.4332 N   0  0  0  0  0  0  0  0  0  0  0  0
    9.3729   -8.8548   -1.6555 N   0  0  0  0  0  0  0  0  0  0  0  0
   15.4270   -1.9604    3.6095 N   0  0  0  0  0  0  0  0  0  0  0  0
    8.2907  -11.6056    9.9511 N   0  0  0  0  0  0  0  0  0  0  0  0
    7.0865   -4.4227    1.9791 N   0  0  0  0  0  0  0  0  0  0  0  0
   10.7259  -10.5909    6.1165 N   0  0  0  0  0  0  0  0  0  0  0  0
   11.0850  -10.8849    1.1083 N   0  0  0  0  0  0  0  0  0  0  0  0
   10.3632   -8.1887    0.9345 O   0  0  0  0  0  0  0  0  0  0  0  0
   10.6813   -6.4475    3.1851 O   0  0  0  0  0  0  0  0  0  0  0  0
   10.2220   -7.7580    5.7760 O   0  0  0  0  0  0  0  0  0  0  0  0
   11.9984   -5.0321    5.5404 O   0  0  0  0  0  0  0  0  0  0  0  0
   12.9229   -6.5136    2.4615 O   0  0  0  0  0  0  0  0  0  0  0  0
   15.5889   -8.8597    3.4702 O   0  0  0  0  0  0  0  0  0  0  0  0
   14.2924   -4.6193    4.0871 O   0  0  0  0  0  0  0  0  0  0  0  0
   10.6226  -11.0036    9.0814 O   0  0  0  0  0  0  0  0  0  0  0  0
    8.7348  -11.9373    6.3666 O   0  0  0  0  0  0  0  0  0  0  0  0
   15.9916   -4.5369    2.3284 O   0  0  0  0  0  0  0  0  0  0  0  0
    8.4778   -6.8121    1.4470 O   0  0  0  0  0  0  0  0  0  0  0  0
  1 36  1  6  0  0  0
  2 36  1  6  0  0  0
  2  3  1  0  0  0  0
  3 37  1  6  0  0  0
  3  4  1  0  0  0  0
  4 38  1  1  0  0  0
  5 37  1  1  0  0  0
  5  6  1  0  0  0  0
  6  7  1  0  0  0  0
  6 39  1  1  0  0  0
  7 42  1  6  0  0  0
  8  9  1  1  0  0  0
  8  7  1  0  0  0  0
 10 42  1  6  0  0  0
 10 11  1  0  0  0  0
 11 31  1  6  0  0  0
 11 13  1  0  0  0  0
 12 30  1  6  0  0  0
 12  1  1  0  0  0  0
 14 13  1  0  0  0  0
 15 16  1  6  0  0  0
 15 14  1  0  0  0  0
 17 19  1  6  0  0  0
 17 28  1  0  0  0  0
 18 34  1  0  0  0  0
 19 32  1  0  0  0  0
 20 18  1  6  0  0  0
 20 17  1  0  0  0  0
 20 43  1  0  0  0  0
 21 12  1  0  0  0  0
 22 21  1  0  0  0  0
 22 23  1  0  0  0  0
 23 24  1  1  0  0  0
 23 46  1  0  0  0  0
 24 33  1  0  0  0  0
 25 34  1  1  0  0  0
 25  4  1  0  0  0  0
 26 25  1  0  0  0  0
 27 35  1  6  0  0  0
 27 26  1  0  0  0  0
 27  2  1  0  0  0  0
 29 16  1  0  0  0  0
 40  8  1  0  0  0  0
 40  5  1  0  0  0  0
 41  9  1  0  0  0  0
 44 18  2  0  0  0  0
 45 15  1  0  0  0  0
 45 10  1  0  0  0  0
 46  1  1  0  0  0  0
M  END
>  <CHROM.1>
-169.25233747,-49.50030851,-70.04272241,-61.09175229,176.33413469,-96.92826853
-147.54183665,-60.08706965,-51.91661741,-170.20174159,-70.87093580,67.91982777
145.77775223,11.79575867,-7.54542426,3.58801256,2.24514925,0.50407172,2.20425624

>  <Name>
lig.pdb

>  <RI>
0

>  <Rbt.Current_Directory>
/home/afrankz/demos/rdock_decoys_rna/rnas/3wru

>  <Rbt.Executable>
rbdock ($Id: //depot/dev/client3/rdock/2013.1/src/exe/rbdock.cxx#4 $)

>  <Rbt.Library>
libRbt.so (2013.1, Build901 2013/11/27)

>  <Rbt.Parameter_File>
/export/apps/rDock/src/rDock_2013.1_src/data/scripts/dock_solv.prm

>  <Rbt.Receptor>
prm/blind_docking_20.prm

>  <SCORE>
21.7988

>  <SCORE.INTER>
12.1618

>  <SCORE.INTER.CONST>
1

>  <SCORE.INTER.POLAR>
0

>  <SCORE.INTER.ROT>
13

>  <SCORE.INTER.SOLV>
46.9113

>  <SCORE.INTER.VDW>
-19.7959

>  <SCORE.INTER.norm>
0.264387

>  <SCORE.INTRA>
3.37739

>  <SCORE.INTRA.DIHEDRAL>
-7.78031

>  <SCORE.INTRA.DIHEDRAL.0>
19.7146

>  <SCORE.INTRA.POLAR>
0

>  <SCORE.INTRA.POLAR.0>
0

>  <SCORE.INTRA.REPUL>
0

>  <SCORE.INTRA.REPUL.0>
0

>  <SCORE.INTRA.SOLV>
2.44413

>  <SCORE.INTRA.SOLV.lig_0>
-116.697

>  <SCORE.INTRA.VDW>
6.04548

>  <SCORE.INTRA.VDW.0>
-7.06424

>  <SCORE.INTRA.norm>
0.0734214

>  <SCORE.RESTR>
6.25963

>  <SCORE.RESTR.CAVITY>
6.25963

>  <SCORE.RESTR.norm>
0.136079

>  <SCORE.SYSTEM>
0

>  <SCORE.SYSTEM.CONST>
0

>  <SCORE.SYSTEM.DIHEDRAL>
0

>  <SCORE.SYSTEM.SOLV>
0

>  <SCORE.SYSTEM.norm>
0

>  <SCORE.heavy>
46

>  <SCORE.norm>
0.473887

>  <RMSD>
11.053

$$$$
lig.pdb
 OpenBabel03061811583D
libRbt.so/2013.1/901 2013/11/27
 46 49  0  0  0  0  0  0  0  0999 V2000
   13.3068   -4.8649    2.2695 C   0  0  1  0  0  0  0  0  0  0  0  0
   11.4411   -6.4398    1.6009 C   0  0  1  0  0  0  0  0  0  0  0  0
   10.5925   -7.5298    2.3229 C   0  0  1  0  0  0  0  0  0  0  0  0
    9.3067   -7.8767    1.4123 C   0  0  2  0  0  0  0  0  0  0  0  0
   11.8757   -9.3055    3.6028 C   0  0  2  0  0  0  0  0  0  0  0  0
   10.7493   -9.4068    4.6703 C   0  0  1  0  0  0  0  0  0  0  0  0
   11.2891  -10.5942    5.4303 C   0  0  1  0  0  0  0  0  0  0  0  0
   11.7012  -11.6184    4.3256 C   0  0  1  0  0  0  0  0  0  0  0  0
   10.5593  -12.5119    3.7260 C   0  0  0  0  0  0  0  0  0  0  0  0
   13.5554  -11.0224    6.3047 C   0  0  1  0  0  0  0  0  0  0  0  0
   13.4604  -12.0537    7.3892 C   0  0  1  0  0  0  0  0  0  0  0  0
   14.6292   -4.9403    3.0687 C   0  0  1  0  0  0  0  0  0  0  0  0
   14.7648  -12.9267    7.3617 C   0  0  0  0  0  0  0  0  0  0  0  0
   15.9808  -12.1969    7.5794 C   0  0  0  0  0  0  0  0  0  0  0  0
   16.1254  -11.2124    6.5282 C   0  0  2  0  0  0  0  0  0  0  0  0
   17.4465  -10.3682    6.7200 C   0  0  0  0  0  0  0  0  0  0  0  0
    3.7847   -7.3037    0.6808 C   0  0  2  0  0  0  0  0  0  0  0  0
    5.9342   -6.3844    0.9763 C   0  0  0  0  0  0  0  0  0  0  0  0
    2.5884   -7.1347    0.0097 C   0  0  0  0  0  0  0  0  0  0  0  0
    4.7860   -6.7867   -0.0738 C   0  0  1  0  0  0  0  0  0  0  0  0
   14.3472   -5.0129    4.6380 C   0  0  0  0  0  0  0  0  0  0  0  0
   13.5012   -3.7160    5.0558 C   0  0  0  0  0  0  0  0  0  0  0  0
   12.1419   -3.7234    4.2143 C   0  0  1  0  0  0  0  0  0  0  0  0
   11.2634   -2.5084    4.5357 C   0  0  0  0  0  0  0  0  0  0  0  0
    8.4251   -6.5589    1.2814 C   0  0  1  0  0  0  0  0  0  0  0  0
    9.3474   -5.4756    0.5057 C   0  0  0  0  0  0  0  0  0  0  0  0
   10.6268   -5.1433    1.3664 C   0  0  2  0  0  0  0  0  0  0  0  0
    3.9716   -8.7034    0.9896 F   0  0  0  0  0  0  0  0  0  0  0  0
   18.7323  -11.2436    6.7451 N   0  0  0  0  0  0  0  0  0  0  0  0
   15.4100   -6.1341    2.5739 N   0  0  0  0  0  0  0  0  0  0  0  0
   13.3976  -11.5223    8.6805 N   0  0  0  0  0  0  0  0  0  0  0  0
    1.2678   -7.5203    0.3393 N   0  0  0  0  0  0  0  0  0  0  0  0
    9.9984   -2.6199    3.9206 N   0  0  0  0  0  0  0  0  0  0  0  0
    7.2297   -6.8372    0.4652 N   0  0  0  0  0  0  0  0  0  0  0  0
   11.4855   -4.1640    0.6643 N   0  0  0  0  0  0  0  0  0  0  0  0
   12.5644   -6.0784    2.3940 O   0  0  0  0  0  0  0  0  0  0  0  0
   11.4816   -8.7271    2.4933 O   0  0  0  0  0  0  0  0  0  0  0  0
    8.5747   -8.8393    2.0707 O   0  0  0  0  0  0  0  0  0  0  0  0
   10.7328   -8.2193    5.4031 O   0  0  0  0  0  0  0  0  0  0  0  0
   12.3679  -10.6848    3.4597 O   0  0  0  0  0  0  0  0  0  0  0  0
   11.1469  -13.3214    2.6881 O   0  0  0  0  0  0  0  0  0  0  0  0
   12.4857  -10.1551    6.2547 O   0  0  0  0  0  0  0  0  0  0  0  0
    5.3135   -7.7278   -1.0342 O   0  0  0  0  0  0  0  0  0  0  0  0
    5.7365   -5.7728    2.0391 O   0  0  0  0  0  0  0  0  0  0  0  0
   14.9168  -10.3073    6.4864 O   0  0  0  0  0  0  0  0  0  0  0  0
   12.4571   -3.7142    2.7274 O   0  0  0  0  0  0  0  0  0  0  0  0
  1 36  1  1  0  0  0
  2 36  1  1  0  0  0
  2  3  1  0  0  0  0
  3 37  1  6  0  0  0
  3  4  1  0  0  0  0
  4 38  1  1  0  0  0
  5 37  1  6  0  0  0
  5  6  1  0  0  0  0
  6  7  1  0  0  0  0
  6 39  1  1  0  0  0
  7 42  1  6  0  0  0
  8  9  1  6  0  0  0
  8  7  1  0  0  0  0
 10 42  1  1  0  0  0
 10 11  1  0  0  0  0
 11 31  1  1  0  0  0
 11 13  1  0  0  0  0
 12 30  1  6  0  0  0
 12  1  1  0  0  0  0
 14 13  1  0  0  0  0
 15 16  1  1  0  0  0
 15 14  1  0  0  0  0
 17 19  1  6  0  0  0
 17 28  1  0  0  0  0
 18 34  1  0  0  0  0
 19 32  1  0  0  0  0
 20 18  1  1  0  0  0
 20 17  1  0  0  0  0
 20 43  1  0  0  0  0
 21 12  1  0  0  0  0
 22 21  1  0  0  0  0
 22 23  1  0  0  0  0
 23 24  1  1  0  0  0
 23 46  1  0  0  0  0
 24 33  1  0  0  0  0
 25 34  1  6  0  0  0
 25  4  1  0  0  0  0
 26 25  1  0  0  0  0
 27 35  1  6  0  0  0
 27 26  1  0  0  0  0
 27  2  1  0  0  0  0
 29 16  1  0  0  0  0
 40  8  1  0  0  0  0
 40  5  1  0  0  0  0
 41  9  1  0  0  0  0
 44 18  2  0  0  0  0
 45 15  1  0  0  0  0
 45 10  1  0  0  0  0
 46  1  1  0  0  0  0
M  END
>  <CHROM.1>
-167.63504650,-159.40171742,118.49763568,40.69383259,-139.69414214,177.02921772
-87.16328041,58.17002867,178.24411473,134.93703038,153.97080276,-172.29397580
132.26022070,10.88236816,-8.00326648,3.39396701,-0.47705175,-0.41521078,-0.30713328

>  <Name>
lig.pdb

>  <RI>
0

>  <Rbt.Current_Directory>
/home/afrankz/demos/rdock_decoys_rna/rnas/3wru

>  <Rbt.Executable>
rbdock ($Id: //depot/dev/client3/rdock/2013.1/src/exe/rbdock.cxx#4 $)

>  <Rbt.Library>
libRbt.so (2013.1, Build901 2013/11/27)

>  <Rbt.Parameter_File>
/export/apps/rDock/src/rDock_2013.1_src/data/scripts/dock_solv.prm

>  <Rbt.Receptor>
prm/blind_docking_80.prm

>  <SCORE>
32.8022

>  <SCORE.INTER>
10.3542

>  <SCORE.INTER.CONST>
1

>  <SCORE.INTER.POLAR>
0

>  <SCORE.INTER.ROT>
13

>  <SCORE.INTER.SOLV>
38.7189

>  <SCORE.INTER.VDW>
-18.2702

>  <SCORE.INTER.norm>
0.225091

>  <SCORE.INTRA>
10.7629

>  <SCORE.INTRA.DIHEDRAL>
5.83444

>  <SCORE.INTRA.DIHEDRAL.0>
19.7146

>  <SCORE.INTRA.POLAR>
0

>  <SCORE.INTRA.POLAR.0>
0

>  <SCORE.INTRA.REPUL>
0

>  <SCORE.INTRA.REPUL.0>
0

>  <SCORE.INTRA.SOLV>
0.516686

>  <SCORE.INTRA.SOLV.lig_0>
-116.697

>  <SCORE.INTRA.VDW>
7.58732

>  <SCORE.INTRA.VDW.0>
-7.06424

>  <SCORE.INTRA.norm>
0.233976

>  <SCORE.RESTR>
11.6852

>  <SCORE.RESTR.CAVITY>
11.6852

>  <SCORE.RESTR.norm>
0.254025

>  <SCORE.SYSTEM>
0

>  <SCORE.SYSTEM.CONST>
0

>  <SCORE.SYSTEM.DIHEDRAL>
0

>  <SCORE.SYSTEM.SOLV>
0

>  <SCORE.SYSTEM.norm>
0

>  <SCORE.heavy>
46

>  <SCORE.norm>
0.713092

>  <RMSD>
11.069

$$$$
lig.pdb
 OpenBabel03061811583D
libRbt.so/2013.1/901 2013/11/27
 46 49  0  0  0  0  0  0  0  0999 V2000
   15.9995  -15.5193    8.0214 C   0  0  1  0  0  0  0  0  0  0  0  0
   15.7810  -13.8606    6.1216 C   0  0  1  0  0  0  0  0  0  0  0  0
   15.4394  -14.8080    4.9318 C   0  0  1  0  0  0  0  0  0  0  0  0
   14.5528  -13.9949    3.8567 C   0  0  2  0  0  0  0  0  0  0  0  0
   17.9288  -14.6907    4.4554 C   0  0  2  0  0  0  0  0  0  0  0  0
   19.0285  -15.4195    3.6318 C   0  0  1  0  0  0  0  0  0  0  0  0
   19.9678  -14.2504    3.4590 C   0  0  1  0  0  0  0  0  0  0  0  0
   19.0468  -13.0591    3.0447 C   0  0  1  0  0  0  0  0  0  0  0  0
   18.6434  -12.9682    1.5312 C   0  0  0  0  0  0  0  0  0  0  0  0
   21.4391  -12.8359    4.8441 C   0  0  1  0  0  0  0  0  0  0  0  0
   22.5898  -12.8125    3.8828 C   0  0  1  0  0  0  0  0  0  0  0  0
   17.1046  -16.0630    8.9575 C   0  0  1  0  0  0  0  0  0  0  0  0
   23.4032  -11.4895    4.1119 C   0  0  0  0  0  0  0  0  0  0  0  0
   23.9517  -11.3422    5.4295 C   0  0  0  0  0  0  0  0  0  0  0  0
   22.8647  -11.3246    6.3851 C   0  0  2  0  0  0  0  0  0  0  0  0
   23.4090  -11.1733    7.8602 C   0  0  0  0  0  0  0  0  0  0  0  0
   10.4919  -10.6194    2.9979 C   0  0  2  0  0  0  0  0  0  0  0  0
   10.9087  -12.7646    3.8795 C   0  0  0  0  0  0  0  0  0  0  0  0
   10.1691   -9.8421    1.9017 C   0  0  0  0  0  0  0  0  0  0  0  0
   10.1925  -11.9127    2.7199 C   0  0  1  0  0  0  0  0  0  0  0  0
   18.1799  -16.9142    8.1408 C   0  0  0  0  0  0  0  0  0  0  0  0
   17.4137  -18.1156    7.4046 C   0  0  0  0  0  0  0  0  0  0  0  0
   16.3130  -17.4771    6.4368 C   0  0  1  0  0  0  0  0  0  0  0  0
   15.5133  -18.5526    5.6918 C   0  0  0  0  0  0  0  0  0  0  0  0
   13.1935  -13.5651    4.5626 C   0  0  1  0  0  0  0  0  0  0  0  0
   13.6092  -12.5674    5.7699 C   0  0  0  0  0  0  0  0  0  0  0  0
   14.5020  -13.3350    6.8195 C   0  0  2  0  0  0  0  0  0  0  0  0
    9.8045  -10.1163    4.1658 F   0  0  0  0  0  0  0  0  0  0  0  0
   22.3020  -11.3439    8.9399 N   0  0  0  0  0  0  0  0  0  0  0  0
   17.7308  -14.8916    9.6753 N   0  0  0  0  0  0  0  0  0  0  0  0
   23.5094  -13.8491    4.0655 N   0  0  0  0  0  0  0  0  0  0  0  0
   10.4384   -8.4855    1.6044 N   0  0  0  0  0  0  0  0  0  0  0  0
   14.4630  -17.9778    4.9450 N   0  0  0  0  0  0  0  0  0  0  0  0
   12.3462  -12.8288    3.6074 N   0  0  0  0  0  0  0  0  0  0  0  0
   14.9001  -12.4322    7.9222 N   0  0  0  0  0  0  0  0  0  0  0  0
   16.5295  -14.5553    7.1108 O   0  0  0  0  0  0  0  0  0  0  0  0
   16.7470  -15.2489    4.3414 O   0  0  0  0  0  0  0  0  0  0  0  0
   14.2644  -14.8518    2.8182 O   0  0  0  0  0  0  0  0  0  0  0  0
   19.5441  -16.4559    4.4110 O   0  0  0  0  0  0  0  0  0  0  0  0
   18.0138  -13.2886    4.0174 O   0  0  0  0  0  0  0  0  0  0  0  0
   17.8689  -14.1439    1.2213 O   0  0  0  0  0  0  0  0  0  0  0  0
   20.6699  -13.9773    4.7769 O   0  0  0  0  0  0  0  0  0  0  0  0
    8.7728  -12.1783    2.7276 O   0  0  0  0  0  0  0  0  0  0  0  0
   10.3215  -13.2670    4.8518 O   0  0  0  0  0  0  0  0  0  0  0  0
   22.0282  -12.5754    6.2522 O   0  0  0  0  0  0  0  0  0  0  0  0
   15.3467  -16.6278    7.2461 O   0  0  0  0  0  0  0  0  0  0  0  0
  1 36  1  6  0  0  0
  2 36  1  1  0  0  0
  2  3  1  0  0  0  0
  3 37  1  6  0  0  0
  3  4  1  0  0  0  0
  4 38  1  6  0  0  0
  5 37  1  6  0  0  0
  5  6  1  0  0  0  0
  6  7  1  0  0  0  0
  6 39  1  1  0  0  0
  7 42  1  1  0  0  0
  8  9  1  6  0  0  0
  8  7  1  0  0  0  0
 10 42  1  1  0  0  0
 10 11  1  0  0  0  0
 11 31  1  1  0  0  0
 11 13  1  0  0  0  0
 12 30  1  6  0  0  0
 12  1  1  0  0  0  0
 14 13  1  0  0  0  0
 15 16  1  1  0  0  0
 15 14  1  0  0  0  0
 17 19  1  6  0  0  0
 17 28  1  0  0  0  0
 18 34  1  0  0  0  0
 19 32  1  0  0  0  0
 20 18  1  1  0  0  0
 20 17  1  0  0  0  0
 20 43  1  0  0  0  0
 21 12  1  0  0  0  0
 22 21  1  0  0  0  0
 22 23  1  0  0  0  0
 23 24  1  1  0  0  0
 23 46  1  0  0  0  0
 24 33  1  0  0  0  0
 25 34  1  6  0  0  0
 25  4  1  0  0  0  0
 26 25  1  0  0  0  0
 27 35  1  1  0  0  0
 27 26  1  0  0  0  0
 27  2  1  0  0  0  0
 29 16  1  0  0  0  0
 40  8  1  0  0  0  0
 40  5  1  0  0  0  0
 41  9  1  0  0  0  0
 44 18  2  0  0  0  0
 45 15  1  0  0  0  0
 45 10  1  0  0  0  0
 46  1  1  0  0  0  0
M  END
>  <CHROM.1>
-179.76361039,-74.29904897,-19.92429271,-177.23399198,-172.06116645,63.27488873
-61.95532016,-172.11602072,-170.52688067,-75.96124805,167.00948538,174.22986034
158.61995924,16.62995205,-13.69490498,5.01425468,0.20302507,0.09626322,2.53504400

>  <Name>
lig.pdb

>  <RI>
0

>  <Rbt.Current_Directory>
/home/afrankz/demos/rdock_decoys_rna/rnas/3wru

>  <Rbt.Executable>
rbdock ($Id: //depot/dev/client3/rdock/2013.1/src/exe/rbdock.cxx#4 $)

>  <Rbt.Library>
libRbt.so (2013.1, Build901 2013/11/27)

>  <Rbt.Parameter_File>
/export/apps/rDock/src/rDock_2013.1_src/data/scripts/dock_solv.prm

>  <Rbt.Receptor>
prm/pocket_docking_6.prm

>  <SCORE>
-2.46691

>  <SCORE.INTER>
1.33342

>  <SCORE.INTER.CONST>
1

>  <SCORE.INTER.POLAR>
0

>  <SCORE.INTER.ROT>
13

>  <SCORE.INTER.SOLV>
18.444

>  <SCORE.INTER.VDW>
-17.5257

>  <SCORE.INTER.norm>
0.0289874

>  <SCORE.INTRA>
-3.80033

>  <SCORE.INTRA.DIHEDRAL>
-10.09

>  <SCORE.INTRA.DIHEDRAL.0>
19.7146

>  <SCORE.INTRA.POLAR>
0

>  <SCORE.INTRA.POLAR.0>
0

>  <SCORE.INTRA.REPUL>
0

>  <SCORE.INTRA.REPUL.0>
0

>  <SCORE.INTRA.SOLV>
0.0737646

>  <SCORE.INTRA.SOLV.lig_0>
-116.697

>  <SCORE.INTRA.VDW>
1.20778

>  <SCORE.INTRA.VDW.0>
-7.06424

>  <SCORE.INTRA.norm>
-0.082616

>  <SCORE.RESTR>
0

>  <SCORE.RESTR.CAVITY>
0

>  <SCORE.RESTR.norm>
0

>  <SCORE.SYSTEM>
0

>  <SCORE.SYSTEM.CONST>
0

>  <SCORE.SYSTEM.DIHEDRAL>
0

>  <SCORE.SYSTEM.SOLV>
0

>  <SCORE.SYSTEM.norm>
0

>  <SCORE.heavy>
46

>  <SCORE.norm>
-0.0536285

>  <RMSD>
11.119

$$$$
lig.pdb
 OpenBabel03061811583D
libRbt.so/2013.1/901 2013/11/27
 46 49  0  0  0  0  0  0  0  0999 V2000
   11.1280  -15.6941   10.1091 C   0  0  1  0  0  0  0  0  0  0  0  0
    9.0394  -17.0306   10.6189 C   0  0  1  0  0  0  0  0  0  0  0  0
    8.3440  -16.9039    9.2296 C   0  0  1  0  0  0  0  0  0  0  0  0
    6.7556  -17.1119    9.4215 C   0  0  2  0  0  0  0  0  0  0  0  0
    8.3932  -14.3673    9.2601 C   0  0  2  0  0  0  0  0  0  0  0  0
    7.3811  -13.5222    8.4353 C   0  0  1  0  0  0  0  0  0  0  0  0
    6.8462  -12.6768    9.5658 C   0  0  1  0  0  0  0  0  0  0  0  0
    6.5781  -13.6882   10.7253 C   0  0  1  0  0  0  0  0  0  0  0  0
    5.2277  -14.4852   10.6724 C   0  0  0  0  0  0  0  0  0  0  0  0
    7.5029  -10.6788   10.8544 C   0  0  1  0  0  0  0  0  0  0  0  0
    8.5847   -9.7050   11.2155 C   0  0  1  0  0  0  0  0  0  0  0  0
   12.6529  -15.9323   10.0040 C   0  0  1  0  0  0  0  0  0  0  0  0
    8.0166   -8.7023   12.2814 C   0  0  0  0  0  0  0  0  0  0  0  0
    7.5732   -9.3113   13.5025 C   0  0  0  0  0  0  0  0  0  0  0  0
    6.5011  -10.2347   13.1976 C   0  0  2  0  0  0  0  0  0  0  0  0
    5.9757  -10.9457   14.5066 C   0  0  0  0  0  0  0  0  0  0  0  0
    2.8337  -20.7417   11.2541 C   0  0  2  0  0  0  0  0  0  0  0  0
    4.5376  -20.1249    9.7477 C   0  0  0  0  0  0  0  0  0  0  0  0
    1.5255  -20.6115   11.6802 C   0  0  0  0  0  0  0  0  0  0  0  0
    2.9568  -20.1578   10.0362 C   0  0  1  0  0  0  0  0  0  0  0  0
   13.2828  -16.2535   11.4350 C   0  0  0  0  0  0  0  0  0  0  0  0
   12.9636  -15.0216   12.4111 C   0  0  0  0  0  0  0  0  0  0  0  0
   11.3754  -14.8573   12.4925 C   0  0  1  0  0  0  0  0  0  0  0  0
   10.9668  -13.6896   13.3986 C   0  0  0  0  0  0  0  0  0  0  0  0
    6.5140  -18.5849    9.9715 C   0  0  1  0  0  0  0  0  0  0  0  0
    7.2359  -18.6481   11.4210 C   0  0  0  0  0  0  0  0  0  0  0  0
    8.7880  -18.4179   11.2599 C   0  0  2  0  0  0  0  0  0  0  0  0
    3.2045  -22.1389   11.2535 F   0  0  0  0  0  0  0  0  0  0  0  0
    7.0733  -11.7749   15.2334 N   0  0  0  0  0  0  0  0  0  0  0  0
   12.8872  -17.0482    9.0144 N   0  0  0  0  0  0  0  0  0  0  0  0
    9.7036  -10.2892   11.8157 N   0  0  0  0  0  0  0  0  0  0  0  0
    0.9000  -20.9573   12.9011 N   0  0  0  0  0  0  0  0  0  0  0  0
   11.2822  -13.9594   14.7472 N   0  0  0  0  0  0  0  0  0  0  0  0
    5.0699  -18.8209   10.1486 N   0  0  0  0  0  0  0  0  0  0  0  0
    9.4592  -18.4604   12.5779 N   0  0  0  0  0  0  0  0  0  0  0  0
   10.4480  -16.8927   10.4838 O   0  0  0  0  0  0  0  0  0  0  0  0
    8.6576  -15.5300    8.7131 O   0  0  0  0  0  0  0  0  0  0  0  0
    6.1655  -16.9961    8.1827 O   0  0  0  0  0  0  0  0  0  0  0  0
    8.0923  -12.8046    7.4727 O   0  0  0  0  0  0  0  0  0  0  0  0
    7.8106  -14.4185   10.6104 O   0  0  0  0  0  0  0  0  0  0  0  0
    4.1576  -13.5194   10.6845 O   0  0  0  0  0  0  0  0  0  0  0  0
    7.8925  -11.6487    9.9565 O   0  0  0  0  0  0  0  0  0  0  0  0
    2.2863  -20.8908    8.9877 O   0  0  0  0  0  0  0  0  0  0  0  0
    5.1889  -21.0706    9.2744 O   0  0  0  0  0  0  0  0  0  0  0  0
    6.9603  -11.2568   12.1846 O   0  0  0  0  0  0  0  0  0  0  0  0
   10.8116  -14.6129   11.1024 O   0  0  0  0  0  0  0  0  0  0  0  0
  1 36  1  1  0  0  0
  2 36  1  6  0  0  0
  2  3  1  0  0  0  0
  3 37  1  1  0  0  0
  3  4  1  0  0  0  0
  4 38  1  6  0  0  0
  5 37  1  6  0  0  0
  5  6  1  0  0  0  0
  6  7  1  0  0  0  0
  6 39  1  6  0  0  0
  7 42  1  1  0  0  0
  8  9  1  6  0  0  0
  8  7  1  0  0  0  0
 10 42  1  6  0  0  0
 10 11  1  0  0  0  0
 11 31  1  1  0  0  0
 11 13  1  0  0  0  0
 12 30  1  6  0  0  0
 12  1  1  0  0  0  0
 14 13  1  0  0  0  0
 15 16  1  1  0  0  0
 15 14  1  0  0  0  0
 17 19  1  6  0  0  0
 17 28  1  0  0  0  0
 18 34  1  0  0  0  0
 19 32  1  0  0  0  0
 20 18  1  6  0  0  0
 20 17  1  0  0  0  0
 20 43  1  0  0  0  0
 21 12  1  0  0  0  0
 22 21  1  0  0  0  0
 22 23  1  0  0  0  0
 23 24  1  1  0  0  0
 23 46  1  0  0  0  0
 24 33  1  0  0  0  0
 25 34  1  1  0  0  0
 25  4  1  0  0  0  0
 26 25  1  0  0  0  0
 27 35  1  1  0  0  0
 27 26  1  0  0  0  0
 27  2  1  0  0  0  0
 29 16  1  0  0  0  0
 40  8  1  0  0  0  0
 40  5  1  0  0  0  0
 41  9  1  0  0  0  0
 44 18  2  0  0  0  0
 45 15  1  0  0  0  0
 45 10  1  0  0  0  0
 46  1  1  0  0  0  0
M  END
>  <CHROM.1>
-177.52605438,67.57826397,-58.55170173,-114.60778506,171.67263376,-59.28533606
179.17795689,-60.57205539,-174.98502213,-95.39710699,170.18193690,-67.79249482
138.89143013,7.51132209,-15.49961688,10.93774257,-1.00483948,-0.07307530
-2.92866502

>  <Name>
lig.pdb

>  <RI>
0

>  <Rbt.Current_Directory>
/home/afrankz/demos/rdock_decoys_rna/rnas/3wru

>  <Rbt.Executable>
rbdock ($Id: //depot/dev/client3/rdock/2013.1/src/exe/rbdock.cxx#4 $)

>  <Rbt.Library>
libRbt.so (2013.1, Build901 2013/11/27)

>  <Rbt.Parameter_File>
/export/apps/rDock/src/rDock_2013.1_src/data/scripts/dock_solv.prm

>  <Rbt.Receptor>
prm/pocket_docking_8.prm

>  <SCORE>
-1.65169

>  <SCORE.INTER>
3.20709

>  <SCORE.INTER.CONST>
1

>  <SCORE.INTER.POLAR>
0

>  <SCORE.INTER.ROT>
13

>  <SCORE.INTER.SOLV>
22.2503

>  <SCORE.INTER.VDW>
-17.5454

>  <SCORE.INTER.norm>
0.0697193

>  <SCORE.INTRA>
-4.85878

>  <SCORE.INTRA.DIHEDRAL>
-8.32805

>  <SCORE.INTRA.DIHEDRAL.0>
19.7146

>  <SCORE.INTRA.POLAR>
0

>  <SCORE.INTRA.POLAR.0>
0

>  <SCORE.INTRA.REPUL>
0.0396956

>  <SCORE.INTRA.REPUL.0>
0

>  <SCORE.INTRA.SOLV>
-1.9575

>  <SCORE.INTRA.SOLV.lig_0>
-116.697

>  <SCORE.INTRA.VDW>
0.0855164

>  <SCORE.INTRA.VDW.0>
-7.06424

>  <SCORE.INTRA.norm>
-0.105626

>  <SCORE.RESTR>
0

>  <SCORE.RESTR.CAVITY>
0

>  <SCORE.RESTR.norm>
0

>  <SCORE.SYSTEM>
0

>  <SCORE.SYSTEM.CONST>
0

>  <SCORE.SYSTEM.DIHEDRAL>
0

>  <SCORE.SYSTEM.SOLV>
0

>  <SCORE.SYSTEM.norm>
0

>  <SCORE.heavy>
46

>  <SCORE.norm>
-0.0359063

>  <RMSD>
11.135

$$$$
lig.pdb
 OpenBabel03061811583D
libRbt.so/2013.1/901 2013/11/27
 46 49  0  0  0  0  0  0  0  0999 V2000
    9.4345   -6.6219   -0.5805 C   0  0  1  0  0  0  0  0  0  0  0  0
   10.9053   -7.2566    1.3796 C   0  0  1  0  0  0  0  0  0  0  0  0
   10.4156   -6.6305    2.7205 C   0  0  1  0  0  0  0  0  0  0  0  0
   10.7934   -7.6291    3.9301 C   0  0  2  0  0  0  0  0  0  0  0  0
   12.3449   -5.0706    3.2519 C   0  0  2  0  0  0  0  0  0  0  0  0
   12.5409   -5.2384    4.7856 C   0  0  1  0  0  0  0  0  0  0  0  0
   14.0205   -5.5380    4.7745 C   0  0  1  0  0  0  0  0  0  0  0  0
   14.2045   -6.5870    3.6323 C   0  0  1  0  0  0  0  0  0  0  0  0
   13.8965   -8.0838    3.9883 C   0  0  0  0  0  0  0  0  0  0  0  0
   14.6277   -3.2252    5.3796 C   0  0  1  0  0  0  0  0  0  0  0  0
   15.5242   -2.0501    5.1263 C   0  0  1  0  0  0  0  0  0  0  0  0
    9.2801   -5.4418   -1.5688 C   0  0  1  0  0  0  0  0  0  0  0  0
   15.2769   -0.9834    6.2513 C   0  0  0  0  0  0  0  0  0  0  0  0
   15.5489   -1.4415    7.5835 C   0  0  0  0  0  0  0  0  0  0  0  0
   14.6745   -2.5567    7.8781 C   0  0  2  0  0  0  0  0  0  0  0  0
   14.9347   -3.1121    9.3337 C   0  0  0  0  0  0  0  0  0  0  0  0
    9.1384  -12.3010    6.7187 C   0  0  2  0  0  0  0  0  0  0  0  0
    9.8015  -11.3003    4.6909 C   0  0  0  0  0  0  0  0  0  0  0  0
    8.4804  -13.4360    6.2841 C   0  0  0  0  0  0  0  0  0  0  0  0
   10.2649  -12.1396    5.9810 C   0  0  1  0  0  0  0  0  0  0  0  0
    8.8872   -4.0988   -0.8008 C   0  0  0  0  0  0  0  0  0  0  0  0
    7.5197   -4.3586   -0.0042 C   0  0  0  0  0  0  0  0  0  0  0  0
    7.7655   -5.5664    1.0140 C   0  0  1  0  0  0  0  0  0  0  0  0
    6.5044   -5.9014    1.8194 C   0  0  0  0  0  0  0  0  0  0  0  0
   10.0152   -8.9976    3.7012 C   0  0  1  0  0  0  0  0  0  0  0  0
   10.5810   -9.6101    2.3117 C   0  0  0  0  0  0  0  0  0  0  0  0
   10.2477   -8.6343    1.1180 C   0  0  2  0  0  0  0  0  0  0  0  0
    9.3991  -12.4072    8.1366 F   0  0  0  0  0  0  0  0  0  0  0  0
   16.4249   -3.0101    9.7687 N   0  0  0  0  0  0  0  0  0  0  0  0
   10.5712   -5.3015   -2.3387 N   0  0  0  0  0  0  0  0  0  0  0  0
   16.8886   -2.3466    5.1906 N   0  0  0  0  0  0  0  0  0  0  0  0
    7.9894  -13.8028    5.0090 N   0  0  0  0  0  0  0  0  0  0  0  0
    5.3974   -6.1034    0.9680 N   0  0  0  0  0  0  0  0  0  0  0  0
   10.3235   -9.9361    4.7951 N   0  0  0  0  0  0  0  0  0  0  0  0
   10.7699   -9.1750   -0.1565 N   0  0  0  0  0  0  0  0  0  0  0  0
   10.5535   -6.4218    0.2838 O   0  0  0  0  0  0  0  0  0  0  0  0
   11.1155   -5.3102    2.8618 O   0  0  0  0  0  0  0  0  0  0  0  0
   10.3509   -7.0549    5.1008 O   0  0  0  0  0  0  0  0  0  0  0  0
   12.2071   -4.0328    5.4039 O   0  0  0  0  0  0  0  0  0  0  0  0
   13.3794   -5.9305    2.6556 O   0  0  0  0  0  0  0  0  0  0  0  0
   14.6950   -8.9066    3.1146 O   0  0  0  0  0  0  0  0  0  0  0  0
   14.7849   -4.2594    4.4827 O   0  0  0  0  0  0  0  0  0  0  0  0
   11.3017  -11.4193    6.6828 O   0  0  0  0  0  0  0  0  0  0  0  0
    9.1225  -11.7581    3.7572 O   0  0  0  0  0  0  0  0  0  0  0  0
   14.8538   -3.6502    6.8514 O   0  0  0  0  0  0  0  0  0  0  0  0
    8.1949   -6.8065    0.2473 O   0  0  0  0  0  0  0  0  0  0  0  0
  1 36  1  1  0  0  0
  2 36  1  6  0  0  0
  2  3  1  0  0  0  0
  3 37  1  1  0  0  0
  3  4  1  0  0  0  0
  4 38  1  1  0  0  0
  5 37  1  6  0  0  0
  5  6  1  0  0  0  0
  6  7  1  0  0  0  0
  6 39  1  1  0  0  0
  7 42  1  6  0  0  0
  8  9  1  1  0  0  0
  8  7  1  0  0  0  0
 10 42  1  6  0  0  0
 10 11  1  0  0  0  0
 11 31  1  1  0  0  0
 11 13  1  0  0  0  0
 12 30  1  1  0  0  0
 12  1  1  0  0  0  0
 14 13  1  0  0  0  0
 15 16  1  1  0  0  0
 15 14  1  0  0  0  0
 17 19  1  6  0  0  0
 17 28  1  0  0  0  0
 18 34  1  0  0  0  0
 19 32  1  0  0  0  0
 20 18  1  6  0  0  0
 20 17  1  0  0  0  0
 20 43  1  0  0  0  0
 21 12  1  0  0  0  0
 22 21  1  0  0  0  0
 22 23  1  0  0  0  0
 23 24  1  6  0  0  0
 23 46  1  0  0  0  0
 24 33  1  0  0  0  0
 25 34  1  1  0  0  0
 25  4  1  0  0  0  0
 26 25  1  0  0  0  0
 27 35  1  6  0  0  0
 27 26  1  0  0  0  0
 27  2  1  0  0  0  0
 29 16  1  0  0  0  0
 40  8  1  0  0  0  0
 40  5  1  0  0  0  0
 41  9  1  0  0  0  0
 44 18  2  0  0  0  0
 45 15  1  0  0  0  0
 45 10  1  0  0  0  0
 46  1  1  0  0  0  0
M  END
>  <CHROM.1>
174.22641824,-99.69654232,-78.78324400,-74.79315349,60.71079519,-152.77687928
173.35514904,-33.83591867,-57.22119457,108.10084324,87.21471174,52.17873436
-174.14621909,11.43499315,-6.80822549,3.80994621,2.82633690,0.84272386,2.44226553

>  <Name>
lig.pdb

>  <RI>
0

>  <Rbt.Current_Directory>
/home/afrankz/demos/rdock_decoys_rna/rnas/3wru

>  <Rbt.Executable>
rbdock ($Id: //depot/dev/client3/rdock/2013.1/src/exe/rbdock.cxx#4 $)

>  <Rbt.Library>
libRbt.so (2013.1, Build901 2013/11/27)

>  <Rbt.Parameter_File>
/export/apps/rDock/src/rDock_2013.1_src/data/scripts/dock_solv.prm

>  <Rbt.Receptor>
prm/blind_docking_20.prm

>  <SCORE>
8.13538

>  <SCORE.INTER>
-2.58134

>  <SCORE.INTER.CONST>
1

>  <SCORE.INTER.POLAR>
0

>  <SCORE.INTER.ROT>
13

>  <SCORE.INTER.SOLV>
43.6463

>  <SCORE.INTER.VDW>
-28.5363

>  <SCORE.INTER.norm>
-0.056116

>  <SCORE.INTRA>
5.38069

>  <SCORE.INTRA.DIHEDRAL>
-2.31721

>  <SCORE.INTRA.DIHEDRAL.0>
19.7146

>  <SCORE.INTRA.POLAR>
0

>  <SCORE.INTRA.POLAR.0>
0

>  <SCORE.INTRA.REPUL>
0

>  <SCORE.INTRA.REPUL.0>
0

>  <SCORE.INTRA.SOLV>
2.52618

>  <SCORE.INTRA.SOLV.lig_0>
-116.697

>  <SCORE.INTRA.VDW>
5.27621

>  <SCORE.INTRA.VDW.0>
-7.06424

>  <SCORE.INTRA.norm>
0.116972

>  <SCORE.RESTR>
5.33603

>  <SCORE.RESTR.CAVITY>
5.33603

>  <SCORE.RESTR.norm>
0.116001

>  <SCORE.SYSTEM>
0

>  <SCORE.SYSTEM.CONST>
0

>  <SCORE.SYSTEM.DIHEDRAL>
0

>  <SCORE.SYSTEM.SOLV>
0

>  <SCORE.SYSTEM.norm>
0

>  <SCORE.heavy>
46

>  <SCORE.norm>
0.176856

>  <RMSD>
11.207

$$$$
lig.pdb
 OpenBabel03061811583D
libRbt.so/2013.1/901 2013/11/27
 46 49  0  0  0  0  0  0  0  0999 V2000
    7.3194  -14.0932   10.9138 C   0  0  1  0  0  0  0  0  0  0  0  0
    6.2481  -16.3491   10.5005 C   0  0  1  0  0  0  0  0  0  0  0  0
    6.9734  -16.5970    9.1432 C   0  0  1  0  0  0  0  0  0  0  0  0
    6.1326  -17.6806    8.2937 C   0  0  2  0  0  0  0  0  0  0  0  0
    7.7381  -14.9362    7.3839 C   0  0  2  0  0  0  0  0  0  0  0  0
    7.1676  -13.6950    6.6406 C   0  0  1  0  0  0  0  0  0  0  0  0
    8.4507  -13.2318    5.9942 C   0  0  1  0  0  0  0  0  0  0  0  0
    9.5163  -13.2998    7.1339 C   0  0  1  0  0  0  0  0  0  0  0  0
    9.5700  -12.0866    8.1274 C   0  0  0  0  0  0  0  0  0  0  0  0
    9.7500  -13.7281    3.9572 C   0  0  1  0  0  0  0  0  0  0  0  0
   10.1535  -14.7496    2.9361 C   0  0  1  0  0  0  0  0  0  0  0  0
    8.1581  -13.3979   12.0122 C   0  0  1  0  0  0  0  0  0  0  0  0
   11.2755  -14.1308    2.0292 C   0  0  0  0  0  0  0  0  0  0  0  0
   12.4661  -13.7409    2.7285 C   0  0  0  0  0  0  0  0  0  0  0  0
   12.1212  -12.7265    3.7017 C   0  0  2  0  0  0  0  0  0  0  0  0
   13.3948  -12.2624    4.5125 C   0  0  0  0  0  0  0  0  0  0  0  0
    5.4834  -23.6014    7.5351 C   0  0  2  0  0  0  0  0  0  0  0  0
    5.8552  -21.4488    8.4188 C   0  0  0  0  0  0  0  0  0  0  0  0
    4.5964  -24.5297    7.0237 C   0  0  0  0  0  0  0  0  0  0  0  0
    4.8867  -22.3836    7.5404 C   0  0  1  0  0  0  0  0  0  0  0  0
    7.2945  -13.1710   13.3353 C   0  0  0  0  0  0  0  0  0  0  0  0
    6.0121  -12.2876   12.9515 C   0  0  0  0  0  0  0  0  0  0  0  0
    5.1832  -13.0814   11.8386 C   0  0  1  0  0  0  0  0  0  0  0  0
    3.9361  -12.3079   11.3938 C   0  0  0  0  0  0  0  0  0  0  0  0
    6.1181  -19.0449    9.1117 C   0  0  1  0  0  0  0  0  0  0  0  0
    5.3343  -18.7319   10.4951 C   0  0  0  0  0  0  0  0  0  0  0  0
    6.1251  -17.6518   11.3293 C   0  0  2  0  0  0  0  0  0  0  0  0
    6.7081  -23.6299    6.7676 F   0  0  0  0  0  0  0  0  0  0  0  0
   13.0989  -11.0965    5.4992 N   0  0  0  0  0  0  0  0  0  0  0  0
    9.3852  -14.2389   12.2696 N   0  0  0  0  0  0  0  0  0  0  0  0
   10.7131  -15.9102    3.4777 N   0  0  0  0  0  0  0  0  0  0  0  0
    3.3146  -24.9390    7.4606 N   0  0  0  0  0  0  0  0  0  0  0  0
    3.0598  -12.0914   12.4784 N   0  0  0  0  0  0  0  0  0  0  0  0
    5.3687  -20.0687    8.3615 N   0  0  0  0  0  0  0  0  0  0  0  0
    5.4140  -17.3464   12.5905 N   0  0  0  0  0  0  0  0  0  0  0  0
    6.9829  -15.4275   11.2955 O   0  0  0  0  0  0  0  0  0  0  0  0
    7.0322  -15.2739    8.4368 O   0  0  0  0  0  0  0  0  0  0  0  0
    6.7927  -17.8821    7.1022 O   0  0  0  0  0  0  0  0  0  0  0  0
    6.1988  -14.1333    5.7369 O   0  0  0  0  0  0  0  0  0  0  0  0
    9.1440  -14.5900    7.6463 O   0  0  0  0  0  0  0  0  0  0  0  0
   10.7261  -12.2705    8.9686 O   0  0  0  0  0  0  0  0  0  0  0  0
    8.7989  -14.1687    4.8517 O   0  0  0  0  0  0  0  0  0  0  0  0
    4.7369  -21.8219    6.2182 O   0  0  0  0  0  0  0  0  0  0  0  0
    6.8446  -21.8537    9.0511 O   0  0  0  0  0  0  0  0  0  0  0  0
   11.0519  -13.2386    4.6377 O   0  0  0  0  0  0  0  0  0  0  0  0
    6.0603  -13.3280   10.6220 O   0  0  0  0  0  0  0  0  0  0  0  0
  1 36  1  1  0  0  0
  2 36  1  1  0  0  0
  2  3  1  0  0  0  0
  3 37  1  6  0  0  0
  3  4  1  0  0  0  0
  4 38  1  6  0  0  0
  5 37  1  1  0  0  0
  5  6  1  0  0  0  0
  6  7  1  0  0  0  0
  6 39  1  6  0  0  0
  7 42  1  6  0  0  0
  8  9  1  1  0  0  0
  8  7  1  0  0  0  0
 10 42  1  1  0  0  0
 10 11  1  0  0  0  0
 11 31  1  1  0  0  0
 11 13  1  0  0  0  0
 12 30  1  1  0  0  0
 12  1  1  0  0  0  0
 14 13  1  0  0  0  0
 15 16  1  1  0  0  0
 15 14  1  0  0  0  0
 17 19  1  6  0  0  0
 17 28  1  0  0  0  0
 18 34  1  0  0  0  0
 19 32  1  0  0  0  0
 20 18  1  1  0  0  0
 20 17  1  0  0  0  0
 20 43  1  0  0  0  0
 21 12  1  0  0  0  0
 22 21  1  0  0  0  0
 22 23  1  0  0  0  0
 23 24  1  6  0  0  0
 23 46  1  0  0  0  0
 24 33  1  0  0  0  0
 25 34  1  6  0  0  0
 25  4  1  0  0  0  0
 26 25  1  0  0  0  0
 27 35  1  1  0  0  0
 27 26  1  0  0  0  0
 27  2  1  0  0  0  0
 29 16  1  0  0  0  0
 40  8  1  0  0  0  0
 40  5  1  0  0  0  0
 41  9  1  0  0  0  0
 44 18  2  0  0  0  0
 45 15  1  0  0  0  0
 45 10  1  0  0  0  0
 46  1  1  0  0  0  0
M  END
>  <CHROM.1>
-178.38547340,58.82052702,167.10792308,158.76418825,165.05853459,-172.30675269
174.01383745,175.70246942,-60.16171901,173.85500054,168.54033523,-60.72273911
143.30015579,7.58408468,-16.08625189,8.03154890,0.61820401,0.92420863,0.58677442

>  <Name>
lig.pdb

>  <RI>
0

>  <Rbt.Current_Directory>
/home/afrankz/demos/rdock_decoys_rna/rnas/3wru

>  <Rbt.Executable>
rbdock ($Id: //depot/dev/client3/rdock/2013.1/src/exe/rbdock.cxx#4 $)

>  <Rbt.Library>
libRbt.so (2013.1, Build901 2013/11/27)

>  <Rbt.Parameter_File>
/export/apps/rDock/src/rDock_2013.1_src/data/scripts/dock_solv.prm

>  <Rbt.Receptor>
prm/pocket_docking_8.prm

>  <SCORE>
-3.03389

>  <SCORE.INTER>
3.42318

>  <SCORE.INTER.CONST>
1

>  <SCORE.INTER.POLAR>
0

>  <SCORE.INTER.ROT>
13

>  <SCORE.INTER.SOLV>
16.8557

>  <SCORE.INTER.VDW>
-15.6031

>  <SCORE.INTER.norm>
0.0744169

>  <SCORE.INTRA>
-6.45706

>  <SCORE.INTRA.DIHEDRAL>
-13.1097

>  <SCORE.INTRA.DIHEDRAL.0>
19.7146

>  <SCORE.INTRA.POLAR>
0

>  <SCORE.INTRA.POLAR.0>
0

>  <SCORE.INTRA.REPUL>
0

>  <SCORE.INTRA.REPUL.0>
0

>  <SCORE.INTRA.SOLV>
-3.45108

>  <SCORE.INTRA.SOLV.lig_0>
-116.697

>  <SCORE.INTRA.VDW>
1.8233

>  <SCORE.INTRA.VDW.0>
-7.06424

>  <SCORE.INTRA.norm>
-0.140371

>  <SCORE.RESTR>
0

>  <SCORE.RESTR.CAVITY>
0

>  <SCORE.RESTR.norm>
0

>  <SCORE.SYSTEM>
0

>  <SCORE.SYSTEM.CONST>
0

>  <SCORE.SYSTEM.DIHEDRAL>
0

>  <SCORE.SYSTEM.SOLV>
0

>  <SCORE.SYSTEM.norm>
0

>  <SCORE.heavy>
46

>  <SCORE.norm>
-0.0659541

>  <RMSD>
11.229

$$$$
lig.pdb
 OpenBabel03061811583D
libRbt.so/2013.1/901 2013/11/27
 46 49  0  0  0  0  0  0  0  0999 V2000
   10.6666  -21.3347    8.2934 C   0  0  1  0  0  0  0  0  0  0  0  0
    9.3780  -19.6646    9.6928 C   0  0  1  0  0  0  0  0  0  0  0  0
   10.3991  -18.4868    9.6997 C   0  0  1  0  0  0  0  0  0  0  0  0
   10.1327  -17.5743   11.0033 C   0  0  2  0  0  0  0  0  0  0  0  0
   12.9338  -18.5179    9.5888 C   0  0  2  0  0  0  0  0  0  0  0  0
   14.1235  -19.5193    9.6116 C   0  0  1  0  0  0  0  0  0  0  0  0
   15.1064  -18.6925    8.8184 C   0  0  1  0  0  0  0  0  0  0  0  0
   14.2851  -18.1583    7.6021 C   0  0  1  0  0  0  0  0  0  0  0  0
   14.1089  -19.1311    6.3838 C   0  0  0  0  0  0  0  0  0  0  0  0
   16.6684  -16.8198    9.1887 C   0  0  1  0  0  0  0  0  0  0  0  0
   16.9914  -15.5917    9.9864 C   0  0  1  0  0  0  0  0  0  0  0  0
   10.5378  -22.0306    6.9178 C   0  0  1  0  0  0  0  0  0  0  0  0
   18.1636  -14.8289    9.2734 C   0  0  0  0  0  0  0  0  0  0  0  0
   17.8742  -14.3984    7.9357 C   0  0  0  0  0  0  0  0  0  0  0  0
   17.5912  -15.5633    7.1245 C   0  0  2  0  0  0  0  0  0  0  0  0
   17.2549  -15.1506    5.6374 C   0  0  0  0  0  0  0  0  0  0  0  0
    6.7788  -15.5440   14.5291 C   0  0  2  0  0  0  0  0  0  0  0  0
    8.4648  -16.7279   13.3851 C   0  0  0  0  0  0  0  0  0  0  0  0
    6.2983  -16.5419   15.3557 C   0  0  0  0  0  0  0  0  0  0  0  0
    8.1327  -15.6167   14.4978 C   0  0  1  0  0  0  0  0  0  0  0  0
    9.3027  -23.0415    6.9003 C   0  0  0  0  0  0  0  0  0  0  0  0
    9.5210  -24.1200    8.0672 C   0  0  0  0  0  0  0  0  0  0  0  0
    9.6142  -23.3312    9.4547 C   0  0  1  0  0  0  0  0  0  0  0  0
    9.8366  -24.2803   10.6384 C   0  0  0  0  0  0  0  0  0  0  0  0
    8.6667  -16.9672   10.8891 C   0  0  1  0  0  0  0  0  0  0  0  0
    7.6532  -18.2314   10.9108 C   0  0  0  0  0  0  0  0  0  0  0  0
    7.9162  -19.1538    9.6586 C   0  0  2  0  0  0  0  0  0  0  0  0
    6.2897  -14.2623   14.9848 F   0  0  0  0  0  0  0  0  0  0  0  0
   17.0134  -16.3719    4.7046 N   0  0  0  0  0  0  0  0  0  0  0  0
   10.4140  -20.9609    5.8596 N   0  0  0  0  0  0  0  0  0  0  0  0
   15.9442  -14.6696   10.0669 N   0  0  0  0  0  0  0  0  0  0  0  0
    4.9783  -16.9420   15.6702 N   0  0  0  0  0  0  0  0  0  0  0  0
   11.0349  -25.0096   10.4858 N   0  0  0  0  0  0  0  0  0  0  0  0
    8.3876  -16.1137   12.0579 N   0  0  0  0  0  0  0  0  0  0  0  0
    7.0057  -20.3201    9.6718 N   0  0  0  0  0  0  0  0  0  0  0  0
    9.5562  -20.4698    8.5346 O   0  0  0  0  0  0  0  0  0  0  0  0
   11.7679  -19.1019    9.7326 O   0  0  0  0  0  0  0  0  0  0  0  0
   11.0450  -16.5430   10.9861 O   0  0  0  0  0  0  0  0  0  0  0  0
   14.4945  -19.7279   10.9405 O   0  0  0  0  0  0  0  0  0  0  0  0
   13.1161  -17.7630    8.3390 O   0  0  0  0  0  0  0  0  0  0  0  0
   13.4014  -18.4092    5.3560 O   0  0  0  0  0  0  0  0  0  0  0  0
   15.6156  -17.5562    9.6867 O   0  0  0  0  0  0  0  0  0  0  0  0
    8.7576  -14.3654   14.1370 O   0  0  0  0  0  0  0  0  0  0  0  0
    8.7543  -17.9101   13.6321 O   0  0  0  0  0  0  0  0  0  0  0  0
   16.4566  -16.3589    7.7256 O   0  0  0  0  0  0  0  0  0  0  0  0
   10.7644  -22.3388    9.4061 O   0  0  0  0  0  0  0  0  0  0  0  0
  1 36  1  1  0  0  0
  2 36  1  6  0  0  0
  2  3  1  0  0  0  0
  3 37  1  1  0  0  0
  3  4  1  0  0  0  0
  4 38  1  6  0  0  0
  5 37  1  6  0  0  0
  5  6  1  0  0  0  0
  6  7  1  0  0  0  0
  6 39  1  1  0  0  0
  7 42  1  1  0  0  0
  8  9  1  6  0  0  0
  8  7  1  0  0  0  0
 10 42  1  1  0  0  0
 10 11  1  0  0  0  0
 11 31  1  6  0  0  0
 11 13  1  0  0  0  0
 12 30  1  6  0  0  0
 12  1  1  0  0  0  0
 14 13  1  0  0  0  0
 15 16  1  6  0  0  0
 15 14  1  0  0  0  0
 17 19  1  1  0  0  0
 17 28  1  0  0  0  0
 18 34  1  0  0  0  0
 19 32  1  0  0  0  0
 20 18  1  6  0  0  0
 20 17  1  0  0  0  0
 20 43  1  0  0  0  0
 21 12  1  0  0  0  0
 22 21  1  0  0  0  0
 22 23  1  0  0  0  0
 23 24  1  1  0  0  0
 23 46  1  0  0  0  0
 24 33  1  0  0  0  0
 25 34  1  1  0  0  0
 25  4  1  0  0  0  0
 26 25  1  0  0  0  0
 27 35  1  1  0  0  0
 27 26  1  0  0  0  0
 27  2  1  0  0  0  0
 29 16  1  0  0  0  0
 40  8  1  0  0  0  0
 40  5  1  0  0  0  0
 41  9  1  0  0  0  0
 44 18  2  0  0  0  0
 45 15  1  0  0  0  0
 45 10  1  0  0  0  0
 46  1  1  0  0  0  0
M  END
>  <CHROM.1>
-178.83003988,70.67804868,171.01664574,-176.90985968,170.66743543,-176.41619610
171.23144001,177.07321280,-176.14981164,81.24822346,83.92105507,59.95145097
-58.79340517,11.57512684,-18.32134563,9.87830838,2.93523345,0.52146304,0.56271971

>  <Name>
lig.pdb

>  <RI>
0

>  <Rbt.Current_Directory>
/home/afrankz/demos/rdock_decoys_rna/rnas/3wru

>  <Rbt.Executable>
rbdock ($Id: //depot/dev/client3/rdock/2013.1/src/exe/rbdock.cxx#4 $)

>  <Rbt.Library>
libRbt.so (2013.1, Build901 2013/11/27)

>  <Rbt.Parameter_File>
/export/apps/rDock/src/rDock_2013.1_src/data/scripts/dock_solv.prm

>  <Rbt.Receptor>
prm/pocket_docking_7.prm

>  <SCORE>
-2.78416

>  <SCORE.INTER>
3.61832

>  <SCORE.INTER.CONST>
1

>  <SCORE.INTER.POLAR>
0

>  <SCORE.INTER.ROT>
13

>  <SCORE.INTER.SOLV>
14.7478

>  <SCORE.INTER.VDW>
-14.7704

>  <SCORE.INTER.norm>
0.0786591

>  <SCORE.INTRA>
-6.40248

>  <SCORE.INTRA.DIHEDRAL>
-14.7266

>  <SCORE.INTRA.DIHEDRAL.0>
19.7146

>  <SCORE.INTRA.POLAR>
0

>  <SCORE.INTRA.POLAR.0>
0

>  <SCORE.INTRA.REPUL>
0

>  <SCORE.INTRA.REPUL.0>
0

>  <SCORE.INTRA.SOLV>
-1.31112

>  <SCORE.INTRA.SOLV.lig_0>
-116.697

>  <SCORE.INTRA.VDW>
1.61639

>  <SCORE.INTRA.VDW.0>
-7.06424

>  <SCORE.INTRA.norm>
-0.139184

>  <SCORE.RESTR>
0

>  <SCORE.RESTR.CAVITY>
0

>  <SCORE.RESTR.norm>
0

>  <SCORE.SYSTEM>
0

>  <SCORE.SYSTEM.CONST>
0

>  <SCORE.SYSTEM.DIHEDRAL>
0

>  <SCORE.SYSTEM.SOLV>
0

>  <SCORE.SYSTEM.norm>
0

>  <SCORE.heavy>
46

>  <SCORE.norm>
-0.0605253

>  <RMSD>
11.231

$$$$
lig.pdb
 OpenBabel03061811583D
libRbt.so/2013.1/901 2013/11/27
 46 49  0  0  0  0  0  0  0  0999 V2000
    9.2690  -14.7222   13.5274 C   0  0  1  0  0  0  0  0  0  0  0  0
    7.4354  -15.8423   12.1890 C   0  0  1  0  0  0  0  0  0  0  0  0
    7.4410  -17.2377   12.8836 C   0  0  1  0  0  0  0  0  0  0  0  0
    6.8431  -18.3316   11.8594 C   0  0  2  0  0  0  0  0  0  0  0  0
    9.8373  -17.9513   12.4518 C   0  0  2  0  0  0  0  0  0  0  0  0
   10.1567  -16.9535   11.3024 C   0  0  1  0  0  0  0  0  0  0  0  0
   11.5905  -17.3619   11.0650 C   0  0  1  0  0  0  0  0  0  0  0  0
   12.2165  -17.4611   12.4924 C   0  0  1  0  0  0  0  0  0  0  0  0
   12.6992  -16.1204   13.1492 C   0  0  0  0  0  0  0  0  0  0  0  0
   12.6603  -18.9236    9.4837 C   0  0  1  0  0  0  0  0  0  0  0  0
   13.9955  -19.0671   10.1513 C   0  0  1  0  0  0  0  0  0  0  0  0
    9.4136  -13.5603   14.5385 C   0  0  1  0  0  0  0  0  0  0  0  0
   15.0896  -19.2547    9.0412 C   0  0  0  0  0  0  0  0  0  0  0  0
   15.1971  -18.1653    8.1137 C   0  0  0  0  0  0  0  0  0  0  0  0
   13.9340  -18.0185    7.4222 C   0  0  2  0  0  0  0  0  0  0  0  0
   13.9881  -16.8241    6.3901 C   0  0  0  0  0  0  0  0  0  0  0  0
    2.1494  -21.3318   10.4044 C   0  0  2  0  0  0  0  0  0  0  0  0
    3.9151  -19.9815   11.1869 C   0  0  0  0  0  0  0  0  0  0  0  0
    1.2181  -20.3881   10.0143 C   0  0  0  0  0  0  0  0  0  0  0  0
    3.3788  -20.9251   10.0014 C   0  0  1  0  0  0  0  0  0  0  0  0
    9.1575  -12.1516   13.8331 C   0  0  0  0  0  0  0  0  0  0  0  0
   10.2067  -11.9952   12.6302 C   0  0  0  0  0  0  0  0  0  0  0  0
    9.9770  -13.2097   11.6162 C   0  0  1  0  0  0  0  0  0  0  0  0
   10.9473  -13.1559   10.4300 C   0  0  0  0  0  0  0  0  0  0  0  0
    5.3358  -17.9359   11.5397 C   0  0  1  0  0  0  0  0  0  0  0  0
    5.3959  -16.4950   10.8007 C   0  0  0  0  0  0  0  0  0  0  0  0
    6.0052  -15.4150   11.7756 C   0  0  2  0  0  0  0  0  0  0  0  0
    1.7777  -22.6246    9.8752 F   0  0  0  0  0  0  0  0  0  0  0  0
   14.3099  -15.4556    7.0564 N   0  0  0  0  0  0  0  0  0  0  0  0
    8.4570  -13.8086   15.6799 N   0  0  0  0  0  0  0  0  0  0  0  0
   14.3953  -17.9429   10.8792 N   0  0  0  0  0  0  0  0  0  0  0  0
   -0.1710  -20.2858   10.2623 N   0  0  0  0  0  0  0  0  0  0  0  0
   10.7425  -11.9917    9.6594 N   0  0  0  0  0  0  0  0  0  0  0  0
    4.7468  -18.9207   10.6147 N   0  0  0  0  0  0  0  0  0  0  0  0
    6.0780  -14.0957   11.1095 N   0  0  0  0  0  0  0  0  0  0  0  0
    7.9192  -14.8432   13.0773 O   0  0  0  0  0  0  0  0  0  0  0  0
    8.8686  -17.5397   13.2350 O   0  0  0  0  0  0  0  0  0  0  0  0
    6.8582  -19.5528   12.4954 O   0  0  0  0  0  0  0  0  0  0  0  0
    9.3007  -17.2273   10.2348 O   0  0  0  0  0  0  0  0  0  0  0  0
   11.1338  -18.1767   13.1101 O   0  0  0  0  0  0  0  0  0  0  0  0
   13.6664  -15.5292   12.2587 O   0  0  0  0  0  0  0  0  0  0  0  0
   11.6147  -18.7027   10.3536 O   0  0  0  0  0  0  0  0  0  0  0  0
    4.2980  -22.0205    9.7983 O   0  0  0  0  0  0  0  0  0  0  0  0
    3.6433  -20.1346   12.3891 O   0  0  0  0  0  0  0  0  0  0  0  0
   12.8129  -17.8146    8.4139 O   0  0  0  0  0  0  0  0  0  0  0  0
   10.1719  -14.5304   12.3426 O   0  0  0  0  0  0  0  0  0  0  0  0
  1 36  1  6  0  0  0
  2 36  1  1  0  0  0
  2  3  1  0  0  0  0
  3 37  1  6  0  0  0
  3  4  1  0  0  0  0
  4 38  1  1  0  0  0
  5 37  1  1  0  0  0
  5  6  1  0  0  0  0
  6  7  1  0  0  0  0
  6 39  1  6  0  0  0
  7 42  1  1  0  0  0
  8  9  1  1  0  0  0
  8  7  1  0  0  0  0
 10 42  1  1  0  0  0
 10 11  1  0  0  0  0
 11 31  1  6  0  0  0
 11 13  1  0  0  0  0
 12 30  1  1  0  0  0
 12  1  1  0  0  0  0
 14 13  1  0  0  0  0
 15 16  1  6  0  0  0
 15 14  1  0  0  0  0
 17 19  1  6  0  0  0
 17 28  1  0  0  0  0
 18 34  1  0  0  0  0
 19 32  1  0  0  0  0
 20 18  1  1  0  0  0
 20 17  1  0  0  0  0
 20 43  1  0  0  0  0
 21 12  1  0  0  0  0
 22 21  1  0  0  0  0
 22 23  1  0  0  0  0
 23 24  1  6  0  0  0
 23 46  1  0  0  0  0
 24 33  1  0  0  0  0
 25 34  1  6  0  0  0
 25  4  1  0  0  0  0
 26 25  1  0  0  0  0
 27 35  1  6  0  0  0
 27 26  1  0  0  0  0
 27  2  1  0  0  0  0
 29 16  1  0  0  0  0
 40  8  1  0  0  0  0
 40  5  1  0  0  0  0
 41  9  1  0  0  0  0
 44 18  2  0  0  0  0
 45 15  1  0  0  0  0
 45 10  1  0  0  0  0
 46  1  1  0  0  0  0
M  END
>  <CHROM.1>
-177.25406311,69.31507170,-77.42476199,60.65238120,148.04193261,-57.58712374
68.83403184,-59.42136609,-175.08768123,-146.76500740,86.78143143,-62.95504232
98.40307033,8.88251661,-17.22461371,11.15272623,0.29626021,0.24848039,0.55228911

>  <Name>
lig.pdb

>  <RI>
0

>  <Rbt.Current_Directory>
/home/afrankz/demos/rdock_decoys_rna/rnas/3wru

>  <Rbt.Executable>
rbdock ($Id: //depot/dev/client3/rdock/2013.1/src/exe/rbdock.cxx#4 $)

>  <Rbt.Library>
libRbt.so (2013.1, Build901 2013/11/27)

>  <Rbt.Parameter_File>
/export/apps/rDock/src/rDock_2013.1_src/data/scripts/dock_solv.prm

>  <Rbt.Receptor>
prm/pocket_docking_8.prm

>  <SCORE>
-2.1225

>  <SCORE.INTER>
0.0621316

>  <SCORE.INTER.CONST>
1

>  <SCORE.INTER.POLAR>
0

>  <SCORE.INTER.ROT>
13

>  <SCORE.INTER.SOLV>
21.0106

>  <SCORE.INTER.VDW>
-19.2288

>  <SCORE.INTER.norm>
0.00135069

>  <SCORE.INTRA>
-2.18463

>  <SCORE.INTRA.DIHEDRAL>
-8.70124

>  <SCORE.INTRA.DIHEDRAL.0>
19.7146

>  <SCORE.INTRA.POLAR>
0

>  <SCORE.INTRA.POLAR.0>
0

>  <SCORE.INTRA.REPUL>
0

>  <SCORE.INTRA.REPUL.0>
0

>  <SCORE.INTRA.SOLV>
2.48304

>  <SCORE.INTRA.SOLV.lig_0>
-116.697

>  <SCORE.INTRA.VDW>
0.924467

>  <SCORE.INTRA.VDW.0>
-7.06424

>  <SCORE.INTRA.norm>
-0.0474921

>  <SCORE.RESTR>
0

>  <SCORE.RESTR.CAVITY>
0

>  <SCORE.RESTR.norm>
0

>  <SCORE.SYSTEM>
0

>  <SCORE.SYSTEM.CONST>
0

>  <SCORE.SYSTEM.DIHEDRAL>
0

>  <SCORE.SYSTEM.SOLV>
0

>  <SCORE.SYSTEM.norm>
0

>  <SCORE.heavy>
46

>  <SCORE.norm>
-0.0461414

>  <RMSD>
11.371

$$$$
lig.pdb
 OpenBabel03061811583D
libRbt.so/2013.1/901 2013/11/27
 46 49  0  0  0  0  0  0  0  0999 V2000
    9.0160  -21.8234    5.3218 C   0  0  1  0  0  0  0  0  0  0  0  0
    8.4210  -20.6671    7.4936 C   0  0  1  0  0  0  0  0  0  0  0  0
    7.5755  -19.4817    6.9370 C   0  0  1  0  0  0  0  0  0  0  0  0
    6.5049  -19.0343    8.0579 C   0  0  2  0  0  0  0  0  0  0  0  0
    9.3679  -17.7558    7.4337 C   0  0  2  0  0  0  0  0  0  0  0  0
   10.0688  -16.5360    6.7708 C   0  0  1  0  0  0  0  0  0  0  0  0
   10.3652  -15.7572    8.0296 C   0  0  1  0  0  0  0  0  0  0  0  0
    9.0379  -15.8104    8.8510 C   0  0  1  0  0  0  0  0  0  0  0  0
    7.9233  -14.7760    8.4645 C   0  0  0  0  0  0  0  0  0  0  0  0
   11.4348  -16.4255   10.1492 C   0  0  1  0  0  0  0  0  0  0  0  0
   12.7552  -16.6194   10.8333 C   0  0  1  0  0  0  0  0  0  0  0  0
   10.2839  -22.1497    4.4976 C   0  0  1  0  0  0  0  0  0  0  0  0
   12.5126  -16.6516   12.3839 C   0  0  0  0  0  0  0  0  0  0  0  0
   11.6462  -17.7027   12.8346 C   0  0  0  0  0  0  0  0  0  0  0  0
   10.3470  -17.5279   12.2210 C   0  0  2  0  0  0  0  0  0  0  0  0
    9.3486  -18.6651   12.6738 C   0  0  0  0  0  0  0  0  0  0  0  0
    1.2195  -20.8284   10.5030 C   0  0  2  0  0  0  0  0  0  0  0  0
    3.3156  -20.7093    9.4330 C   0  0  0  0  0  0  0  0  0  0  0  0
    1.3148  -21.9540   11.2992 C   0  0  0  0  0  0  0  0  0  0  0  0
    2.3757  -20.1260   10.5989 C   0  0  1  0  0  0  0  0  0  0  0  0
   10.9586  -20.8181    3.9326 C   0  0  0  0  0  0  0  0  0  0  0  0
    9.8754  -20.0499    3.0332 C   0  0  0  0  0  0  0  0  0  0  0  0
    8.6128  -19.7215    3.9573 C   0  0  1  0  0  0  0  0  0  0  0  0
    7.5093  -18.9932    3.1806 C   0  0  0  0  0  0  0  0  0  0  0  0
    5.5307  -20.2627    8.3276 C   0  0  1  0  0  0  0  0  0  0  0  0
    6.4581  -21.4500    8.9244 C   0  0  0  0  0  0  0  0  0  0  0  0
    7.5325  -21.8835    7.8540 C   0  0  2  0  0  0  0  0  0  0  0  0
    0.0561  -20.0616   10.8882 F   0  0  0  0  0  0  0  0  0  0  0  0
    8.8531  -18.4950   14.1386 N   0  0  0  0  0  0  0  0  0  0  0  0
   11.2256  -22.9376    5.3760 N   0  0  0  0  0  0  0  0  0  0  0  0
   13.3838  -17.8307   10.5314 N   0  0  0  0  0  0  0  0  0  0  0  0
    2.2030  -23.0545   11.2616 N   0  0  0  0  0  0  0  0  0  0  0  0
    6.4114  -18.6975    4.0161 N   0  0  0  0  0  0  0  0  0  0  0  0
    4.5257  -19.8899    9.3394 N   0  0  0  0  0  0  0  0  0  0  0  0
    8.3955  -22.9593    8.3901 N   0  0  0  0  0  0  0  0  0  0  0  0
    9.3508  -21.1161    6.5163 O   0  0  0  0  0  0  0  0  0  0  0  0
    8.5383  -18.3729    6.6262 O   0  0  0  0  0  0  0  0  0  0  0  0
    5.7718  -17.9885    7.5430 O   0  0  0  0  0  0  0  0  0  0  0  0
   11.2046  -16.9941    6.1020 O   0  0  0  0  0  0  0  0  0  0  0  0
    8.7701  -17.2099    8.6624 O   0  0  0  0  0  0  0  0  0  0  0  0
    8.4607  -13.4584    8.6954 O   0  0  0  0  0  0  0  0  0  0  0  0
   11.5057  -16.4284    8.7731 O   0  0  0  0  0  0  0  0  0  0  0  0
    2.1916  -18.7059   10.4102 O   0  0  0  0  0  0  0  0  0  0  0  0
    3.0482  -21.7068    8.7430 O   0  0  0  0  0  0  0  0  0  0  0  0
   10.4760  -17.5011   10.7162 O   0  0  0  0  0  0  0  0  0  0  0  0
    8.0387  -21.0109    4.5213 O   0  0  0  0  0  0  0  0  0  0  0  0
  1 36  1  1  0  0  0
  2 36  1  6  0  0  0
  2  3  1  0  0  0  0
  3 37  1  1  0  0  0
  3  4  1  0  0  0  0
  4 38  1  6  0  0  0
  5 37  1  6  0  0  0
  5  6  1  0  0  0  0
  6  7  1  0  0  0  0
  6 39  1  1  0  0  0
  7 42  1  1  0  0  0
  8  9  1  6  0  0  0
  8  7  1  0  0  0  0
 10 42  1  6  0  0  0
 10 11  1  0  0  0  0
 11 31  1  6  0  0  0
 11 13  1  0  0  0  0
 12 30  1  1  0  0  0
 12  1  1  0  0  0  0
 14 13  1  0  0  0  0
 15 16  1  6  0  0  0
 15 14  1  0  0  0  0
 17 19  1  1  0  0  0
 17 28  1  0  0  0  0
 18 34  1  0  0  0  0
 19 32  1  0  0  0  0
 20 18  1  6  0  0  0
 20 17  1  0  0  0  0
 20 43  1  0  0  0  0
 21 12  1  0  0  0  0
 22 21  1  0  0  0  0
 22 23  1  0  0  0  0
 23 24  1  6  0  0  0
 23 46  1  0  0  0  0
 24 33  1  0  0  0  0
 25 34  1  1  0  0  0
 25  4  1  0  0  0  0
 26 25  1  0  0  0  0
 27 35  1  1  0  0  0
 27 26  1  0  0  0  0
 27  2  1  0  0  0  0
 29 16  1  0  0  0  0
 40  8  1  0  0  0  0
 40  5  1  0  0  0  0
 41  9  1  0  0  0  0
 44 18  2  0  0  0  0
 45 15  1  0  0  0  0
 45 10  1  0  0  0  0
 46  1  1  0  0  0  0
M  END
>  <CHROM.1>
179.99174771,-70.81839713,-58.96668956,-172.55379646,-143.27189628,-62.10116750
-158.45942915,73.69917622,-61.04309610,172.50177194,89.90211020,-179.27302837
161.85125072,7.85323980,-19.07652086,8.38313463,-0.00058687,-0.40873257,-2.01925124

>  <Name>
lig.pdb

>  <RI>
0

>  <Rbt.Current_Directory>
/home/afrankz/demos/rdock_decoys_rna/rnas/3wru

>  <Rbt.Executable>
rbdock ($Id: //depot/dev/client3/rdock/2013.1/src/exe/rbdock.cxx#4 $)

>  <Rbt.Library>
libRbt.so (2013.1, Build901 2013/11/27)

>  <Rbt.Parameter_File>
/export/apps/rDock/src/rDock_2013.1_src/data/scripts/dock_solv.prm

>  <Rbt.Receptor>
prm/pocket_docking_8.prm

>  <SCORE>
7.96377

>  <SCORE.INTER>
8.90478

>  <SCORE.INTER.CONST>
1

>  <SCORE.INTER.POLAR>
0

>  <SCORE.INTER.ROT>
13

>  <SCORE.INTER.SOLV>
19.4208

>  <SCORE.INTER.VDW>
-12.8037

>  <SCORE.INTER.norm>
0.193582

>  <SCORE.INTRA>
-0.941012

>  <SCORE.INTRA.DIHEDRAL>
-7.76417

>  <SCORE.INTRA.DIHEDRAL.0>
19.7146

>  <SCORE.INTRA.POLAR>
0

>  <SCORE.INTRA.POLAR.0>
0

>  <SCORE.INTRA.REPUL>
0

>  <SCORE.INTRA.REPUL.0>
0

>  <SCORE.INTRA.SOLV>
1.6046

>  <SCORE.INTRA.SOLV.lig_0>
-116.697

>  <SCORE.INTRA.VDW>
2.13877

>  <SCORE.INTRA.VDW.0>
-7.06424

>  <SCORE.INTRA.norm>
-0.0204568

>  <SCORE.RESTR>
0

>  <SCORE.RESTR.CAVITY>
0

>  <SCORE.RESTR.norm>
0

>  <SCORE.SYSTEM>
0

>  <SCORE.SYSTEM.CONST>
0

>  <SCORE.SYSTEM.DIHEDRAL>
0

>  <SCORE.SYSTEM.SOLV>
0

>  <SCORE.SYSTEM.norm>
0

>  <SCORE.heavy>
46

>  <SCORE.norm>
0.173125

>  <RMSD>
11.538

$$$$
lig.pdb
 OpenBabel03061811583D
libRbt.so/2013.1/901 2013/11/27
 46 49  0  0  0  0  0  0  0  0999 V2000
   10.9460   -4.5003    0.5441 C   0  0  1  0  0  0  0  0  0  0  0  0
   11.5883   -6.7865    1.4206 C   0  0  1  0  0  0  0  0  0  0  0  0
   10.9889   -6.9329    2.8520 C   0  0  1  0  0  0  0  0  0  0  0  0
   10.6491   -8.4875    3.1179 C   0  0  2  0  0  0  0  0  0  0  0  0
   12.9890   -5.5603    3.5960 C   0  0  2  0  0  0  0  0  0  0  0  0
   14.0587   -5.5452    4.7248 C   0  0  1  0  0  0  0  0  0  0  0  0
   15.2136   -5.0153    3.9098 C   0  0  1  0  0  0  0  0  0  0  0  0
   15.1808   -5.8464    2.5879 C   0  0  1  0  0  0  0  0  0  0  0  0
   15.8492   -7.2655    2.6262 C   0  0  0  0  0  0  0  0  0  0  0  0
   14.7545   -2.7378    4.7380 C   0  0  1  0  0  0  0  0  0  0  0  0
   15.1642   -1.3066    4.5578 C   0  0  1  0  0  0  0  0  0  0  0  0
   10.9155   -3.1682    1.3302 C   0  0  1  0  0  0  0  0  0  0  0  0
   14.8840   -0.5361    5.8965 C   0  0  0  0  0  0  0  0  0  0  0  0
   15.5943   -1.0373    7.0380 C   0  0  0  0  0  0  0  0  0  0  0  0
   15.1967   -2.4104    7.2655 C   0  0  2  0  0  0  0  0  0  0  0  0
   15.9553   -3.0217    8.5088 C   0  0  0  0  0  0  0  0  0  0  0  0
    8.9194  -12.6764    3.9924 C   0  0  2  0  0  0  0  0  0  0  0  0
   10.2717  -11.2694    2.6716 C   0  0  0  0  0  0  0  0  0  0  0  0
    8.2231  -13.8611    4.1404 C   0  0  0  0  0  0  0  0  0  0  0  0
    9.6619  -12.7446    2.8595 C   0  0  1  0  0  0  0  0  0  0  0  0
   10.3035   -3.3778    2.7894 C   0  0  0  0  0  0  0  0  0  0  0  0
    8.8258   -3.9810    2.6313 C   0  0  0  0  0  0  0  0  0  0  0  0
    8.9417   -5.3649    1.8393 C   0  0  1  0  0  0  0  0  0  0  0  0
    7.5710   -6.0183    1.6256 C   0  0  0  0  0  0  0  0  0  0  0  0
    9.5468   -8.9387    2.0634 C   0  0  1  0  0  0  0  0  0  0  0  0
   10.2327   -8.7882    0.6030 C   0  0  0  0  0  0  0  0  0  0  0  0
   10.6002   -7.2780    0.3339 C   0  0  2  0  0  0  0  0  0  0  0  0
    9.7118  -12.4310    5.1762 F   0  0  0  0  0  0  0  0  0  0  0  0
   17.5017   -2.8846    8.4082 N   0  0  0  0  0  0  0  0  0  0  0  0
   12.3202   -2.6166    1.3749 N   0  0  0  0  0  0  0  0  0  0  0  0
   16.5276   -1.1288    4.3066 N   0  0  0  0  0  0  0  0  0  0  0  0
    7.2286  -14.2526    5.0672 N   0  0  0  0  0  0  0  0  0  0  0  0
    6.7186   -5.1769    0.8795 N   0  0  0  0  0  0  0  0  0  0  0  0
    9.1974  -10.3540    2.2812 N   0  0  0  0  0  0  0  0  0  0  0  0
   11.2394   -7.1270   -0.9920 N   0  0  0  0  0  0  0  0  0  0  0  0
   11.8637   -5.4214    1.1345 O   0  0  0  0  0  0  0  0  0  0  0  0
   12.0289   -6.4285    3.8096 O   0  0  0  0  0  0  0  0  0  0  0  0
   10.1218   -8.5900    4.3857 O   0  0  0  0  0  0  0  0  0  0  0  0
   13.6234   -4.6792    5.7287 O   0  0  0  0  0  0  0  0  0  0  0  0
   13.7640   -5.7614    2.3615 O   0  0  0  0  0  0  0  0  0  0  0  0
   14.8694   -8.1884    3.1422 O   0  0  0  0  0  0  0  0  0  0  0  0
   14.9966   -3.5370    3.6419 O   0  0  0  0  0  0  0  0  0  0  0  0
   10.7353  -13.7073    2.9444 O   0  0  0  0  0  0  0  0  0  0  0  0
   11.4640  -10.9703    2.8493 O   0  0  0  0  0  0  0  0  0  0  0  0
   15.4460   -3.2412    6.0288 O   0  0  0  0  0  0  0  0  0  0  0  0
    9.5832   -5.1286    0.4818 O   0  0  0  0  0  0  0  0  0  0  0  0
  1 36  1  1  0  0  0
  2 36  1  6  0  0  0
  2  3  1  0  0  0  0
  3 37  1  1  0  0  0
  3  4  1  0  0  0  0
  4 38  1  1  0  0  0
  5 37  1  1  0  0  0
  5  6  1  0  0  0  0
  6  7  1  0  0  0  0
  6 39  1  1  0  0  0
  7 42  1  6  0  0  0
  8  9  1  1  0  0  0
  8  7  1  0  0  0  0
 10 42  1  6  0  0  0
 10 11  1  0  0  0  0
 11 31  1  1  0  0  0
 11 13  1  0  0  0  0
 12 30  1  1  0  0  0
 12  1  1  0  0  0  0
 14 13  1  0  0  0  0
 15 16  1  1  0  0  0
 15 14  1  0  0  0  0
 17 19  1  1  0  0  0
 17 28  1  0  0  0  0
 18 34  1  0  0  0  0
 19 32  1  0  0  0  0
 20 18  1  1  0  0  0
 20 17  1  0  0  0  0
 20 43  1  0  0  0  0
 21 12  1  0  0  0  0
 22 21  1  0  0  0  0
 22 23  1  0  0  0  0
 23 24  1  6  0  0  0
 23 46  1  0  0  0  0
 24 33  1  0  0  0  0
 25 34  1  1  0  0  0
 25  4  1  0  0  0  0
 26 25  1  0  0  0  0
 27 35  1  6  0  0  0
 27 26  1  0  0  0  0
 27  2  1  0  0  0  0
 29 16  1  0  0  0  0
 40  8  1  0  0  0  0
 40  5  1  0  0  0  0
 41  9  1  0  0  0  0
 44 18  2  0  0  0  0
 45 15  1  0  0  0  0
 45 10  1  0  0  0  0
 46  1  1  0  0  0  0
M  END
>  <CHROM.1>
132.40060647,-89.33434422,25.71634865,-166.45659853,53.01523368,84.42506738
153.21551303,-53.75357109,-173.29833933,-71.14312953,172.67413422,60.05795498
-36.94577183,12.00492111,-6.48835436,3.35534474,0.74528861,-0.73230356,-0.36177984

>  <Name>
lig.pdb

>  <RI>
0

>  <Rbt.Current_Directory>
/home/afrankz/demos/rdock_decoys_rna/rnas/3wru

>  <Rbt.Executable>
rbdock ($Id: //depot/dev/client3/rdock/2013.1/src/exe/rbdock.cxx#4 $)

>  <Rbt.Library>
libRbt.so (2013.1, Build901 2013/11/27)

>  <Rbt.Parameter_File>
/export/apps/rDock/src/rDock_2013.1_src/data/scripts/dock_solv.prm

>  <Rbt.Receptor>
prm/blind_docking_20.prm

>  <SCORE>
31.6377

>  <SCORE.INTER>
-2.06518

>  <SCORE.INTER.CONST>
1

>  <SCORE.INTER.POLAR>
0

>  <SCORE.INTER.ROT>
13

>  <SCORE.INTER.SOLV>
38.5598

>  <SCORE.INTER.VDW>
-26.4967

>  <SCORE.INTER.norm>
-0.0448952

>  <SCORE.INTRA>
24.8592

>  <SCORE.INTRA.DIHEDRAL>
2.52616

>  <SCORE.INTRA.DIHEDRAL.0>
19.7146

>  <SCORE.INTRA.POLAR>
0

>  <SCORE.INTRA.POLAR.0>
0

>  <SCORE.INTRA.REPUL>
0.804303

>  <SCORE.INTRA.REPUL.0>
0

>  <SCORE.INTRA.SOLV>
4.57674

>  <SCORE.INTRA.SOLV.lig_0>
-116.697

>  <SCORE.INTRA.VDW>
17.2862

>  <SCORE.INTRA.VDW.0>
-7.06424

>  <SCORE.INTRA.norm>
0.540417

>  <SCORE.RESTR>
8.84372

>  <SCORE.RESTR.CAVITY>
8.84372

>  <SCORE.RESTR.norm>
0.192255

>  <SCORE.SYSTEM>
0

>  <SCORE.SYSTEM.CONST>
0

>  <SCORE.SYSTEM.DIHEDRAL>
0

>  <SCORE.SYSTEM.SOLV>
0

>  <SCORE.SYSTEM.norm>
0

>  <SCORE.heavy>
46

>  <SCORE.norm>
0.687777

>  <RMSD>
11.694

$$$$
lig.pdb
 OpenBabel03061811583D
libRbt.so/2013.1/901 2013/11/27
 46 49  0  0  0  0  0  0  0  0999 V2000
    8.3465  -22.3984    9.0911 C   0  0  1  0  0  0  0  0  0  0  0  0
    7.4235  -20.2735   10.1113 C   0  0  1  0  0  0  0  0  0  0  0  0
    6.0886  -19.4701   10.0627 C   0  0  1  0  0  0  0  0  0  0  0  0
    6.2848  -18.0851   10.8665 C   0  0  2  0  0  0  0  0  0  0  0  0
    6.5631  -18.7170    7.6867 C   0  0  2  0  0  0  0  0  0  0  0  0
    5.8654  -18.6026    6.3015 C   0  0  1  0  0  0  0  0  0  0  0  0
    6.7040  -17.4808    5.7382 C   0  0  1  0  0  0  0  0  0  0  0  0
    6.7912  -16.4323    6.8925 C   0  0  1  0  0  0  0  0  0  0  0  0
    5.5760  -15.4530    7.0536 C   0  0  0  0  0  0  0  0  0  0  0  0
    8.8293  -17.2586    4.5063 C   0  0  1  0  0  0  0  0  0  0  0  0
   10.2309  -17.7553    4.3121 C   0  0  1  0  0  0  0  0  0  0  0  0
    9.2401  -21.7677    7.9971 C   0  0  1  0  0  0  0  0  0  0  0  0
   10.9817  -16.7648    3.3532 C   0  0  0  0  0  0  0  0  0  0  0  0
   11.0754  -15.4168    3.8356 C   0  0  0  0  0  0  0  0  0  0  0  0
    9.7376  -14.8897    4.0020 C   0  0  2  0  0  0  0  0  0  0  0  0
    9.7760  -13.4058    4.5420 C   0  0  0  0  0  0  0  0  0  0  0  0
    6.4235  -15.6936   15.7580 C   0  0  2  0  0  0  0  0  0  0  0  0
    5.5828  -16.5833   13.7444 C   0  0  0  0  0  0  0  0  0  0  0  0
    6.9991  -14.6381   16.4398 C   0  0  0  0  0  0  0  0  0  0  0  0
    6.0103  -15.2555   14.5428 C   0  0  1  0  0  0  0  0  0  0  0  0
    8.4439  -21.6201    6.6215 C   0  0  0  0  0  0  0  0  0  0  0  0
    7.9384  -23.0756    6.1763 C   0  0  0  0  0  0  0  0  0  0  0  0
    7.0011  -23.6474    7.3384 C   0  0  1  0  0  0  0  0  0  0  0  0
    6.4739  -25.0495    7.0103 C   0  0  0  0  0  0  0  0  0  0  0  0
    6.6041  -18.4370   12.3847 C   0  0  1  0  0  0  0  0  0  0  0  0
    8.0077  -19.2468   12.3734 C   0  0  0  0  0  0  0  0  0  0  0  0
    7.8462  -20.5926   11.5667 C   0  0  2  0  0  0  0  0  0  0  0  0
    5.3544  -16.2557   16.5522 F   0  0  0  0  0  0  0  0  0  0  0  0
   10.4616  -12.4154    3.5575 N   0  0  0  0  0  0  0  0  0  0  0  0
    9.7439  -20.4399    8.5095 N   0  0  0  0  0  0  0  0  0  0  0  0
   10.9940  -17.7877    5.4826 N   0  0  0  0  0  0  0  0  0  0  0  0
    7.5715  -14.5589   17.7311 N   0  0  0  0  0  0  0  0  0  0  0  0
    7.5257  -25.9889    6.9635 N   0  0  0  0  0  0  0  0  0  0  0  0
    6.7778  -17.1949   13.1590 N   0  0  0  0  0  0  0  0  0  0  0  0
    9.1245  -21.3373   11.5372 N   0  0  0  0  0  0  0  0  0  0  0  0
    7.2768  -21.5214    9.4459 O   0  0  0  0  0  0  0  0  0  0  0  0
    5.7851  -19.2237    8.6135 O   0  0  0  0  0  0  0  0  0  0  0  0
    5.0942  -17.3956   10.8095 O   0  0  0  0  0  0  0  0  0  0  0  0
    6.0159  -19.8187    5.6339 O   0  0  0  0  0  0  0  0  0  0  0  0
    7.0689  -17.3612    7.9535 O   0  0  0  0  0  0  0  0  0  0  0  0
    5.5093  -14.6501    5.8581 O   0  0  0  0  0  0  0  0  0  0  0  0
    8.0753  -18.0198    5.3729 O   0  0  0  0  0  0  0  0  0  0  0  0
    4.8864  -14.3516   14.6201 O   0  0  0  0  0  0  0  0  0  0  0  0
    4.4210  -17.0145   13.6620 O   0  0  0  0  0  0  0  0  0  0  0  0
    8.9367  -15.7729    4.9295 O   0  0  0  0  0  0  0  0  0  0  0  0
    7.7804  -23.7150    8.6415 O   0  0  0  0  0  0  0  0  0  0  0  0
  1 36  1  6  0  0  0
  2 36  1  6  0  0  0
  2  3  1  0  0  0  0
  3 37  1  6  0  0  0
  3  4  1  0  0  0  0
  4 38  1  1  0  0  0
  5 37  1  1  0  0  0
  5  6  1  0  0  0  0
  6  7  1  0  0  0  0
  6 39  1  6  0  0  0
  7 42  1  1  0  0  0
  8  9  1  1  0  0  0
  8  7  1  0  0  0  0
 10 42  1  1  0  0  0
 10 11  1  0  0  0  0
 11 31  1  1  0  0  0
 11 13  1  0  0  0  0
 12 30  1  1  0  0  0
 12  1  1  0  0  0  0
 14 13  1  0  0  0  0
 15 16  1  1  0  0  0
 15 14  1  0  0  0  0
 17 19  1  1  0  0  0
 17 28  1  0  0  0  0
 18 34  1  0  0  0  0
 19 32  1  0  0  0  0
 20 18  1  6  0  0  0
 20 17  1  0  0  0  0
 20 43  1  0  0  0  0
 21 12  1  0  0  0  0
 22 21  1  0  0  0  0
 22 23  1  0  0  0  0
 23 24  1  6  0  0  0
 23 46  1  0  0  0  0
 24 33  1  0  0  0  0
 25 34  1  1  0  0  0
 25  4  1  0  0  0  0
 26 25  1  0  0  0  0
 27 35  1  6  0  0  0
 27 26  1  0  0  0  0
 27  2  1  0  0  0  0
 29 16  1  0  0  0  0
 40  8  1  0  0  0  0
 40  5  1  0  0  0  0
 41  9  1  0  0  0  0
 44 18  2  0  0  0  0
 45 15  1  0  0  0  0
 45 10  1  0  0  0  0
 46  1  1  0  0  0  0
M  END
>  <CHROM.1>
-67.34778658,168.15269067,-51.32166484,-179.07441770,161.80587778,-63.77562562
173.04719587,63.04762987,179.49126533,-83.08283102,171.05270424,65.63335021
87.77348499,7.46173512,-18.29574598,8.93809561,0.36044386,-1.28402835,-2.97867860

>  <Name>
lig.pdb

>  <RI>
0

>  <Rbt.Current_Directory>
/home/afrankz/demos/rdock_decoys_rna/rnas/3wru

>  <Rbt.Executable>
rbdock ($Id: //depot/dev/client3/rdock/2013.1/src/exe/rbdock.cxx#4 $)

>  <Rbt.Library>
libRbt.so (2013.1, Build901 2013/11/27)

>  <Rbt.Parameter_File>
/export/apps/rDock/src/rDock_2013.1_src/data/scripts/dock_solv.prm

>  <Rbt.Receptor>
prm/pocket_docking_8.prm

>  <SCORE>
1.71393

>  <SCORE.INTER>
6.60024

>  <SCORE.INTER.CONST>
1

>  <SCORE.INTER.POLAR>
0

>  <SCORE.INTER.ROT>
13

>  <SCORE.INTER.SOLV>
16.0788

>  <SCORE.INTER.VDW>
-13.2261

>  <SCORE.INTER.norm>
0.143483

>  <SCORE.INTRA>
-4.88631

>  <SCORE.INTRA.DIHEDRAL>
-14.0965

>  <SCORE.INTRA.DIHEDRAL.0>
19.7146

>  <SCORE.INTRA.POLAR>
0

>  <SCORE.INTRA.POLAR.0>
0

>  <SCORE.INTRA.REPUL>
0

>  <SCORE.INTRA.REPUL.0>
0

>  <SCORE.INTRA.SOLV>
3.1766

>  <SCORE.INTRA.SOLV.lig_0>
-116.697

>  <SCORE.INTRA.VDW>
0.573663

>  <SCORE.INTRA.VDW.0>
-7.06424

>  <SCORE.INTRA.norm>
-0.106224

>  <SCORE.RESTR>
0

>  <SCORE.RESTR.CAVITY>
0

>  <SCORE.RESTR.norm>
0

>  <SCORE.SYSTEM>
0

>  <SCORE.SYSTEM.CONST>
0

>  <SCORE.SYSTEM.DIHEDRAL>
0

>  <SCORE.SYSTEM.SOLV>
0

>  <SCORE.SYSTEM.norm>
0

>  <SCORE.heavy>
46

>  <SCORE.norm>
0.0372593

>  <RMSD>
11.824

$$$$
lig.pdb
 OpenBabel03061811583D
libRbt.so/2013.1/901 2013/11/27
 46 49  0  0  0  0  0  0  0  0999 V2000
   12.6745  -10.2797    6.2186 C   0  0  1  0  0  0  0  0  0  0  0  0
   11.3288  -10.3275    4.0751 C   0  0  1  0  0  0  0  0  0  0  0  0
   11.6709   -8.9149    3.5120 C   0  0  1  0  0  0  0  0  0  0  0  0
   10.4841   -8.4463    2.5247 C   0  0  2  0  0  0  0  0  0  0  0  0
   12.5510   -6.9342    4.8313 C   0  0  2  0  0  0  0  0  0  0  0  0
   13.4072   -6.6280    3.5696 C   0  0  1  0  0  0  0  0  0  0  0  0
   13.5881   -5.1465    3.7957 C   0  0  1  0  0  0  0  0  0  0  0  0
   12.1656   -4.6265    4.1769 C   0  0  1  0  0  0  0  0  0  0  0  0
   11.1777   -4.3330    2.9938 C   0  0  0  0  0  0  0  0  0  0  0  0
   14.4175   -3.7935    5.6838 C   0  0  1  0  0  0  0  0  0  0  0  0
   15.1202   -2.5868    5.1371 C   0  0  1  0  0  0  0  0  0  0  0  0
   13.9767  -10.9050    6.7726 C   0  0  1  0  0  0  0  0  0  0  0  0
   14.8970   -1.3893    6.1274 C   0  0  0  0  0  0  0  0  0  0  0  0
   15.3999   -1.6049    7.4537 C   0  0  0  0  0  0  0  0  0  0  0  0
   14.7172   -2.7441    8.0291 C   0  0  2  0  0  0  0  0  0  0  0  0
   15.2372   -3.0375    9.4915 C   0  0  0  0  0  0  0  0  0  0  0  0
    8.7107   -8.2885   -2.8153 C   0  0  2  0  0  0  0  0  0  0  0  0
    9.6975   -8.1137   -0.6825 C   0  0  0  0  0  0  0  0  0  0  0  0
    7.7665   -9.2209   -3.2015 C   0  0  0  0  0  0  0  0  0  0  0  0
    8.3932   -7.8316   -1.5784 C   0  0  1  0  0  0  0  0  0  0  0  0
   13.7895  -12.4653    7.0519 C   0  0  0  0  0  0  0  0  0  0  0  0
   12.5820  -12.6471    8.0916 C   0  0  0  0  0  0  0  0  0  0  0  0
   11.2706  -12.0063    7.4392 C   0  0  1  0  0  0  0  0  0  0  0  0
   10.0557  -12.1200    8.3679 C   0  0  0  0  0  0  0  0  0  0  0  0
   10.4212   -9.4700    1.3086 C   0  0  1  0  0  0  0  0  0  0  0  0
   10.0403  -10.9084    1.9503 C   0  0  0  0  0  0  0  0  0  0  0  0
   11.1751  -11.3728    2.9425 C   0  0  2  0  0  0  0  0  0  0  0  0
    8.7857   -7.2385   -3.8060 F   0  0  0  0  0  0  0  0  0  0  0  0
   16.7796   -2.8907    9.6319 N   0  0  0  0  0  0  0  0  0  0  0  0
   15.0862  -10.6314    5.7858 N   0  0  0  0  0  0  0  0  0  0  0  0
   16.5068   -2.7292    5.0348 N   0  0  0  0  0  0  0  0  0  0  0  0
    7.4659  -10.5102   -2.7028 N   0  0  0  0  0  0  0  0  0  0  0  0
   10.2119  -11.3058    9.5097 N   0  0  0  0  0  0  0  0  0  0  0  0
    9.3550   -9.0689    0.3733 N   0  0  0  0  0  0  0  0  0  0  0  0
   10.8346  -12.6800    3.5462 N   0  0  0  0  0  0  0  0  0  0  0  0
   12.3737  -10.7920    4.9201 O   0  0  0  0  0  0  0  0  0  0  0  0
   11.7946   -7.9972    4.6933 O   0  0  0  0  0  0  0  0  0  0  0  0
   10.8096   -7.1988    2.0412 O   0  0  0  0  0  0  0  0  0  0  0  0
   14.5882   -7.3667    3.6524 O   0  0  0  0  0  0  0  0  0  0  0  0
   11.8361   -5.6767    5.1012 O   0  0  0  0  0  0  0  0  0  0  0  0
   10.1598   -3.4433    3.4942 O   0  0  0  0  0  0  0  0  0  0  0  0
   14.5787   -4.9328    4.9258 O   0  0  0  0  0  0  0  0  0  0  0  0
    8.0858   -6.4205   -1.5589 O   0  0  0  0  0  0  0  0  0  0  0  0
   10.8132   -7.6051   -0.8799 O   0  0  0  0  0  0  0  0  0  0  0  0
   14.8900   -3.9596    7.1491 O   0  0  0  0  0  0  0  0  0  0  0  0
   11.5127  -10.5370    7.1350 O   0  0  0  0  0  0  0  0  0  0  0  0
  1 36  1  6  0  0  0
  2 36  1  1  0  0  0
  2  3  1  0  0  0  0
  3 37  1  1  0  0  0
  3  4  1  0  0  0  0
  4 38  1  6  0  0  0
  5 37  1  6  0  0  0
  5  6  1  0  0  0  0
  6  7  1  0  0  0  0
  6 39  1  1  0  0  0
  7 42  1  1  0  0  0
  8  9  1  6  0  0  0
  8  7  1  0  0  0  0
 10 42  1  6  0  0  0
 10 11  1  0  0  0  0
 11 31  1  1  0  0  0
 11 13  1  0  0  0  0
 12 30  1  6  0  0  0
 12  1  1  0  0  0  0
 14 13  1  0  0  0  0
 15 16  1  1  0  0  0
 15 14  1  0  0  0  0
 17 19  1  6  0  0  0
 17 28  1  0  0  0  0
 18 34  1  0  0  0  0
 19 32  1  0  0  0  0
 20 18  1  1  0  0  0
 20 17  1  0  0  0  0
 20 43  1  0  0  0  0
 21 12  1  0  0  0  0
 22 21  1  0  0  0  0
 22 23  1  0  0  0  0
 23 24  1  1  0  0  0
 23 46  1  0  0  0  0
 24 33  1  0  0  0  0
 25 34  1  6  0  0  0
 25  4  1  0  0  0  0
 26 25  1  0  0  0  0
 27 35  1  1  0  0  0
 27 26  1  0  0  0  0
 27  2  1  0  0  0  0
 29 16  1  0  0  0  0
 40  8  1  0  0  0  0
 40  5  1  0  0  0  0
 41  9  1  0  0  0  0
 44 18  2  0  0  0  0
 45 15  1  0  0  0  0
 45 10  1  0  0  0  0
 46  1  1  0  0  0  0
M  END
>  <CHROM.1>
-173.14422523,71.32245035,149.35420125,0.30700511,-150.22518206,-159.68819814
-87.41870854,-41.10450169,-66.99713021,-116.54085089,123.76686771,68.03049260
87.55794940,12.00311256,-7.56039287,3.89078184,0.05844626,1.01976353,2.56268774

>  <Name>
lig.pdb

>  <RI>
0

>  <Rbt.Current_Directory>
/home/afrankz/demos/rdock_decoys_rna/rnas/3wru

>  <Rbt.Executable>
rbdock ($Id: //depot/dev/client3/rdock/2013.1/src/exe/rbdock.cxx#4 $)

>  <Rbt.Library>
libRbt.so (2013.1, Build901 2013/11/27)

>  <Rbt.Parameter_File>
/export/apps/rDock/src/rDock_2013.1_src/data/scripts/dock_solv.prm

>  <Rbt.Receptor>
prm/blind_docking_20.prm

>  <SCORE>
10.0312

>  <SCORE.INTER>
-3.06603

>  <SCORE.INTER.CONST>
1

>  <SCORE.INTER.POLAR>
0

>  <SCORE.INTER.ROT>
13

>  <SCORE.INTER.SOLV>
36.7844

>  <SCORE.INTER.VDW>
-26.5721

>  <SCORE.INTER.norm>
-0.0666529

>  <SCORE.INTRA>
6.71306

>  <SCORE.INTRA.DIHEDRAL>
9.30295

>  <SCORE.INTRA.DIHEDRAL.0>
19.7146

>  <SCORE.INTRA.POLAR>
0

>  <SCORE.INTRA.POLAR.0>
0

>  <SCORE.INTRA.REPUL>
0

>  <SCORE.INTRA.REPUL.0>
0

>  <SCORE.INTRA.SOLV>
-0.149221

>  <SCORE.INTRA.SOLV.lig_0>
-116.697

>  <SCORE.INTRA.VDW>
2.1362

>  <SCORE.INTRA.VDW.0>
-7.06424

>  <SCORE.INTRA.norm>
0.145936

>  <SCORE.RESTR>
6.3842

>  <SCORE.RESTR.CAVITY>
6.3842

>  <SCORE.RESTR.norm>
0.138787

>  <SCORE.SYSTEM>
0

>  <SCORE.SYSTEM.CONST>
0

>  <SCORE.SYSTEM.DIHEDRAL>
0

>  <SCORE.SYSTEM.SOLV>
0

>  <SCORE.SYSTEM.norm>
0

>  <SCORE.heavy>
46

>  <SCORE.norm>
0.21807

>  <RMSD>
11.935

$$$$
lig.pdb
 OpenBabel03061811583D
libRbt.so/2013.1/901 2013/11/27
 46 49  0  0  0  0  0  0  0  0999 V2000
   12.0571  -11.7968    5.3286 C   0  0  1  0  0  0  0  0  0  0  0  0
   10.7628  -10.2486    3.8003 C   0  0  1  0  0  0  0  0  0  0  0  0
   10.9276   -8.7957    3.2604 C   0  0  1  0  0  0  0  0  0  0  0  0
    9.8736   -8.5631    2.0612 C   0  0  2  0  0  0  0  0  0  0  0  0
   11.0419   -6.6295    4.5767 C   0  0  2  0  0  0  0  0  0  0  0  0
   12.5587   -6.4202    4.3046 C   0  0  1  0  0  0  0  0  0  0  0  0
   12.5052   -4.9549    3.9454 C   0  0  1  0  0  0  0  0  0  0  0  0
   11.2970   -4.8309    2.9636 C   0  0  1  0  0  0  0  0  0  0  0  0
   11.5638   -5.1971    1.4615 C   0  0  0  0  0  0  0  0  0  0  0  0
   13.2392   -3.1994    5.5148 C   0  0  1  0  0  0  0  0  0  0  0  0
   14.6481   -3.7068    5.4351 C   0  0  1  0  0  0  0  0  0  0  0  0
   11.7755  -11.9046    6.8460 C   0  0  1  0  0  0  0  0  0  0  0  0
   15.6189   -2.5503    5.8646 C   0  0  0  0  0  0  0  0  0  0  0  0
   15.4208   -2.0647    7.2001 C   0  0  0  0  0  0  0  0  0  0  0  0
   14.0789   -1.5326    7.3059 C   0  0  2  0  0  0  0  0  0  0  0  0
   13.7976   -0.9892    8.7621 C   0  0  0  0  0  0  0  0  0  0  0  0
    8.5934   -9.4665   -2.9831 C   0  0  2  0  0  0  0  0  0  0  0  0
    9.5770   -8.3075   -1.1824 C   0  0  0  0  0  0  0  0  0  0  0  0
    7.3903  -10.1465   -2.9703 C   0  0  0  0  0  0  0  0  0  0  0  0
    8.4400   -8.2944   -2.3183 C   0  0  1  0  0  0  0  0  0  0  0  0
   12.7399  -10.9422    7.6776 C   0  0  0  0  0  0  0  0  0  0  0  0
   14.2567  -11.3464    7.3486 C   0  0  0  0  0  0  0  0  0  0  0  0
   14.4790  -11.1818    5.7740 C   0  0  1  0  0  0  0  0  0  0  0  0
   15.9051  -11.5588    5.3551 C   0  0  0  0  0  0  0  0  0  0  0  0
   10.2288   -9.5778    0.8887 C   0  0  1  0  0  0  0  0  0  0  0  0
   10.0171  -11.0636    1.4998 C   0  0  0  0  0  0  0  0  0  0  0  0
   11.0192  -11.3022    2.6943 C   0  0  2  0  0  0  0  0  0  0  0  0
    9.0344   -9.2909   -4.3485 F   0  0  0  0  0  0  0  0  0  0  0  0
   12.9460    0.3126    8.7741 N   0  0  0  0  0  0  0  0  0  0  0  0
   10.3174  -11.5887    7.0770 N   0  0  0  0  0  0  0  0  0  0  0  0
   14.9254   -4.7653    6.3047 N   0  0  0  0  0  0  0  0  0  0  0  0
    7.0200  -11.4036   -3.5032 N   0  0  0  0  0  0  0  0  0  0  0  0
   16.8224  -10.5471    5.7101 N   0  0  0  0  0  0  0  0  0  0  0  0
    9.2945   -9.3883   -0.2354 N   0  0  0  0  0  0  0  0  0  0  0  0
   10.8286  -12.6515    3.2710 N   0  0  0  0  0  0  0  0  0  0  0  0
   11.7050  -10.5044    4.8339 O   0  0  0  0  0  0  0  0  0  0  0  0
   10.6575   -7.8731    4.4131 O   0  0  0  0  0  0  0  0  0  0  0  0
   10.0392   -7.2755    1.6021 O   0  0  0  0  0  0  0  0  0  0  0  0
   13.2564   -6.6944    5.4817 O   0  0  0  0  0  0  0  0  0  0  0  0
   10.3765   -5.6405    3.7140 O   0  0  0  0  0  0  0  0  0  0  0  0
   12.6890   -4.4112    1.0206 O   0  0  0  0  0  0  0  0  0  0  0  0
   12.2814   -4.1411    5.2071 O   0  0  0  0  0  0  0  0  0  0  0  0
    8.6125   -7.1374   -3.1656 O   0  0  0  0  0  0  0  0  0  0  0  0
   10.5424   -7.5273   -1.1405 O   0  0  0  0  0  0  0  0  0  0  0  0
   13.0648   -2.5857    6.9258 O   0  0  0  0  0  0  0  0  0  0  0  0
   13.5017  -12.0694    5.0208 O   0  0  0  0  0  0  0  0  0  0  0  0
  1 36  1  1  0  0  0
  2 36  1  1  0  0  0
  2  3  1  0  0  0  0
  3 37  1  1  0  0  0
  3  4  1  0  0  0  0
  4 38  1  6  0  0  0
  5 37  1  6  0  0  0
  5  6  1  0  0  0  0
  6  7  1  0  0  0  0
  6 39  1  1  0  0  0
  7 42  1  1  0  0  0
  8  9  1  6  0  0  0
  8  7  1  0  0  0  0
 10 42  1  1  0  0  0
 10 11  1  0  0  0  0
 11 31  1  1  0  0  0
 11 13  1  0  0  0  0
 12 30  1  6  0  0  0
 12  1  1  0  0  0  0
 14 13  1  0  0  0  0
 15 16  1  1  0  0  0
 15 14  1  0  0  0  0
 17 19  1  6  0  0  0
 17 28  1  0  0  0  0
 18 34  1  0  0  0  0
 19 32  1  0  0  0  0
 20 18  1  1  0  0  0
 20 17  1  0  0  0  0
 20 43  1  0  0  0  0
 21 12  1  0  0  0  0
 22 21  1  0  0  0  0
 22 23  1  0  0  0  0
 23 24  1  1  0  0  0
 23 46  1  0  0  0  0
 24 33  1  0  0  0  0
 25 34  1  6  0  0  0
 25  4  1  0  0  0  0
 26 25  1  0  0  0  0
 27 35  1  1  0  0  0
 27 26  1  0  0  0  0
 27  2  1  0  0  0  0
 29 16  1  0  0  0  0
 40  8  1  0  0  0  0
 40  5  1  0  0  0  0
 41  9  1  0  0  0  0
 44 18  2  0  0  0  0
 45 15  1  0  0  0  0
 45 10  1  0  0  0  0
 46  1  1  0  0  0  0
M  END
>  <CHROM.1>
-121.49513655,-164.17683023,157.71697695,-48.87390833,121.27681445,-53.79133723
-47.69470031,141.81802718,-179.29805546,-65.14378626,124.79858452,-75.43456074
82.49558348,11.75822483,-7.62844440,3.36302811,-2.66979479,-1.06008637,-0.10520835

>  <Name>
lig.pdb

>  <RI>
0

>  <Rbt.Current_Directory>
/home/afrankz/demos/rdock_decoys_rna/rnas/3wru

>  <Rbt.Executable>
rbdock ($Id: //depot/dev/client3/rdock/2013.1/src/exe/rbdock.cxx#4 $)

>  <Rbt.Library>
libRbt.so (2013.1, Build901 2013/11/27)

>  <Rbt.Parameter_File>
/export/apps/rDock/src/rDock_2013.1_src/data/scripts/dock_solv.prm

>  <Rbt.Receptor>
prm/blind_docking_20.prm

>  <SCORE>
16.7207

>  <SCORE.INTER>
0.260083

>  <SCORE.INTER.CONST>
1

>  <SCORE.INTER.POLAR>
0

>  <SCORE.INTER.ROT>
13

>  <SCORE.INTER.SOLV>
44.2933

>  <SCORE.INTER.VDW>
-26.8577

>  <SCORE.INTER.norm>
0.00565398

>  <SCORE.INTRA>
11.0749

>  <SCORE.INTRA.DIHEDRAL>
9.80111

>  <SCORE.INTRA.DIHEDRAL.0>
19.7146

>  <SCORE.INTRA.POLAR>
0

>  <SCORE.INTRA.POLAR.0>
0

>  <SCORE.INTRA.REPUL>
0

>  <SCORE.INTRA.REPUL.0>
0

>  <SCORE.INTRA.SOLV>
1.20219

>  <SCORE.INTRA.SOLV.lig_0>
-116.697

>  <SCORE.INTRA.VDW>
5.57329

>  <SCORE.INTRA.VDW.0>
-7.06424

>  <SCORE.INTRA.norm>
0.24076

>  <SCORE.RESTR>
5.38567

>  <SCORE.RESTR.CAVITY>
5.38567

>  <SCORE.RESTR.norm>
0.11708

>  <SCORE.SYSTEM>
0

>  <SCORE.SYSTEM.CONST>
0

>  <SCORE.SYSTEM.DIHEDRAL>
0

>  <SCORE.SYSTEM.SOLV>
0

>  <SCORE.SYSTEM.norm>
0

>  <SCORE.heavy>
46

>  <SCORE.norm>
0.363493

>  <RMSD>
11.979

$$$$
lig.pdb
 OpenBabel03061811583D
libRbt.so/2013.1/901 2013/11/27
 46 49  0  0  0  0  0  0  0  0999 V2000
    9.2428  -12.8484   13.4210 C   0  0  1  0  0  0  0  0  0  0  0  0
    8.5412  -10.6562   14.4746 C   0  0  1  0  0  0  0  0  0  0  0  0
    7.4879  -11.0039   15.5698 C   0  0  1  0  0  0  0  0  0  0  0  0
    6.5113   -9.7361   15.7742 C   0  0  2  0  0  0  0  0  0  0  0  0
    6.0308  -13.0718   15.7662 C   0  0  2  0  0  0  0  0  0  0  0  0
    6.9032  -13.9450   16.7124 C   0  0  1  0  0  0  0  0  0  0  0  0
    5.8351  -14.2877   17.7227 C   0  0  1  0  0  0  0  0  0  0  0  0
    5.1127  -12.9335   18.0113 C   0  0  1  0  0  0  0  0  0  0  0  0
    5.7951  -11.9729   19.0473 C   0  0  0  0  0  0  0  0  0  0  0  0
    5.2601  -16.6290   17.2017 C   0  0  1  0  0  0  0  0  0  0  0  0
    6.0796  -16.9598   18.4132 C   0  0  1  0  0  0  0  0  0  0  0  0
   10.4058  -13.8623   13.5336 C   0  0  1  0  0  0  0  0  0  0  0  0
    6.4784  -18.4766   18.3457 C   0  0  0  0  0  0  0  0  0  0  0  0
    7.2571  -18.8424   17.1974 C   0  0  0  0  0  0  0  0  0  0  0  0
    6.4824  -18.5698   16.0056 C   0  0  2  0  0  0  0  0  0  0  0  0
    7.2941  -18.9450   14.7036 C   0  0  0  0  0  0  0  0  0  0  0  0
    5.7481   -4.8446   18.9871 C   0  0  2  0  0  0  0  0  0  0  0  0
    6.7926   -6.5049   17.6812 C   0  0  0  0  0  0  0  0  0  0  0  0
    5.2180   -3.5687   19.0211 C   0  0  0  0  0  0  0  0  0  0  0  0
    5.7474   -5.2841   17.7041 C   0  0  1  0  0  0  0  0  0  0  0  0
   11.7673  -13.2360   12.9840 C   0  0  0  0  0  0  0  0  0  0  0  0
   11.5376  -12.7981   11.4583 C   0  0  0  0  0  0  0  0  0  0  0  0
   10.3465  -11.7322   11.4265 C   0  0  1  0  0  0  0  0  0  0  0  0
   10.0407  -11.2584   10.0006 C   0  0  0  0  0  0  0  0  0  0  0  0
    7.3899   -8.5152   16.2921 C   0  0  1  0  0  0  0  0  0  0  0  0
    8.4454   -8.1858   15.1074 C   0  0  0  0  0  0  0  0  0  0  0  0
    9.3927   -9.4246   14.8706 C   0  0  2  0  0  0  0  0  0  0  0  0
    5.0019   -5.7014   19.8808 F   0  0  0  0  0  0  0  0  0  0  0  0
    8.6993  -18.2799   14.6473 N   0  0  0  0  0  0  0  0  0  0  0  0
   10.5173  -14.2914   14.9768 N   0  0  0  0  0  0  0  0  0  0  0  0
    7.2881  -16.2624   18.4947 N   0  0  0  0  0  0  0  0  0  0  0  0
    5.6090   -2.3751   18.3701 N   0  0  0  0  0  0  0  0  0  0  0  0
    8.8712  -10.4695    9.9678 N   0  0  0  0  0  0  0  0  0  0  0  0
    6.5306   -7.3367   16.5048 N   0  0  0  0  0  0  0  0  0  0  0  0
   10.3545   -9.1427   13.7821 N   0  0  0  0  0  0  0  0  0  0  0  0
    9.4466  -11.7376   14.2950 O   0  0  0  0  0  0  0  0  0  0  0  0
    6.7319  -12.2033   15.0769 O   0  0  0  0  0  0  0  0  0  0  0  0
    5.5924  -10.0675   16.7447 O   0  0  0  0  0  0  0  0  0  0  0  0
    7.3748  -15.0396   15.9866 O   0  0  0  0  0  0  0  0  0  0  0  0
    4.9989  -12.5000   16.6456 O   0  0  0  0  0  0  0  0  0  0  0  0
    5.8461  -12.6679   20.3093 O   0  0  0  0  0  0  0  0  0  0  0  0
    4.8856  -15.3056   17.1171 O   0  0  0  0  0  0  0  0  0  0  0  0
    4.4509   -5.7457   17.2656 O   0  0  0  0  0  0  0  0  0  0  0  0
    7.6836   -6.6876   18.5269 O   0  0  0  0  0  0  0  0  0  0  0  0
    6.0634  -17.1188   15.9719 O   0  0  0  0  0  0  0  0  0  0  0  0
    9.0876  -12.3499   12.0127 O   0  0  0  0  0  0  0  0  0  0  0  0
  1 36  1  1  0  0  0
  2 36  1  1  0  0  0
  2  3  1  0  0  0  0
  3 37  1  6  0  0  0
  3  4  1  0  0  0  0
  4 38  1  1  0  0  0
  5 37  1  1  0  0  0
  5  6  1  0  0  0  0
  6  7  1  0  0  0  0
  6 39  1  6  0  0  0
  7 42  1  6  0  0  0
  8  9  1  1  0  0  0
  8  7  1  0  0  0  0
 10 42  1  6  0  0  0
 10 11  1  0  0  0  0
 11 31  1  6  0  0  0
 11 13  1  0  0  0  0
 12 30  1  1  0  0  0
 12  1  1  0  0  0  0
 14 13  1  0  0  0  0
 15 16  1  6  0  0  0
 15 14  1  0  0  0  0
 17 19  1  6  0  0  0
 17 28  1  0  0  0  0
 18 34  1  0  0  0  0
 19 32  1  0  0  0  0
 20 18  1  1  0  0  0
 20 17  1  0  0  0  0
 20 43  1  0  0  0  0
 21 12  1  0  0  0  0
 22 21  1  0  0  0  0
 22 23  1  0  0  0  0
 23 24  1  6  0  0  0
 23 46  1  0  0  0  0
 24 33  1  0  0  0  0
 25 34  1  6  0  0  0
 25  4  1  0  0  0  0
 26 25  1  0  0  0  0
 27 35  1  6  0  0  0
 27 26  1  0  0  0  0
 27  2  1  0  0  0  0
 29 16  1  0  0  0  0
 40  8  1  0  0  0  0
 40  5  1  0  0  0  0
 41  9  1  0  0  0  0
 44 18  2  0  0  0  0
 45 15  1  0  0  0  0
 45 10  1  0  0  0  0
 46  1  1  0  0  0  0
M  END
>  <CHROM.1>
-177.35846115,86.85369334,159.08608952,-67.16034821,84.51989535,-61.41969332
30.71603192,-53.21649821,-58.11399053,160.30713276,161.57887527,171.63881512
140.07991302,7.31279412,-11.78160220,15.99387177,-1.34422919,0.93983236,0.01102817

>  <Name>
lig.pdb

>  <RI>
0

>  <Rbt.Current_Directory>
/home/afrankz/demos/rdock_decoys_rna/rnas/3wru

>  <Rbt.Executable>
rbdock ($Id: //depot/dev/client3/rdock/2013.1/src/exe/rbdock.cxx#4 $)

>  <Rbt.Library>
libRbt.so (2013.1, Build901 2013/11/27)

>  <Rbt.Parameter_File>
/export/apps/rDock/src/rDock_2013.1_src/data/scripts/dock_solv.prm

>  <Rbt.Receptor>
prm/blind_docking_60.prm

>  <SCORE>
36.383

>  <SCORE.INTER>
27.5653

>  <SCORE.INTER.CONST>
1

>  <SCORE.INTER.POLAR>
0

>  <SCORE.INTER.ROT>
13

>  <SCORE.INTER.SOLV>
38.0436

>  <SCORE.INTER.VDW>
-6.571

>  <SCORE.INTER.norm>
0.599246

>  <SCORE.INTRA>
4.2416

>  <SCORE.INTRA.DIHEDRAL>
-4.69973

>  <SCORE.INTRA.DIHEDRAL.0>
19.7146

>  <SCORE.INTRA.POLAR>
0

>  <SCORE.INTRA.POLAR.0>
0

>  <SCORE.INTRA.REPUL>
0

>  <SCORE.INTRA.REPUL.0>
0

>  <SCORE.INTRA.SOLV>
4.964

>  <SCORE.INTRA.SOLV.lig_0>
-116.697

>  <SCORE.INTRA.VDW>
4.10947

>  <SCORE.INTRA.VDW.0>
-7.06424

>  <SCORE.INTRA.norm>
0.0922087

>  <SCORE.RESTR>
4.57607

>  <SCORE.RESTR.CAVITY>
4.57607

>  <SCORE.RESTR.norm>
0.0994798

>  <SCORE.SYSTEM>
0

>  <SCORE.SYSTEM.CONST>
0

>  <SCORE.SYSTEM.DIHEDRAL>
0

>  <SCORE.SYSTEM.SOLV>
0

>  <SCORE.SYSTEM.norm>
0

>  <SCORE.heavy>
46

>  <SCORE.norm>
0.790934

>  <RMSD>
12.088

$$$$
lig.pdb
 OpenBabel03061811583D
libRbt.so/2013.1/901 2013/11/27
 46 49  0  0  0  0  0  0  0  0999 V2000
   13.8505  -10.0331    6.1285 C   0  0  1  0  0  0  0  0  0  0  0  0
   12.2224   -9.1375    4.4095 C   0  0  1  0  0  0  0  0  0  0  0  0
   12.7445   -8.3748    3.1544 C   0  0  1  0  0  0  0  0  0  0  0  0
   11.5979   -7.3592    2.6478 C   0  0  2  0  0  0  0  0  0  0  0  0
   14.0749   -6.4950    4.2195 C   0  0  2  0  0  0  0  0  0  0  0  0
   14.3642   -5.2919    3.2774 C   0  0  1  0  0  0  0  0  0  0  0  0
   13.7816   -4.2031    4.1458 C   0  0  1  0  0  0  0  0  0  0  0  0
   12.4110   -4.7733    4.6311 C   0  0  1  0  0  0  0  0  0  0  0  0
   11.1995   -4.6436    3.6426 C   0  0  0  0  0  0  0  0  0  0  0  0
   14.1820   -3.2957    6.4041 C   0  0  1  0  0  0  0  0  0  0  0  0
   13.8715   -1.8473    6.1709 C   0  0  1  0  0  0  0  0  0  0  0  0
   14.9628  -11.1053    6.2091 C   0  0  1  0  0  0  0  0  0  0  0  0
   13.3258   -1.2333    7.5087 C   0  0  0  0  0  0  0  0  0  0  0  0
   14.2381   -1.2960    8.6144 C   0  0  0  0  0  0  0  0  0  0  0  0
   14.5345   -2.6850    8.8929 C   0  0  2  0  0  0  0  0  0  0  0  0
   15.5453   -2.8182   10.0994 C   0  0  0  0  0  0  0  0  0  0  0  0
    6.6395   -6.7221    0.9778 C   0  0  2  0  0  0  0  0  0  0  0  0
    8.7693   -7.5292    0.3730 C   0  0  0  0  0  0  0  0  0  0  0  0
    6.3571   -5.5643    1.6778 C   0  0  0  0  0  0  0  0  0  0  0  0
    7.6108   -6.4574    0.0690 C   0  0  1  0  0  0  0  0  0  0  0  0
   14.3435  -12.5762    6.1881 C   0  0  0  0  0  0  0  0  0  0  0  0
   13.3302  -12.7112    7.4239 C   0  0  0  0  0  0  0  0  0  0  0  0
   12.1979  -11.5952    7.2556 C   0  0  1  0  0  0  0  0  0  0  0  0
   11.1807  -11.6348    8.4025 C   0  0  0  0  0  0  0  0  0  0  0  0
   10.3300   -8.2201    2.2208 C   0  0  1  0  0  0  0  0  0  0  0  0
    9.8201   -8.9674    3.5652 C   0  0  0  0  0  0  0  0  0  0  0  0
   10.9388   -9.9451    4.0950 C   0  0  2  0  0  0  0  0  0  0  0  0
    5.4267   -7.2327    0.3796 F   0  0  0  0  0  0  0  0  0  0  0  0
   17.0048   -2.4382    9.7179 N   0  0  0  0  0  0  0  0  0  0  0  0
   15.9221  -10.8742    5.0663 N   0  0  0  0  0  0  0  0  0  0  0  0
   14.9834   -1.0706    5.8333 N   0  0  0  0  0  0  0  0  0  0  0  0
    5.5389   -4.4548    1.3603 N   0  0  0  0  0  0  0  0  0  0  0  0
   10.0920  -12.4750    8.0864 N   0  0  0  0  0  0  0  0  0  0  0  0
    9.2608   -7.3280    1.7378 N   0  0  0  0  0  0  0  0  0  0  0  0
   10.4917  -10.6257    5.3304 N   0  0  0  0  0  0  0  0  0  0  0  0
   13.1927  -10.0731    4.8617 O   0  0  0  0  0  0  0  0  0  0  0  0
   13.9802   -7.6368    3.5803 O   0  0  0  0  0  0  0  0  0  0  0  0
   12.0823   -6.6994    1.5405 O   0  0  0  0  0  0  0  0  0  0  0  0
   15.7448   -5.2001    3.0961 O   0  0  0  0  0  0  0  0  0  0  0  0
   12.8788   -6.0884    4.9739 O   0  0  0  0  0  0  0  0  0  0  0  0
   11.7399   -4.3812    2.3322 O   0  0  0  0  0  0  0  0  0  0  0  0
   14.7183   -3.9416    5.3114 O   0  0  0  0  0  0  0  0  0  0  0  0
    7.1616   -6.6010   -1.2962 O   0  0  0  0  0  0  0  0  0  0  0  0
    9.1604   -8.3929   -0.4292 O   0  0  0  0  0  0  0  0  0  0  0  0
   15.0854   -3.3621    7.6601 O   0  0  0  0  0  0  0  0  0  0  0  0
   12.8358  -10.2161    7.2206 O   0  0  0  0  0  0  0  0  0  0  0  0
  1 36  1  6  0  0  0
  2 36  1  6  0  0  0
  2  3  1  0  0  0  0
  3 37  1  1  0  0  0
  3  4  1  0  0  0  0
  4 38  1  6  0  0  0
  5 37  1  6  0  0  0
  5  6  1  0  0  0  0
  6  7  1  0  0  0  0
  6 39  1  1  0  0  0
  7 42  1  1  0  0  0
  8  9  1  6  0  0  0
  8  7  1  0  0  0  0
 10 42  1  6  0  0  0
 10 11  1  0  0  0  0
 11 31  1  1  0  0  0
 11 13  1  0  0  0  0
 12 30  1  6  0  0  0
 12  1  1  0  0  0  0
 14 13  1  0  0  0  0
 15 16  1  1  0  0  0
 15 14  1  0  0  0  0
 17 19  1  6  0  0  0
 17 28  1  0  0  0  0
 18 34  1  0  0  0  0
 19 32  1  0  0  0  0
 20 18  1  1  0  0  0
 20 17  1  0  0  0  0
 20 43  1  0  0  0  0
 21 12  1  0  0  0  0
 22 21  1  0  0  0  0
 22 23  1  0  0  0  0
 23 24  1  1  0  0  0
 23 46  1  0  0  0  0
 24 33  1  0  0  0  0
 25 34  1  1  0  0  0
 25  4  1  0  0  0  0
 26 25  1  0  0  0  0
 27 35  1  1  0  0  0
 27 26  1  0  0  0  0
 27  2  1  0  0  0  0
 29 16  1  0  0  0  0
 40  8  1  0  0  0  0
 40  5  1  0  0  0  0
 41  9  1  0  0  0  0
 44 18  2  0  0  0  0
 45 15  1  0  0  0  0
 45 10  1  0  0  0  0
 46  1  1  0  0  0  0
M  END
>  <CHROM.1>
-173.12097057,116.76785360,-80.57065608,-99.35205645,-160.81705872,17.39126083
-71.01294410,-74.43866761,81.70207278,-61.04142359,125.16622949,-91.34422984
121.43159678,12.05013421,-6.85165438,4.48946506,-0.28982805,0.77055149,3.00198136

>  <Name>
lig.pdb

>  <RI>
0

>  <Rbt.Current_Directory>
/home/afrankz/demos/rdock_decoys_rna/rnas/3wru

>  <Rbt.Executable>
rbdock ($Id: //depot/dev/client3/rdock/2013.1/src/exe/rbdock.cxx#4 $)

>  <Rbt.Library>
libRbt.so (2013.1, Build901 2013/11/27)

>  <Rbt.Parameter_File>
/export/apps/rDock/src/rDock_2013.1_src/data/scripts/dock_solv.prm

>  <Rbt.Receptor>
prm/blind_docking_20.prm

>  <SCORE>
17.5459

>  <SCORE.INTER>
1.01566

>  <SCORE.INTER.CONST>
1

>  <SCORE.INTER.POLAR>
0

>  <SCORE.INTER.ROT>
13

>  <SCORE.INTER.SOLV>
30.7619

>  <SCORE.INTER.VDW>
-21.8435

>  <SCORE.INTER.norm>
0.0220795

>  <SCORE.INTRA>
11.0969

>  <SCORE.INTRA.DIHEDRAL>
13.1143

>  <SCORE.INTRA.DIHEDRAL.0>
19.7146

>  <SCORE.INTRA.POLAR>
0

>  <SCORE.INTRA.POLAR.0>
0

>  <SCORE.INTRA.REPUL>
0

>  <SCORE.INTRA.REPUL.0>
0

>  <SCORE.INTRA.SOLV>
3.93811

>  <SCORE.INTRA.SOLV.lig_0>
-116.697

>  <SCORE.INTRA.VDW>
2.57075

>  <SCORE.INTRA.VDW.0>
-7.06424

>  <SCORE.INTRA.norm>
0.241238

>  <SCORE.RESTR>
5.43332

>  <SCORE.RESTR.CAVITY>
5.43332

>  <SCORE.RESTR.norm>
0.118116

>  <SCORE.SYSTEM>
0

>  <SCORE.SYSTEM.CONST>
0

>  <SCORE.SYSTEM.DIHEDRAL>
0

>  <SCORE.SYSTEM.SOLV>
0

>  <SCORE.SYSTEM.norm>
0

>  <SCORE.heavy>
46

>  <SCORE.norm>
0.381433

>  <RMSD>
12.175

$$$$
lig.pdb
 OpenBabel03061811583D
libRbt.so/2013.1/901 2013/11/27
 46 49  0  0  0  0  0  0  0  0999 V2000
   12.7032  -11.4697    4.7932 C   0  0  1  0  0  0  0  0  0  0  0  0
   11.2214   -9.6464    3.8510 C   0  0  1  0  0  0  0  0  0  0  0  0
   11.3512   -8.1402    3.4711 C   0  0  1  0  0  0  0  0  0  0  0  0
    9.9900   -7.6670    2.7458 C   0  0  2  0  0  0  0  0  0  0  0  0
   11.9045   -6.1299    4.9169 C   0  0  2  0  0  0  0  0  0  0  0  0
   13.3881   -5.8319    4.5578 C   0  0  1  0  0  0  0  0  0  0  0  0
   13.2330   -4.3658    4.2332 C   0  0  1  0  0  0  0  0  0  0  0  0
   11.9615   -4.2917    3.3294 C   0  0  1  0  0  0  0  0  0  0  0  0
   12.1546   -4.6161    1.8065 C   0  0  0  0  0  0  0  0  0  0  0  0
   14.1516   -3.4483    6.3304 C   0  0  1  0  0  0  0  0  0  0  0  0
   13.9089   -2.6457    7.5737 C   0  0  1  0  0  0  0  0  0  0  0  0
   11.8430  -11.9347    5.9921 C   0  0  1  0  0  0  0  0  0  0  0  0
   15.2624   -2.5229    8.3593 C   0  0  0  0  0  0  0  0  0  0  0  0
   16.3188   -1.8732    7.6379 C   0  0  0  0  0  0  0  0  0  0  0  0
   16.6065   -2.6411    6.4451 C   0  0  2  0  0  0  0  0  0  0  0  0
   17.7596   -1.9675    5.6016 C   0  0  0  0  0  0  0  0  0  0  0  0
    6.2331   -6.7681    0.3559 C   0  0  2  0  0  0  0  0  0  0  0  0
    8.5748   -6.7676    0.0929 C   0  0  0  0  0  0  0  0  0  0  0  0
    6.0495   -5.6037    1.0773 C   0  0  0  0  0  0  0  0  0  0  0  0
    7.1507   -6.5398   -0.6164 C   0  0  1  0  0  0  0  0  0  0  0  0
   12.2509  -11.1579    7.3255 C   0  0  0  0  0  0  0  0  0  0  0  0
   13.8081  -11.4230    7.6036 C   0  0  0  0  0  0  0  0  0  0  0  0
   14.6307  -10.8915    6.3400 C   0  0  1  0  0  0  0  0  0  0  0  0
   16.1391  -11.1125    6.5053 C   0  0  0  0  0  0  0  0  0  0  0  0
    9.8257   -8.5102    1.4069 C   0  0  1  0  0  0  0  0  0  0  0  0
    9.6721  -10.0569    1.8651 C   0  0  0  0  0  0  0  0  0  0  0  0
   10.9825  -10.5324    2.6033 C   0  0  2  0  0  0  0  0  0  0  0  0
    4.9613   -7.2224   -0.1596 F   0  0  0  0  0  0  0  0  0  0  0  0
   17.9414   -2.6080    4.1955 N   0  0  0  0  0  0  0  0  0  0  0  0
   10.3903  -11.7309    5.6353 N   0  0  0  0  0  0  0  0  0  0  0  0
   13.4984   -1.3311    7.3354 N   0  0  0  0  0  0  0  0  0  0  0  0
    6.9608   -4.7940    1.7953 N   0  0  0  0  0  0  0  0  0  0  0  0
   16.4787  -12.4670    6.3029 N   0  0  0  0  0  0  0  0  0  0  0  0
    8.5970   -8.0978    0.7050 N   0  0  0  0  0  0  0  0  0  0  0  0
   10.8518  -11.9403    3.0390 N   0  0  0  0  0  0  0  0  0  0  0  0
   12.4204  -10.1108    4.4578 O   0  0  0  0  0  0  0  0  0  0  0  0
   11.5788   -7.3898    4.7509 O   0  0  0  0  0  0  0  0  0  0  0  0
   10.1297   -6.3363    2.4204 O   0  0  0  0  0  0  0  0  0  0  0  0
   14.1709   -6.0877    5.6843 O   0  0  0  0  0  0  0  0  0  0  0  0
   11.1345   -5.1642    4.1171 O   0  0  0  0  0  0  0  0  0  0  0  0
   11.0471   -4.0257    1.0973 O   0  0  0  0  0  0  0  0  0  0  0  0
   13.0437   -3.5880    5.5230 O   0  0  0  0  0  0  0  0  0  0  0  0
    7.0182   -7.4372   -1.7404 O   0  0  0  0  0  0  0  0  0  0  0  0
    9.5021   -5.9413    0.0966 O   0  0  0  0  0  0  0  0  0  0  0  0
   15.3585   -2.7998    5.6089 O   0  0  0  0  0  0  0  0  0  0  0  0
   14.1695  -11.6141    5.0849 O   0  0  0  0  0  0  0  0  0  0  0  0
  1 36  1  1  0  0  0
  2 36  1  6  0  0  0
  2  3  1  0  0  0  0
  3 37  1  1  0  0  0
  3  4  1  0  0  0  0
  4 38  1  6  0  0  0
  5 37  1  6  0  0  0
  5  6  1  0  0  0  0
  6  7  1  0  0  0  0
  6 39  1  1  0  0  0
  7 42  1  1  0  0  0
  8  9  1  6  0  0  0
  8  7  1  0  0  0  0
 10 42  1  6  0  0  0
 10 11  1  0  0  0  0
 11 31  1  6  0  0  0
 11 13  1  0  0  0  0
 12 30  1  6  0  0  0
 12  1  1  0  0  0  0
 14 13  1  0  0  0  0
 15 16  1  6  0  0  0
 15 14  1  0  0  0  0
 17 19  1  6  0  0  0
 17 28  1  0  0  0  0
 18 34  1  0  0  0  0
 19 32  1  0  0  0  0
 20 18  1  1  0  0  0
 20 17  1  0  0  0  0
 20 43  1  0  0  0  0
 21 12  1  0  0  0  0
 22 21  1  0  0  0  0
 22 23  1  0  0  0  0
 23 24  1  1  0  0  0
 23 46  1  0  0  0  0
 24 33  1  0  0  0  0
 25 34  1  1  0  0  0
 25  4  1  0  0  0  0
 26 25  1  0  0  0  0
 27 35  1  1  0  0  0
 27 26  1  0  0  0  0
 27  2  1  0  0  0  0
 29 16  1  0  0  0  0
 40  8  1  0  0  0  0
 40  5  1  0  0  0  0
 41  9  1  0  0  0  0
 44 18  2  0  0  0  0
 45 15  1  0  0  0  0
 45 10  1  0  0  0  0
 46  1  1  0  0  0  0
M  END
>  <CHROM.1>
-71.09159613,-172.67337388,170.92295694,-73.70106384,72.23942587,-158.98095762
178.73394745,-170.04484417,-57.49617686,54.73586465,85.18374109,75.54887555
69.92293784,11.87520449,-6.91955403,3.91931811,-2.86424912,-0.67055181,-0.12091634

>  <Name>
lig.pdb

>  <RI>
0

>  <Rbt.Current_Directory>
/home/afrankz/demos/rdock_decoys_rna/rnas/3wru

>  <Rbt.Executable>
rbdock ($Id: //depot/dev/client3/rdock/2013.1/src/exe/rbdock.cxx#4 $)

>  <Rbt.Library>
libRbt.so (2013.1, Build901 2013/11/27)

>  <Rbt.Parameter_File>
/export/apps/rDock/src/rDock_2013.1_src/data/scripts/dock_solv.prm

>  <Rbt.Receptor>
prm/blind_docking_20.prm

>  <SCORE>
11.8047

>  <SCORE.INTER>
-0.306326

>  <SCORE.INTER.CONST>
1

>  <SCORE.INTER.POLAR>
0

>  <SCORE.INTER.ROT>
13

>  <SCORE.INTER.SOLV>
30.1724

>  <SCORE.INTER.VDW>
-22.5284

>  <SCORE.INTER.norm>
-0.00665926

>  <SCORE.INTRA>
5.87314

>  <SCORE.INTRA.DIHEDRAL>
-11.3829

>  <SCORE.INTRA.DIHEDRAL.0>
19.7146

>  <SCORE.INTRA.POLAR>
0

>  <SCORE.INTRA.POLAR.0>
0

>  <SCORE.INTRA.REPUL>
0.0187549

>  <SCORE.INTRA.REPUL.0>
0

>  <SCORE.INTRA.SOLV>
7.95161

>  <SCORE.INTRA.SOLV.lig_0>
-116.697

>  <SCORE.INTRA.VDW>
7.49503

>  <SCORE.INTRA.VDW.0>
-7.06424

>  <SCORE.INTRA.norm>
0.127677

>  <SCORE.RESTR>
6.23791

>  <SCORE.RESTR.CAVITY>
6.23791

>  <SCORE.RESTR.norm>
0.135607

>  <SCORE.SYSTEM>
0

>  <SCORE.SYSTEM.CONST>
0

>  <SCORE.SYSTEM.DIHEDRAL>
0

>  <SCORE.SYSTEM.SOLV>
0

>  <SCORE.SYSTEM.norm>
0

>  <SCORE.heavy>
46

>  <SCORE.norm>
0.256625

>  <RMSD>
12.313

$$$$
lig.pdb
 OpenBabel03061811583D
libRbt.so/2013.1/901 2013/11/27
 46 49  0  0  0  0  0  0  0  0999 V2000
   12.6435  -11.3712    4.3975 C   0  0  1  0  0  0  0  0  0  0  0  0
   11.3535   -9.3276    3.6442 C   0  0  1  0  0  0  0  0  0  0  0  0
   11.6364   -7.8089    3.4364 C   0  0  1  0  0  0  0  0  0  0  0  0
   10.2531   -7.0680    3.0617 C   0  0  2  0  0  0  0  0  0  0  0  0
   12.9651   -6.2470    4.9307 C   0  0  2  0  0  0  0  0  0  0  0  0
   13.7050   -5.7758    3.6465 C   0  0  1  0  0  0  0  0  0  0  0  0
   13.9035   -4.3317    4.0389 C   0  0  1  0  0  0  0  0  0  0  0  0
   12.5200   -3.8808    4.6062 C   0  0  1  0  0  0  0  0  0  0  0  0
   11.4303   -3.4547    3.5609 C   0  0  0  0  0  0  0  0  0  0  0  0
   14.9107   -3.1987    5.9846 C   0  0  1  0  0  0  0  0  0  0  0  0
   15.7489   -2.0121    5.6128 C   0  0  1  0  0  0  0  0  0  0  0  0
   11.9305  -11.5370    5.7604 C   0  0  1  0  0  0  0  0  0  0  0  0
   15.6035   -0.9275    6.7383 C   0  0  0  0  0  0  0  0  0  0  0  0
   16.0292   -1.3526    8.0408 C   0  0  0  0  0  0  0  0  0  0  0  0
   15.2163   -2.4781    8.4501 C   0  0  2  0  0  0  0  0  0  0  0  0
   15.6459   -2.9982    9.8783 C   0  0  0  0  0  0  0  0  0  0  0  0
    6.1258   -6.2456    0.9692 C   0  0  2  0  0  0  0  0  0  0  0  0
    8.0369   -7.1240   -0.0934 C   0  0  0  0  0  0  0  0  0  0  0  0
    5.0548   -5.3727    0.9408 C   0  0  0  0  0  0  0  0  0  0  0  0
    6.6468   -6.3390   -0.2794 C   0  0  1  0  0  0  0  0  0  0  0  0
   12.6938  -10.7323    6.9082 C   0  0  0  0  0  0  0  0  0  0  0  0
   14.2013  -11.2747    6.9831 C   0  0  0  0  0  0  0  0  0  0  0  0
   14.8790  -11.0428    5.5538 C   0  0  1  0  0  0  0  0  0  0  0  0
   16.3280  -11.5435    5.5198 C   0  0  0  0  0  0  0  0  0  0  0  0
    9.7259   -7.6731    1.6881 C   0  0  1  0  0  0  0  0  0  0  0  0
    9.4279   -9.2405    1.9718 C   0  0  0  0  0  0  0  0  0  0  0  0
   10.7637   -9.9792    2.3689 C   0  0  2  0  0  0  0  0  0  0  0  0
    5.6967   -7.5192    1.5016 F   0  0  0  0  0  0  0  0  0  0  0  0
   15.5851   -1.8950   10.9735 N   0  0  0  0  0  0  0  0  0  0  0  0
   10.4996  -11.0828    5.6006 N   0  0  0  0  0  0  0  0  0  0  0  0
   17.1181   -2.2812    5.5323 N   0  0  0  0  0  0  0  0  0  0  0  0
    4.0306   -5.1169    1.8825 N   0  0  0  0  0  0  0  0  0  0  0  0
   17.2033  -10.6039    6.1047 N   0  0  0  0  0  0  0  0  0  0  0  0
    8.4665   -7.0117    1.3021 N   0  0  0  0  0  0  0  0  0  0  0  0
   10.5046  -11.4099    2.6433 N   0  0  0  0  0  0  0  0  0  0  0  0
   12.5590  -10.0221    3.9372 O   0  0  0  0  0  0  0  0  0  0  0  0
   12.2007   -7.2938    4.7284 O   0  0  0  0  0  0  0  0  0  0  0  0
   10.5294   -5.7309    2.8831 O   0  0  0  0  0  0  0  0  0  0  0  0
   14.8896   -6.5044    3.5318 O   0  0  0  0  0  0  0  0  0  0  0  0
   12.2755   -5.0417    5.4175 O   0  0  0  0  0  0  0  0  0  0  0  0
   10.3732   -2.7955    4.2862 O   0  0  0  0  0  0  0  0  0  0  0  0
   14.9907   -4.2480    5.0950 O   0  0  0  0  0  0  0  0  0  0  0  0
    5.7968   -7.0655   -1.1936 O   0  0  0  0  0  0  0  0  0  0  0  0
    8.6289   -7.7359   -0.9977 O   0  0  0  0  0  0  0  0  0  0  0  0
   15.3054   -3.5888    7.4302 O   0  0  0  0  0  0  0  0  0  0  0  0
   14.0872  -11.7766    4.4839 O   0  0  0  0  0  0  0  0  0  0  0  0
  1 36  1  1  0  0  0
  2 36  1  6  0  0  0
  2  3  1  0  0  0  0
  3 37  1  1  0  0  0
  3  4  1  0  0  0  0
  4 38  1  6  0  0  0
  5 37  1  6  0  0  0
  5  6  1  0  0  0  0
  6  7  1  0  0  0  0
  6 39  1  1  0  0  0
  7 42  1  1  0  0  0
  8  9  1  6  0  0  0
  8  7  1  0  0  0  0
 10 42  1  6  0  0  0
 10 11  1  0  0  0  0
 11 31  1  1  0  0  0
 11 13  1  0  0  0  0
 12 30  1  6  0  0  0
 12  1  1  0  0  0  0
 14 13  1  0  0  0  0
 15 16  1  1  0  0  0
 15 14  1  0  0  0  0
 17 19  1  6  0  0  0
 17 28  1  0  0  0  0
 18 34  1  0  0  0  0
 19 32  1  0  0  0  0
 20 18  1  1  0  0  0
 20 17  1  0  0  0  0
 20 43  1  0  0  0  0
 21 12  1  0  0  0  0
 22 21  1  0  0  0  0
 22 23  1  0  0  0  0
 23 24  1  1  0  0  0
 23 46  1  0  0  0  0
 24 33  1  0  0  0  0
 25 34  1  1  0  0  0
 25  4  1  0  0  0  0
 26 25  1  0  0  0  0
 27 35  1  1  0  0  0
 27 26  1  0  0  0  0
 27  2  1  0  0  0  0
 29 16  1  0  0  0  0
 40  8  1  0  0  0  0
 40  5  1  0  0  0  0
 41  9  1  0  0  0  0
 44 18  2  0  0  0  0
 45 15  1  0  0  0  0
 45 10  1  0  0  0  0
 46  1  1  0  0  0  0
M  END
>  <CHROM.1>
-61.47655260,169.09003751,156.00935153,-20.36516582,-151.44555402,-166.96830974
-96.14292261,56.70560834,166.50980440,-20.57647863,169.04344958,-80.34625079
161.90523150,11.92131623,-6.71389592,4.18370765,-2.73152745,-0.61228385,0.10529052

>  <Name>
lig.pdb

>  <RI>
0

>  <Rbt.Current_Directory>
/home/afrankz/demos/rdock_decoys_rna/rnas/3wru

>  <Rbt.Executable>
rbdock ($Id: //depot/dev/client3/rdock/2013.1/src/exe/rbdock.cxx#4 $)

>  <Rbt.Library>
libRbt.so (2013.1, Build901 2013/11/27)

>  <Rbt.Parameter_File>
/export/apps/rDock/src/rDock_2013.1_src/data/scripts/dock_solv.prm

>  <Rbt.Receptor>
prm/blind_docking_20.prm

>  <SCORE>
17.2018

>  <SCORE.INTER>
1.33583

>  <SCORE.INTER.CONST>
1

>  <SCORE.INTER.POLAR>
0

>  <SCORE.INTER.ROT>
13

>  <SCORE.INTER.SOLV>
41.9442

>  <SCORE.INTER.VDW>
-25.3575

>  <SCORE.INTER.norm>
0.0290398

>  <SCORE.INTRA>
9.81313

>  <SCORE.INTRA.DIHEDRAL>
2.10585

>  <SCORE.INTRA.DIHEDRAL.0>
19.7146

>  <SCORE.INTRA.POLAR>
0

>  <SCORE.INTRA.POLAR.0>
0

>  <SCORE.INTRA.REPUL>
0

>  <SCORE.INTRA.REPUL.0>
0

>  <SCORE.INTRA.SOLV>
2.03184

>  <SCORE.INTRA.SOLV.lig_0>
-116.697

>  <SCORE.INTRA.VDW>
7.74428

>  <SCORE.INTRA.VDW.0>
-7.06424

>  <SCORE.INTRA.norm>
0.213329

>  <SCORE.RESTR>
6.05285

>  <SCORE.RESTR.CAVITY>
6.05285

>  <SCORE.RESTR.norm>
0.131584

>  <SCORE.SYSTEM>
0

>  <SCORE.SYSTEM.CONST>
0

>  <SCORE.SYSTEM.DIHEDRAL>
0

>  <SCORE.SYSTEM.SOLV>
0

>  <SCORE.SYSTEM.norm>
0

>  <SCORE.heavy>
46

>  <SCORE.norm>
0.373952

>  <RMSD>
12.455

$$$$
lig.pdb
 OpenBabel03061811583D
libRbt.so/2013.1/901 2013/11/27
 46 49  0  0  0  0  0  0  0  0999 V2000
   13.1708   -9.2186    4.7784 C   0  0  1  0  0  0  0  0  0  0  0  0
   11.5645   -8.3094    3.0460 C   0  0  1  0  0  0  0  0  0  0  0  0
   12.1790   -7.5128    1.8555 C   0  0  1  0  0  0  0  0  0  0  0  0
   11.0839   -6.4592    1.3134 C   0  0  2  0  0  0  0  0  0  0  0  0
   13.5617   -6.2191    3.5444 C   0  0  2  0  0  0  0  0  0  0  0  0
   14.3716   -4.8955    3.4399 C   0  0  1  0  0  0  0  0  0  0  0  0
   13.8290   -4.2216    4.6770 C   0  0  1  0  0  0  0  0  0  0  0  0
   12.2851   -4.4457    4.6063 C   0  0  1  0  0  0  0  0  0  0  0  0
   11.4665   -3.4597    3.7011 C   0  0  0  0  0  0  0  0  0  0  0  0
   14.7739   -4.0465    6.9486 C   0  0  1  0  0  0  0  0  0  0  0  0
   13.7595   -2.9828    7.2460 C   0  0  1  0  0  0  0  0  0  0  0  0
   14.5163   -9.9793    4.7128 C   0  0  1  0  0  0  0  0  0  0  0  0
   14.3086   -2.0823    8.4087 C   0  0  0  0  0  0  0  0  0  0  0  0
   15.5457   -1.4157    8.1192 C   0  0  0  0  0  0  0  0  0  0  0  0
   16.5612   -2.4142    7.8608 C   0  0  2  0  0  0  0  0  0  0  0  0
   17.9488   -1.7381    7.5255 C   0  0  0  0  0  0  0  0  0  0  0  0
    5.7316   -5.0593    0.8995 C   0  0  2  0  0  0  0  0  0  0  0  0
    7.4059   -6.6725    0.5159 C   0  0  0  0  0  0  0  0  0  0  0  0
    6.4829   -4.1488    1.6184 C   0  0  0  0  0  0  0  0  0  0  0  0
    6.4804   -5.5279   -0.1296 C   0  0  1  0  0  0  0  0  0  0  0  0
   14.2800  -11.5463    4.5222 C   0  0  0  0  0  0  0  0  0  0  0  0
   13.3869  -12.0712    5.7466 C   0  0  0  0  0  0  0  0  0  0  0  0
   12.0073  -11.2635    5.7307 C   0  0  1  0  0  0  0  0  0  0  0  0
   11.0830  -11.6875    6.8784 C   0  0  0  0  0  0  0  0  0  0  0  0
    9.8329   -7.2812    0.7750 C   0  0  1  0  0  0  0  0  0  0  0  0
    9.2250   -8.0659    2.0559 C   0  0  0  0  0  0  0  0  0  0  0  0
   10.2912   -9.0820    2.6206 C   0  0  2  0  0  0  0  0  0  0  0  0
    4.5008   -4.4360    0.4679 F   0  0  0  0  0  0  0  0  0  0  0  0
   18.7976   -1.4259    8.7913 N   0  0  0  0  0  0  0  0  0  0  0  0
   15.3374   -9.3862    3.5932 N   0  0  0  0  0  0  0  0  0  0  0  0
   13.5183   -2.1085    6.1826 N   0  0  0  0  0  0  0  0  0  0  0  0
    7.7377   -4.2702    2.2602 N   0  0  0  0  0  0  0  0  0  0  0  0
    9.7644  -11.2339    6.6619 N   0  0  0  0  0  0  0  0  0  0  0  0
    8.8116   -6.3534    0.2570 N   0  0  0  0  0  0  0  0  0  0  0  0
    9.7542   -9.7973    3.7993 N   0  0  0  0  0  0  0  0  0  0  0  0
   12.4884   -9.2779    3.5253 O   0  0  0  0  0  0  0  0  0  0  0  0
   13.3960   -6.8128    2.3863 O   0  0  0  0  0  0  0  0  0  0  0  0
   11.6496   -5.7699    0.2642 O   0  0  0  0  0  0  0  0  0  0  0  0
   15.7300   -5.2071    3.5086 O   0  0  0  0  0  0  0  0  0  0  0  0
   12.3254   -5.8361    4.2443 O   0  0  0  0  0  0  0  0  0  0  0  0
   11.6581   -3.8723    2.3332 O   0  0  0  0  0  0  0  0  0  0  0  0
   14.4300   -4.8793    5.9060 O   0  0  0  0  0  0  0  0  0  0  0  0
    5.6856   -6.0897   -1.1968 O   0  0  0  0  0  0  0  0  0  0  0  0
    6.9790   -7.6550    1.1443 O   0  0  0  0  0  0  0  0  0  0  0  0
   16.1278   -3.3256    6.7369 O   0  0  0  0  0  0  0  0  0  0  0  0
   12.2818   -9.7737    5.8543 O   0  0  0  0  0  0  0  0  0  0  0  0
  1 36  1  6  0  0  0
  2 36  1  6  0  0  0
  2  3  1  0  0  0  0
  3 37  1  1  0  0  0
  3  4  1  0  0  0  0
  4 38  1  6  0  0  0
  5 37  1  6  0  0  0
  5  6  1  0  0  0  0
  6  7  1  0  0  0  0
  6 39  1  1  0  0  0
  7 42  1  1  0  0  0
  8  9  1  6  0  0  0
  8  7  1  0  0  0  0
 10 42  1  6  0  0  0
 10 11  1  0  0  0  0
 11 31  1  6  0  0  0
 11 13  1  0  0  0  0
 12 30  1  6  0  0  0
 12  1  1  0  0  0  0
 14 13  1  0  0  0  0
 15 16  1  6  0  0  0
 15 14  1  0  0  0  0
 17 19  1  6  0  0  0
 17 28  1  0  0  0  0
 18 34  1  0  0  0  0
 19 32  1  0  0  0  0
 20 18  1  1  0  0  0
 20 17  1  0  0  0  0
 20 43  1  0  0  0  0
 21 12  1  0  0  0  0
 22 21  1  0  0  0  0
 22 23  1  0  0  0  0
 23 24  1  1  0  0  0
 23 46  1  0  0  0  0
 24 33  1  0  0  0  0
 25 34  1  1  0  0  0
 25  4  1  0  0  0  0
 26 25  1  0  0  0  0
 27 35  1  1  0  0  0
 27 26  1  0  0  0  0
 27  2  1  0  0  0  0
 29 16  1  0  0  0  0
 40  8  1  0  0  0  0
 40  5  1  0  0  0  0
 41  9  1  0  0  0  0
 44 18  2  0  0  0  0
 45 15  1  0  0  0  0
 45 10  1  0  0  0  0
 46  1  1  0  0  0  0
M  END
>  <CHROM.1>
-153.00766462,109.77018316,-39.88922204,-140.05589138,140.67360843,77.65168839
42.69372672,87.21201299,-56.84391854,-123.52032961,81.42800546,-164.96952970
-141.30569003,11.87258862,-6.26904552,3.87032466,-0.27805802,0.62164153,3.11779730

>  <Name>
lig.pdb

>  <RI>
0

>  <Rbt.Current_Directory>
/home/afrankz/demos/rdock_decoys_rna/rnas/3wru

>  <Rbt.Executable>
rbdock ($Id: //depot/dev/client3/rdock/2013.1/src/exe/rbdock.cxx#4 $)

>  <Rbt.Library>
libRbt.so (2013.1, Build901 2013/11/27)

>  <Rbt.Parameter_File>
/export/apps/rDock/src/rDock_2013.1_src/data/scripts/dock_solv.prm

>  <Rbt.Receptor>
prm/blind_docking_20.prm

>  <SCORE>
31.1115

>  <SCORE.INTER>
6.16497

>  <SCORE.INTER.CONST>
1

>  <SCORE.INTER.POLAR>
0

>  <SCORE.INTER.ROT>
13

>  <SCORE.INTER.SOLV>
38.8242

>  <SCORE.INTER.VDW>
-21.0981

>  <SCORE.INTER.norm>
0.134021

>  <SCORE.INTRA>
18.2187

>  <SCORE.INTRA.DIHEDRAL>
12.6208

>  <SCORE.INTRA.DIHEDRAL.0>
19.7146

>  <SCORE.INTRA.POLAR>
0

>  <SCORE.INTRA.POLAR.0>
0

>  <SCORE.INTRA.REPUL>
0

>  <SCORE.INTRA.REPUL.0>
0

>  <SCORE.INTRA.SOLV>
9.16045

>  <SCORE.INTRA.SOLV.lig_0>
-116.697

>  <SCORE.INTRA.VDW>
7.32804

>  <SCORE.INTRA.VDW.0>
-7.06424

>  <SCORE.INTRA.norm>
0.396058

>  <SCORE.RESTR>
6.72789

>  <SCORE.RESTR.CAVITY>
6.72789

>  <SCORE.RESTR.norm>
0.146258

>  <SCORE.SYSTEM>
0

>  <SCORE.SYSTEM.CONST>
0

>  <SCORE.SYSTEM.DIHEDRAL>
0

>  <SCORE.SYSTEM.SOLV>
0

>  <SCORE.SYSTEM.norm>
0

>  <SCORE.heavy>
46

>  <SCORE.norm>
0.676338

>  <RMSD>
12.631

$$$$
lig.pdb
 OpenBabel03061811583D
libRbt.so/2013.1/901 2013/11/27
 46 49  0  0  0  0  0  0  0  0999 V2000
   12.0647  -11.1766    4.2653 C   0  0  1  0  0  0  0  0  0  0  0  0
   10.8429   -9.3169    3.0584 C   0  0  1  0  0  0  0  0  0  0  0  0
   11.0293   -7.7917    2.7962 C   0  0  1  0  0  0  0  0  0  0  0  0
    9.7983   -7.2635    1.8970 C   0  0  2  0  0  0  0  0  0  0  0  0
   11.7301   -6.0640    4.5172 C   0  0  2  0  0  0  0  0  0  0  0  0
   13.2699   -6.2781    4.4715 C   0  0  1  0  0  0  0  0  0  0  0  0
   13.6760   -4.8332    4.3099 C   0  0  1  0  0  0  0  0  0  0  0  0
   12.7212   -4.2734    3.2081 C   0  0  1  0  0  0  0  0  0  0  0  0
   13.1157   -4.5589    1.7166 C   0  0  0  0  0  0  0  0  0  0  0  0
   14.0712   -2.8710    5.7512 C   0  0  1  0  0  0  0  0  0  0  0  0
   15.5522   -2.9129    5.9831 C   0  0  1  0  0  0  0  0  0  0  0  0
   11.4801  -11.3464    5.6875 C   0  0  1  0  0  0  0  0  0  0  0  0
   16.0709   -1.4414    6.1564 C   0  0  0  0  0  0  0  0  0  0  0  0
   15.4920   -0.7262    7.2573 C   0  0  0  0  0  0  0  0  0  0  0  0
   14.0624   -0.6341    7.0503 C   0  0  2  0  0  0  0  0  0  0  0  0
   13.3658    0.1379    8.2392 C   0  0  0  0  0  0  0  0  0  0  0  0
    5.3495   -7.1815   -0.4935 C   0  0  2  0  0  0  0  0  0  0  0  0
    7.5620   -6.9906    0.2948 C   0  0  0  0  0  0  0  0  0  0  0  0
    4.4283   -6.2391   -0.0772 C   0  0  0  0  0  0  0  0  0  0  0  0
    6.5011   -6.5486   -0.8288 C   0  0  1  0  0  0  0  0  0  0  0  0
   12.3415  -10.5386    6.7615 C   0  0  0  0  0  0  0  0  0  0  0  0
   13.8520  -11.0741    6.6977 C   0  0  0  0  0  0  0  0  0  0  0  0
   14.3950  -10.8384    5.2126 C   0  0  1  0  0  0  0  0  0  0  0  0
   15.8371  -11.3323    5.0457 C   0  0  0  0  0  0  0  0  0  0  0  0
    9.8467   -8.0228    0.4999 C   0  0  1  0  0  0  0  0  0  0  0  0
    9.6245   -9.5930    0.8331 C   0  0  0  0  0  0  0  0  0  0  0  0
   10.8033  -10.1237    1.7369 C   0  0  2  0  0  0  0  0  0  0  0  0
    4.7910   -7.9562   -1.5787 F   0  0  0  0  0  0  0  0  0  0  0  0
   13.9501   -0.2321    9.6328 N   0  0  0  0  0  0  0  0  0  0  0  0
   10.0385  -10.8986    5.6597 N   0  0  0  0  0  0  0  0  0  0  0  0
   15.9298   -3.5788    7.1525 N   0  0  0  0  0  0  0  0  0  0  0  0
    4.4692   -5.2893    0.9705 N   0  0  0  0  0  0  0  0  0  0  0  0
   16.7189  -10.6155    5.8822 N   0  0  0  0  0  0  0  0  0  0  0  0
    8.7430   -7.5580   -0.3592 N   0  0  0  0  0  0  0  0  0  0  0  0
   10.6071  -11.5542    2.0599 N   0  0  0  0  0  0  0  0  0  0  0  0
   11.9322   -9.8276    3.8159 O   0  0  0  0  0  0  0  0  0  0  0  0
   11.0529   -7.1221    4.1393 O   0  0  0  0  0  0  0  0  0  0  0  0
    9.9862   -5.9169    1.6794 O   0  0  0  0  0  0  0  0  0  0  0  0
   13.6680   -6.8515    5.6798 O   0  0  0  0  0  0  0  0  0  0  0  0
   11.5069   -4.8485    3.7186 O   0  0  0  0  0  0  0  0  0  0  0  0
   12.0525   -4.0512    0.8859 O   0  0  0  0  0  0  0  0  0  0  0  0
   13.4829   -4.1113    5.6312 O   0  0  0  0  0  0  0  0  0  0  0  0
    6.9920   -6.9227   -2.1347 O   0  0  0  0  0  0  0  0  0  0  0  0
    7.3952   -6.8503    1.5176 O   0  0  0  0  0  0  0  0  0  0  0  0
   13.4653   -2.0122    6.8883 O   0  0  0  0  0  0  0  0  0  0  0  0
   13.5120  -11.5752    4.2189 O   0  0  0  0  0  0  0  0  0  0  0  0
  1 36  1  1  0  0  0
  2 36  1  1  0  0  0
  2  3  1  0  0  0  0
  3 37  1  1  0  0  0
  3  4  1  0  0  0  0
  4 38  1  6  0  0  0
  5 37  1  6  0  0  0
  5  6  1  0  0  0  0
  6  7  1  0  0  0  0
  6 39  1  1  0  0  0
  7 42  1  1  0  0  0
  8  9  1  6  0  0  0
  8  7  1  0  0  0  0
 10 42  1  1  0  0  0
 10 11  1  0  0  0  0
 11 31  1  1  0  0  0
 11 13  1  0  0  0  0
 12 30  1  6  0  0  0
 12  1  1  0  0  0  0
 14 13  1  0  0  0  0
 15 16  1  1  0  0  0
 15 14  1  0  0  0  0
 17 19  1  6  0  0  0
 17 28  1  0  0  0  0
 18 34  1  0  0  0  0
 19 32  1  0  0  0  0
 20 18  1  1  0  0  0
 20 17  1  0  0  0  0
 20 43  1  0  0  0  0
 21 12  1  0  0  0  0
 22 21  1  0  0  0  0
 22 23  1  0  0  0  0
 23 24  1  1  0  0  0
 23 46  1  0  0  0  0
 24 33  1  0  0  0  0
 25 34  1  6  0  0  0
 25  4  1  0  0  0  0
 26 25  1  0  0  0  0
 27 35  1  1  0  0  0
 27 26  1  0  0  0  0
 27  2  1  0  0  0  0
 29 16  1  0  0  0  0
 40  8  1  0  0  0  0
 40  5  1  0  0  0  0
 41  9  1  0  0  0  0
 44 18  2  0  0  0  0
 45 15  1  0  0  0  0
 45 10  1  0  0  0  0
 46  1  1  0  0  0  0
M  END
>  <CHROM.1>
-92.46605199,178.14405542,146.41498522,-63.77100474,166.24714773,175.50786193
-76.61875616,-40.27042721,-58.78344556,125.47387952,111.38222017,-62.65871102
-24.20413525,11.45786734,-6.67935927,3.60403991,-2.62890422,-0.68912238,0.09706915

>  <Name>
lig.pdb

>  <RI>
0

>  <Rbt.Current_Directory>
/home/afrankz/demos/rdock_decoys_rna/rnas/3wru

>  <Rbt.Executable>
rbdock ($Id: //depot/dev/client3/rdock/2013.1/src/exe/rbdock.cxx#4 $)

>  <Rbt.Library>
libRbt.so (2013.1, Build901 2013/11/27)

>  <Rbt.Parameter_File>
/export/apps/rDock/src/rDock_2013.1_src/data/scripts/dock_solv.prm

>  <Rbt.Receptor>
prm/blind_docking_20.prm

>  <SCORE>
26.369

>  <SCORE.INTER>
11.3386

>  <SCORE.INTER.CONST>
1

>  <SCORE.INTER.POLAR>
0

>  <SCORE.INTER.ROT>
13

>  <SCORE.INTER.SOLV>
42.5409

>  <SCORE.INTER.VDW>
-18.8879

>  <SCORE.INTER.norm>
0.246491

>  <SCORE.INTRA>
7.20386

>  <SCORE.INTRA.DIHEDRAL>
0.0302817

>  <SCORE.INTRA.DIHEDRAL.0>
19.7146

>  <SCORE.INTRA.POLAR>
0

>  <SCORE.INTRA.POLAR.0>
0

>  <SCORE.INTRA.REPUL>
0

>  <SCORE.INTRA.REPUL.0>
0

>  <SCORE.INTRA.SOLV>
3.37825

>  <SCORE.INTRA.SOLV.lig_0>
-116.697

>  <SCORE.INTRA.VDW>
5.4996

>  <SCORE.INTRA.VDW.0>
-7.06424

>  <SCORE.INTRA.norm>
0.156606

>  <SCORE.RESTR>
7.82654

>  <SCORE.RESTR.CAVITY>
7.82654

>  <SCORE.RESTR.norm>
0.170142

>  <SCORE.SYSTEM>
0

>  <SCORE.SYSTEM.CONST>
0

>  <SCORE.SYSTEM.DIHEDRAL>
0

>  <SCORE.SYSTEM.SOLV>
0

>  <SCORE.SYSTEM.norm>
0

>  <SCORE.heavy>
46

>  <SCORE.norm>
0.573238

>  <RMSD>
12.686

$$$$
lig.pdb
 OpenBabel03061811583D
libRbt.so/2013.1/901 2013/11/27
 46 49  0  0  0  0  0  0  0  0999 V2000
    6.0777  -13.2345   18.7132 C   0  0  1  0  0  0  0  0  0  0  0  0
    6.3764  -13.6398   16.2324 C   0  0  1  0  0  0  0  0  0  0  0  0
    7.8761  -13.3434   16.5369 C   0  0  1  0  0  0  0  0  0  0  0  0
    8.7488  -13.6667   15.2191 C   0  0  2  0  0  0  0  0  0  0  0  0
    7.2634  -10.8829   16.4456 C   0  0  2  0  0  0  0  0  0  0  0  0
    8.1494   -9.7259   15.9023 C   0  0  1  0  0  0  0  0  0  0  0  0
    7.1496   -9.1334   14.9388 C   0  0  1  0  0  0  0  0  0  0  0  0
    6.5517  -10.3617   14.1819 C   0  0  1  0  0  0  0  0  0  0  0  0
    7.3858  -10.9281   12.9798 C   0  0  0  0  0  0  0  0  0  0  0  0
    6.5157   -7.3840   16.5579 C   0  0  1  0  0  0  0  0  0  0  0  0
    6.5451   -7.7593   18.0095 C   0  0  1  0  0  0  0  0  0  0  0  0
    6.1230  -14.5859   19.4649 C   0  0  1  0  0  0  0  0  0  0  0  0
    6.9993   -6.5061   18.8387 C   0  0  0  0  0  0  0  0  0  0  0  0
    6.1419   -5.3621   18.7165 C   0  0  0  0  0  0  0  0  0  0  0  0
    6.1163   -4.9477   17.3299 C   0  0  2  0  0  0  0  0  0  0  0  0
    5.1778   -3.6930   17.1304 C   0  0  0  0  0  0  0  0  0  0  0  0
   12.4152  -16.7245   12.6903 C   0  0  2  0  0  0  0  0  0  0  0  0
   10.8406  -15.3366   13.7614 C   0  0  0  0  0  0  0  0  0  0  0  0
   12.8852  -17.3097   11.5298 C   0  0  0  0  0  0  0  0  0  0  0  0
   11.4966  -15.7819   12.3633 C   0  0  1  0  0  0  0  0  0  0  0  0
    4.6516  -15.1503   19.7183 C   0  0  0  0  0  0  0  0  0  0  0  0
    3.8332  -14.0568   20.5591 C   0  0  0  0  0  0  0  0  0  0  0  0
    3.8041  -12.7033   19.7087 C   0  0  1  0  0  0  0  0  0  0  0  0
    3.0497  -11.5853   20.4383 C   0  0  0  0  0  0  0  0  0  0  0  0
    8.5989  -15.2173   14.8963 C   0  0  1  0  0  0  0  0  0  0  0  0
    7.0309  -15.4586   14.5662 C   0  0  0  0  0  0  0  0  0  0  0  0
    6.1554  -15.1201   15.8339 C   0  0  2  0  0  0  0  0  0  0  0  0
   13.5263  -16.1951   13.4484 F   0  0  0  0  0  0  0  0  0  0  0  0
    5.5241   -2.8677   15.8579 N   0  0  0  0  0  0  0  0  0  0  0  0
    6.9700  -15.5428   18.6609 N   0  0  0  0  0  0  0  0  0  0  0  0
    5.3001   -8.1186   18.5333 N   0  0  0  0  0  0  0  0  0  0  0  0
   12.2827  -18.2204   10.6304 N   0  0  0  0  0  0  0  0  0  0  0  0
    3.8061  -11.0843   21.5190 N   0  0  0  0  0  0  0  0  0  0  0  0
    9.3942  -15.5578   13.7030 N   0  0  0  0  0  0  0  0  0  0  0  0
    4.7190  -15.3240   15.5430 N   0  0  0  0  0  0  0  0  0  0  0  0
    5.5792  -13.4043   17.3858 O   0  0  0  0  0  0  0  0  0  0  0  0
    7.9628  -11.8917   16.9083 O   0  0  0  0  0  0  0  0  0  0  0  0
   10.0669  -13.3979   15.5134 O   0  0  0  0  0  0  0  0  0  0  0  0
    8.4792   -8.8892   16.9692 O   0  0  0  0  0  0  0  0  0  0  0  0
    6.3529  -11.1984   15.3335 O   0  0  0  0  0  0  0  0  0  0  0  0
    8.6937  -11.2643   13.4844 O   0  0  0  0  0  0  0  0  0  0  0  0
    6.0827   -8.3910   15.7228 O   0  0  0  0  0  0  0  0  0  0  0  0
   12.0755  -14.6314   11.7096 O   0  0  0  0  0  0  0  0  0  0  0  0
   11.4777  -14.8927   14.7308 O   0  0  0  0  0  0  0  0  0  0  0  0
    5.6713   -6.0906   16.4482 O   0  0  0  0  0  0  0  0  0  0  0  0
    5.2246  -12.2342   19.4395 O   0  0  0  0  0  0  0  0  0  0  0  0
  1 36  1  6  0  0  0
  2 36  1  1  0  0  0
  2  3  1  0  0  0  0
  3 37  1  6  0  0  0
  3  4  1  0  0  0  0
  4 38  1  1  0  0  0
  5 37  1  6  0  0  0
  5  6  1  0  0  0  0
  6  7  1  0  0  0  0
  6 39  1  1  0  0  0
  7 42  1  1  0  0  0
  8  9  1  6  0  0  0
  8  7  1  0  0  0  0
 10 42  1  6  0  0  0
 10 11  1  0  0  0  0
 11 31  1  1  0  0  0
 11 13  1  0  0  0  0
 12 30  1  6  0  0  0
 12  1  1  0  0  0  0
 14 13  1  0  0  0  0
 15 16  1  1  0  0  0
 15 14  1  0  0  0  0
 17 19  1  6  0  0  0
 17 28  1  0  0  0  0
 18 34  1  0  0  0  0
 19 32  1  0  0  0  0
 20 18  1  1  0  0  0
 20 17  1  0  0  0  0
 20 43  1  0  0  0  0
 21 12  1  0  0  0  0
 22 21  1  0  0  0  0
 22 23  1  0  0  0  0
 23 24  1  1  0  0  0
 23 46  1  0  0  0  0
 24 33  1  0  0  0  0
 25 34  1  6  0  0  0
 25  4  1  0  0  0  0
 26 25  1  0  0  0  0
 27 35  1  6  0  0  0
 27 26  1  0  0  0  0
 27  2  1  0  0  0  0
 29 16  1  0  0  0  0
 40  8  1  0  0  0  0
 40  5  1  0  0  0  0
 41  9  1  0  0  0  0
 44 18  2  0  0  0  0
 45 15  1  0  0  0  0
 45 10  1  0  0  0  0
 46  1  1  0  0  0  0
M  END
>  <CHROM.1>
-91.96936920,-13.91801063,-34.49455369,-125.90920244,57.34020799,56.63750732
-102.72549244,157.07345716,-73.01077054,-122.38557202,170.97810381,73.17061294
60.80417693,7.51391489,-11.93508296,16.16485205,2.36823218,0.80892760,-0.12973238

>  <Name>
lig.pdb

>  <RI>
0

>  <Rbt.Current_Directory>
/home/afrankz/demos/rdock_decoys_rna/rnas/3wru

>  <Rbt.Executable>
rbdock ($Id: //depot/dev/client3/rdock/2013.1/src/exe/rbdock.cxx#4 $)

>  <Rbt.Library>
libRbt.so (2013.1, Build901 2013/11/27)

>  <Rbt.Parameter_File>
/export/apps/rDock/src/rDock_2013.1_src/data/scripts/dock_solv.prm

>  <Rbt.Receptor>
prm/blind_docking_80.prm

>  <SCORE>
69.0326

>  <SCORE.INTER>
36.3751

>  <SCORE.INTER.CONST>
1

>  <SCORE.INTER.POLAR>
0

>  <SCORE.INTER.ROT>
13

>  <SCORE.INTER.SOLV>
31.644

>  <SCORE.INTER.VDW>
1.43541

>  <SCORE.INTER.norm>
0.790763

>  <SCORE.INTRA>
20.1112

>  <SCORE.INTRA.DIHEDRAL>
11.9757

>  <SCORE.INTRA.DIHEDRAL.0>
19.7146

>  <SCORE.INTRA.POLAR>
0

>  <SCORE.INTRA.POLAR.0>
0

>  <SCORE.INTRA.REPUL>
0

>  <SCORE.INTRA.REPUL.0>
0

>  <SCORE.INTRA.SOLV>
4.94196

>  <SCORE.INTRA.SOLV.lig_0>
-116.697

>  <SCORE.INTRA.VDW>
11.6524

>  <SCORE.INTRA.VDW.0>
-7.06424

>  <SCORE.INTRA.norm>
0.4372

>  <SCORE.RESTR>
12.5463

>  <SCORE.RESTR.CAVITY>
12.5463

>  <SCORE.RESTR.norm>
0.272745

>  <SCORE.SYSTEM>
0

>  <SCORE.SYSTEM.CONST>
0

>  <SCORE.SYSTEM.DIHEDRAL>
0

>  <SCORE.SYSTEM.SOLV>
0

>  <SCORE.SYSTEM.norm>
0

>  <SCORE.heavy>
46

>  <SCORE.norm>
1.50071

>  <RMSD>
12.764

$$$$
lig.pdb
 OpenBabel03061811583D
libRbt.so/2013.1/901 2013/11/27
 46 49  0  0  0  0  0  0  0  0999 V2000
    5.2451  -13.4468   17.7765 C   0  0  1  0  0  0  0  0  0  0  0  0
    5.8068  -11.0384   17.2362 C   0  0  1  0  0  0  0  0  0  0  0  0
    6.5595  -10.4964   15.9834 C   0  0  1  0  0  0  0  0  0  0  0  0
    7.2015   -9.0605   16.3423 C   0  0  2  0  0  0  0  0  0  0  0  0
    8.4401  -11.5223   14.6235 C   0  0  2  0  0  0  0  0  0  0  0  0
    8.2074  -12.7379   13.6818 C   0  0  1  0  0  0  0  0  0  0  0  0
    8.7683  -12.1321   12.4179 C   0  0  1  0  0  0  0  0  0  0  0  0
    8.1499  -10.6993   12.3562 C   0  0  1  0  0  0  0  0  0  0  0  0
    6.6964  -10.5790   11.7777 C   0  0  0  0  0  0  0  0  0  0  0  0
   10.9605  -13.2531   12.2726 C   0  0  1  0  0  0  0  0  0  0  0  0
   11.2483  -14.0675   13.4985 C   0  0  1  0  0  0  0  0  0  0  0  0
    6.2451  -13.2489   18.9402 C   0  0  1  0  0  0  0  0  0  0  0  0
   12.0696  -15.3357   13.0723 C   0  0  0  0  0  0  0  0  0  0  0  0
   13.3304  -15.0531   12.4485 C   0  0  0  0  0  0  0  0  0  0  0  0
   13.0899  -14.2960   11.2385 C   0  0  2  0  0  0  0  0  0  0  0  0
   14.4468  -13.9458   10.5097 C   0  0  0  0  0  0  0  0  0  0  0  0
    6.2126   -4.0806   18.7546 C   0  0  2  0  0  0  0  0  0  0  0  0
    5.6223   -5.6033   17.0559 C   0  0  0  0  0  0  0  0  0  0  0  0
    6.9556   -2.9962   19.1814 C   0  0  0  0  0  0  0  0  0  0  0  0
    6.4309   -4.2653   17.4289 C   0  0  1  0  0  0  0  0  0  0  0  0
    7.7426  -13.1449   18.3976 C   0  0  0  0  0  0  0  0  0  0  0  0
    8.0744  -14.4853   17.5817 C   0  0  0  0  0  0  0  0  0  0  0  0
    7.0229  -14.6046   16.3834 C   0  0  1  0  0  0  0  0  0  0  0  0
    7.2508  -15.8689   15.5461 C   0  0  0  0  0  0  0  0  0  0  0  0
    6.0127   -8.0606   16.6854 C   0  0  1  0  0  0  0  0  0  0  0  0
    5.2860   -8.6608   18.0035 C   0  0  0  0  0  0  0  0  0  0  0  0
    4.6755  -10.0794   17.6828 C   0  0  2  0  0  0  0  0  0  0  0  0
    4.8193   -3.8678   19.0759 F   0  0  0  0  0  0  0  0  0  0  0  0
   14.9840  -12.5302   10.8670 N   0  0  0  0  0  0  0  0  0  0  0  0
    5.8314  -12.0187   19.7114 N   0  0  0  0  0  0  0  0  0  0  0  0
   12.0409  -13.4144   14.4465 N   0  0  0  0  0  0  0  0  0  0  0  0
    6.8773   -1.6216   18.8561 N   0  0  0  0  0  0  0  0  0  0  0  0
    7.2810  -17.0195   16.3625 N   0  0  0  0  0  0  0  0  0  0  0  0
    6.5574   -6.7293   17.0071 N   0  0  0  0  0  0  0  0  0  0  0  0
    4.0190  -10.6459   18.8818 N   0  0  0  0  0  0  0  0  0  0  0  0
    5.1924  -12.2870   16.9451 O   0  0  0  0  0  0  0  0  0  0  0  0
    7.6218  -11.5027   15.6488 O   0  0  0  0  0  0  0  0  0  0  0  0
    7.8590   -8.6039   15.2219 O   0  0  0  0  0  0  0  0  0  0  0  0
    8.9421  -13.8182   14.1721 O   0  0  0  0  0  0  0  0  0  0  0  0
    8.3709  -10.3526   13.7334 O   0  0  0  0  0  0  0  0  0  0  0  0
    6.7528  -10.9647   10.3898 O   0  0  0  0  0  0  0  0  0  0  0  0
   10.2819  -12.0797   12.5204 O   0  0  0  0  0  0  0  0  0  0  0  0
    5.9549   -3.1679   16.6194 O   0  0  0  0  0  0  0  0  0  0  0  0
    4.3970   -5.6564   16.8597 O   0  0  0  0  0  0  0  0  0  0  0  0
   12.3138  -13.0384   11.5513 O   0  0  0  0  0  0  0  0  0  0  0  0
    5.6093  -14.6404   16.9408 O   0  0  0  0  0  0  0  0  0  0  0  0
  1 36  1  6  0  0  0
  2 36  1  6  0  0  0
  2  3  1  0  0  0  0
  3 37  1  1  0  0  0
  3  4  1  0  0  0  0
  4 38  1  6  0  0  0
  5 37  1  1  0  0  0
  5  6  1  0  0  0  0
  6  7  1  0  0  0  0
  6 39  1  1  0  0  0
  7 42  1  1  0  0  0
  8  9  1  1  0  0  0
  8  7  1  0  0  0  0
 10 42  1  1  0  0  0
 10 11  1  0  0  0  0
 11 31  1  1  0  0  0
 11 13  1  0  0  0  0
 12 30  1  6  0  0  0
 12  1  1  0  0  0  0
 14 13  1  0  0  0  0
 15 16  1  1  0  0  0
 15 14  1  0  0  0  0
 17 19  1  6  0  0  0
 17 28  1  0  0  0  0
 18 34  1  0  0  0  0
 19 32  1  0  0  0  0
 20 18  1  6  0  0  0
 20 17  1  0  0  0  0
 20 43  1  0  0  0  0
 21 12  1  0  0  0  0
 22 21  1  0  0  0  0
 22 23  1  0  0  0  0
 23 24  1  1  0  0  0
 23 46  1  0  0  0  0
 24 33  1  0  0  0  0
 25 34  1  1  0  0  0
 25  4  1  0  0  0  0
 26 25  1  0  0  0  0
 27 35  1  1  0  0  0
 27 26  1  0  0  0  0
 27  2  1  0  0  0  0
 29 16  1  0  0  0  0
 40  8  1  0  0  0  0
 40  5  1  0  0  0  0
 41  9  1  0  0  0  0
 44 18  2  0  0  0  0
 45 15  1  0  0  0  0
 45 10  1  0  0  0  0
 46  1  1  0  0  0  0
M  END
>  <CHROM.1>
-8.93994250,133.93700682,174.79513346,-115.41942565,79.38058906,-65.17104893
-93.06441391,-95.73250692,65.29702779,-99.80692386,175.74361908,52.99747433
166.58404971,7.88006315,-10.74810168,15.48588195,2.30515549,0.78018988,-0.02114614

>  <Name>
lig.pdb

>  <RI>
0

>  <Rbt.Current_Directory>
/home/afrankz/demos/rdock_decoys_rna/rnas/3wru

>  <Rbt.Executable>
rbdock ($Id: //depot/dev/client3/rdock/2013.1/src/exe/rbdock.cxx#4 $)

>  <Rbt.Library>
libRbt.so (2013.1, Build901 2013/11/27)

>  <Rbt.Parameter_File>
/export/apps/rDock/src/rDock_2013.1_src/data/scripts/dock_solv.prm

>  <Rbt.Receptor>
prm/blind_docking_80.prm

>  <SCORE>
32.2981

>  <SCORE.INTER>
7.50478

>  <SCORE.INTER.CONST>
1

>  <SCORE.INTER.POLAR>
0

>  <SCORE.INTER.ROT>
13

>  <SCORE.INTER.SOLV>
37.8757

>  <SCORE.INTER.VDW>
-19.8887

>  <SCORE.INTER.norm>
0.163147

>  <SCORE.INTRA>
18.3379

>  <SCORE.INTRA.DIHEDRAL>
12.6589

>  <SCORE.INTRA.DIHEDRAL.0>
19.7146

>  <SCORE.INTRA.POLAR>
0

>  <SCORE.INTRA.POLAR.0>
0

>  <SCORE.INTRA.REPUL>
0

>  <SCORE.INTRA.REPUL.0>
0

>  <SCORE.INTRA.SOLV>
7.75671

>  <SCORE.INTRA.SOLV.lig_0>
-116.697

>  <SCORE.INTRA.VDW>
8.13006

>  <SCORE.INTRA.VDW.0>
-7.06424

>  <SCORE.INTRA.norm>
0.398649

>  <SCORE.RESTR>
6.45549

>  <SCORE.RESTR.CAVITY>
6.45549

>  <SCORE.RESTR.norm>
0.140337

>  <SCORE.SYSTEM>
0

>  <SCORE.SYSTEM.CONST>
0

>  <SCORE.SYSTEM.DIHEDRAL>
0

>  <SCORE.SYSTEM.SOLV>
0

>  <SCORE.SYSTEM.norm>
0

>  <SCORE.heavy>
46

>  <SCORE.norm>
0.702134

>  <RMSD>
13.234

$$$$
lig.pdb
 OpenBabel03061811583D
libRbt.so/2013.1/901 2013/11/27
 46 49  0  0  0  0  0  0  0  0999 V2000
    5.3933  -14.2480   17.7106 C   0  0  1  0  0  0  0  0  0  0  0  0
    7.1592  -13.7495   15.9668 C   0  0  1  0  0  0  0  0  0  0  0  0
    7.3129  -12.2061   16.1224 C   0  0  1  0  0  0  0  0  0  0  0  0
    7.8562  -11.5941   14.7320 C   0  0  2  0  0  0  0  0  0  0  0  0
    5.6437  -10.5912   17.1440 C   0  0  2  0  0  0  0  0  0  0  0  0
    5.9639   -9.2748   16.3802 C   0  0  1  0  0  0  0  0  0  0  0  0
    4.9618   -8.3834   17.0730 C   0  0  1  0  0  0  0  0  0  0  0  0
    3.6410   -9.2164   17.0993 C   0  0  1  0  0  0  0  0  0  0  0  0
    2.7666   -9.1998   15.7967 C   0  0  0  0  0  0  0  0  0  0  0  0
    6.2535   -6.9656   18.6238 C   0  0  1  0  0  0  0  0  0  0  0  0
    6.3462   -6.4577   20.0318 C   0  0  1  0  0  0  0  0  0  0  0  0
    5.3126  -14.8842   19.1184 C   0  0  1  0  0  0  0  0  0  0  0  0
    7.2359   -5.1643   20.0370 C   0  0  0  0  0  0  0  0  0  0  0  0
    6.7346   -4.0872   19.2325 C   0  0  0  0  0  0  0  0  0  0  0  0
    6.6646   -4.5299   17.8562 C   0  0  2  0  0  0  0  0  0  0  0  0
    6.1088   -3.3854   16.9202 C   0  0  0  0  0  0  0  0  0  0  0  0
    8.8666  -10.9770    9.7989 C   0  0  2  0  0  0  0  0  0  0  0  0
    9.0570  -11.8854   11.9649 C   0  0  0  0  0  0  0  0  0  0  0  0
    8.1454   -9.8568   10.1666 C   0  0  0  0  0  0  0  0  0  0  0  0
    9.8267  -11.2034   10.7297 C   0  0  1  0  0  0  0  0  0  0  0  0
    5.5594  -16.4597   19.0504 C   0  0  0  0  0  0  0  0  0  0  0  0
    4.4600  -17.0975   18.0722 C   0  0  0  0  0  0  0  0  0  0  0  0
    4.6248  -16.4152   16.6358 C   0  0  1  0  0  0  0  0  0  0  0  0
    3.6034  -16.9531   15.6264 C   0  0  0  0  0  0  0  0  0  0  0  0
    9.2927  -12.2155   14.4475 C   0  0  1  0  0  0  0  0  0  0  0  0
    9.0664  -13.8105   14.2721 C   0  0  0  0  0  0  0  0  0  0  0  0
    8.5070  -14.4255   15.6126 C   0  0  2  0  0  0  0  0  0  0  0  0
    9.3990  -10.7930    8.4677 F   0  0  0  0  0  0  0  0  0  0  0  0
    5.9077   -3.8449   15.4475 N   0  0  0  0  0  0  0  0  0  0  0  0
    6.3152  -14.1879   20.0069 N   0  0  0  0  0  0  0  0  0  0  0  0
    5.1218   -6.0672   20.5812 N   0  0  0  0  0  0  0  0  0  0  0  0
    6.7757   -9.5354   10.0188 N   0  0  0  0  0  0  0  0  0  0  0  0
    4.0529  -16.7672   14.3018 N   0  0  0  0  0  0  0  0  0  0  0  0
    9.8320  -11.6703   13.1888 N   0  0  0  0  0  0  0  0  0  0  0  0
    8.2833  -15.8805   15.4632 N   0  0  0  0  0  0  0  0  0  0  0  0
    6.7195  -14.3306   17.1876 O   0  0  0  0  0  0  0  0  0  0  0  0
    5.9533  -11.6687   16.4628 O   0  0  0  0  0  0  0  0  0  0  0  0
    7.9836  -10.2327   14.8952 O   0  0  0  0  0  0  0  0  0  0  0  0
    7.2952   -8.9379   16.6281 O   0  0  0  0  0  0  0  0  0  0  0  0
    4.2262  -10.4611   17.5168 O   0  0  0  0  0  0  0  0  0  0  0  0
    1.3943   -9.3846   16.1976 O   0  0  0  0  0  0  0  0  0  0  0  0
    5.4539   -8.0781   18.4761 O   0  0  0  0  0  0  0  0  0  0  0  0
   10.8711  -12.0845   10.2614 O   0  0  0  0  0  0  0  0  0  0  0  0
    7.9709  -12.4816   11.8779 O   0  0  0  0  0  0  0  0  0  0  0  0
    5.8090   -5.7699   17.7461 O   0  0  0  0  0  0  0  0  0  0  0  0
    4.4415  -14.9112   16.7566 O   0  0  0  0  0  0  0  0  0  0  0  0
  1 36  1  6  0  0  0
  2 36  1  1  0  0  0
  2  3  1  0  0  0  0
  3 37  1  6  0  0  0
  3  4  1  0  0  0  0
  4 38  1  1  0  0  0
  5 37  1  6  0  0  0
  5  6  1  0  0  0  0
  6  7  1  0  0  0  0
  6 39  1  1  0  0  0
  7 42  1  1  0  0  0
  8  9  1  6  0  0  0
  8  7  1  0  0  0  0
 10 42  1  1  0  0  0
 10 11  1  0  0  0  0
 11 31  1  6  0  0  0
 11 13  1  0  0  0  0
 12 30  1  1  0  0  0
 12  1  1  0  0  0  0
 14 13  1  0  0  0  0
 15 16  1  6  0  0  0
 15 14  1  0  0  0  0
 17 19  1  1  0  0  0
 17 28  1  0  0  0  0
 18 34  1  0  0  0  0
 19 32  1  0  0  0  0
 20 18  1  1  0  0  0
 20 17  1  0  0  0  0
 20 43  1  0  0  0  0
 21 12  1  0  0  0  0
 22 21  1  0  0  0  0
 22 23  1  0  0  0  0
 23 24  1  6  0  0  0
 23 46  1  0  0  0  0
 24 33  1  0  0  0  0
 25 34  1  6  0  0  0
 25  4  1  0  0  0  0
 26 25  1  0  0  0  0
 27 35  1  6  0  0  0
 27 26  1  0  0  0  0
 27  2  1  0  0  0  0
 29 16  1  0  0  0  0
 40  8  1  0  0  0  0
 40  5  1  0  0  0  0
 41  9  1  0  0  0  0
 44 18  2  0  0  0  0
 45 15  1  0  0  0  0
 45 10  1  0  0  0  0
 46  1  1  0  0  0  0
M  END
>  <CHROM.1>
-174.72968431,74.50319708,152.34523246,70.47605077,89.54845396,-150.80413856
161.29728102,-175.47096304,-145.05358388,-156.78494444,77.75240643,-157.23089333
-59.00750627,6.52425215,-10.90809653,15.76608407,1.25576483,-1.07679075,-2.98405325

>  <Name>
lig.pdb

>  <RI>
0

>  <Rbt.Current_Directory>
/home/afrankz/demos/rdock_decoys_rna/rnas/3wru

>  <Rbt.Executable>
rbdock ($Id: //depot/dev/client3/rdock/2013.1/src/exe/rbdock.cxx#4 $)

>  <Rbt.Library>
libRbt.so (2013.1, Build901 2013/11/27)

>  <Rbt.Parameter_File>
/export/apps/rDock/src/rDock_2013.1_src/data/scripts/dock_solv.prm

>  <Rbt.Receptor>
prm/blind_docking_60.prm

>  <SCORE>
26.1375

>  <SCORE.INTER>
13.4686

>  <SCORE.INTER.CONST>
1

>  <SCORE.INTER.POLAR>
0

>  <SCORE.INTER.ROT>
13

>  <SCORE.INTER.SOLV>
38.4937

>  <SCORE.INTER.VDW>
-16.1188

>  <SCORE.INTER.norm>
0.292796

>  <SCORE.INTRA>
4.66298

>  <SCORE.INTRA.DIHEDRAL>
0.0958081

>  <SCORE.INTRA.DIHEDRAL.0>
19.7146

>  <SCORE.INTRA.POLAR>
0

>  <SCORE.INTRA.POLAR.0>
0

>  <SCORE.INTRA.REPUL>
0

>  <SCORE.INTRA.REPUL.0>
0

>  <SCORE.INTRA.SOLV>
-1.99327

>  <SCORE.INTRA.SOLV.lig_0>
-116.697

>  <SCORE.INTRA.VDW>
5.61171

>  <SCORE.INTRA.VDW.0>
-7.06424

>  <SCORE.INTRA.norm>
0.101369

>  <SCORE.RESTR>
8.00596

>  <SCORE.RESTR.CAVITY>
8.00596

>  <SCORE.RESTR.norm>
0.174043

>  <SCORE.SYSTEM>
0

>  <SCORE.SYSTEM.CONST>
0

>  <SCORE.SYSTEM.DIHEDRAL>
0

>  <SCORE.SYSTEM.SOLV>
0

>  <SCORE.SYSTEM.norm>
0

>  <SCORE.heavy>
46

>  <SCORE.norm>
0.568207

>  <RMSD>
13.364

$$$$
lig.pdb
 OpenBabel03061811583D
libRbt.so/2013.1/901 2013/11/27
 46 49  0  0  0  0  0  0  0  0999 V2000
    5.0580  -12.1002   18.1074 C   0  0  1  0  0  0  0  0  0  0  0  0
    5.9425  -10.4242   16.4291 C   0  0  1  0  0  0  0  0  0  0  0  0
    7.4780  -10.1586   16.4663 C   0  0  1  0  0  0  0  0  0  0  0  0
    7.9796   -9.7936   14.9770 C   0  0  2  0  0  0  0  0  0  0  0  0
    7.1097   -7.8407   17.4305 C   0  0  2  0  0  0  0  0  0  0  0  0
    5.6627   -7.8909   17.9981 C   0  0  1  0  0  0  0  0  0  0  0  0
    5.5724   -6.4579   18.4643 C   0  0  1  0  0  0  0  0  0  0  0  0
    6.9198   -6.1974   19.2098 C   0  0  1  0  0  0  0  0  0  0  0  0
    7.0116   -6.6839   20.6987 C   0  0  0  0  0  0  0  0  0  0  0  0
    4.9264   -4.2858   17.4905 C   0  0  1  0  0  0  0  0  0  0  0  0
    3.4669   -4.2505   17.8334 C   0  0  1  0  0  0  0  0  0  0  0  0
    5.0236  -12.2367   19.6480 C   0  0  1  0  0  0  0  0  0  0  0  0
    3.0340   -2.7524   18.0143 C   0  0  0  0  0  0  0  0  0  0  0  0
    3.2138   -1.9308   16.8519 C   0  0  0  0  0  0  0  0  0  0  0  0
    4.6202   -1.9116   16.5104 C   0  0  2  0  0  0  0  0  0  0  0  0
    4.8802   -1.0269   15.2279 C   0  0  0  0  0  0  0  0  0  0  0  0
    9.0182   -9.5159   10.5678 C   0  0  2  0  0  0  0  0  0  0  0  0
    9.5995  -10.8922   12.3902 C   0  0  0  0  0  0  0  0  0  0  0  0
    7.8111  -10.0369   10.1416 C   0  0  0  0  0  0  0  0  0  0  0  0
    9.8630  -10.5402   10.8443 C   0  0  1  0  0  0  0  0  0  0  0  0
    6.4925  -12.1397   20.2650 C   0  0  0  0  0  0  0  0  0  0  0  0
    7.3889  -13.2969   19.6095 C   0  0  0  0  0  0  0  0  0  0  0  0
    7.4012  -13.0725   18.0267 C   0  0  1  0  0  0  0  0  0  0  0  0
    8.2276  -14.1427   17.3035 C   0  0  0  0  0  0  0  0  0  0  0  0
    7.7103  -11.0533   14.0434 C   0  0  1  0  0  0  0  0  0  0  0  0
    6.1038  -11.2645   14.0248 C   0  0  0  0  0  0  0  0  0  0  0  0
    5.5873  -11.5942   15.4783 C   0  0  2  0  0  0  0  0  0  0  0  0
    8.7951   -8.6434   11.6986 F   0  0  0  0  0  0  0  0  0  0  0  0
    4.5844    0.4830   15.4576 N   0  0  0  0  0  0  0  0  0  0  0  0
    4.1044  -11.1706   20.1939 N   0  0  0  0  0  0  0  0  0  0  0  0
    2.6318   -4.7594   16.8349 N   0  0  0  0  0  0  0  0  0  0  0  0
    6.6108  -10.3092   10.8391 N   0  0  0  0  0  0  0  0  0  0  0  0
    7.5690  -15.3905   17.3216 N   0  0  0  0  0  0  0  0  0  0  0  0
    8.1681  -10.7652   12.6723 N   0  0  0  0  0  0  0  0  0  0  0  0
    4.1191  -11.7774   15.4791 N   0  0  0  0  0  0  0  0  0  0  0  0
    5.4700  -10.7891   17.7195 O   0  0  0  0  0  0  0  0  0  0  0  0
    7.6957   -9.0143   17.4130 O   0  0  0  0  0  0  0  0  0  0  0  0
    9.3360   -9.5644   15.0364 O   0  0  0  0  0  0  0  0  0  0  0  0
    4.7935   -8.2073   16.9533 O   0  0  0  0  0  0  0  0  0  0  0  0
    7.7815   -6.8075   18.2345 O   0  0  0  0  0  0  0  0  0  0  0  0
    5.8287   -6.2167   21.3773 O   0  0  0  0  0  0  0  0  0  0  0  0
    5.4213   -5.5504   17.2569 O   0  0  0  0  0  0  0  0  0  0  0  0
    9.6194  -11.7088   10.0311 O   0  0  0  0  0  0  0  0  0  0  0  0
   10.4804  -11.2313   13.1974 O   0  0  0  0  0  0  0  0  0  0  0  0
    5.1285   -3.3182   16.2985 O   0  0  0  0  0  0  0  0  0  0  0  0
    5.9797  -13.1129   17.4902 O   0  0  0  0  0  0  0  0  0  0  0  0
  1 36  1  1  0  0  0
  2 36  1  1  0  0  0
  2  3  1  0  0  0  0
  3 37  1  1  0  0  0
  3  4  1  0  0  0  0
  4 38  1  1  0  0  0
  5 37  1  1  0  0  0
  5  6  1  0  0  0  0
  6  7  1  0  0  0  0
  6 39  1  6  0  0  0
  7 42  1  6  0  0  0
  8  9  1  1  0  0  0
  8  7  1  0  0  0  0
 10 42  1  6  0  0  0
 10 11  1  0  0  0  0
 11 31  1  6  0  0  0
 11 13  1  0  0  0  0
 12 30  1  1  0  0  0
 12  1  1  0  0  0  0
 14 13  1  0  0  0  0
 15 16  1  6  0  0  0
 15 14  1  0  0  0  0
 17 19  1  1  0  0  0
 17 28  1  0  0  0  0
 18 34  1  0  0  0  0
 19 32  1  0  0  0  0
 20 18  1  1  0  0  0
 20 17  1  0  0  0  0
 20 43  1  0  0  0  0
 21 12  1  0  0  0  0
 22 21  1  0  0  0  0
 22 23  1  0  0  0  0
 23 24  1  6  0  0  0
 23 46  1  0  0  0  0
 24 33  1  0  0  0  0
 25 34  1  6  0  0  0
 25  4  1  0  0  0  0
 26 25  1  0  0  0  0
 27 35  1  6  0  0  0
 27 26  1  0  0  0  0
 27  2  1  0  0  0  0
 29 16  1  0  0  0  0
 40  8  1  0  0  0  0
 40  5  1  0  0  0  0
 41  9  1  0  0  0  0
 44 18  2  0  0  0  0
 45 15  1  0  0  0  0
 45 10  1  0  0  0  0
 46  1  1  0  0  0  0
M  END
>  <CHROM.1>
162.56806257,-107.67408127,-51.27867549,75.93991684,160.93727650,-48.53113567
-71.74109349,66.11302081,95.62539529,37.94942353,-89.20256495,71.50838174
80.22275519,6.48992430,-8.71458210,16.18743707,0.57199114,-1.14172255,2.52925099

>  <Name>
lig.pdb

>  <RI>
0

>  <Rbt.Current_Directory>
/home/afrankz/demos/rdock_decoys_rna/rnas/3wru

>  <Rbt.Executable>
rbdock ($Id: //depot/dev/client3/rdock/2013.1/src/exe/rbdock.cxx#4 $)

>  <Rbt.Library>
libRbt.so (2013.1, Build901 2013/11/27)

>  <Rbt.Parameter_File>
/export/apps/rDock/src/rDock_2013.1_src/data/scripts/dock_solv.prm

>  <Rbt.Receptor>
prm/blind_docking_80.prm

>  <SCORE>
28.5113

>  <SCORE.INTER>
3.96419

>  <SCORE.INTER.CONST>
1

>  <SCORE.INTER.POLAR>
0

>  <SCORE.INTER.ROT>
13

>  <SCORE.INTER.SOLV>
33.8257

>  <SCORE.INTER.VDW>
-20.8991

>  <SCORE.INTER.norm>
0.0861781

>  <SCORE.INTRA>
17.7779

>  <SCORE.INTRA.DIHEDRAL>
0.483516

>  <SCORE.INTRA.DIHEDRAL.0>
19.7146

>  <SCORE.INTRA.POLAR>
0

>  <SCORE.INTRA.POLAR.0>
0

>  <SCORE.INTRA.REPUL>
0

>  <SCORE.INTRA.REPUL.0>
0

>  <SCORE.INTRA.SOLV>
5.75853

>  <SCORE.INTRA.SOLV.lig_0>
-116.697

>  <SCORE.INTRA.VDW>
14.6569

>  <SCORE.INTRA.VDW.0>
-7.06424

>  <SCORE.INTRA.norm>
0.386476

>  <SCORE.RESTR>
6.76921

>  <SCORE.RESTR.CAVITY>
6.76921

>  <SCORE.RESTR.norm>
0.147157

>  <SCORE.SYSTEM>
0

>  <SCORE.SYSTEM.CONST>
0

>  <SCORE.SYSTEM.DIHEDRAL>
0

>  <SCORE.SYSTEM.SOLV>
0

>  <SCORE.SYSTEM.norm>
0

>  <SCORE.heavy>
46

>  <SCORE.norm>
0.619811

>  <RMSD>
14.298

$$$$
lig.pdb
 OpenBabel03061811583D
libRbt.so/2013.1/901 2013/11/27
 46 49  0  0  0  0  0  0  0  0999 V2000
    6.0218  -13.1583   19.4483 C   0  0  1  0  0  0  0  0  0  0  0  0
    5.8713  -13.5862   16.9579 C   0  0  1  0  0  0  0  0  0  0  0  0
    6.6518  -12.2399   16.8679 C   0  0  1  0  0  0  0  0  0  0  0  0
    6.8934  -11.8808   15.3137 C   0  0  2  0  0  0  0  0  0  0  0  0
    5.9908   -9.9059   17.6118 C   0  0  2  0  0  0  0  0  0  0  0  0
    4.7340   -9.1339   18.1048 C   0  0  1  0  0  0  0  0  0  0  0  0
    5.4400   -7.9209   18.6610 C   0  0  1  0  0  0  0  0  0  0  0  0
    6.6331   -8.4997   19.4859 C   0  0  1  0  0  0  0  0  0  0  0  0
    6.3157   -8.9916   20.9416 C   0  0  0  0  0  0  0  0  0  0  0  0
    5.9490   -5.6966   17.7245 C   0  0  1  0  0  0  0  0  0  0  0  0
    4.5941   -5.0811   17.9095 C   0  0  1  0  0  0  0  0  0  0  0  0
    6.4267  -14.0461   20.6487 C   0  0  1  0  0  0  0  0  0  0  0  0
    4.7708   -3.5310   18.0835 C   0  0  0  0  0  0  0  0  0  0  0  0
    5.3864   -2.8679   16.9699 C   0  0  0  0  0  0  0  0  0  0  0  0
    6.7143   -3.4124   16.7822 C   0  0  2  0  0  0  0  0  0  0  0  0
    7.4412   -2.7253   15.5597 C   0  0  0  0  0  0  0  0  0  0  0  0
   10.4173  -10.9797   11.1273 C   0  0  2  0  0  0  0  0  0  0  0  0
    9.2244  -11.9172   12.9304 C   0  0  0  0  0  0  0  0  0  0  0  0
   10.9268  -11.2774    9.8776 C   0  0  0  0  0  0  0  0  0  0  0  0
    9.3065  -11.7292   11.3363 C   0  0  1  0  0  0  0  0  0  0  0  0
    5.1801  -14.8849   21.1874 C   0  0  0  0  0  0  0  0  0  0  0  0
    4.0247  -13.8537   21.6044 C   0  0  0  0  0  0  0  0  0  0  0  0
    3.6403  -12.9965   20.3109 C   0  0  1  0  0  0  0  0  0  0  0  0
    2.5447  -11.9666   20.6119 C   0  0  0  0  0  0  0  0  0  0  0  0
    7.7942  -13.0271   14.6769 C   0  0  1  0  0  0  0  0  0  0  0  0
    6.9245  -14.3907   14.7771 C   0  0  0  0  0  0  0  0  0  0  0  0
    6.6515  -14.7453   16.2896 C   0  0  2  0  0  0  0  0  0  0  0  0
   10.1691   -9.5588   11.2216 F   0  0  0  0  0  0  0  0  0  0  0  0
    7.4340   -1.1717   15.6398 N   0  0  0  0  0  0  0  0  0  0  0  0
    7.5664  -14.9351   20.2126 N   0  0  0  0  0  0  0  0  0  0  0  0
    3.7406   -5.2359   16.8134 N   0  0  0  0  0  0  0  0  0  0  0  0
   10.2861  -11.5393    8.6438 N   0  0  0  0  0  0  0  0  0  0  0  0
    2.9395  -11.0940   21.6482 N   0  0  0  0  0  0  0  0  0  0  0  0
    8.0502  -12.7293   13.2563 N   0  0  0  0  0  0  0  0  0  0  0  0
    5.8468  -15.9825   16.3963 N   0  0  0  0  0  0  0  0  0  0  0  0
    5.6744  -13.9565   18.3164 O   0  0  0  0  0  0  0  0  0  0  0  0
    5.8034  -11.2026   17.5439 O   0  0  0  0  0  0  0  0  0  0  0  0
    7.5836  -10.6905   15.2614 O   0  0  0  0  0  0  0  0  0  0  0  0
    3.9236   -8.8666   17.0007 O   0  0  0  0  0  0  0  0  0  0  0  0
    7.0665   -9.4662   18.5144 O   0  0  0  0  0  0  0  0  0  0  0  0
    7.0889  -10.1867   21.1697 O   0  0  0  0  0  0  0  0  0  0  0  0
    5.9268   -7.0578   17.5111 O   0  0  0  0  0  0  0  0  0  0  0  0
    8.0994  -11.0958   10.8586 O   0  0  0  0  0  0  0  0  0  0  0  0
   10.0447  -11.4533   13.7394 O   0  0  0  0  0  0  0  0  0  0  0  0
    6.6458   -4.9089   16.5880 O   0  0  0  0  0  0  0  0  0  0  0  0
    4.8678  -12.2624   19.7967 O   0  0  0  0  0  0  0  0  0  0  0  0
  1 36  1  6  0  0  0
  2 36  1  1  0  0  0
  2  3  1  0  0  0  0
  3 37  1  6  0  0  0
  3  4  1  0  0  0  0
  4 38  1  1  0  0  0
  5 37  1  1  0  0  0
  5  6  1  0  0  0  0
  6  7  1  0  0  0  0
  6 39  1  6  0  0  0
  7 42  1  6  0  0  0
  8  9  1  1  0  0  0
  8  7  1  0  0  0  0
 10 42  1  6  0  0  0
 10 11  1  0  0  0  0
 11 31  1  6  0  0  0
 11 13  1  0  0  0  0
 12 30  1  6  0  0  0
 12  1  1  0  0  0  0
 14 13  1  0  0  0  0
 15 16  1  6  0  0  0
 15 14  1  0  0  0  0
 17 19  1  6  0  0  0
 17 28  1  0  0  0  0
 18 34  1  0  0  0  0
 19 32  1  0  0  0  0
 20 18  1  1  0  0  0
 20 17  1  0  0  0  0
 20 43  1  0  0  0  0
 21 12  1  0  0  0  0
 22 21  1  0  0  0  0
 22 23  1  0  0  0  0
 23 24  1  1  0  0  0
 23 46  1  0  0  0  0
 24 33  1  0  0  0  0
 25 34  1  6  0  0  0
 25  4  1  0  0  0  0
 26 25  1  0  0  0  0
 27 35  1  6  0  0  0
 27 26  1  0  0  0  0
 27  2  1  0  0  0  0
 29 16  1  0  0  0  0
 40  8  1  0  0  0  0
 40  5  1  0  0  0  0
 41  9  1  0  0  0  0
 44 18  2  0  0  0  0
 45 15  1  0  0  0  0
 45 10  1  0  0  0  0
 46  1  1  0  0  0  0
M  END
>  <CHROM.1>
-148.23290952,5.59262675,-173.37385120,166.39398395,147.39595525,141.43428857
-65.79148248,52.09009985,38.95472600,-179.61732064,151.95738894,57.58929677
89.02512703,6.57228397,-10.15018607,16.74986553,-2.35481823,1.07376097,-0.12968576

>  <Name>
lig.pdb

>  <RI>
0

>  <Rbt.Current_Directory>
/home/afrankz/demos/rdock_decoys_rna/rnas/3wru

>  <Rbt.Executable>
rbdock ($Id: //depot/dev/client3/rdock/2013.1/src/exe/rbdock.cxx#4 $)

>  <Rbt.Library>
libRbt.so (2013.1, Build901 2013/11/27)

>  <Rbt.Parameter_File>
/export/apps/rDock/src/rDock_2013.1_src/data/scripts/dock_solv.prm

>  <Rbt.Receptor>
prm/blind_docking_80.prm

>  <SCORE>
29.1685

>  <SCORE.INTER>
12.1233

>  <SCORE.INTER.CONST>
1

>  <SCORE.INTER.POLAR>
0

>  <SCORE.INTER.ROT>
13

>  <SCORE.INTER.SOLV>
31.0099

>  <SCORE.INTER.VDW>
-14.5211

>  <SCORE.INTER.norm>
0.26355

>  <SCORE.INTRA>
5.8075

>  <SCORE.INTRA.DIHEDRAL>
5.58551

>  <SCORE.INTRA.DIHEDRAL.0>
19.7146

>  <SCORE.INTRA.POLAR>
0

>  <SCORE.INTRA.POLAR.0>
0

>  <SCORE.INTRA.REPUL>
0

>  <SCORE.INTRA.REPUL.0>
0

>  <SCORE.INTRA.SOLV>
1.34372

>  <SCORE.INTRA.SOLV.lig_0>
-116.697

>  <SCORE.INTRA.VDW>
2.34288

>  <SCORE.INTRA.VDW.0>
-7.06424

>  <SCORE.INTRA.norm>
0.12625

>  <SCORE.RESTR>
11.2377

>  <SCORE.RESTR.CAVITY>
11.2377

>  <SCORE.RESTR.norm>
0.244298

>  <SCORE.SYSTEM>
0

>  <SCORE.SYSTEM.CONST>
0

>  <SCORE.SYSTEM.DIHEDRAL>
0

>  <SCORE.SYSTEM.SOLV>
0

>  <SCORE.SYSTEM.norm>
0

>  <SCORE.heavy>
46

>  <SCORE.norm>
0.634098

>  <RMSD>
14.327

$$$$
lig.pdb
 OpenBabel03061811583D
libRbt.so/2013.1/901 2013/11/27
 46 49  0  0  0  0  0  0  0  0999 V2000
    6.0397  -11.6160   18.8316 C   0  0  1  0  0  0  0  0  0  0  0  0
    6.5745   -9.1554   18.5725 C   0  0  1  0  0  0  0  0  0  0  0  0
    5.1870   -8.9353   17.8972 C   0  0  1  0  0  0  0  0  0  0  0  0
    5.2004   -7.5159   17.1303 C   0  0  2  0  0  0  0  0  0  0  0  0
    5.6770  -10.3709   15.8632 C   0  0  2  0  0  0  0  0  0  0  0  0
    7.1894  -10.5914   16.1508 C   0  0  1  0  0  0  0  0  0  0  0  0
    7.4961  -11.4872   14.9750 C   0  0  1  0  0  0  0  0  0  0  0  0
    6.3307  -12.5266   14.9533 C   0  0  1  0  0  0  0  0  0  0  0  0
    6.4542  -13.7503   15.9275 C   0  0  0  0  0  0  0  0  0  0  0  0
    8.7020  -10.6362   12.9989 C   0  0  1  0  0  0  0  0  0  0  0  0
    8.5620  -10.1722   11.5797 C   0  0  1  0  0  0  0  0  0  0  0  0
    4.9377  -12.1259   19.7901 C   0  0  1  0  0  0  0  0  0  0  0  0
    9.9675  -10.2600   10.8861 C   0  0  0  0  0  0  0  0  0  0  0  0
   10.5358  -11.5768   10.8448 C   0  0  0  0  0  0  0  0  0  0  0  0
   10.7195  -12.0454   12.2019 C   0  0  2  0  0  0  0  0  0  0  0  0
   11.3359  -13.4996   12.2210 C   0  0  0  0  0  0  0  0  0  0  0  0
    5.4770   -2.3321   17.4142 C   0  0  2  0  0  0  0  0  0  0  0  0
    4.1738   -4.2910   17.5444 C   0  0  0  0  0  0  0  0  0  0  0  0
    5.6019   -1.0224   16.9907 C   0  0  0  0  0  0  0  0  0  0  0  0
    4.4164   -2.8957   16.7844 C   0  0  1  0  0  0  0  0  0  0  0  0
    5.5521  -12.5292   21.2070 C   0  0  0  0  0  0  0  0  0  0  0  0
    6.6667  -13.6573   20.9673 C   0  0  0  0  0  0  0  0  0  0  0  0
    7.7813  -13.0489   19.9960 C   0  0  1  0  0  0  0  0  0  0  0  0
    8.8922  -14.0620   19.6946 C   0  0  0  0  0  0  0  0  0  0  0  0
    5.4185   -6.3719   18.2141 C   0  0  1  0  0  0  0  0  0  0  0  0
    6.8798   -6.6383   18.8618 C   0  0  0  0  0  0  0  0  0  0  0  0
    6.8979   -8.0359   19.5929 C   0  0  2  0  0  0  0  0  0  0  0  0
    5.3645   -2.3650   18.8550 F   0  0  0  0  0  0  0  0  0  0  0  0
   12.8449  -13.5280   11.8437 N   0  0  0  0  0  0  0  0  0  0  0  0
    3.8849  -11.0505   19.9104 N   0  0  0  0  0  0  0  0  0  0  0  0
    7.7140  -10.9636   10.7998 N   0  0  0  0  0  0  0  0  0  0  0  0
    4.7291    0.0852   17.1044 N   0  0  0  0  0  0  0  0  0  0  0  0
    8.3775  -15.1978   19.0341 N   0  0  0  0  0  0  0  0  0  0  0  0
    5.4238   -5.0539   17.5543 N   0  0  0  0  0  0  0  0  0  0  0  0
    8.2309   -8.2986   20.1789 N   0  0  0  0  0  0  0  0  0  0  0  0
    6.5874  -10.3808   19.2934 O   0  0  0  0  0  0  0  0  0  0  0  0
    4.9876  -10.0732   16.9390 O   0  0  0  0  0  0  0  0  0  0  0  0
    3.9663   -7.3452   16.5439 O   0  0  0  0  0  0  0  0  0  0  0  0
    7.8286   -9.3517   16.1062 O   0  0  0  0  0  0  0  0  0  0  0  0
    5.2577  -11.5924   15.1581 O   0  0  0  0  0  0  0  0  0  0  0  0
    5.3240  -14.6109   15.6823 O   0  0  0  0  0  0  0  0  0  0  0  0
    7.5200  -10.6531   13.7069 O   0  0  0  0  0  0  0  0  0  0  0  0
    3.2211   -2.0881   16.8575 O   0  0  0  0  0  0  0  0  0  0  0  0
    3.0948   -4.6415   18.0500 O   0  0  0  0  0  0  0  0  0  0  0  0
    9.4079  -12.0135   12.9507 O   0  0  0  0  0  0  0  0  0  0  0  0
    7.1435  -12.6238   18.6835 O   0  0  0  0  0  0  0  0  0  0  0  0
  1 36  1  1  0  0  0
  2 36  1  1  0  0  0
  2  3  1  0  0  0  0
  3 37  1  6  0  0  0
  3  4  1  0  0  0  0
  4 38  1  1  0  0  0
  5 37  1  1  0  0  0
  5  6  1  0  0  0  0
  6  7  1  0  0  0  0
  6 39  1  6  0  0  0
  7 42  1  6  0  0  0
  8  9  1  1  0  0  0
  8  7  1  0  0  0  0
 10 42  1  6  0  0  0
 10 11  1  0  0  0  0
 11 31  1  6  0  0  0
 11 13  1  0  0  0  0
 12 30  1  1  0  0  0
 12  1  1  0  0  0  0
 14 13  1  0  0  0  0
 15 16  1  6  0  0  0
 15 14  1  0  0  0  0
 17 19  1  6  0  0  0
 17 28  1  0  0  0  0
 18 34  1  0  0  0  0
 19 32  1  0  0  0  0
 20 18  1  1  0  0  0
 20 17  1  0  0  0  0
 20 43  1  0  0  0  0
 21 12  1  0  0  0  0
 22 21  1  0  0  0  0
 22 23  1  0  0  0  0
 23 24  1  6  0  0  0
 23 46  1  0  0  0  0
 24 33  1  0  0  0  0
 25 34  1  6  0  0  0
 25  4  1  0  0  0  0
 26 25  1  0  0  0  0
 27 35  1  6  0  0  0
 27 26  1  0  0  0  0
 27  2  1  0  0  0  0
 29 16  1  0  0  0  0
 40  8  1  0  0  0  0
 40  5  1  0  0  0  0
 41  9  1  0  0  0  0
 44 18  2  0  0  0  0
 45 15  1  0  0  0  0
 45 10  1  0  0  0  0
 46  1  1  0  0  0  0
M  END
>  <CHROM.1>
-120.33859228,42.74871266,-64.24519662,57.58290389,119.83379535,-176.53953845
161.97905224,73.82172594,62.03128663,-53.82078526,-169.03735241,61.70735241
96.57063804,6.70076050,-9.37878512,16.59963398,0.64444196,-1.08101741,2.60763876

>  <Name>
lig.pdb

>  <RI>
0

>  <Rbt.Current_Directory>
/home/afrankz/demos/rdock_decoys_rna/rnas/3wru

>  <Rbt.Executable>
rbdock ($Id: //depot/dev/client3/rdock/2013.1/src/exe/rbdock.cxx#4 $)

>  <Rbt.Library>
libRbt.so (2013.1, Build901 2013/11/27)

>  <Rbt.Parameter_File>
/export/apps/rDock/src/rDock_2013.1_src/data/scripts/dock_solv.prm

>  <Rbt.Receptor>
prm/blind_docking_60.prm

>  <SCORE>
17.8073

>  <SCORE.INTER>
7.40392

>  <SCORE.INTER.CONST>
1

>  <SCORE.INTER.POLAR>
0

>  <SCORE.INTER.ROT>
13

>  <SCORE.INTER.SOLV>
32.9348

>  <SCORE.INTER.VDW>
-18.309

>  <SCORE.INTER.norm>
0.160955

>  <SCORE.INTRA>
5.48031

>  <SCORE.INTRA.DIHEDRAL>
0.396604

>  <SCORE.INTRA.DIHEDRAL.0>
19.7146

>  <SCORE.INTRA.POLAR>
0

>  <SCORE.INTRA.POLAR.0>
0

>  <SCORE.INTRA.REPUL>
0

>  <SCORE.INTRA.REPUL.0>
0

>  <SCORE.INTRA.SOLV>
2.29831

>  <SCORE.INTRA.SOLV.lig_0>
-116.697

>  <SCORE.INTRA.VDW>
4.13285

>  <SCORE.INTRA.VDW.0>
-7.06424

>  <SCORE.INTRA.norm>
0.119137

>  <SCORE.RESTR>
4.92308

>  <SCORE.RESTR.CAVITY>
4.92308

>  <SCORE.RESTR.norm>
0.107023

>  <SCORE.SYSTEM>
0

>  <SCORE.SYSTEM.CONST>
0

>  <SCORE.SYSTEM.DIHEDRAL>
0

>  <SCORE.SYSTEM.SOLV>
0

>  <SCORE.SYSTEM.norm>
0

>  <SCORE.heavy>
46

>  <SCORE.norm>
0.387115

>  <RMSD>
14.753

$$$$
lig.pdb
 OpenBabel03061811583D
libRbt.so/2013.1/901 2013/11/27
 46 49  0  0  0  0  0  0  0  0999 V2000
  -11.5408   -2.0407    6.8756 C   0  0  1  0  0  0  0  0  0  0  0  0
   -9.5963   -1.2979    5.4351 C   0  0  1  0  0  0  0  0  0  0  0  0
   -8.6897   -1.5831    6.6706 C   0  0  1  0  0  0  0  0  0  0  0  0
   -7.2291   -0.9530    6.4014 C   0  0  2  0  0  0  0  0  0  0  0  0
   -8.8969   -0.7936    9.0731 C   0  0  2  0  0  0  0  0  0  0  0  0
   -9.9818   -0.3088   10.0764 C   0  0  1  0  0  0  0  0  0  0  0  0
   -9.3608   -0.8607   11.3368 C   0  0  1  0  0  0  0  0  0  0  0  0
   -8.9360   -2.3169   10.9652 C   0  0  1  0  0  0  0  0  0  0  0  0
  -10.0524   -3.4178   11.0243 C   0  0  0  0  0  0  0  0  0  0  0  0
   -8.4198    1.1649   12.3834 C   0  0  1  0  0  0  0  0  0  0  0  0
   -7.2227    2.0518   12.5542 C   0  0  1  0  0  0  0  0  0  0  0  0
  -11.3628   -3.4824    7.4075 C   0  0  1  0  0  0  0  0  0  0  0  0
   -7.6536    3.3165   13.3784 C   0  0  0  0  0  0  0  0  0  0  0  0
   -8.1596    3.0343   14.6910 C   0  0  0  0  0  0  0  0  0  0  0  0
   -9.3404    2.2067   14.5648 C   0  0  2  0  0  0  0  0  0  0  0  0
   -9.9397    1.8538   15.9830 C   0  0  0  0  0  0  0  0  0  0  0  0
   -2.9996    0.7757    5.6972 C   0  0  2  0  0  0  0  0  0  0  0  0
   -5.1117    0.3058    4.7638 C   0  0  0  0  0  0  0  0  0  0  0  0
   -1.6255    0.7777    5.5485 C   0  0  0  0  0  0  0  0  0  0  0  0
   -3.5714    0.6611    4.4727 C   0  0  1  0  0  0  0  0  0  0  0  0
  -12.1229   -4.5342    6.4780 C   0  0  0  0  0  0  0  0  0  0  0  0
  -13.6745   -4.1312    6.4300 C   0  0  0  0  0  0  0  0  0  0  0  0
  -13.7793   -2.6473    5.8444 C   0  0  1  0  0  0  0  0  0  0  0  0
  -15.2324   -2.1629    5.7700 C   0  0  0  0  0  0  0  0  0  0  0  0
   -6.6008   -1.6868    5.1374 C   0  0  1  0  0  0  0  0  0  0  0  0
   -7.5686   -1.3357    3.8860 C   0  0  0  0  0  0  0  0  0  0  0  0
   -9.0120   -1.9181    4.1417 C   0  0  2  0  0  0  0  0  0  0  0  0
   -3.4103    1.9667    6.4059 F   0  0  0  0  0  0  0  0  0  0  0  0
  -10.6370    3.0634   16.6692 N   0  0  0  0  0  0  0  0  0  0  0  0
   -9.8836   -3.7694    7.5017 N   0  0  0  0  0  0  0  0  0  0  0  0
   -6.1803    1.4723   13.2829 N   0  0  0  0  0  0  0  0  0  0  0  0
   -0.5823    0.9285    6.4920 N   0  0  0  0  0  0  0  0  0  0  0  0
  -15.7460   -1.8999    7.0576 N   0  0  0  0  0  0  0  0  0  0  0  0
   -5.2563   -1.1480    4.8648 N   0  0  0  0  0  0  0  0  0  0  0  0
   -9.9109   -1.5940    3.0120 N   0  0  0  0  0  0  0  0  0  0  0  0
  -10.8828   -1.8745    5.6192 O   0  0  0  0  0  0  0  0  0  0  0  0
   -9.3544   -0.9388    7.8522 O   0  0  0  0  0  0  0  0  0  0  0  0
   -6.4489   -1.2182    7.5045 O   0  0  0  0  0  0  0  0  0  0  0  0
  -10.0317    1.0849   10.0274 O   0  0  0  0  0  0  0  0  0  0  0  0
   -8.3437   -2.0082    9.6926 O   0  0  0  0  0  0  0  0  0  0  0  0
  -10.5886   -3.4150   12.3624 O   0  0  0  0  0  0  0  0  0  0  0  0
   -8.1606   -0.0111   11.7135 O   0  0  0  0  0  0  0  0  0  0  0  0
   -3.4911    1.8759    3.6955 O   0  0  0  0  0  0  0  0  0  0  0  0
   -6.0175    1.1454    4.8947 O   0  0  0  0  0  0  0  0  0  0  0  0
   -9.0194    0.9476   13.7944 O   0  0  0  0  0  0  0  0  0  0  0  0
  -12.9935   -1.6898    6.7252 O   0  0  0  0  0  0  0  0  0  0  0  0
  1 36  1  6  0  0  0
  2 36  1  1  0  0  0
  2  3  1  0  0  0  0
  3 37  1  1  0  0  0
  3  4  1  0  0  0  0
  4 38  1  1  0  0  0
  5 37  1  6  0  0  0
  5  6  1  0  0  0  0
  6  7  1  0  0  0  0
  6 39  1  1  0  0  0
  7 42  1  6  0  0  0
  8  9  1  6  0  0  0
  8  7  1  0  0  0  0
 10 42  1  1  0  0  0
 10 11  1  0  0  0  0
 11 31  1  1  0  0  0
 11 13  1  0  0  0  0
 12 30  1  6  0  0  0
 12  1  1  0  0  0  0
 14 13  1  0  0  0  0
 15 16  1  1  0  0  0
 15 14  1  0  0  0  0
 17 19  1  6  0  0  0
 17 28  1  0  0  0  0
 18 34  1  0  0  0  0
 19 32  1  0  0  0  0
 20 18  1  1  0  0  0
 20 17  1  0  0  0  0
 20 43  1  0  0  0  0
 21 12  1  0  0  0  0
 22 21  1  0  0  0  0
 22 23  1  0  0  0  0
 23 24  1  1  0  0  0
 23 46  1  0  0  0  0
 24 33  1  0  0  0  0
 25 34  1  6  0  0  0
 25  4  1  0  0  0  0
 26 25  1  0  0  0  0
 27 35  1  6  0  0  0
 27 26  1  0  0  0  0
 27  2  1  0  0  0  0
 29 16  1  0  0  0  0
 40  8  1  0  0  0  0
 40  5  1  0  0  0  0
 41  9  1  0  0  0  0
 44 18  2  0  0  0  0
 45 15  1  0  0  0  0
 45 10  1  0  0  0  0
 46  1  1  0  0  0  0
M  END
>  <CHROM.1>
-98.40698221,31.38313925,-172.19409178,-169.39862202,81.08137567,-57.41915577
-171.67676144,72.49505967,176.99901393,-88.65613464,166.49357037,71.72417055
-51.19193586,-8.55193236,-0.55172360,8.40113770,1.12669612,-0.40279758,-1.89864235

>  <Name>
lig.pdb

>  <RI>
0

>  <Rbt.Current_Directory>
/home/afrankz/demos/rdock_decoys_rna/rnas/3wru

>  <Rbt.Executable>
rbdock ($Id: //depot/dev/client3/rdock/2013.1/src/exe/rbdock.cxx#4 $)

>  <Rbt.Library>
libRbt.so (2013.1, Build901 2013/11/27)

>  <Rbt.Parameter_File>
/export/apps/rDock/src/rDock_2013.1_src/data/scripts/dock_solv.prm

>  <Rbt.Receptor>
prm/blind_docking_80.prm

>  <SCORE>
16.647

>  <SCORE.INTER>
5.02497

>  <SCORE.INTER.CONST>
1

>  <SCORE.INTER.POLAR>
0

>  <SCORE.INTER.ROT>
13

>  <SCORE.INTER.SOLV>
25.6457

>  <SCORE.INTER.VDW>
-17.4652

>  <SCORE.INTER.norm>
0.109239

>  <SCORE.INTRA>
2.4957

>  <SCORE.INTRA.DIHEDRAL>
-4.6367

>  <SCORE.INTRA.DIHEDRAL.0>
19.7146

>  <SCORE.INTRA.POLAR>
0

>  <SCORE.INTRA.POLAR.0>
0

>  <SCORE.INTRA.REPUL>
0

>  <SCORE.INTRA.REPUL.0>
0

>  <SCORE.INTRA.SOLV>
2.70178

>  <SCORE.INTRA.SOLV.lig_0>
-116.697

>  <SCORE.INTRA.VDW>
3.46316

>  <SCORE.INTRA.VDW.0>
-7.06424

>  <SCORE.INTRA.norm>
0.0542544

>  <SCORE.RESTR>
9.12628

>  <SCORE.RESTR.CAVITY>
9.12628

>  <SCORE.RESTR.norm>
0.198397

>  <SCORE.SYSTEM>
0

>  <SCORE.SYSTEM.CONST>
0

>  <SCORE.SYSTEM.DIHEDRAL>
0

>  <SCORE.SYSTEM.SOLV>
0

>  <SCORE.SYSTEM.norm>
0

>  <SCORE.heavy>
46

>  <SCORE.norm>
0.36189

>  <RMSD>
25.773

$$$$
lig.pdb
 OpenBabel03061811583D
libRbt.so/2013.1/901 2013/11/27
 46 49  0  0  0  0  0  0  0  0999 V2000
  -11.2619   -2.9276   10.6853 C   0  0  1  0  0  0  0  0  0  0  0  0
   -9.6148   -1.4402   11.9029 C   0  0  1  0  0  0  0  0  0  0  0  0
   -9.1864   -0.0583   11.3228 C   0  0  1  0  0  0  0  0  0  0  0  0
   -7.7179    0.3084   11.8814 C   0  0  2  0  0  0  0  0  0  0  0  0
  -10.2064   -0.2870    9.0109 C   0  0  2  0  0  0  0  0  0  0  0  0
  -10.8497    1.0919    8.6893 C   0  0  1  0  0  0  0  0  0  0  0  0
  -11.4560    0.7323    7.3544 C   0  0  1  0  0  0  0  0  0  0  0  0
  -10.3242   -0.0327    6.5976 C   0  0  1  0  0  0  0  0  0  0  0  0
   -9.2377    0.8405    5.8773 C   0  0  0  0  0  0  0  0  0  0  0  0
  -13.1883   -0.7865    6.4733 C   0  0  1  0  0  0  0  0  0  0  0  0
  -14.4794   -1.5061    6.7262 C   0  0  1  0  0  0  0  0  0  0  0  0
  -11.0331   -4.2289   11.4899 C   0  0  1  0  0  0  0  0  0  0  0  0
  -14.9178   -2.2233    5.4004 C   0  0  0  0  0  0  0  0  0  0  0  0
  -13.9842   -3.1941    4.9058 C   0  0  0  0  0  0  0  0  0  0  0  0
  -12.7323   -2.5279    4.6157 C   0  0  2  0  0  0  0  0  0  0  0  0
  -11.6578   -3.5512    4.0742 C   0  0  0  0  0  0  0  0  0  0  0  0
   -3.7141    1.5602   13.6868 C   0  0  2  0  0  0  0  0  0  0  0  0
   -5.3694   -0.1165   13.7246 C   0  0  0  0  0  0  0  0  0  0  0  0
   -3.3683    1.1626   12.4092 C   0  0  0  0  0  0  0  0  0  0  0  0
   -4.0376    0.4619   14.4138 C   0  0  1  0  0  0  0  0  0  0  0  0
   -9.4806   -4.4557   11.7835 C   0  0  0  0  0  0  0  0  0  0  0  0
   -8.7076   -4.5096   10.3792 C   0  0  0  0  0  0  0  0  0  0  0  0
   -8.9656   -3.1253    9.6224 C   0  0  1  0  0  0  0  0  0  0  0  0
   -8.2731   -3.0832    8.2548 C   0  0  0  0  0  0  0  0  0  0  0  0
   -7.8099    0.4351   13.4645 C   0  0  1  0  0  0  0  0  0  0  0  0
   -8.2336   -1.0311   14.0095 C   0  0  0  0  0  0  0  0  0  0  0  0
   -9.6559   -1.4226   13.4511 C   0  0  2  0  0  0  0  0  0  0  0  0
   -4.7837    2.5302   13.6178 F   0  0  0  0  0  0  0  0  0  0  0  0
  -10.2656   -2.9017    3.8288 N   0  0  0  0  0  0  0  0  0  0  0  0
  -11.8471   -4.1463   12.7588 N   0  0  0  0  0  0  0  0  0  0  0  0
  -14.3916   -2.5200    7.6842 N   0  0  0  0  0  0  0  0  0  0  0  0
   -2.4203    0.2198   11.9468 N   0  0  0  0  0  0  0  0  0  0  0  0
   -6.9509   -3.5685    8.3405 N   0  0  0  0  0  0  0  0  0  0  0  0
   -6.4877    0.7833   14.0149 N   0  0  0  0  0  0  0  0  0  0  0  0
  -10.0508   -2.7655   13.9307 N   0  0  0  0  0  0  0  0  0  0  0  0
  -10.9239   -1.7791   11.4638 O   0  0  0  0  0  0  0  0  0  0  0  0
   -9.1843   -0.1989    9.8285 O   0  0  0  0  0  0  0  0  0  0  0  0
   -7.3633    1.5308   11.3561 O   0  0  0  0  0  0  0  0  0  0  0  0
  -11.7863    1.3802    9.6828 O   0  0  0  0  0  0  0  0  0  0  0  0
   -9.9160   -0.8707    7.6917 O   0  0  0  0  0  0  0  0  0  0  0  0
   -8.3830   -0.0574    5.1415 O   0  0  0  0  0  0  0  0  0  0  0  0
  -12.6687   -0.1522    7.5808 O   0  0  0  0  0  0  0  0  0  0  0  0
   -3.0055   -0.5484   14.4011 O   0  0  0  0  0  0  0  0  0  0  0  0
   -5.4188   -1.1546   13.0445 O   0  0  0  0  0  0  0  0  0  0  0  0
  -12.2182   -1.8173    5.8456 O   0  0  0  0  0  0  0  0  0  0  0  0
  -10.4577   -2.9215    9.4168 O   0  0  0  0  0  0  0  0  0  0  0  0
  1 36  1  1  0  0  0
  2 36  1  6  0  0  0
  2  3  1  0  0  0  0
  3 37  1  6  0  0  0
  3  4  1  0  0  0  0
  4 38  1  6  0  0  0
  5 37  1  1  0  0  0
  5  6  1  0  0  0  0
  6  7  1  0  0  0  0
  6 39  1  1  0  0  0
  7 42  1  1  0  0  0
  8  9  1  1  0  0  0
  8  7  1  0  0  0  0
 10 42  1  1  0  0  0
 10 11  1  0  0  0  0
 11 31  1  1  0  0  0
 11 13  1  0  0  0  0
 12 30  1  1  0  0  0
 12  1  1  0  0  0  0
 14 13  1  0  0  0  0
 15 16  1  1  0  0  0
 15 14  1  0  0  0  0
 17 19  1  6  0  0  0
 17 28  1  0  0  0  0
 18 34  1  0  0  0  0
 19 32  1  0  0  0  0
 20 18  1  6  0  0  0
 20 17  1  0  0  0  0
 20 43  1  0  0  0  0
 21 12  1  0  0  0  0
 22 21  1  0  0  0  0
 22 23  1  0  0  0  0
 23 24  1  6  0  0  0
 23 46  1  0  0  0  0
 24 33  1  0  0  0  0
 25 34  1  1  0  0  0
 25  4  1  0  0  0  0
 26 25  1  0  0  0  0
 27 35  1  1  0  0  0
 27 26  1  0  0  0  0
 27  2  1  0  0  0  0
 29 16  1  0  0  0  0
 40  8  1  0  0  0  0
 40  5  1  0  0  0  0
 41  9  1  0  0  0  0
 44 18  2  0  0  0  0
 45 15  1  0  0  0  0
 45 10  1  0  0  0  0
 46  1  1  0  0  0  0
M  END
>  <CHROM.1>
66.54502017,119.21512584,72.72874260,80.14500156,-167.66822398,-174.33862015
-172.78852268,-176.48090610,-53.94513466,-71.22265030,-65.70630325,-45.02430665
-57.44137279,-9.26633497,-1.11499442,9.86645167,2.51762618,-0.55227071,-1.23141668

>  <Name>
lig.pdb

>  <RI>
0

>  <Rbt.Current_Directory>
/home/afrankz/demos/rdock_decoys_rna/rnas/3wru

>  <Rbt.Executable>
rbdock ($Id: //depot/dev/client3/rdock/2013.1/src/exe/rbdock.cxx#4 $)

>  <Rbt.Library>
libRbt.so (2013.1, Build901 2013/11/27)

>  <Rbt.Parameter_File>
/export/apps/rDock/src/rDock_2013.1_src/data/scripts/dock_solv.prm

>  <Rbt.Receptor>
prm/blind_docking_80.prm

>  <SCORE>
26.4779

>  <SCORE.INTER>
9.57099

>  <SCORE.INTER.CONST>
1

>  <SCORE.INTER.POLAR>
0

>  <SCORE.INTER.ROT>
13

>  <SCORE.INTER.SOLV>
24.8122

>  <SCORE.INTER.VDW>
-14.1567

>  <SCORE.INTER.norm>
0.208065

>  <SCORE.INTRA>
8.76129

>  <SCORE.INTRA.DIHEDRAL>
-6.38102

>  <SCORE.INTRA.DIHEDRAL.0>
19.7146

>  <SCORE.INTRA.POLAR>
0

>  <SCORE.INTRA.POLAR.0>
0

>  <SCORE.INTRA.REPUL>
0.202923

>  <SCORE.INTRA.REPUL.0>
0

>  <SCORE.INTRA.SOLV>
8.17772

>  <SCORE.INTRA.SOLV.lig_0>
-116.697

>  <SCORE.INTRA.VDW>
6.84832

>  <SCORE.INTRA.VDW.0>
-7.06424

>  <SCORE.INTRA.norm>
0.190463

>  <SCORE.RESTR>
8.14561

>  <SCORE.RESTR.CAVITY>
8.14561

>  <SCORE.RESTR.norm>
0.177078

>  <SCORE.SYSTEM>
0

>  <SCORE.SYSTEM.CONST>
0

>  <SCORE.SYSTEM.DIHEDRAL>
0

>  <SCORE.SYSTEM.SOLV>
0

>  <SCORE.SYSTEM.norm>
0

>  <SCORE.heavy>
46

>  <SCORE.norm>
0.575606

>  <RMSD>
26.257

$$$$
lig.pdb
 OpenBabel03061811583D
libRbt.so/2013.1/901 2013/11/27
 46 49  0  0  0  0  0  0  0  0999 V2000
   -9.6745   -2.3520   11.0663 C   0  0  1  0  0  0  0  0  0  0  0  0
   -8.5913   -1.7112   13.2626 C   0  0  1  0  0  0  0  0  0  0  0  0
   -8.0287   -0.3054   13.6324 C   0  0  1  0  0  0  0  0  0  0  0  0
   -8.1105   -0.1161   15.2325 C   0  0  2  0  0  0  0  0  0  0  0  0
   -5.5547    0.2483   13.7360 C   0  0  2  0  0  0  0  0  0  0  0  0
   -4.2263   -0.4484   13.3254 C   0  0  1  0  0  0  0  0  0  0  0  0
   -3.2921    0.7041   13.6047 C   0  0  1  0  0  0  0  0  0  0  0  0
   -3.9948    1.9470   12.9719 C   0  0  1  0  0  0  0  0  0  0  0  0
   -3.8063    2.1584   11.4287 C   0  0  0  0  0  0  0  0  0  0  0  0
   -1.8884    1.2482   15.5585 C   0  0  1  0  0  0  0  0  0  0  0  0
   -1.3729    2.5114   14.9358 C   0  0  1  0  0  0  0  0  0  0  0  0
   -9.1955   -3.2808    9.9256 C   0  0  1  0  0  0  0  0  0  0  0  0
    0.0645    2.7940   15.4999 C   0  0  0  0  0  0  0  0  0  0  0  0
    1.0288    1.7667   15.2290 C   0  0  0  0  0  0  0  0  0  0  0  0
    0.5817    0.5364   15.8467 C   0  0  2  0  0  0  0  0  0  0  0  0
    1.6020   -0.6382   15.5742 C   0  0  0  0  0  0  0  0  0  0  0  0
  -11.5939    1.4834   19.5177 C   0  0  2  0  0  0  0  0  0  0  0  0
  -10.2299    1.3103   17.6039 C   0  0  0  0  0  0  0  0  0  0  0  0
  -11.8446    0.9558   20.7702 C   0  0  0  0  0  0  0  0  0  0  0  0
  -10.2893    1.2769   19.2097 C   0  0  1  0  0  0  0  0  0  0  0  0
   -8.3188   -2.4765    8.8616 C   0  0  0  0  0  0  0  0  0  0  0  0
   -9.2103   -1.2754    8.2830 C   0  0  0  0  0  0  0  0  0  0  0  0
   -9.6405   -0.3465    9.5110 C   0  0  1  0  0  0  0  0  0  0  0  0
  -10.5120    0.8316    9.0594 C   0  0  0  0  0  0  0  0  0  0  0  0
   -9.6424   -0.1716   15.6580 C   0  0  1  0  0  0  0  0  0  0  0  0
  -10.1630   -1.6570   15.2725 C   0  0  0  0  0  0  0  0  0  0  0  0
  -10.0641   -1.8744   13.7134 C   0  0  2  0  0  0  0  0  0  0  0  0
  -11.9674    2.8797   19.4983 F   0  0  0  0  0  0  0  0  0  0  0  0
    2.9752   -0.4290   16.2748 N   0  0  0  0  0  0  0  0  0  0  0  0
   -8.4321   -4.4279   10.5428 N   0  0  0  0  0  0  0  0  0  0  0  0
   -1.2197    2.4444   13.5482 N   0  0  0  0  0  0  0  0  0  0  0  0
  -11.3702    1.3214   22.0519 N   0  0  0  0  0  0  0  0  0  0  0  0
  -10.8232    1.6779   10.1447 N   0  0  0  0  0  0  0  0  0  0  0  0
   -9.7625    0.0112   17.1156 N   0  0  0  0  0  0  0  0  0  0  0  0
  -10.5246   -3.2322   13.3477 N   0  0  0  0  0  0  0  0  0  0  0  0
   -8.5726   -1.8990   11.8535 O   0  0  0  0  0  0  0  0  0  0  0  0
   -6.6082   -0.2676   13.1487 O   0  0  0  0  0  0  0  0  0  0  0  0
   -7.6093    1.1308   15.5328 O   0  0  0  0  0  0  0  0  0  0  0  0
   -4.0358   -1.5524   14.1574 O   0  0  0  0  0  0  0  0  0  0  0  0
   -5.3152    1.6758   13.4709 O   0  0  0  0  0  0  0  0  0  0  0  0
   -2.4336    2.5413   11.2117 O   0  0  0  0  0  0  0  0  0  0  0  0
   -3.1311    0.8616   15.1059 O   0  0  0  0  0  0  0  0  0  0  0  0
   -9.4139    2.2909   19.7498 O   0  0  0  0  0  0  0  0  0  0  0  0
  -10.5489    2.2865   16.9055 O   0  0  0  0  0  0  0  0  0  0  0  0
   -0.7968    0.1699   15.3498 O   0  0  0  0  0  0  0  0  0  0  0  0
  -10.4203   -1.1650   10.5269 O   0  0  0  0  0  0  0  0  0  0  0  0
  1 36  1  6  0  0  0
  2 36  1  6  0  0  0
  2  3  1  0  0  0  0
  3 37  1  1  0  0  0
  3  4  1  0  0  0  0
  4 38  1  6  0  0  0
  5 37  1  6  0  0  0
  5  6  1  0  0  0  0
  6  7  1  0  0  0  0
  6 39  1  1  0  0  0
  7 42  1  1  0  0  0
  8  9  1  6  0  0  0
  8  7  1  0  0  0  0
 10 42  1  6  0  0  0
 10 11  1  0  0  0  0
 11 31  1  6  0  0  0
 11 13  1  0  0  0  0
 12 30  1  1  0  0  0
 12  1  1  0  0  0  0
 14 13  1  0  0  0  0
 15 16  1  6  0  0  0
 15 14  1  0  0  0  0
 17 19  1  1  0  0  0
 17 28  1  0  0  0  0
 18 34  1  0  0  0  0
 19 32  1  0  0  0  0
 20 18  1  6  0  0  0
 20 17  1  0  0  0  0
 20 43  1  0  0  0  0
 21 12  1  0  0  0  0
 22 21  1  0  0  0  0
 22 23  1  0  0  0  0
 23 24  1  6  0  0  0
 23 46  1  0  0  0  0
 24 33  1  0  0  0  0
 25 34  1  1  0  0  0
 25  4  1  0  0  0  0
 26 25  1  0  0  0  0
 27 35  1  1  0  0  0
 27 26  1  0  0  0  0
 27  2  1  0  0  0  0
 29 16  1  0  0  0  0
 40  8  1  0  0  0  0
 40  5  1  0  0  0  0
 41  9  1  0  0  0  0
 44 18  2  0  0  0  0
 45 15  1  0  0  0  0
 45 10  1  0  0  0  0
 46  1  1  0  0  0  0
M  END
>  <CHROM.1>
-142.84308129,-130.19468803,-139.80695807,152.57192271,144.34697579,-70.02630599
54.67765579,66.98926883,65.82965895,-118.32207762,156.20178775,-176.92232973
104.45440399,-6.66579139,0.24017338,14.33271576,3.10437348,0.11755005,1.24870945

>  <Name>
lig.pdb

>  <RI>
0

>  <Rbt.Current_Directory>
/home/afrankz/demos/rdock_decoys_rna/rnas/3wru

>  <Rbt.Executable>
rbdock ($Id: //depot/dev/client3/rdock/2013.1/src/exe/rbdock.cxx#4 $)

>  <Rbt.Library>
libRbt.so (2013.1, Build901 2013/11/27)

>  <Rbt.Parameter_File>
/export/apps/rDock/src/rDock_2013.1_src/data/scripts/dock_solv.prm

>  <Rbt.Receptor>
prm/blind_docking_40.prm

>  <SCORE>
23.4577

>  <SCORE.INTER>
5.51275

>  <SCORE.INTER.CONST>
1

>  <SCORE.INTER.POLAR>
0

>  <SCORE.INTER.ROT>
13

>  <SCORE.INTER.SOLV>
29.7463

>  <SCORE.INTER.VDW>
-18.5069

>  <SCORE.INTER.norm>
0.119842

>  <SCORE.INTRA>
12.9371

>  <SCORE.INTRA.DIHEDRAL>
11.0706

>  <SCORE.INTRA.DIHEDRAL.0>
19.7146

>  <SCORE.INTRA.POLAR>
0

>  <SCORE.INTRA.POLAR.0>
0

>  <SCORE.INTRA.REPUL>
0

>  <SCORE.INTRA.REPUL.0>
0

>  <SCORE.INTRA.SOLV>
3.77123

>  <SCORE.INTRA.SOLV.lig_0>
-116.697

>  <SCORE.INTRA.VDW>
5.51616

>  <SCORE.INTRA.VDW.0>
-7.06424

>  <SCORE.INTRA.norm>
0.281241

>  <SCORE.RESTR>
5.00782

>  <SCORE.RESTR.CAVITY>
5.00782

>  <SCORE.RESTR.norm>
0.108866

>  <SCORE.SYSTEM>
0

>  <SCORE.SYSTEM.CONST>
0

>  <SCORE.SYSTEM.DIHEDRAL>
0

>  <SCORE.SYSTEM.SOLV>
0

>  <SCORE.SYSTEM.norm>
0

>  <SCORE.heavy>
46

>  <SCORE.norm>
0.509949

>  <RMSD>
26.354

$$$$
lig.pdb
 OpenBabel03061811583D
libRbt.so/2013.1/901 2013/11/27
 46 49  0  0  0  0  0  0  0  0999 V2000
   -8.9379    0.5535   10.0164 C   0  0  1  0  0  0  0  0  0  0  0  0
   -7.3324    0.4815   11.9722 C   0  0  1  0  0  0  0  0  0  0  0  0
   -7.2948   -0.1631   13.3910 C   0  0  1  0  0  0  0  0  0  0  0  0
   -5.9949    0.3816   14.1762 C   0  0  2  0  0  0  0  0  0  0  0  0
   -8.7387    0.5901   15.3367 C   0  0  2  0  0  0  0  0  0  0  0  0
  -10.0867    1.3261   15.5814 C   0  0  1  0  0  0  0  0  0  0  0  0
  -10.2459    0.9875   17.0439 C   0  0  1  0  0  0  0  0  0  0  0  0
   -9.9194   -0.5369   17.1362 C   0  0  1  0  0  0  0  0  0  0  0  0
  -11.0758   -1.5328   16.7720 C   0  0  0  0  0  0  0  0  0  0  0  0
   -9.5825    2.0262   19.1804 C   0  0  1  0  0  0  0  0  0  0  0  0
  -10.6870    3.0169   19.3988 C   0  0  1  0  0  0  0  0  0  0  0  0
  -10.3407    1.1731   10.2198 C   0  0  1  0  0  0  0  0  0  0  0  0
  -10.8963    3.1967   20.9442 C   0  0  0  0  0  0  0  0  0  0  0  0
   -9.7476    3.6831   21.6532 C   0  0  0  0  0  0  0  0  0  0  0  0
   -8.6678    2.7323   21.4947 C   0  0  2  0  0  0  0  0  0  0  0  0
   -7.3682    3.2196   22.2487 C   0  0  0  0  0  0  0  0  0  0  0  0
   -0.7703    1.4448   14.0496 C   0  0  2  0  0  0  0  0  0  0  0  0
   -3.0977    1.7784   13.8917 C   0  0  0  0  0  0  0  0  0  0  0  0
    0.4476    1.9062   14.5121 C   0  0  0  0  0  0  0  0  0  0  0  0
   -1.7618    2.0621   14.7391 C   0  0  1  0  0  0  0  0  0  0  0  0
  -11.4235    0.0462   10.5443 C   0  0  0  0  0  0  0  0  0  0  0  0
  -11.4336   -1.0033    9.3316 C   0  0  0  0  0  0  0  0  0  0  0  0
   -9.9645   -1.6207    9.2032 C   0  0  1  0  0  0  0  0  0  0  0  0
   -9.8678   -2.6333    8.0557 C   0  0  0  0  0  0  0  0  0  0  0  0
   -4.7026   -0.0888   13.3765 C   0  0  1  0  0  0  0  0  0  0  0  0
   -4.7851    0.6288   11.9259 C   0  0  0  0  0  0  0  0  0  0  0  0
   -6.0663    0.1319   11.1515 C   0  0  2  0  0  0  0  0  0  0  0  0
   -0.8144    0.0042   14.1599 F   0  0  0  0  0  0  0  0  0  0  0  0
   -7.4922    3.1336   23.7970 N   0  0  0  0  0  0  0  0  0  0  0  0
  -10.2443    2.2043   11.3183 N   0  0  0  0  0  0  0  0  0  0  0  0
  -10.4121    4.2974   18.9107 N   0  0  0  0  0  0  0  0  0  0  0  0
    1.0558    3.1812   14.4354 N   0  0  0  0  0  0  0  0  0  0  0  0
   -8.6796   -3.3891    8.1448 N   0  0  0  0  0  0  0  0  0  0  0  0
   -3.4890    0.3785   14.0700 N   0  0  0  0  0  0  0  0  0  0  0  0
   -6.1616    0.7888    9.8291 N   0  0  0  0  0  0  0  0  0  0  0  0
   -8.4451   -0.0067   11.2340 O   0  0  0  0  0  0  0  0  0  0  0  0
   -8.5628    0.2430   14.0838 O   0  0  0  0  0  0  0  0  0  0  0  0
   -5.9843   -0.2016   15.4235 O   0  0  0  0  0  0  0  0  0  0  0  0
   -9.8957    2.6849   15.3274 O   0  0  0  0  0  0  0  0  0  0  0  0
   -8.7455   -0.5161   16.3071 O   0  0  0  0  0  0  0  0  0  0  0  0
  -10.6420   -2.8535   17.1536 O   0  0  0  0  0  0  0  0  0  0  0  0
   -9.2664    1.8155   17.8559 O   0  0  0  0  0  0  0  0  0  0  0  0
   -1.9196    1.5514   16.0810 O   0  0  0  0  0  0  0  0  0  0  0  0
   -3.6971    2.6283   13.2127 O   0  0  0  0  0  0  0  0  0  0  0  0
   -8.3793    2.5047   20.0295 O   0  0  0  0  0  0  0  0  0  0  0  0
   -8.9589   -0.5084    8.9544 O   0  0  0  0  0  0  0  0  0  0  0  0
  1 36  1  1  0  0  0
  2 36  1  6  0  0  0
  2  3  1  0  0  0  0
  3 37  1  1  0  0  0
  3  4  1  0  0  0  0
  4 38  1  1  0  0  0
  5 37  1  6  0  0  0
  5  6  1  0  0  0  0
  6  7  1  0  0  0  0
  6 39  1  1  0  0  0
  7 42  1  1  0  0  0
  8  9  1  6  0  0  0
  8  7  1  0  0  0  0
 10 42  1  6  0  0  0
 10 11  1  0  0  0  0
 11 31  1  1  0  0  0
 11 13  1  0  0  0  0
 12 30  1  1  0  0  0
 12  1  1  0  0  0  0
 14 13  1  0  0  0  0
 15 16  1  1  0  0  0
 15 14  1  0  0  0  0
 17 19  1  1  0  0  0
 17 28  1  0  0  0  0
 18 34  1  0  0  0  0
 19 32  1  0  0  0  0
 20 18  1  6  0  0  0
 20 17  1  0  0  0  0
 20 43  1  0  0  0  0
 21 12  1  0  0  0  0
 22 21  1  0  0  0  0
 22 23  1  0  0  0  0
 23 24  1  6  0  0  0
 23 46  1  0  0  0  0
 24 33  1  0  0  0  0
 25 34  1  1  0  0  0
 25  4  1  0  0  0  0
 26 25  1  0  0  0  0
 27 35  1  6  0  0  0
 27 26  1  0  0  0  0
 27  2  1  0  0  0  0
 29 16  1  0  0  0  0
 40  8  1  0  0  0  0
 40  5  1  0  0  0  0
 41  9  1  0  0  0  0
 44 18  2  0  0  0  0
 45 15  1  0  0  0  0
 45 10  1  0  0  0  0
 46  1  1  0  0  0  0
M  END
>  <CHROM.1>
-112.93379889,166.88717438,-140.50365767,163.40814275,156.47960294,-169.80984233
-74.23639448,71.45474896,-66.63626390,73.28811393,165.27665191,-166.38826855
-78.77276295,-7.37904085,0.89088634,14.74589229,1.44110914,-0.13050763,-1.87448348

>  <Name>
lig.pdb

>  <RI>
0

>  <Rbt.Current_Directory>
/home/afrankz/demos/rdock_decoys_rna/rnas/3wru

>  <Rbt.Executable>
rbdock ($Id: //depot/dev/client3/rdock/2013.1/src/exe/rbdock.cxx#4 $)

>  <Rbt.Library>
libRbt.so (2013.1, Build901 2013/11/27)

>  <Rbt.Parameter_File>
/export/apps/rDock/src/rDock_2013.1_src/data/scripts/dock_solv.prm

>  <Rbt.Receptor>
prm/blind_docking_60.prm

>  <SCORE>
18.7362

>  <SCORE.INTER>
5.95393

>  <SCORE.INTER.CONST>
1

>  <SCORE.INTER.POLAR>
0

>  <SCORE.INTER.ROT>
13

>  <SCORE.INTER.SOLV>
32.2576

>  <SCORE.INTER.VDW>
-19.0499

>  <SCORE.INTER.norm>
0.129433

>  <SCORE.INTRA>
5.4515

>  <SCORE.INTRA.DIHEDRAL>
1.63947

>  <SCORE.INTRA.DIHEDRAL.0>
19.7146

>  <SCORE.INTRA.POLAR>
0

>  <SCORE.INTRA.POLAR.0>
0

>  <SCORE.INTRA.REPUL>
0

>  <SCORE.INTRA.REPUL.0>
0

>  <SCORE.INTRA.SOLV>
-0.394454

>  <SCORE.INTRA.SOLV.lig_0>
-116.697

>  <SCORE.INTRA.VDW>
4.82899

>  <SCORE.INTRA.VDW.0>
-7.06424

>  <SCORE.INTRA.norm>
0.118511

>  <SCORE.RESTR>
7.3308

>  <SCORE.RESTR.CAVITY>
7.3308

>  <SCORE.RESTR.norm>
0.159365

>  <SCORE.SYSTEM>
0

>  <SCORE.SYSTEM.CONST>
0

>  <SCORE.SYSTEM.DIHEDRAL>
0

>  <SCORE.SYSTEM.SOLV>
0

>  <SCORE.SYSTEM.norm>
0

>  <SCORE.heavy>
46

>  <SCORE.norm>
0.407309

>  <RMSD>
26.369

$$$$
lig.pdb
 OpenBabel03061811583D
libRbt.so/2013.1/901 2013/11/27
 46 49  0  0  0  0  0  0  0  0999 V2000
   -8.9041    0.6478    9.4529 C   0  0  1  0  0  0  0  0  0  0  0  0
   -7.5913    0.6503   11.6172 C   0  0  1  0  0  0  0  0  0  0  0  0
   -7.3339   -0.3152   12.8136 C   0  0  1  0  0  0  0  0  0  0  0  0
   -6.3385    0.4052   13.8592 C   0  0  2  0  0  0  0  0  0  0  0  0
   -9.3399    0.1217   14.3045 C   0  0  2  0  0  0  0  0  0  0  0  0
   -8.5445    0.3924   15.6133 C   0  0  1  0  0  0  0  0  0  0  0  0
   -9.2474    1.6634   16.0247 C   0  0  1  0  0  0  0  0  0  0  0  0
   -9.3233    2.5157   14.7181 C   0  0  1  0  0  0  0  0  0  0  0  0
   -8.0442    3.3387   14.3334 C   0  0  0  0  0  0  0  0  0  0  0  0
  -11.0494    1.9849   17.6778 C   0  0  1  0  0  0  0  0  0  0  0  0
  -11.7851    3.2628   17.4046 C   0  0  1  0  0  0  0  0  0  0  0  0
  -10.4459    0.7751    9.4627 C   0  0  1  0  0  0  0  0  0  0  0  0
  -12.1457    3.9332   18.7775 C   0  0  0  0  0  0  0  0  0  0  0  0
  -11.0170    4.2641   19.5992 C   0  0  0  0  0  0  0  0  0  0  0  0
  -10.2998    3.0469   19.9142 C   0  0  2  0  0  0  0  0  0  0  0  0
   -9.0364    3.3496   20.8126 C   0  0  0  0  0  0  0  0  0  0  0  0
   -1.0002    2.4267   14.4348 C   0  0  2  0  0  0  0  0  0  0  0  0
   -2.6516    0.7741   14.1273 C   0  0  0  0  0  0  0  0  0  0  0  0
   -1.7907    3.2428   13.6478 C   0  0  0  0  0  0  0  0  0  0  0  0
   -1.8034    1.6343   15.1873 C   0  0  1  0  0  0  0  0  0  0  0  0
  -11.1399   -0.6613    9.4092 C   0  0  0  0  0  0  0  0  0  0  0  0
  -10.6377   -1.4116    8.0836 C   0  0  0  0  0  0  0  0  0  0  0  0
   -9.0453   -1.5317    8.1598 C   0  0  1  0  0  0  0  0  0  0  0  0
   -8.4643   -2.2286    6.9236 C   0  0  0  0  0  0  0  0  0  0  0  0
   -4.9546    0.6697   13.1206 C   0  0  1  0  0  0  0  0  0  0  0  0
   -5.2804    1.6935   11.9075 C   0  0  0  0  0  0  0  0  0  0  0  0
   -6.2762    1.0193   10.8868 C   0  0  2  0  0  0  0  0  0  0  0  0
   -0.1036    3.2397   15.2252 F   0  0  0  0  0  0  0  0  0  0  0  0
   -8.3037    2.0627   21.2892 N   0  0  0  0  0  0  0  0  0  0  0  0
  -10.8452    1.5558   10.6917 N   0  0  0  0  0  0  0  0  0  0  0  0
  -11.0358    4.2178   16.7117 N   0  0  0  0  0  0  0  0  0  0  0  0
   -2.3906    4.4973   13.9077 N   0  0  0  0  0  0  0  0  0  0  0  0
   -7.0776   -1.9925    6.8128 N   0  0  0  0  0  0  0  0  0  0  0  0
   -4.0095    1.3168   14.0483 N   0  0  0  0  0  0  0  0  0  0  0  0
   -6.5930    1.9479    9.7793 N   0  0  0  0  0  0  0  0  0  0  0  0
   -8.4343    0.0330   10.6530 O   0  0  0  0  0  0  0  0  0  0  0  0
   -8.6702   -0.5980   13.4358 O   0  0  0  0  0  0  0  0  0  0  0  0
   -6.1269   -0.4663   14.9041 O   0  0  0  0  0  0  0  0  0  0  0  0
   -8.7511   -0.6809   16.4808 O   0  0  0  0  0  0  0  0  0  0  0  0
   -9.7475    1.4579   13.8423 O   0  0  0  0  0  0  0  0  0  0  0  0
   -8.1083    3.5958   12.9164 O   0  0  0  0  0  0  0  0  0  0  0  0
  -10.6314    1.3205   16.5453 O   0  0  0  0  0  0  0  0  0  0  0  0
   -1.0671    0.7460   16.0562 O   0  0  0  0  0  0  0  0  0  0  0  0
   -2.2044   -0.1847   13.4767 O   0  0  0  0  0  0  0  0  0  0  0  0
   -9.8927    2.3340   18.6462 O   0  0  0  0  0  0  0  0  0  0  0  0
   -8.4295   -0.1465    8.2697 O   0  0  0  0  0  0  0  0  0  0  0  0
  1 36  1  1  0  0  0
  2 36  1  6  0  0  0
  2  3  1  0  0  0  0
  3 37  1  1  0  0  0
  3  4  1  0  0  0  0
  4 38  1  1  0  0  0
  5 37  1  6  0  0  0
  5  6  1  0  0  0  0
  6  7  1  0  0  0  0
  6 39  1  1  0  0  0
  7 42  1  6  0  0  0
  8  9  1  6  0  0  0
  8  7  1  0  0  0  0
 10 42  1  6  0  0  0
 10 11  1  0  0  0  0
 11 31  1  6  0  0  0
 11 13  1  0  0  0  0
 12 30  1  1  0  0  0
 12  1  1  0  0  0  0
 14 13  1  0  0  0  0
 15 16  1  6  0  0  0
 15 14  1  0  0  0  0
 17 19  1  1  0  0  0
 17 28  1  0  0  0  0
 18 34  1  0  0  0  0
 19 32  1  0  0  0  0
 20 18  1  6  0  0  0
 20 17  1  0  0  0  0
 20 43  1  0  0  0  0
 21 12  1  0  0  0  0
 22 21  1  0  0  0  0
 22 23  1  0  0  0  0
 23 24  1  6  0  0  0
 23 46  1  0  0  0  0
 24 33  1  0  0  0  0
 25 34  1  1  0  0  0
 25  4  1  0  0  0  0
 26 25  1  0  0  0  0
 27 35  1  6  0  0  0
 27 26  1  0  0  0  0
 27  2  1  0  0  0  0
 29 16  1  0  0  0  0
 40  8  1  0  0  0  0
 40  5  1  0  0  0  0
 41  9  1  0  0  0  0
 44 18  2  0  0  0  0
 45 15  1  0  0  0  0
 45 10  1  0  0  0  0
 46  1  1  0  0  0  0
M  END
>  <CHROM.1>
-116.83354020,178.00566304,-82.61801119,-57.63467128,137.66641341,157.55955158
90.56273250,174.69989163,86.11272922,-103.81951101,60.88067632,163.11143402
132.47911535,-7.46807753,1.30223019,13.84529949,1.39994225,-0.04854627,-1.90756783

>  <Name>
lig.pdb

>  <RI>
0

>  <Rbt.Current_Directory>
/home/afrankz/demos/rdock_decoys_rna/rnas/3wru

>  <Rbt.Executable>
rbdock ($Id: //depot/dev/client3/rdock/2013.1/src/exe/rbdock.cxx#4 $)

>  <Rbt.Library>
libRbt.so (2013.1, Build901 2013/11/27)

>  <Rbt.Parameter_File>
/export/apps/rDock/src/rDock_2013.1_src/data/scripts/dock_solv.prm

>  <Rbt.Receptor>
prm/blind_docking_40.prm

>  <SCORE>
30.9372

>  <SCORE.INTER>
12.6812

>  <SCORE.INTER.CONST>
1

>  <SCORE.INTER.POLAR>
0

>  <SCORE.INTER.ROT>
13

>  <SCORE.INTER.SOLV>
41.4081

>  <SCORE.INTER.VDW>
-17.6153

>  <SCORE.INTER.norm>
0.275678

>  <SCORE.INTRA>
12.1719

>  <SCORE.INTRA.DIHEDRAL>
7.28131

>  <SCORE.INTRA.DIHEDRAL.0>
19.7146

>  <SCORE.INTRA.POLAR>
0

>  <SCORE.INTRA.POLAR.0>
0

>  <SCORE.INTRA.REPUL>
0.392573

>  <SCORE.INTRA.REPUL.0>
0

>  <SCORE.INTRA.SOLV>
4.88331

>  <SCORE.INTRA.SOLV.lig_0>
-116.697

>  <SCORE.INTRA.VDW>
4.12668

>  <SCORE.INTRA.VDW.0>
-7.06424

>  <SCORE.INTRA.norm>
0.264606

>  <SCORE.RESTR>
6.08421

>  <SCORE.RESTR.CAVITY>
6.08421

>  <SCORE.RESTR.norm>
0.132265

>  <SCORE.SYSTEM>
0

>  <SCORE.SYSTEM.CONST>
0

>  <SCORE.SYSTEM.DIHEDRAL>
0

>  <SCORE.SYSTEM.SOLV>
0

>  <SCORE.SYSTEM.norm>
0

>  <SCORE.heavy>
46

>  <SCORE.norm>
0.672549

>  <RMSD>
26.403

$$$$
lig.pdb
 OpenBabel03061811583D
libRbt.so/2013.1/901 2013/11/27
 46 49  0  0  0  0  0  0  0  0999 V2000
   -8.8565   -1.2388   11.5154 C   0  0  1  0  0  0  0  0  0  0  0  0
   -6.3628   -0.9475   11.8389 C   0  0  1  0  0  0  0  0  0  0  0  0
   -6.6322    0.3867   12.5986 C   0  0  1  0  0  0  0  0  0  0  0  0
   -5.2576    1.2276   12.6777 C   0  0  2  0  0  0  0  0  0  0  0  0
   -8.5892    1.9644   12.2540 C   0  0  2  0  0  0  0  0  0  0  0  0
   -9.8373    1.2554   12.8525 C   0  0  1  0  0  0  0  0  0  0  0  0
  -10.2880    2.3668   13.7693 C   0  0  1  0  0  0  0  0  0  0  0  0
   -8.9842    2.8458   14.4832 C   0  0  1  0  0  0  0  0  0  0  0  0
   -8.5054    2.0088   15.7209 C   0  0  0  0  0  0  0  0  0  0  0  0
  -12.2245    3.3148   12.5713 C   0  0  1  0  0  0  0  0  0  0  0  0
  -12.4336    3.1303   11.0978 C   0  0  1  0  0  0  0  0  0  0  0  0
   -9.9204   -2.3422   11.7252 C   0  0  1  0  0  0  0  0  0  0  0  0
  -13.9752    3.0171   10.8240 C   0  0  0  0  0  0  0  0  0  0  0  0
  -14.7410    4.1647   11.2178 C   0  0  0  0  0  0  0  0  0  0  0  0
  -14.5920    4.3542   12.6451 C   0  0  2  0  0  0  0  0  0  0  0  0
  -15.4083    5.6134   13.1381 C   0  0  0  0  0  0  0  0  0  0  0  0
   -0.2576    1.7784   15.9680 C   0  0  2  0  0  0  0  0  0  0  0  0
   -2.2834    1.1651   14.9323 C   0  0  0  0  0  0  0  0  0  0  0  0
    1.0869    1.6273   15.6859 C   0  0  0  0  0  0  0  0  0  0  0  0
   -0.9235    2.0129   14.8100 C   0  0  1  0  0  0  0  0  0  0  0  0
   -9.7625   -3.5039   10.6421 C   0  0  0  0  0  0  0  0  0  0  0  0
   -9.8976   -2.8510    9.1834 C   0  0  0  0  0  0  0  0  0  0  0  0
   -8.7516   -1.7467    9.0308 C   0  0  1  0  0  0  0  0  0  0  0  0
   -8.8049   -1.0520    7.6648 C   0  0  0  0  0  0  0  0  0  0  0  0
   -4.2062    0.3764   13.5150 C   0  0  1  0  0  0  0  0  0  0  0  0
   -3.9494   -0.9809   12.6678 C   0  0  0  0  0  0  0  0  0  0  0  0
   -5.2891   -1.8055   12.5530 C   0  0  2  0  0  0  0  0  0  0  0  0
   -0.4308    2.8297   16.9450 F   0  0  0  0  0  0  0  0  0  0  0  0
  -15.1034    5.9990   14.6141 N   0  0  0  0  0  0  0  0  0  0  0  0
   -9.7898   -2.8583   13.1380 N   0  0  0  0  0  0  0  0  0  0  0  0
  -11.9969    4.2054   10.3187 N   0  0  0  0  0  0  0  0  0  0  0  0
    2.0051    2.4749   15.0228 N   0  0  0  0  0  0  0  0  0  0  0  0
   -8.5673   -1.9694    6.6194 N   0  0  0  0  0  0  0  0  0  0  0  0
   -2.9367    1.1175   13.6225 N   0  0  0  0  0  0  0  0  0  0  0  0
   -5.0726   -3.0425   11.7705 N   0  0  0  0  0  0  0  0  0  0  0  0
   -7.5449   -1.7355   11.7843 O   0  0  0  0  0  0  0  0  0  0  0  0
   -7.6808    1.1242   11.8181 O   0  0  0  0  0  0  0  0  0  0  0  0
   -5.5214    2.3987   13.3523 O   0  0  0  0  0  0  0  0  0  0  0  0
  -10.7245    0.9786   11.8116 O   0  0  0  0  0  0  0  0  0  0  0  0
   -8.1474    2.8830   13.3152 O   0  0  0  0  0  0  0  0  0  0  0  0
   -9.6198    1.9097   16.6300 O   0  0  0  0  0  0  0  0  0  0  0  0
  -10.9064    3.4769   12.9389 O   0  0  0  0  0  0  0  0  0  0  0  0
   -1.2369    3.4087   14.6110 O   0  0  0  0  0  0  0  0  0  0  0  0
   -2.6905    0.6299   15.9765 O   0  0  0  0  0  0  0  0  0  0  0  0
  -13.1320    4.4913   13.0072 O   0  0  0  0  0  0  0  0  0  0  0  0
   -8.9037   -0.6940   10.1165 O   0  0  0  0  0  0  0  0  0  0  0  0
  1 36  1  6  0  0  0
  2 36  1  1  0  0  0
  2  3  1  0  0  0  0
  3 37  1  6  0  0  0
  3  4  1  0  0  0  0
  4 38  1  1  0  0  0
  5 37  1  1  0  0  0
  5  6  1  0  0  0  0
  6  7  1  0  0  0  0
  6 39  1  6  0  0  0
  7 42  1  6  0  0  0
  8  9  1  1  0  0  0
  8  7  1  0  0  0  0
 10 42  1  6  0  0  0
 10 11  1  0  0  0  0
 11 31  1  6  0  0  0
 11 13  1  0  0  0  0
 12 30  1  1  0  0  0
 12  1  1  0  0  0  0
 14 13  1  0  0  0  0
 15 16  1  6  0  0  0
 15 14  1  0  0  0  0
 17 19  1  6  0  0  0
 17 28  1  0  0  0  0
 18 34  1  0  0  0  0
 19 32  1  0  0  0  0
 20 18  1  1  0  0  0
 20 17  1  0  0  0  0
 20 43  1  0  0  0  0
 21 12  1  0  0  0  0
 22 21  1  0  0  0  0
 22 23  1  0  0  0  0
 23 24  1  6  0  0  0
 23 46  1  0  0  0  0
 24 33  1  0  0  0  0
 25 34  1  6  0  0  0
 25  4  1  0  0  0  0
 26 25  1  0  0  0  0
 27 35  1  6  0  0  0
 27 26  1  0  0  0  0
 27  2  1  0  0  0  0
 29 16  1  0  0  0  0
 40  8  1  0  0  0  0
 40  5  1  0  0  0  0
 41  9  1  0  0  0  0
 44 18  2  0  0  0  0
 45 15  1  0  0  0  0
 45 10  1  0  0  0  0
 46  1  1  0  0  0  0
M  END
>  <CHROM.1>
-172.24940369,42.16429317,150.41191911,-81.30814115,82.48374613,-52.95781178
-113.13032895,-170.73190212,55.86578374,-167.84940868,139.71576960,-63.09033129
135.16053634,-7.73592711,1.20435541,12.75975977,-3.08075098,-0.27748392,0.65291798

>  <Name>
lig.pdb

>  <RI>
0

>  <Rbt.Current_Directory>
/home/afrankz/demos/rdock_decoys_rna/rnas/3wru

>  <Rbt.Executable>
rbdock ($Id: //depot/dev/client3/rdock/2013.1/src/exe/rbdock.cxx#4 $)

>  <Rbt.Library>
libRbt.so (2013.1, Build901 2013/11/27)

>  <Rbt.Parameter_File>
/export/apps/rDock/src/rDock_2013.1_src/data/scripts/dock_solv.prm

>  <Rbt.Receptor>
prm/blind_docking_60.prm

>  <SCORE>
19.7814

>  <SCORE.INTER>
7.29274

>  <SCORE.INTER.CONST>
1

>  <SCORE.INTER.POLAR>
0

>  <SCORE.INTER.ROT>
13

>  <SCORE.INTER.SOLV>
30.8563

>  <SCORE.INTER.VDW>
-17.6903

>  <SCORE.INTER.norm>
0.158538

>  <SCORE.INTRA>
3.20717

>  <SCORE.INTRA.DIHEDRAL>
2.95204

>  <SCORE.INTRA.DIHEDRAL.0>
19.7146

>  <SCORE.INTRA.POLAR>
0

>  <SCORE.INTRA.POLAR.0>
0

>  <SCORE.INTRA.REPUL>
0

>  <SCORE.INTRA.REPUL.0>
0

>  <SCORE.INTRA.SOLV>
-1.1386

>  <SCORE.INTRA.SOLV.lig_0>
-116.697

>  <SCORE.INTRA.VDW>
2.30045

>  <SCORE.INTRA.VDW.0>
-7.06424

>  <SCORE.INTRA.norm>
0.0697211

>  <SCORE.RESTR>
9.28149

>  <SCORE.RESTR.CAVITY>
9.28149

>  <SCORE.RESTR.norm>
0.201771

>  <SCORE.SYSTEM>
0

>  <SCORE.SYSTEM.CONST>
0

>  <SCORE.SYSTEM.DIHEDRAL>
0

>  <SCORE.SYSTEM.SOLV>
0

>  <SCORE.SYSTEM.norm>
0

>  <SCORE.heavy>
46

>  <SCORE.norm>
0.43003

>  <RMSD>
26.440

$$$$
lig.pdb
 OpenBabel03061811583D
libRbt.so/2013.1/901 2013/11/27
 46 49  0  0  0  0  0  0  0  0999 V2000
  -10.4757   -2.7211   11.7054 C   0  0  1  0  0  0  0  0  0  0  0  0
   -9.6231   -1.4109   13.6964 C   0  0  1  0  0  0  0  0  0  0  0  0
   -9.0073   -0.0069   13.9782 C   0  0  1  0  0  0  0  0  0  0  0  0
   -8.7630    0.1455   15.5657 C   0  0  2  0  0  0  0  0  0  0  0  0
   -6.7916    0.9899   13.2469 C   0  0  2  0  0  0  0  0  0  0  0  0
   -5.3912    0.4724   12.8113 C   0  0  1  0  0  0  0  0  0  0  0  0
   -4.8172    1.7899   12.3491 C   0  0  1  0  0  0  0  0  0  0  0  0
   -5.9475    2.4340   11.4850 C   0  0  1  0  0  0  0  0  0  0  0  0
   -6.0623    1.9532    9.9959 C   0  0  0  0  0  0  0  0  0  0  0  0
   -3.2364    2.4854   14.1101 C   0  0  1  0  0  0  0  0  0  0  0  0
   -2.2523    3.5433   13.7084 C   0  0  1  0  0  0  0  0  0  0  0  0
   -9.4901   -3.9134   11.7196 C   0  0  1  0  0  0  0  0  0  0  0  0
   -0.8639    3.2041   14.3576 C   0  0  0  0  0  0  0  0  0  0  0  0
   -0.3091    1.9409   13.9635 C   0  0  0  0  0  0  0  0  0  0  0  0
   -1.2175    0.8890   14.3678 C   0  0  2  0  0  0  0  0  0  0  0  0
   -0.6630   -0.5301   13.9511 C   0  0  0  0  0  0  0  0  0  0  0  0
   -9.3400    1.6773   20.0921 C   0  0  2  0  0  0  0  0  0  0  0  0
  -10.9352    1.0773   18.4648 C   0  0  0  0  0  0  0  0  0  0  0  0
   -9.5174    3.0460   20.1644 C   0  0  0  0  0  0  0  0  0  0  0  0
  -10.5567    1.0818   20.0268 C   0  0  1  0  0  0  0  0  0  0  0  0
   -8.2342   -3.6300   10.7760 C   0  0  0  0  0  0  0  0  0  0  0  0
   -8.7748   -3.3541    9.2914 C   0  0  0  0  0  0  0  0  0  0  0  0
   -9.7589   -2.0956    9.3523 C   0  0  1  0  0  0  0  0  0  0  0  0
  -10.3414   -1.7578    7.9746 C   0  0  0  0  0  0  0  0  0  0  0  0
  -10.1757    0.0617   16.2924 C   0  0  1  0  0  0  0  0  0  0  0  0
  -10.7528   -1.4209   15.9848 C   0  0  0  0  0  0  0  0  0  0  0  0
  -10.9720   -1.6021   14.4333 C   0  0  2  0  0  0  0  0  0  0  0  0
   -8.5504    1.2327   21.2184 F   0  0  0  0  0  0  0  0  0  0  0  0
   -1.4233   -1.1527   12.7451 N   0  0  0  0  0  0  0  0  0  0  0  0
   -9.0820   -4.1688   13.1505 N   0  0  0  0  0  0  0  0  0  0  0  0
   -2.0120    3.6088   12.3331 N   0  0  0  0  0  0  0  0  0  0  0  0
   -8.5932    4.1012   20.3484 N   0  0  0  0  0  0  0  0  0  0  0  0
  -11.2269   -0.6620    8.0531 N   0  0  0  0  0  0  0  0  0  0  0  0
   -9.9977    0.2103   17.7480 N   0  0  0  0  0  0  0  0  0  0  0  0
  -11.4873   -2.9568   14.1359 N   0  0  0  0  0  0  0  0  0  0  0  0
   -9.8904   -1.5667   12.3088 O   0  0  0  0  0  0  0  0  0  0  0  0
   -7.7155    0.0590   13.2168 O   0  0  0  0  0  0  0  0  0  0  0  0
   -8.2203    1.3913   15.7881 O   0  0  0  0  0  0  0  0  0  0  0  0
   -4.7558   -0.0659   13.9310 O   0  0  0  0  0  0  0  0  0  0  0  0
   -7.0355    2.1549   12.3817 O   0  0  0  0  0  0  0  0  0  0  0  0
   -4.9766    2.5566    9.2643 O   0  0  0  0  0  0  0  0  0  0  0  0
   -4.4906    2.6430   13.5615 O   0  0  0  0  0  0  0  0  0  0  0  0
  -10.5508   -0.2723   20.5295 O   0  0  0  0  0  0  0  0  0  0  0  0
  -11.8852    1.7035   17.9666 O   0  0  0  0  0  0  0  0  0  0  0  0
   -2.5869    1.1206   13.7739 O   0  0  0  0  0  0  0  0  0  0  0  0
  -10.9062   -2.3853   10.3062 O   0  0  0  0  0  0  0  0  0  0  0  0
  1 36  1  6  0  0  0
  2 36  1  6  0  0  0
  2  3  1  0  0  0  0
  3 37  1  6  0  0  0
  3  4  1  0  0  0  0
  4 38  1  6  0  0  0
  5 37  1  6  0  0  0
  5  6  1  0  0  0  0
  6  7  1  0  0  0  0
  6 39  1  1  0  0  0
  7 42  1  1  0  0  0
  8  9  1  6  0  0  0
  8  7  1  0  0  0  0
 10 42  1  6  0  0  0
 10 11  1  0  0  0  0
 11 31  1  6  0  0  0
 11 13  1  0  0  0  0
 12 30  1  1  0  0  0
 12  1  1  0  0  0  0
 14 13  1  0  0  0  0
 15 16  1  6  0  0  0
 15 14  1  0  0  0  0
 17 19  1  1  0  0  0
 17 28  1  0  0  0  0
 18 34  1  0  0  0  0
 19 32  1  0  0  0  0
 20 18  1  6  0  0  0
 20 17  1  0  0  0  0
 20 43  1  0  0  0  0
 21 12  1  0  0  0  0
 22 21  1  0  0  0  0
 22 23  1  0  0  0  0
 23 24  1  6  0  0  0
 23 46  1  0  0  0  0
 24 33  1  0  0  0  0
 25 34  1  1  0  0  0
 25  4  1  0  0  0  0
 26 25  1  0  0  0  0
 27 35  1  1  0  0  0
 27 26  1  0  0  0  0
 27  2  1  0  0  0  0
 29 16  1  0  0  0  0
 40  8  1  0  0  0  0
 40  5  1  0  0  0  0
 41  9  1  0  0  0  0
 44 18  2  0  0  0  0
 45 15  1  0  0  0  0
 45 10  1  0  0  0  0
 46  1  1  0  0  0  0
M  END
>  <CHROM.1>
-70.75206989,-178.89238959,-172.91159031,156.33652891,88.44099881,-74.58608141
99.84881210,-106.24570070,174.56860873,65.71130578,86.21955467,178.84059645
136.42763370,-7.38357370,0.27814907,14.09321719,2.54806491,0.39047104,1.21514106

>  <Name>
lig.pdb

>  <RI>
0

>  <Rbt.Current_Directory>
/home/afrankz/demos/rdock_decoys_rna/rnas/3wru

>  <Rbt.Executable>
rbdock ($Id: //depot/dev/client3/rdock/2013.1/src/exe/rbdock.cxx#4 $)

>  <Rbt.Library>
libRbt.so (2013.1, Build901 2013/11/27)

>  <Rbt.Parameter_File>
/export/apps/rDock/src/rDock_2013.1_src/data/scripts/dock_solv.prm

>  <Rbt.Receptor>
prm/blind_docking_40.prm

>  <SCORE>
25.7792

>  <SCORE.INTER>
9.70727

>  <SCORE.INTER.CONST>
1

>  <SCORE.INTER.POLAR>
0

>  <SCORE.INTER.ROT>
13

>  <SCORE.INTER.SOLV>
32.4334

>  <SCORE.INTER.VDW>
-16.6063

>  <SCORE.INTER.norm>
0.211028

>  <SCORE.INTRA>
6.28989

>  <SCORE.INTRA.DIHEDRAL>
1.45071

>  <SCORE.INTRA.DIHEDRAL.0>
19.7146

>  <SCORE.INTRA.POLAR>
0

>  <SCORE.INTRA.POLAR.0>
0

>  <SCORE.INTRA.REPUL>
0

>  <SCORE.INTRA.REPUL.0>
0

>  <SCORE.INTRA.SOLV>
3.84268

>  <SCORE.INTRA.SOLV.lig_0>
-116.697

>  <SCORE.INTRA.VDW>
3.64319

>  <SCORE.INTRA.VDW.0>
-7.06424

>  <SCORE.INTRA.norm>
0.136737

>  <SCORE.RESTR>
9.78208

>  <SCORE.RESTR.CAVITY>
9.78208

>  <SCORE.RESTR.norm>
0.212654

>  <SCORE.SYSTEM>
0

>  <SCORE.SYSTEM.CONST>
0

>  <SCORE.SYSTEM.DIHEDRAL>
0

>  <SCORE.SYSTEM.SOLV>
0

>  <SCORE.SYSTEM.norm>
0

>  <SCORE.heavy>
46

>  <SCORE.norm>
0.560418

>  <RMSD>
26.788

$$$$
lig.pdb
 OpenBabel03061811583D
libRbt.so/2013.1/901 2013/11/27
 46 49  0  0  0  0  0  0  0  0999 V2000
   -9.7919   -1.8059   12.6486 C   0  0  1  0  0  0  0  0  0  0  0  0
   -7.3734   -1.0614   12.7142 C   0  0  1  0  0  0  0  0  0  0  0  0
   -7.5559    0.1654   13.6583 C   0  0  1  0  0  0  0  0  0  0  0  0
   -6.3393    1.1964   13.4135 C   0  0  2  0  0  0  0  0  0  0  0  0
   -9.7687    1.3220   14.1097 C   0  0  2  0  0  0  0  0  0  0  0  0
   -9.4189    2.7806   14.5206 C   0  0  1  0  0  0  0  0  0  0  0  0
  -10.8206    3.2539   14.8206 C   0  0  1  0  0  0  0  0  0  0  0  0
  -11.6779    2.7422   13.6197 C   0  0  1  0  0  0  0  0  0  0  0  0
  -11.6566    3.6102   12.3129 C   0  0  0  0  0  0  0  0  0  0  0  0
  -10.7895    3.2124   17.2866 C   0  0  1  0  0  0  0  0  0  0  0  0
  -10.2318    2.2256   18.2684 C   0  0  1  0  0  0  0  0  0  0  0  0
  -10.5475   -3.1532   12.5644 C   0  0  1  0  0  0  0  0  0  0  0  0
   -9.7653    3.0059   19.5482 C   0  0  0  0  0  0  0  0  0  0  0  0
  -10.8045    3.7298   20.2225 C   0  0  0  0  0  0  0  0  0  0  0  0
  -11.3447    4.7192   19.3146 C   0  0  2  0  0  0  0  0  0  0  0  0
  -12.5037    5.5448   20.0001 C   0  0  0  0  0  0  0  0  0  0  0  0
   -0.5840    2.1532   14.9947 C   0  0  2  0  0  0  0  0  0  0  0  0
   -2.6671    1.1922   14.4560 C   0  0  0  0  0  0  0  0  0  0  0  0
    0.5264    2.8665   14.5845 C   0  0  0  0  0  0  0  0  0  0  0  0
   -1.5589    2.2874   14.0615 C   0  0  1  0  0  0  0  0  0  0  0  0
  -10.0624   -4.0046   11.3045 C   0  0  0  0  0  0  0  0  0  0  0  0
  -10.3080   -3.1292    9.9833 C   0  0  0  0  0  0  0  0  0  0  0  0
   -9.4753   -1.7724   10.1305 C   0  0  1  0  0  0  0  0  0  0  0  0
   -9.6556   -0.8557    8.9145 C   0  0  0  0  0  0  0  0  0  0  0  0
   -4.9835    0.4607   13.8025 C   0  0  1  0  0  0  0  0  0  0  0  0
   -4.8372   -0.7852   12.7767 C   0  0  0  0  0  0  0  0  0  0  0  0
   -6.0339   -1.7926   12.9790 C   0  0  2  0  0  0  0  0  0  0  0  0
   -0.9892    2.6032   16.3073 F   0  0  0  0  0  0  0  0  0  0  0  0
  -13.2667    6.4670   19.0062 N   0  0  0  0  0  0  0  0  0  0  0  0
  -10.3395   -3.8908   13.8652 N   0  0  0  0  0  0  0  0  0  0  0  0
  -11.1600    1.2859   18.7254 N   0  0  0  0  0  0  0  0  0  0  0  0
    1.8765    2.4800   14.4138 N   0  0  0  0  0  0  0  0  0  0  0  0
  -10.9885   -0.4038    8.8131 N   0  0  0  0  0  0  0  0  0  0  0  0
   -3.8449    1.3756   13.6052 N   0  0  0  0  0  0  0  0  0  0  0  0
   -5.9203   -2.9300   12.0394 N   0  0  0  0  0  0  0  0  0  0  0  0
   -8.4074   -2.0129   12.9304 O   0  0  0  0  0  0  0  0  0  0  0  0
   -8.8775    0.7857   13.3101 O   0  0  0  0  0  0  0  0  0  0  0  0
   -6.5229    2.2686   14.2577 O   0  0  0  0  0  0  0  0  0  0  0  0
   -8.5815    2.7322   15.6358 O   0  0  0  0  0  0  0  0  0  0  0  0
  -11.1342    1.4127   13.5690 O   0  0  0  0  0  0  0  0  0  0  0  0
  -10.4599    3.2651   11.5869 O   0  0  0  0  0  0  0  0  0  0  0  0
  -11.2817    2.6439   16.1319 O   0  0  0  0  0  0  0  0  0  0  0  0
   -2.1563    3.6024   14.0533 O   0  0  0  0  0  0  0  0  0  0  0  0
   -2.5227    0.3262   15.3346 O   0  0  0  0  0  0  0  0  0  0  0  0
  -11.8390    4.0573   18.0499 O   0  0  0  0  0  0  0  0  0  0  0  0
   -9.9272   -1.0236   11.3736 O   0  0  0  0  0  0  0  0  0  0  0  0
  1 36  1  6  0  0  0
  2 36  1  1  0  0  0
  2  3  1  0  0  0  0
  3 37  1  6  0  0  0
  3  4  1  0  0  0  0
  4 38  1  1  0  0  0
  5 37  1  6  0  0  0
  5  6  1  0  0  0  0
  6  7  1  0  0  0  0
  6 39  1  1  0  0  0
  7 42  1  1  0  0  0
  8  9  1  6  0  0  0
  8  7  1  0  0  0  0
 10 42  1  6  0  0  0
 10 11  1  0  0  0  0
 11 31  1  1  0  0  0
 11 13  1  0  0  0  0
 12 30  1  1  0  0  0
 12  1  1  0  0  0  0
 14 13  1  0  0  0  0
 15 16  1  1  0  0  0
 15 14  1  0  0  0  0
 17 19  1  6  0  0  0
 17 28  1  0  0  0  0
 18 34  1  0  0  0  0
 19 32  1  0  0  0  0
 20 18  1  1  0  0  0
 20 17  1  0  0  0  0
 20 43  1  0  0  0  0
 21 12  1  0  0  0  0
 22 21  1  0  0  0  0
 22 23  1  0  0  0  0
 23 24  1  6  0  0  0
 23 46  1  0  0  0  0
 24 33  1  0  0  0  0
 25 34  1  6  0  0  0
 25  4  1  0  0  0  0
 26 25  1  0  0  0  0
 27 35  1  6  0  0  0
 27 26  1  0  0  0  0
 27  2  1  0  0  0  0
 29 16  1  0  0  0  0
 40  8  1  0  0  0  0
 40  5  1  0  0  0  0
 41  9  1  0  0  0  0
 44 18  2  0  0  0  0
 45 15  1  0  0  0  0
 45 10  1  0  0  0  0
 46  1  1  0  0  0  0
M  END
>  <CHROM.1>
161.58033329,66.07112401,142.20032676,80.64239812,77.46779652,81.57766337
-130.83556834,-171.06966182,-125.96252548,172.76933309,168.20705056,65.35976030
150.92359836,-7.93583817,1.18686717,14.35957220,2.84370134,0.03894494,0.86009276

>  <Name>
lig.pdb

>  <RI>
0

>  <Rbt.Current_Directory>
/home/afrankz/demos/rdock_decoys_rna/rnas/3wru

>  <Rbt.Executable>
rbdock ($Id: //depot/dev/client3/rdock/2013.1/src/exe/rbdock.cxx#4 $)

>  <Rbt.Library>
libRbt.so (2013.1, Build901 2013/11/27)

>  <Rbt.Parameter_File>
/export/apps/rDock/src/rDock_2013.1_src/data/scripts/dock_solv.prm

>  <Rbt.Receptor>
prm/blind_docking_40.prm

>  <SCORE>
16.2603

>  <SCORE.INTER>
4.80533

>  <SCORE.INTER.CONST>
1

>  <SCORE.INTER.POLAR>
0

>  <SCORE.INTER.ROT>
13

>  <SCORE.INTER.SOLV>
27.6819

>  <SCORE.INTER.VDW>
-18.2904

>  <SCORE.INTER.norm>
0.104464

>  <SCORE.INTRA>
4.79923

>  <SCORE.INTRA.DIHEDRAL>
5.95045

>  <SCORE.INTRA.DIHEDRAL.0>
19.7146

>  <SCORE.INTRA.POLAR>
0

>  <SCORE.INTRA.POLAR.0>
0

>  <SCORE.INTRA.REPUL>
0.141708

>  <SCORE.INTRA.REPUL.0>
0

>  <SCORE.INTRA.SOLV>
-1.86861

>  <SCORE.INTRA.SOLV.lig_0>
-116.697

>  <SCORE.INTRA.VDW>
2.04977

>  <SCORE.INTRA.VDW.0>
-7.06424

>  <SCORE.INTRA.norm>
0.104331

>  <SCORE.RESTR>
6.65574

>  <SCORE.RESTR.CAVITY>
6.65574

>  <SCORE.RESTR.norm>
0.14469

>  <SCORE.SYSTEM>
0

>  <SCORE.SYSTEM.CONST>
0

>  <SCORE.SYSTEM.DIHEDRAL>
0

>  <SCORE.SYSTEM.SOLV>
0

>  <SCORE.SYSTEM.norm>
0

>  <SCORE.heavy>
46

>  <SCORE.norm>
0.353485

>  <RMSD>
26.834

$$$$
lig.pdb
 OpenBabel03061811583D
libRbt.so/2013.1/901 2013/11/27
 46 49  0  0  0  0  0  0  0  0999 V2000
  -11.6101   -2.6270    6.5999 C   0  0  1  0  0  0  0  0  0  0  0  0
  -10.4008   -1.5992    8.5719 C   0  0  1  0  0  0  0  0  0  0  0  0
   -9.3232   -2.0235    9.6153 C   0  0  1  0  0  0  0  0  0  0  0  0
   -9.0384   -0.7812   10.6044 C   0  0  2  0  0  0  0  0  0  0  0  0
  -10.1752   -3.2997   11.6360 C   0  0  2  0  0  0  0  0  0  0  0  0
   -9.6362   -4.6070   12.2834 C   0  0  1  0  0  0  0  0  0  0  0  0
   -9.5530   -4.1144   13.7080 C   0  0  1  0  0  0  0  0  0  0  0  0
   -8.8779   -2.7100   13.6036 C   0  0  1  0  0  0  0  0  0  0  0  0
   -7.3129   -2.6822   13.4947 C   0  0  0  0  0  0  0  0  0  0  0  0
  -11.0552   -3.6743   15.6142 C   0  0  1  0  0  0  0  0  0  0  0  0
  -12.4396   -3.7972   16.1772 C   0  0  1  0  0  0  0  0  0  0  0  0
  -13.0464   -2.5041    7.1615 C   0  0  1  0  0  0  0  0  0  0  0  0
  -12.4123   -3.3239   17.6738 C   0  0  0  0  0  0  0  0  0  0  0  0
  -11.9983   -1.9636   17.8661 C   0  0  0  0  0  0  0  0  0  0  0  0
  -10.6485   -1.8144   17.3653 C   0  0  2  0  0  0  0  0  0  0  0  0
  -10.1392   -0.3297   17.5419 C   0  0  0  0  0  0  0  0  0  0  0  0
   -7.2730    2.8004   12.9360 C   0  0  2  0  0  0  0  0  0  0  0  0
   -9.0468    1.7945   11.7550 C   0  0  0  0  0  0  0  0  0  0  0  0
   -6.4042    3.6365   12.2606 C   0  0  0  0  0  0  0  0  0  0  0  0
   -8.5425    3.0920   12.5584 C   0  0  1  0  0  0  0  0  0  0  0  0
  -13.4610   -3.8180    7.9674 C   0  0  0  0  0  0  0  0  0  0  0  0
  -13.3415   -5.0729    6.9758 C   0  0  0  0  0  0  0  0  0  0  0  0
  -11.8294   -5.1519    6.4626 C   0  0  1  0  0  0  0  0  0  0  0  0
  -11.6148   -6.3200    5.4926 C   0  0  0  0  0  0  0  0  0  0  0  0
   -8.4527    0.4163    9.7362 C   0  0  1  0  0  0  0  0  0  0  0  0
   -9.6207    0.8278    8.6910 C   0  0  0  0  0  0  0  0  0  0  0  0
   -9.9359   -0.3839    7.7317 C   0  0  2  0  0  0  0  0  0  0  0  0
   -7.0603    2.9314   14.3598 F   0  0  0  0  0  0  0  0  0  0  0  0
  -11.0173    0.7106   16.7889 N   0  0  0  0  0  0  0  0  0  0  0  0
  -13.1106   -1.2643    8.0206 N   0  0  0  0  0  0  0  0  0  0  0  0
  -13.3873   -2.9843   15.5489 N   0  0  0  0  0  0  0  0  0  0  0  0
   -6.2779    5.0455   12.2523 N   0  0  0  0  0  0  0  0  0  0  0  0
  -12.1131   -6.0117    4.2090 N   0  0  0  0  0  0  0  0  0  0  0  0
   -8.1655    1.5703   10.6071 N   0  0  0  0  0  0  0  0  0  0  0  0
  -11.0104   -0.0267    6.7791 N   0  0  0  0  0  0  0  0  0  0  0  0
  -10.6493   -2.6577    7.6559 O   0  0  0  0  0  0  0  0  0  0  0  0
   -9.8832   -3.1996   10.3609 O   0  0  0  0  0  0  0  0  0  0  0  0
   -8.0850   -1.1803   11.5142 O   0  0  0  0  0  0  0  0  0  0  0  0
  -10.5789   -5.6159   12.0822 O   0  0  0  0  0  0  0  0  0  0  0  0
   -9.6515   -2.2248   12.4936 O   0  0  0  0  0  0  0  0  0  0  0  0
   -6.9679   -3.0856   12.1544 O   0  0  0  0  0  0  0  0  0  0  0  0
  -10.9544   -4.0157   14.2829 O   0  0  0  0  0  0  0  0  0  0  0  0
   -9.4212    3.3433   13.6768 O   0  0  0  0  0  0  0  0  0  0  0  0
  -10.0214    1.0969   12.0807 O   0  0  0  0  0  0  0  0  0  0  0  0
  -10.5768   -2.2328   15.9156 O   0  0  0  0  0  0  0  0  0  0  0  0
  -11.4581   -3.8592    5.7547 O   0  0  0  0  0  0  0  0  0  0  0  0
  1 36  1  1  0  0  0
  2 36  1  6  0  0  0
  2  3  1  0  0  0  0
  3 37  1  1  0  0  0
  3  4  1  0  0  0  0
  4 38  1  1  0  0  0
  5 37  1  6  0  0  0
  5  6  1  0  0  0  0
  6  7  1  0  0  0  0
  6 39  1  1  0  0  0
  7 42  1  6  0  0  0
  8  9  1  6  0  0  0
  8  7  1  0  0  0  0
 10 42  1  6  0  0  0
 10 11  1  0  0  0  0
 11 31  1  6  0  0  0
 11 13  1  0  0  0  0
 12 30  1  1  0  0  0
 12  1  1  0  0  0  0
 14 13  1  0  0  0  0
 15 16  1  6  0  0  0
 15 14  1  0  0  0  0
 17 19  1  6  0  0  0
 17 28  1  0  0  0  0
 18 34  1  0  0  0  0
 19 32  1  0  0  0  0
 20 18  1  1  0  0  0
 20 17  1  0  0  0  0
 20 43  1  0  0  0  0
 21 12  1  0  0  0  0
 22 21  1  0  0  0  0
 22 23  1  0  0  0  0
 23 24  1  6  0  0  0
 23 46  1  0  0  0  0
 24 33  1  0  0  0  0
 25 34  1  1  0  0  0
 25  4  1  0  0  0  0
 26 25  1  0  0  0  0
 27 35  1  6  0  0  0
 27 26  1  0  0  0  0
 27  2  1  0  0  0  0
 29 16  1  0  0  0  0
 40  8  1  0  0  0  0
 40  5  1  0  0  0  0
 41  9  1  0  0  0  0
 44 18  2  0  0  0  0
 45 15  1  0  0  0  0
 45 10  1  0  0  0  0
 46  1  1  0  0  0  0
M  END
>  <CHROM.1>
-63.69270517,177.71540546,-116.84422963,-133.17300423,175.31518930,74.97320451
-171.08265423,-59.87597257,60.88566142,-59.54831807,113.03990172,77.53165999
-33.81255267,-10.13517575,-1.58779937,11.52235785,-2.08496193,1.06716932
1.58286392

>  <Name>
lig.pdb

>  <RI>
0

>  <Rbt.Current_Directory>
/home/afrankz/demos/rdock_decoys_rna/rnas/3wru

>  <Rbt.Executable>
rbdock ($Id: //depot/dev/client3/rdock/2013.1/src/exe/rbdock.cxx#4 $)

>  <Rbt.Library>
libRbt.so (2013.1, Build901 2013/11/27)

>  <Rbt.Parameter_File>
/export/apps/rDock/src/rDock_2013.1_src/data/scripts/dock_solv.prm

>  <Rbt.Receptor>
prm/blind_docking_60.prm

>  <SCORE>
48.0522

>  <SCORE.INTER>
19.8679

>  <SCORE.INTER.CONST>
1

>  <SCORE.INTER.POLAR>
0

>  <SCORE.INTER.ROT>
13

>  <SCORE.INTER.SOLV>
38.6224

>  <SCORE.INTER.VDW>
-11.8955

>  <SCORE.INTER.norm>
0.431911

>  <SCORE.INTRA>
22.7442

>  <SCORE.INTRA.DIHEDRAL>
2.17939

>  <SCORE.INTRA.DIHEDRAL.0>
19.7146

>  <SCORE.INTRA.POLAR>
0

>  <SCORE.INTRA.POLAR.0>
0

>  <SCORE.INTRA.REPUL>
0.00305043

>  <SCORE.INTRA.REPUL.0>
0

>  <SCORE.INTRA.SOLV>
7.0068

>  <SCORE.INTRA.SOLV.lig_0>
-116.697

>  <SCORE.INTRA.VDW>
18.1358

>  <SCORE.INTRA.VDW.0>
-7.06424

>  <SCORE.INTRA.norm>
0.494438

>  <SCORE.RESTR>
5.44015

>  <SCORE.RESTR.CAVITY>
5.44015

>  <SCORE.RESTR.norm>
0.118264

>  <SCORE.SYSTEM>
0

>  <SCORE.SYSTEM.CONST>
0

>  <SCORE.SYSTEM.DIHEDRAL>
0

>  <SCORE.SYSTEM.SOLV>
0

>  <SCORE.SYSTEM.norm>
0

>  <SCORE.heavy>
46

>  <SCORE.norm>
1.04461

>  <RMSD>
26.874

$$$$
lig.pdb
 OpenBabel03061811583D
libRbt.so/2013.1/901 2013/11/27
 46 49  0  0  0  0  0  0  0  0999 V2000
  -11.0694    3.4842   13.2455 C   0  0  1  0  0  0  0  0  0  0  0  0
   -9.3097    1.6795   13.4779 C   0  0  1  0  0  0  0  0  0  0  0  0
   -8.6216    0.8252   12.3704 C   0  0  1  0  0  0  0  0  0  0  0  0
   -7.1844    0.3309   12.9116 C   0  0  2  0  0  0  0  0  0  0  0  0
  -10.0494   -0.7183   10.9502 C   0  0  2  0  0  0  0  0  0  0  0  0
   -9.0164   -0.7333    9.7877 C   0  0  1  0  0  0  0  0  0  0  0  0
   -9.6998   -1.7585    8.9155 C   0  0  1  0  0  0  0  0  0  0  0  0
  -10.1051   -2.9058    9.8946 C   0  0  1  0  0  0  0  0  0  0  0  0
   -8.9928   -3.9493   10.2626 C   0  0  0  0  0  0  0  0  0  0  0  0
  -11.7027   -1.9506    7.4888 C   0  0  1  0  0  0  0  0  0  0  0  0
  -10.9804   -2.5778    6.3339 C   0  0  1  0  0  0  0  0  0  0  0  0
  -12.0791    3.4979   14.4175 C   0  0  1  0  0  0  0  0  0  0  0  0
  -12.0061   -3.4361    5.5120 C   0  0  0  0  0  0  0  0  0  0  0  0
  -13.1084   -2.6962    4.9679 C   0  0  0  0  0  0  0  0  0  0  0  0
  -13.8527   -2.1034    6.0586 C   0  0  2  0  0  0  0  0  0  0  0  0
  -15.0781   -1.2653    5.5194 C   0  0  0  0  0  0  0  0  0  0  0  0
   -2.9226    0.4025   14.7603 C   0  0  2  0  0  0  0  0  0  0  0  0
   -3.8377    2.1210   13.4327 C   0  0  0  0  0  0  0  0  0  0  0  0
   -3.0653   -0.6724   13.9035 C   0  0  0  0  0  0  0  0  0  0  0  0
   -2.5000    1.4763   14.0478 C   0  0  1  0  0  0  0  0  0  0  0  0
  -13.3991    2.6807   14.0464 C   0  0  0  0  0  0  0  0  0  0  0  0
  -14.0419    3.3370   12.7318 C   0  0  0  0  0  0  0  0  0  0  0  0
  -12.9553    3.2594   11.5617 C   0  0  1  0  0  0  0  0  0  0  0  0
  -13.4739    3.8768   10.2574 C   0  0  0  0  0  0  0  0  0  0  0  0
   -6.2895    1.6182   13.1813 C   0  0  1  0  0  0  0  0  0  0  0  0
   -7.0395    2.4504   14.3522 C   0  0  0  0  0  0  0  0  0  0  0  0
   -8.4607    2.9191   13.8539 C   0  0  2  0  0  0  0  0  0  0  0  0
   -2.0252    0.0466   15.8362 F   0  0  0  0  0  0  0  0  0  0  0  0
  -15.8946   -0.5797    6.6523 N   0  0  0  0  0  0  0  0  0  0  0  0
  -11.3886    2.9413   15.6393 N   0  0  0  0  0  0  0  0  0  0  0  0
  -10.4516   -1.6595    5.4226 N   0  0  0  0  0  0  0  0  0  0  0  0
   -3.7640   -0.8085   12.6809 N   0  0  0  0  0  0  0  0  0  0  0  0
  -14.7461    3.3651    9.9245 N   0  0  0  0  0  0  0  0  0  0  0  0
   -4.9592    1.2087   13.6660 N   0  0  0  0  0  0  0  0  0  0  0  0
   -9.1629    3.6701   14.9180 N   0  0  0  0  0  0  0  0  0  0  0  0
  -10.5645    2.1675   13.0211 O   0  0  0  0  0  0  0  0  0  0  0  0
   -9.5311   -0.3363   12.0932 O   0  0  0  0  0  0  0  0  0  0  0  0
   -6.5979   -0.4195   11.9171 O   0  0  0  0  0  0  0  0  0  0  0  0
   -8.9645    0.5457    9.2320 O   0  0  0  0  0  0  0  0  0  0  0  0
  -10.6328   -2.0691   10.9373 O   0  0  0  0  0  0  0  0  0  0  0  0
   -9.5767   -4.8940   11.1817 O   0  0  0  0  0  0  0  0  0  0  0  0
  -10.9176   -1.1267    8.2658 O   0  0  0  0  0  0  0  0  0  0  0  0
   -1.8150    2.4574   14.8568 O   0  0  0  0  0  0  0  0  0  0  0  0
   -3.8939    3.2255   12.8675 O   0  0  0  0  0  0  0  0  0  0  0  0
  -12.9471   -1.2387    6.9036 O   0  0  0  0  0  0  0  0  0  0  0  0
  -11.6947    3.9982   11.9803 O   0  0  0  0  0  0  0  0  0  0  0  0
  1 36  1  6  0  0  0
  2 36  1  6  0  0  0
  2  3  1  0  0  0  0
  3 37  1  1  0  0  0
  3  4  1  0  0  0  0
  4 38  1  6  0  0  0
  5 37  1  1  0  0  0
  5  6  1  0  0  0  0
  6  7  1  0  0  0  0
  6 39  1  6  0  0  0
  7 42  1  1  0  0  0
  8  9  1  1  0  0  0
  8  7  1  0  0  0  0
 10 42  1  6  0  0  0
 10 11  1  0  0  0  0
 11 31  1  6  0  0  0
 11 13  1  0  0  0  0
 12 30  1  1  0  0  0
 12  1  1  0  0  0  0
 14 13  1  0  0  0  0
 15 16  1  6  0  0  0
 15 14  1  0  0  0  0
 17 19  1  6  0  0  0
 17 28  1  0  0  0  0
 18 34  1  0  0  0  0
 19 32  1  0  0  0  0
 20 18  1  1  0  0  0
 20 17  1  0  0  0  0
 20 43  1  0  0  0  0
 21 12  1  0  0  0  0
 22 21  1  0  0  0  0
 22 23  1  0  0  0  0
 23 24  1  6  0  0  0
 23 46  1  0  0  0  0
 24 33  1  0  0  0  0
 25 34  1  1  0  0  0
 25  4  1  0  0  0  0
 26 25  1  0  0  0  0
 27 35  1  1  0  0  0
 27 26  1  0  0  0  0
 27  2  1  0  0  0  0
 29 16  1  0  0  0  0
 40  8  1  0  0  0  0
 40  5  1  0  0  0  0
 41  9  1  0  0  0  0
 44 18  2  0  0  0  0
 45 15  1  0  0  0  0
 45 10  1  0  0  0  0
 46  1  1  0  0  0  0
M  END
>  <CHROM.1>
-99.72849304,-138.32919824,124.59049093,45.62542959,-176.57661774,179.20416509
-59.36047314,-178.72518309,-51.99493799,-9.53358820,84.05414967,-49.98457151
154.29352785,-9.30292588,0.41323794,11.24649609,0.62885562,-0.34328642,0.78435417

>  <Name>
lig.pdb

>  <RI>
0

>  <Rbt.Current_Directory>
/home/afrankz/demos/rdock_decoys_rna/rnas/3wru

>  <Rbt.Executable>
rbdock ($Id: //depot/dev/client3/rdock/2013.1/src/exe/rbdock.cxx#4 $)

>  <Rbt.Library>
libRbt.so (2013.1, Build901 2013/11/27)

>  <Rbt.Parameter_File>
/export/apps/rDock/src/rDock_2013.1_src/data/scripts/dock_solv.prm

>  <Rbt.Receptor>
prm/blind_docking_60.prm

>  <SCORE>
35.2008

>  <SCORE.INTER>
12.9788

>  <SCORE.INTER.CONST>
1

>  <SCORE.INTER.POLAR>
0

>  <SCORE.INTER.ROT>
13

>  <SCORE.INTER.SOLV>
33.7175

>  <SCORE.INTER.VDW>
-14.8533

>  <SCORE.INTER.norm>
0.282149

>  <SCORE.INTRA>
16.4854

>  <SCORE.INTRA.DIHEDRAL>
4.61643

>  <SCORE.INTRA.DIHEDRAL.0>
19.7146

>  <SCORE.INTRA.POLAR>
0

>  <SCORE.INTRA.POLAR.0>
0

>  <SCORE.INTRA.REPUL>
0

>  <SCORE.INTRA.REPUL.0>
0

>  <SCORE.INTRA.SOLV>
6.63471

>  <SCORE.INTRA.SOLV.lig_0>
-116.697

>  <SCORE.INTRA.VDW>
10.8598

>  <SCORE.INTRA.VDW.0>
-7.06424

>  <SCORE.INTRA.norm>
0.358377

>  <SCORE.RESTR>
5.73657

>  <SCORE.RESTR.CAVITY>
5.73657

>  <SCORE.RESTR.norm>
0.124708

>  <SCORE.SYSTEM>
0

>  <SCORE.SYSTEM.CONST>
0

>  <SCORE.SYSTEM.DIHEDRAL>
0

>  <SCORE.SYSTEM.SOLV>
0

>  <SCORE.SYSTEM.norm>
0

>  <SCORE.heavy>
46

>  <SCORE.norm>
0.765234

>  <RMSD>
27.035

$$$$
lig.pdb
 OpenBabel03061811583D
libRbt.so/2013.1/901 2013/11/27
 46 49  0  0  0  0  0  0  0  0999 V2000
   -7.2536    2.6127   13.3379 C   0  0  1  0  0  0  0  0  0  0  0  0
   -9.1830    0.9777   13.4486 C   0  0  1  0  0  0  0  0  0  0  0  0
   -8.4852   -0.4095   13.3126 C   0  0  1  0  0  0  0  0  0  0  0  0
   -9.3606   -1.5123   14.1003 C   0  0  2  0  0  0  0  0  0  0  0  0
   -9.3739   -1.0963   11.0374 C   0  0  2  0  0  0  0  0  0  0  0  0
   -8.8519   -1.8608    9.7877 C   0  0  1  0  0  0  0  0  0  0  0  0
  -10.1020   -2.6536    9.4918 C   0  0  1  0  0  0  0  0  0  0  0  0
  -10.5540   -3.2139   10.8778 C   0  0  1  0  0  0  0  0  0  0  0  0
   -9.8390   -4.5158   11.3833 C   0  0  0  0  0  0  0  0  0  0  0  0
  -11.1776   -1.6255    7.5247 C   0  0  1  0  0  0  0  0  0  0  0  0
  -11.8557   -2.7722    6.8360 C   0  0  1  0  0  0  0  0  0  0  0  0
   -6.4340    3.3074   12.2249 C   0  0  1  0  0  0  0  0  0  0  0  0
  -11.7612   -2.5479    5.2852 C   0  0  0  0  0  0  0  0  0  0  0  0
  -10.4244   -2.4771    4.7688 C   0  0  0  0  0  0  0  0  0  0  0  0
   -9.7475   -1.3564    5.3861 C   0  0  2  0  0  0  0  0  0  0  0  0
   -8.2626   -1.2324    4.8620 C   0  0  0  0  0  0  0  0  0  0  0  0
  -12.8186   -2.7075   17.9946 C   0  0  2  0  0  0  0  0  0  0  0  0
  -10.7098   -1.6985   17.6981 C   0  0  0  0  0  0  0  0  0  0  0  0
  -13.3278   -3.8535   17.4136 C   0  0  0  0  0  0  0  0  0  0  0  0
  -11.5247   -2.9284   18.3358 C   0  0  1  0  0  0  0  0  0  0  0  0
   -5.8134    2.2366   11.2169 C   0  0  0  0  0  0  0  0  0  0  0  0
   -4.8923    1.2299   12.0598 C   0  0  0  0  0  0  0  0  0  0  0  0
   -5.8116    0.5310   13.1654 C   0  0  1  0  0  0  0  0  0  0  0  0
   -5.0148   -0.4474   14.0367 C   0  0  0  0  0  0  0  0  0  0  0  0
   -9.3877   -1.1127   15.6399 C   0  0  1  0  0  0  0  0  0  0  0  0
  -10.1422    0.3192   15.7200 C   0  0  0  0  0  0  0  0  0  0  0  0
   -9.3171    1.4074   14.9306 C   0  0  2  0  0  0  0  0  0  0  0  0
  -13.6448   -2.3278   19.1184 F   0  0  0  0  0  0  0  0  0  0  0  0
   -7.5915    0.1184    5.2430 N   0  0  0  0  0  0  0  0  0  0  0  0
   -7.3359    4.2945   11.5237 N   0  0  0  0  0  0  0  0  0  0  0  0
  -11.2572   -4.0138    7.0678 N   0  0  0  0  0  0  0  0  0  0  0  0
  -13.2379   -4.3525   16.0929 N   0  0  0  0  0  0  0  0  0  0  0  0
   -3.8404    0.1565   14.5339 N   0  0  0  0  0  0  0  0  0  0  0  0
  -10.1689   -2.1052   16.3995 N   0  0  0  0  0  0  0  0  0  0  0  0
  -10.0012    2.7184   14.9845 N   0  0  0  0  0  0  0  0  0  0  0  0
   -8.4175    1.9847   12.7994 O   0  0  0  0  0  0  0  0  0  0  0  0
   -8.4129   -0.7147   11.8447 O   0  0  0  0  0  0  0  0  0  0  0  0
   -8.7244   -2.7260   13.9657 O   0  0  0  0  0  0  0  0  0  0  0  0
   -8.5245   -0.9239    8.8068 O   0  0  0  0  0  0  0  0  0  0  0  0
  -10.3761   -1.9992   11.6253 O   0  0  0  0  0  0  0  0  0  0  0  0
  -10.3954   -4.8386   12.6734 O   0  0  0  0  0  0  0  0  0  0  0  0
  -11.1492   -1.7286    8.8985 O   0  0  0  0  0  0  0  0  0  0  0  0
  -11.3148   -2.9621   19.7644 O   0  0  0  0  0  0  0  0  0  0  0  0
  -10.5837   -0.5833   18.2302 O   0  0  0  0  0  0  0  0  0  0  0  0
   -9.7714   -1.4921    6.8903 O   0  0  0  0  0  0  0  0  0  0  0  0
   -6.4290    1.5893   14.0650 O   0  0  0  0  0  0  0  0  0  0  0  0
  1 36  1  6  0  0  0
  2 36  1  6  0  0  0
  2  3  1  0  0  0  0
  3 37  1  6  0  0  0
  3  4  1  0  0  0  0
  4 38  1  1  0  0  0
  5 37  1  1  0  0  0
  5  6  1  0  0  0  0
  6  7  1  0  0  0  0
  6 39  1  6  0  0  0
  7 42  1  1  0  0  0
  8  9  1  1  0  0  0
  8  7  1  0  0  0  0
 10 42  1  1  0  0  0
 10 11  1  0  0  0  0
 11 31  1  6  0  0  0
 11 13  1  0  0  0  0
 12 30  1  6  0  0  0
 12  1  1  0  0  0  0
 14 13  1  0  0  0  0
 15 16  1  6  0  0  0
 15 14  1  0  0  0  0
 17 19  1  1  0  0  0
 17 28  1  0  0  0  0
 18 34  1  0  0  0  0
 19 32  1  0  0  0  0
 20 18  1  6  0  0  0
 20 17  1  0  0  0  0
 20 43  1  0  0  0  0
 21 12  1  0  0  0  0
 22 21  1  0  0  0  0
 22 23  1  0  0  0  0
 23 24  1  1  0  0  0
 23 46  1  0  0  0  0
 24 33  1  0  0  0  0
 25 34  1  1  0  0  0
 25  4  1  0  0  0  0
 26 25  1  0  0  0  0
 27 35  1  6  0  0  0
 27 26  1  0  0  0  0
 27  2  1  0  0  0  0
 29 16  1  0  0  0  0
 40  8  1  0  0  0  0
 40  5  1  0  0  0  0
 41  9  1  0  0  0  0
 44 18  2  0  0  0  0
 45 15  1  0  0  0  0
 45 10  1  0  0  0  0
 46  1  1  0  0  0  0
M  END
>  <CHROM.1>
162.07060728,-79.25172526,-74.83513371,-156.23206761,91.75563314,179.31967877
78.75470437,167.32884382,-82.19327189,-95.65063096,128.64459573,50.03370267
-158.85520806,-9.43261136,-1.05039454,12.36371200,-1.75389069,-0.75838094
-1.67511196

>  <Name>
lig.pdb

>  <RI>
0

>  <Rbt.Current_Directory>
/home/afrankz/demos/rdock_decoys_rna/rnas/3wru

>  <Rbt.Executable>
rbdock ($Id: //depot/dev/client3/rdock/2013.1/src/exe/rbdock.cxx#4 $)

>  <Rbt.Library>
libRbt.so (2013.1, Build901 2013/11/27)

>  <Rbt.Parameter_File>
/export/apps/rDock/src/rDock_2013.1_src/data/scripts/dock_solv.prm

>  <Rbt.Receptor>
prm/blind_docking_60.prm

>  <SCORE>
18.0131

>  <SCORE.INTER>
7.56925

>  <SCORE.INTER.CONST>
1

>  <SCORE.INTER.POLAR>
0

>  <SCORE.INTER.ROT>
13

>  <SCORE.INTER.SOLV>
38.9682

>  <SCORE.INTER.VDW>
-20.2099

>  <SCORE.INTER.norm>
0.164549

>  <SCORE.INTRA>
6.50766

>  <SCORE.INTRA.DIHEDRAL>
1.68232

>  <SCORE.INTRA.DIHEDRAL.0>
19.7146

>  <SCORE.INTRA.POLAR>
0

>  <SCORE.INTRA.POLAR.0>
0

>  <SCORE.INTRA.REPUL>
0

>  <SCORE.INTRA.REPUL.0>
0

>  <SCORE.INTRA.SOLV>
1.32804

>  <SCORE.INTRA.SOLV.lig_0>
-116.697

>  <SCORE.INTRA.VDW>
5.00248

>  <SCORE.INTRA.VDW.0>
-7.06424

>  <SCORE.INTRA.norm>
0.141471

>  <SCORE.RESTR>
3.93621

>  <SCORE.RESTR.CAVITY>
3.93621

>  <SCORE.RESTR.norm>
0.0855698

>  <SCORE.SYSTEM>
0

>  <SCORE.SYSTEM.CONST>
0

>  <SCORE.SYSTEM.DIHEDRAL>
0

>  <SCORE.SYSTEM.SOLV>
0

>  <SCORE.SYSTEM.norm>
0

>  <SCORE.heavy>
46

>  <SCORE.norm>
0.39159

>  <RMSD>
27.221

$$$$
lig.pdb
 OpenBabel03061811583D
libRbt.so/2013.1/901 2013/11/27
 46 49  0  0  0  0  0  0  0  0999 V2000
   -9.7244   -2.8351    9.2892 C   0  0  1  0  0  0  0  0  0  0  0  0
   -8.7668   -3.2103   11.6022 C   0  0  1  0  0  0  0  0  0  0  0  0
   -9.0390   -1.8820   12.3711 C   0  0  1  0  0  0  0  0  0  0  0  0
   -9.2231   -2.2160   13.9387 C   0  0  2  0  0  0  0  0  0  0  0  0
   -7.6428    0.2280   12.5613 C   0  0  2  0  0  0  0  0  0  0  0  0
   -6.1650    0.4875   12.9705 C   0  0  1  0  0  0  0  0  0  0  0  0
   -6.1507    1.9824   12.7608 C   0  0  1  0  0  0  0  0  0  0  0  0
   -6.8476    2.1961   11.3796 C   0  0  1  0  0  0  0  0  0  0  0  0
   -5.9605    2.0006   10.1003 C   0  0  0  0  0  0  0  0  0  0  0  0
   -8.0175    1.9673   14.3727 C   0  0  1  0  0  0  0  0  0  0  0  0
   -9.2926    2.2334   13.6296 C   0  0  1  0  0  0  0  0  0  0  0  0
   -9.2248   -2.9197    7.8275 C   0  0  1  0  0  0  0  0  0  0  0  0
  -10.4520    1.4399   14.3300 C   0  0  0  0  0  0  0  0  0  0  0  0
  -10.6810    1.7961   15.7008 C   0  0  0  0  0  0  0  0  0  0  0  0
   -9.4795    1.5189   16.4590 C   0  0  2  0  0  0  0  0  0  0  0  0
   -9.6682    1.9009   17.9800 C   0  0  0  0  0  0  0  0  0  0  0  0
  -12.1890   -2.8389   18.1597 C   0  0  2  0  0  0  0  0  0  0  0  0
  -12.0820   -3.7043   15.9705 C   0  0  0  0  0  0  0  0  0  0  0  0
  -11.0453   -2.1004   17.9214 C   0  0  0  0  0  0  0  0  0  0  0  0
  -12.0700   -4.0405   17.5422 C   0  0  1  0  0  0  0  0  0  0  0  0
   -8.3139   -1.6617    7.4594 C   0  0  0  0  0  0  0  0  0  0  0  0
   -9.1794   -0.3314    7.6905 C   0  0  0  0  0  0  0  0  0  0  0  0
   -9.6324   -0.2995    9.2234 C   0  0  1  0  0  0  0  0  0  0  0  0
  -10.4813    0.9367    9.5435 C   0  0  0  0  0  0  0  0  0  0  0  0
  -10.4958   -3.1573   14.0963 C   0  0  1  0  0  0  0  0  0  0  0  0
  -10.1456   -4.5248   13.3004 C   0  0  0  0  0  0  0  0  0  0  0  0
   -9.9327   -4.2164   11.7683 C   0  0  2  0  0  0  0  0  0  0  0  0
  -13.3466   -2.0899   17.7254 F   0  0  0  0  0  0  0  0  0  0  0  0
  -10.1651    0.7115   18.8511 N   0  0  0  0  0  0  0  0  0  0  0  0
   -8.4879   -4.2264    7.6575 N   0  0  0  0  0  0  0  0  0  0  0  0
   -9.6965    3.5713   13.6466 N   0  0  0  0  0  0  0  0  0  0  0  0
  -10.7533   -1.1147   16.9495 N   0  0  0  0  0  0  0  0  0  0  0  0
  -10.6429    1.0946   10.9363 N   0  0  0  0  0  0  0  0  0  0  0  0
  -10.7075   -3.4762   15.5197 N   0  0  0  0  0  0  0  0  0  0  0  0
   -9.5994   -5.4549   11.0303 N   0  0  0  0  0  0  0  0  0  0  0  0
   -8.6389   -2.9604   10.2084 O   0  0  0  0  0  0  0  0  0  0  0  0
   -7.8508   -0.9955   12.1362 O   0  0  0  0  0  0  0  0  0  0  0  0
   -9.4623   -1.0291   14.5945 O   0  0  0  0  0  0  0  0  0  0  0  0
   -6.0039    0.0959   14.3002 O   0  0  0  0  0  0  0  0  0  0  0  0
   -7.9471    1.2961   11.5960 O   0  0  0  0  0  0  0  0  0  0  0  0
   -5.4335    3.2933    9.7408 O   0  0  0  0  0  0  0  0  0  0  0  0
   -6.9252    2.6498   13.8828 O   0  0  0  0  0  0  0  0  0  0  0  0
  -10.8483   -4.7320   17.8821 O   0  0  0  0  0  0  0  0  0  0  0  0
  -13.1032   -3.6647   15.2647 O   0  0  0  0  0  0  0  0  0  0  0  0
   -8.3025    2.2577   15.8668 O   0  0  0  0  0  0  0  0  0  0  0  0
  -10.4453   -1.5426    9.5457 O   0  0  0  0  0  0  0  0  0  0  0  0
  1 36  1  1  0  0  0
  2 36  1  6  0  0  0
  2  3  1  0  0  0  0
  3 37  1  1  0  0  0
  3  4  1  0  0  0  0
  4 38  1  1  0  0  0
  5 37  1  6  0  0  0
  5  6  1  0  0  0  0
  6  7  1  0  0  0  0
  6 39  1  1  0  0  0
  7 42  1  1  0  0  0
  8  9  1  6  0  0  0
  8  7  1  0  0  0  0
 10 42  1  6  0  0  0
 10 11  1  0  0  0  0
 11 31  1  1  0  0  0
 11 13  1  0  0  0  0
 12 30  1  1  0  0  0
 12  1  1  0  0  0  0
 14 13  1  0  0  0  0
 15 16  1  1  0  0  0
 15 14  1  0  0  0  0
 17 19  1  6  0  0  0
 17 28  1  0  0  0  0
 18 34  1  0  0  0  0
 19 32  1  0  0  0  0
 20 18  1  6  0  0  0
 20 17  1  0  0  0  0
 20 43  1  0  0  0  0
 21 12  1  0  0  0  0
 22 21  1  0  0  0  0
 22 23  1  0  0  0  0
 23 24  1  6  0  0  0
 23 46  1  0  0  0  0
 24 33  1  0  0  0  0
 25 34  1  1  0  0  0
 25  4  1  0  0  0  0
 26 25  1  0  0  0  0
 27 35  1  6  0  0  0
 27 26  1  0  0  0  0
 27  2  1  0  0  0  0
 29 16  1  0  0  0  0
 40  8  1  0  0  0  0
 40  5  1  0  0  0  0
 41  9  1  0  0  0  0
 44 18  2  0  0  0  0
 45 15  1  0  0  0  0
 45 10  1  0  0  0  0
 46  1  1  0  0  0  0
M  END
>  <CHROM.1>
-165.83581594,-83.09084944,178.51963196,141.86523830,-34.59364863,-93.05731297
-87.27773844,92.24842439,95.92027038,89.99568816,-66.96634154,-168.04416436
149.28950871,-9.35932709,-0.80148839,13.23395560,0.71701860,-1.03537862,-2.12880657

>  <Name>
lig.pdb

>  <RI>
0

>  <Rbt.Current_Directory>
/home/afrankz/demos/rdock_decoys_rna/rnas/3wru

>  <Rbt.Executable>
rbdock ($Id: //depot/dev/client3/rdock/2013.1/src/exe/rbdock.cxx#4 $)

>  <Rbt.Library>
libRbt.so (2013.1, Build901 2013/11/27)

>  <Rbt.Parameter_File>
/export/apps/rDock/src/rDock_2013.1_src/data/scripts/dock_solv.prm

>  <Rbt.Receptor>
prm/blind_docking_60.prm

>  <SCORE>
43.6206

>  <SCORE.INTER>
16.4842

>  <SCORE.INTER.CONST>
1

>  <SCORE.INTER.POLAR>
0

>  <SCORE.INTER.ROT>
13

>  <SCORE.INTER.SOLV>
42.9914

>  <SCORE.INTER.VDW>
-15.6077

>  <SCORE.INTER.norm>
0.358351

>  <SCORE.INTRA>
23.5013

>  <SCORE.INTRA.DIHEDRAL>
6.89787

>  <SCORE.INTRA.DIHEDRAL.0>
19.7146

>  <SCORE.INTRA.POLAR>
0

>  <SCORE.INTRA.POLAR.0>
0

>  <SCORE.INTRA.REPUL>
0

>  <SCORE.INTRA.REPUL.0>
0

>  <SCORE.INTRA.SOLV>
17.5065

>  <SCORE.INTRA.SOLV.lig_0>
-116.697

>  <SCORE.INTRA.VDW>
11.2991

>  <SCORE.INTRA.VDW.0>
-7.06424

>  <SCORE.INTRA.norm>
0.510897

>  <SCORE.RESTR>
3.63515

>  <SCORE.RESTR.CAVITY>
3.63515

>  <SCORE.RESTR.norm>
0.079025

>  <SCORE.SYSTEM>
0

>  <SCORE.SYSTEM.CONST>
0

>  <SCORE.SYSTEM.DIHEDRAL>
0

>  <SCORE.SYSTEM.SOLV>
0

>  <SCORE.SYSTEM.norm>
0

>  <SCORE.heavy>
46

>  <SCORE.norm>
0.948273

>  <RMSD>
27.224

$$$$
lig.pdb
 OpenBabel03061811583D
libRbt.so/2013.1/901 2013/11/27
 46 49  0  0  0  0  0  0  0  0999 V2000
  -10.0941    1.0219   11.8206 C   0  0  1  0  0  0  0  0  0  0  0  0
   -7.9677    2.0877   12.6868 C   0  0  1  0  0  0  0  0  0  0  0  0
   -7.9236    0.8179   13.5898 C   0  0  1  0  0  0  0  0  0  0  0  0
   -6.5914    0.8709   14.4982 C   0  0  2  0  0  0  0  0  0  0  0  0
   -9.2680    0.7918   15.7415 C   0  0  2  0  0  0  0  0  0  0  0  0
  -10.5208    1.5368   16.2838 C   0  0  1  0  0  0  0  0  0  0  0  0
  -10.6778    0.7681   17.5734 C   0  0  1  0  0  0  0  0  0  0  0  0
  -10.5172   -0.7306   17.1643 C   0  0  1  0  0  0  0  0  0  0  0  0
  -11.7844   -1.4444   16.5758 C   0  0  0  0  0  0  0  0  0  0  0  0
   -9.6529    2.4952   19.0052 C   0  0  1  0  0  0  0  0  0  0  0  0
   -8.8113    2.7560   20.2187 C   0  0  1  0  0  0  0  0  0  0  0  0
   -9.7646   -0.0344   10.7394 C   0  0  1  0  0  0  0  0  0  0  0  0
   -9.0230    4.2474   20.6605 C   0  0  0  0  0  0  0  0  0  0  0  0
  -10.3742    4.5860   21.0042 C   0  0  0  0  0  0  0  0  0  0  0  0
  -11.2136    4.3803   19.8431 C   0  0  2  0  0  0  0  0  0  0  0  0
  -12.7204    4.7291   20.1638 C   0  0  0  0  0  0  0  0  0  0  0  0
   -1.8108    1.3789   15.2645 C   0  0  2  0  0  0  0  0  0  0  0  0
   -3.1257   -0.2107   14.1257 C   0  0  0  0  0  0  0  0  0  0  0  0
   -0.6436    1.6973   15.9326 C   0  0  0  0  0  0  0  0  0  0  0  0
   -1.8567    0.0360   15.0808 C   0  0  1  0  0  0  0  0  0  0  0  0
   -9.8872    0.5874    9.2745 C   0  0  0  0  0  0  0  0  0  0  0  0
  -11.3792    1.1463    9.0904 C   0  0  0  0  0  0  0  0  0  0  0  0
  -11.6341    2.2492   10.2193 C   0  0  1  0  0  0  0  0  0  0  0  0
  -13.0471    2.8388   10.1345 C   0  0  0  0  0  0  0  0  0  0  0  0
   -5.3312    0.8408   13.5277 C   0  0  1  0  0  0  0  0  0  0  0  0
   -5.4183    2.1906   12.6351 C   0  0  0  0  0  0  0  0  0  0  0  0
   -6.7301    2.1732   11.7594 C   0  0  2  0  0  0  0  0  0  0  0  0
   -1.8774    2.1235   14.0273 F   0  0  0  0  0  0  0  0  0  0  0  0
  -12.9604    6.2495   20.3897 N   0  0  0  0  0  0  0  0  0  0  0  0
   -8.3821   -0.5744   11.0157 N   0  0  0  0  0  0  0  0  0  0  0  0
   -9.1592    1.9867   21.3326 N   0  0  0  0  0  0  0  0  0  0  0  0
   -0.1797    2.9181   16.4765 N   0  0  0  0  0  0  0  0  0  0  0  0
  -13.2203    3.8784   11.0726 N   0  0  0  0  0  0  0  0  0  0  0  0
   -4.0894    0.8744   14.3210 N   0  0  0  0  0  0  0  0  0  0  0  0
   -6.8295    3.4064   10.9478 N   0  0  0  0  0  0  0  0  0  0  0  0
   -9.1101    2.0565   11.8410 O   0  0  0  0  0  0  0  0  0  0  0  0
   -9.1638    0.8455   14.4349 O   0  0  0  0  0  0  0  0  0  0  0  0
   -6.5756   -0.2593   15.2846 O   0  0  0  0  0  0  0  0  0  0  0  0
  -10.1895    2.8812   16.4571 O   0  0  0  0  0  0  0  0  0  0  0  0
   -9.3701   -0.5594   16.3154 O   0  0  0  0  0  0  0  0  0  0  0  0
  -11.4573   -2.8393   16.4169 O   0  0  0  0  0  0  0  0  0  0  0  0
   -9.5930    1.1981   18.5443 O   0  0  0  0  0  0  0  0  0  0  0  0
   -0.6666   -0.4896   14.4534 O   0  0  0  0  0  0  0  0  0  0  0  0
   -3.2444   -1.1670   13.3420 O   0  0  0  0  0  0  0  0  0  0  0  0
  -11.0898    2.9576   19.3507 O   0  0  0  0  0  0  0  0  0  0  0  0
  -11.4488    1.6299   11.5949 O   0  0  0  0  0  0  0  0  0  0  0  0
  1 36  1  6  0  0  0
  2 36  1  6  0  0  0
  2  3  1  0  0  0  0
  3 37  1  1  0  0  0
  3  4  1  0  0  0  0
  4 38  1  1  0  0  0
  5 37  1  6  0  0  0
  5  6  1  0  0  0  0
  6  7  1  0  0  0  0
  6 39  1  1  0  0  0
  7 42  1  1  0  0  0
  8  9  1  6  0  0  0
  8  7  1  0  0  0  0
 10 42  1  1  0  0  0
 10 11  1  0  0  0  0
 11 31  1  1  0  0  0
 11 13  1  0  0  0  0
 12 30  1  1  0  0  0
 12  1  1  0  0  0  0
 14 13  1  0  0  0  0
 15 16  1  1  0  0  0
 15 14  1  0  0  0  0
 17 19  1  6  0  0  0
 17 28  1  0  0  0  0
 18 34  1  0  0  0  0
 19 32  1  0  0  0  0
 20 18  1  6  0  0  0
 20 17  1  0  0  0  0
 20 43  1  0  0  0  0
 21 12  1  0  0  0  0
 22 21  1  0  0  0  0
 22 23  1  0  0  0  0
 23 24  1  1  0  0  0
 23 46  1  0  0  0  0
 24 33  1  0  0  0  0
 25 34  1  1  0  0  0
 25  4  1  0  0  0  0
 26 25  1  0  0  0  0
 27 35  1  1  0  0  0
 27 26  1  0  0  0  0
 27  2  1  0  0  0  0
 29 16  1  0  0  0  0
 40  8  1  0  0  0  0
 40  5  1  0  0  0  0
 41  9  1  0  0  0  0
 44 18  2  0  0  0  0
 45 15  1  0  0  0  0
 45 10  1  0  0  0  0
 46  1  1  0  0  0  0
M  END
>  <CHROM.1>
-93.96653740,0.61983601,-124.95534615,150.65319035,66.50671680,-173.47015100
164.09734897,69.06648660,-172.94413365,-26.88178435,-172.20782124,-175.62895502
123.44881625,-8.15355023,1.52335589,15.05239399,0.53682112,0.12774365,-1.76918392

>  <Name>
lig.pdb

>  <RI>
0

>  <Rbt.Current_Directory>
/home/afrankz/demos/rdock_decoys_rna/rnas/3wru

>  <Rbt.Executable>
rbdock ($Id: //depot/dev/client3/rdock/2013.1/src/exe/rbdock.cxx#4 $)

>  <Rbt.Library>
libRbt.so (2013.1, Build901 2013/11/27)

>  <Rbt.Parameter_File>
/export/apps/rDock/src/rDock_2013.1_src/data/scripts/dock_solv.prm

>  <Rbt.Receptor>
prm/blind_docking_60.prm

>  <SCORE>
14.2447

>  <SCORE.INTER>
-0.360893

>  <SCORE.INTER.CONST>
1

>  <SCORE.INTER.POLAR>
0

>  <SCORE.INTER.ROT>
13

>  <SCORE.INTER.SOLV>
41.4294

>  <SCORE.INTER.VDW>
-26.317

>  <SCORE.INTER.norm>
-0.0078455

>  <SCORE.INTRA>
11.1366

>  <SCORE.INTRA.DIHEDRAL>
7.72363

>  <SCORE.INTRA.DIHEDRAL.0>
19.7146

>  <SCORE.INTRA.POLAR>
0

>  <SCORE.INTRA.POLAR.0>
0

>  <SCORE.INTRA.REPUL>
0

>  <SCORE.INTRA.REPUL.0>
0

>  <SCORE.INTRA.SOLV>
-0.00924776

>  <SCORE.INTRA.SOLV.lig_0>
-116.697

>  <SCORE.INTRA.VDW>
7.27938

>  <SCORE.INTRA.VDW.0>
-7.06424

>  <SCORE.INTRA.norm>
0.242099

>  <SCORE.RESTR>
3.46901

>  <SCORE.RESTR.CAVITY>
3.46901

>  <SCORE.RESTR.norm>
0.0754134

>  <SCORE.SYSTEM>
0

>  <SCORE.SYSTEM.CONST>
0

>  <SCORE.SYSTEM.DIHEDRAL>
0

>  <SCORE.SYSTEM.SOLV>
0

>  <SCORE.SYSTEM.norm>
0

>  <SCORE.heavy>
46

>  <SCORE.norm>
0.309667

>  <RMSD>
27.230

$$$$
lig.pdb
 OpenBabel03061811583D
libRbt.so/2013.1/901 2013/11/27
 46 49  0  0  0  0  0  0  0  0999 V2000
   -6.8743   -0.4600   12.4426 C   0  0  1  0  0  0  0  0  0  0  0  0
   -8.8228   -1.3838   13.7683 C   0  0  1  0  0  0  0  0  0  0  0  0
   -9.0611   -2.8676   13.3545 C   0  0  1  0  0  0  0  0  0  0  0  0
  -10.6155   -3.2305   13.5889 C   0  0  2  0  0  0  0  0  0  0  0  0
   -9.1201   -2.2705   10.8891 C   0  0  2  0  0  0  0  0  0  0  0  0
   -8.9592   -3.0011    9.5257 C   0  0  1  0  0  0  0  0  0  0  0  0
  -10.0589   -2.2882    8.7766 C   0  0  1  0  0  0  0  0  0  0  0  0
  -11.2716   -2.2844    9.7607 C   0  0  1  0  0  0  0  0  0  0  0  0
  -12.1437   -3.5876    9.8157 C   0  0  0  0  0  0  0  0  0  0  0  0
   -9.2778   -0.6202    7.1361 C   0  0  1  0  0  0  0  0  0  0  0  0
  -10.1728   -1.2913    6.1374 C   0  0  1  0  0  0  0  0  0  0  0  0
   -5.3563   -0.2287   12.6311 C   0  0  1  0  0  0  0  0  0  0  0  0
   -9.6489   -0.9573    4.6957 C   0  0  0  0  0  0  0  0  0  0  0  0
   -8.3107   -1.3987    4.4258 C   0  0  0  0  0  0  0  0  0  0  0  0
   -7.4106   -0.7427    5.3501 C   0  0  2  0  0  0  0  0  0  0  0  0
   -5.9176   -1.1975    5.1069 C   0  0  0  0  0  0  0  0  0  0  0  0
  -14.3754   -5.6375   17.3346 C   0  0  2  0  0  0  0  0  0  0  0  0
  -12.6401   -4.2298   16.5862 C   0  0  0  0  0  0  0  0  0  0  0  0
  -14.9013   -5.3778   18.5861 C   0  0  0  0  0  0  0  0  0  0  0  0
  -14.2279   -4.4642   16.6705 C   0  0  1  0  0  0  0  0  0  0  0  0
   -5.0797    0.8858   13.7397 C   0  0  0  0  0  0  0  0  0  0  0  0
   -5.8107    2.2386   13.2838 C   0  0  0  0  0  0  0  0  0  0  0  0
   -7.3726    1.9291   13.1398 C   0  0  1  0  0  0  0  0  0  0  0  0
   -8.1619    3.1654   12.6928 C   0  0  0  0  0  0  0  0  0  0  0  0
  -10.9267   -3.0864   15.1423 C   0  0  1  0  0  0  0  0  0  0  0  0
  -10.6859   -1.5258   15.5066 C   0  0  0  0  0  0  0  0  0  0  0  0
   -9.1767   -1.1414   15.2566 C   0  0  2  0  0  0  0  0  0  0  0  0
  -15.2239   -6.5797   16.6404 F   0  0  0  0  0  0  0  0  0  0  0  0
   -5.6255   -2.6353    5.6243 N   0  0  0  0  0  0  0  0  0  0  0  0
   -4.7192   -1.5519   12.9815 N   0  0  0  0  0  0  0  0  0  0  0  0
  -10.1743   -2.6867    6.2169 N   0  0  0  0  0  0  0  0  0  0  0  0
  -16.1879   -4.9508   18.9904 N   0  0  0  0  0  0  0  0  0  0  0  0
   -9.5413    3.0043   12.9424 N   0  0  0  0  0  0  0  0  0  0  0  0
  -12.3380   -3.4231   15.4019 N   0  0  0  0  0  0  0  0  0  0  0  0
   -8.9445    0.2852   15.5733 N   0  0  0  0  0  0  0  0  0  0  0  0
   -7.4524   -1.0386   13.6132 O   0  0  0  0  0  0  0  0  0  0  0  0
   -8.6859   -2.9775   11.9053 O   0  0  0  0  0  0  0  0  0  0  0  0
  -10.7996   -4.5435   13.2172 O   0  0  0  0  0  0  0  0  0  0  0  0
   -7.6769   -2.7429    9.0396 O   0  0  0  0  0  0  0  0  0  0  0  0
  -10.5426   -1.8968   10.9372 O   0  0  0  0  0  0  0  0  0  0  0  0
  -12.7680   -3.7420    8.5256 O   0  0  0  0  0  0  0  0  0  0  0  0
   -9.6046   -0.8771    8.4499 O   0  0  0  0  0  0  0  0  0  0  0  0
  -14.7863   -4.4946   15.3387 O   0  0  0  0  0  0  0  0  0  0  0  0
  -11.8180   -4.6590   17.4123 O   0  0  0  0  0  0  0  0  0  0  0  0
   -7.8263   -1.0214    6.7753 O   0  0  0  0  0  0  0  0  0  0  0  0
   -7.5859    0.8227   12.1198 O   0  0  0  0  0  0  0  0  0  0  0  0
  1 36  1  1  0  0  0
  2 36  1  1  0  0  0
  2  3  1  0  0  0  0
  3 37  1  6  0  0  0
  3  4  1  0  0  0  0
  4 38  1  1  0  0  0
  5 37  1  1  0  0  0
  5  6  1  0  0  0  0
  6  7  1  0  0  0  0
  6 39  1  6  0  0  0
  7 42  1  1  0  0  0
  8  9  1  1  0  0  0
  8  7  1  0  0  0  0
 10 42  1  1  0  0  0
 10 11  1  0  0  0  0
 11 31  1  1  0  0  0
 11 13  1  0  0  0  0
 12 30  1  1  0  0  0
 12  1  1  0  0  0  0
 14 13  1  0  0  0  0
 15 16  1  1  0  0  0
 15 14  1  0  0  0  0
 17 19  1  1  0  0  0
 17 28  1  0  0  0  0
 18 34  1  0  0  0  0
 19 32  1  0  0  0  0
 20 18  1  6  0  0  0
 20 17  1  0  0  0  0
 20 43  1  0  0  0  0
 21 12  1  0  0  0  0
 22 21  1  0  0  0  0
 22 23  1  0  0  0  0
 23 24  1  6  0  0  0
 23 46  1  0  0  0  0
 24 33  1  0  0  0  0
 25 34  1  6  0  0  0
 25  4  1  0  0  0  0
 26 25  1  0  0  0  0
 27 35  1  6  0  0  0
 27 26  1  0  0  0  0
 27  2  1  0  0  0  0
 29 16  1  0  0  0  0
 40  8  1  0  0  0  0
 40  5  1  0  0  0  0
 41  9  1  0  0  0  0
 44 18  2  0  0  0  0
 45 15  1  0  0  0  0
 45 10  1  0  0  0  0
 46  1  1  0  0  0  0
M  END
>  <CHROM.1>
-179.64119269,92.09283528,-54.21501161,-157.19376553,106.59534401,-64.79296360
38.73186396,-74.41899376,70.63126098,152.58153794,109.98116142,-162.80659759
138.37638893,-9.79775868,-2.01853332,11.90533663,-0.88777019,0.67354476,1.45711723

>  <Name>
lig.pdb

>  <RI>
0

>  <Rbt.Current_Directory>
/home/afrankz/demos/rdock_decoys_rna/rnas/3wru

>  <Rbt.Executable>
rbdock ($Id: //depot/dev/client3/rdock/2013.1/src/exe/rbdock.cxx#4 $)

>  <Rbt.Library>
libRbt.so (2013.1, Build901 2013/11/27)

>  <Rbt.Parameter_File>
/export/apps/rDock/src/rDock_2013.1_src/data/scripts/dock_solv.prm

>  <Rbt.Receptor>
prm/blind_docking_80.prm

>  <SCORE>
21.5292

>  <SCORE.INTER>
8.96633

>  <SCORE.INTER.CONST>
1

>  <SCORE.INTER.POLAR>
0

>  <SCORE.INTER.ROT>
13

>  <SCORE.INTER.SOLV>
33.7581

>  <SCORE.INTER.VDW>
-17.5418

>  <SCORE.INTER.norm>
0.19492

>  <SCORE.INTRA>
6.037

>  <SCORE.INTRA.DIHEDRAL>
4.1895

>  <SCORE.INTRA.DIHEDRAL.0>
19.7146

>  <SCORE.INTRA.POLAR>
0

>  <SCORE.INTRA.POLAR.0>
0

>  <SCORE.INTRA.REPUL>
0

>  <SCORE.INTRA.REPUL.0>
0

>  <SCORE.INTRA.SOLV>
3.51844

>  <SCORE.INTRA.SOLV.lig_0>
-116.697

>  <SCORE.INTRA.VDW>
2.18303

>  <SCORE.INTRA.VDW.0>
-7.06424

>  <SCORE.INTRA.norm>
0.131239

>  <SCORE.RESTR>
6.52589

>  <SCORE.RESTR.CAVITY>
6.52589

>  <SCORE.RESTR.norm>
0.141867

>  <SCORE.SYSTEM>
0

>  <SCORE.SYSTEM.CONST>
0

>  <SCORE.SYSTEM.DIHEDRAL>
0

>  <SCORE.SYSTEM.SOLV>
0

>  <SCORE.SYSTEM.norm>
0

>  <SCORE.heavy>
46

>  <SCORE.norm>
0.468026

>  <RMSD>
27.271

$$$$
lig.pdb
 OpenBabel03061811583D
libRbt.so/2013.1/901 2013/11/27
 46 49  0  0  0  0  0  0  0  0999 V2000
   -6.7914   -0.0236   12.6151 C   0  0  1  0  0  0  0  0  0  0  0  0
   -8.7906   -0.8295   13.9424 C   0  0  1  0  0  0  0  0  0  0  0  0
   -8.8828   -2.2722   13.3595 C   0  0  1  0  0  0  0  0  0  0  0  0
  -10.3926   -2.8115   13.5404 C   0  0  2  0  0  0  0  0  0  0  0  0
   -9.2069   -2.5190   10.8551 C   0  0  2  0  0  0  0  0  0  0  0  0
   -8.8352   -1.7014    9.5854 C   0  0  1  0  0  0  0  0  0  0  0  0
   -9.2749   -2.7103    8.5522 C   0  0  1  0  0  0  0  0  0  0  0  0
   -8.6993   -4.0717    9.0567 C   0  0  1  0  0  0  0  0  0  0  0  0
   -7.1963   -4.3731    8.7224 C   0  0  0  0  0  0  0  0  0  0  0  0
  -11.3856   -2.0158    7.4816 C   0  0  1  0  0  0  0  0  0  0  0  0
  -11.5552   -2.7802    6.2026 C   0  0  1  0  0  0  0  0  0  0  0  0
   -5.2582   -0.1529   12.7762 C   0  0  1  0  0  0  0  0  0  0  0  0
  -12.1864   -1.8230    5.1303 C   0  0  0  0  0  0  0  0  0  0  0  0
  -11.4014   -0.6611    4.8260 C   0  0  0  0  0  0  0  0  0  0  0  0
  -11.2459    0.1227    6.0329 C   0  0  2  0  0  0  0  0  0  0  0  0
  -10.3793    1.4151    5.7618 C   0  0  0  0  0  0  0  0  0  0  0  0
  -14.0869   -5.1350   17.7523 C   0  0  2  0  0  0  0  0  0  0  0  0
  -12.4172   -3.9062   16.6321 C   0  0  0  0  0  0  0  0  0  0  0  0
  -15.4076   -5.5249   17.8705 C   0  0  0  0  0  0  0  0  0  0  0  0
  -13.9513   -4.3854   16.6303 C   0  0  1  0  0  0  0  0  0  0  0  0
   -4.6912    0.9568   13.7736 C   0  0  0  0  0  0  0  0  0  0  0  0
   -5.0844    2.3996   13.1940 C   0  0  0  0  0  0  0  0  0  0  0  0
   -6.6779    2.4681   13.0848 C   0  0  1  0  0  0  0  0  0  0  0  0
   -7.1556    3.8135   12.5253 C   0  0  0  0  0  0  0  0  0  0  0  0
  -10.7091   -2.8781   15.0980 C   0  0  1  0  0  0  0  0  0  0  0  0
  -10.6221   -1.3536   15.6405 C   0  0  0  0  0  0  0  0  0  0  0  0
   -9.1596   -0.7957   15.4463 C   0  0  2  0  0  0  0  0  0  0  0  0
  -13.2360   -6.3036   17.7602 F   0  0  0  0  0  0  0  0  0  0  0  0
   -8.8925    1.0956    5.4340 N   0  0  0  0  0  0  0  0  0  0  0  0
   -4.9517   -1.5538   13.2482 N   0  0  0  0  0  0  0  0  0  0  0  0
  -10.3565   -3.2275    5.6399 N   0  0  0  0  0  0  0  0  0  0  0  0
  -16.0097   -6.5858   18.5869 N   0  0  0  0  0  0  0  0  0  0  0  0
   -6.7151    3.9960   11.1973 N   0  0  0  0  0  0  0  0  0  0  0  0
  -12.0789   -3.3802   15.3079 N   0  0  0  0  0  0  0  0  0  0  0  0
   -9.0682    0.6010   15.9260 N   0  0  0  0  0  0  0  0  0  0  0  0
   -7.4618   -0.3350   13.8369 O   0  0  0  0  0  0  0  0  0  0  0  0
   -8.5056   -2.1774   11.9098 O   0  0  0  0  0  0  0  0  0  0  0  0
  -10.4476   -4.0849   13.0193 O   0  0  0  0  0  0  0  0  0  0  0  0
   -9.5840   -0.5239    9.5885 O   0  0  0  0  0  0  0  0  0  0  0  0
   -9.0790   -3.9235   10.4350 O   0  0  0  0  0  0  0  0  0  0  0  0
   -6.3901   -3.6272    9.6560 O   0  0  0  0  0  0  0  0  0  0  0  0
  -10.7917   -2.7356    8.4954 O   0  0  0  0  0  0  0  0  0  0  0  0
  -14.2287   -5.1238   15.4203 O   0  0  0  0  0  0  0  0  0  0  0  0
  -11.6598   -3.9660   17.6146 O   0  0  0  0  0  0  0  0  0  0  0  0
  -10.6253   -0.7144    7.1265 O   0  0  0  0  0  0  0  0  0  0  0  0
   -7.1793    1.3589   12.1746 O   0  0  0  0  0  0  0  0  0  0  0  0
  1 36  1  1  0  0  0
  2 36  1  1  0  0  0
  2  3  1  0  0  0  0
  3 37  1  6  0  0  0
  3  4  1  0  0  0  0
  4 38  1  1  0  0  0
  5 37  1  1  0  0  0
  5  6  1  0  0  0  0
  6  7  1  0  0  0  0
  6 39  1  6  0  0  0
  7 42  1  1  0  0  0
  8  9  1  1  0  0  0
  8  7  1  0  0  0  0
 10 42  1  1  0  0  0
 10 11  1  0  0  0  0
 11 31  1  6  0  0  0
 11 13  1  0  0  0  0
 12 30  1  1  0  0  0
 12  1  1  0  0  0  0
 14 13  1  0  0  0  0
 15 16  1  6  0  0  0
 15 14  1  0  0  0  0
 17 19  1  6  0  0  0
 17 28  1  0  0  0  0
 18 34  1  0  0  0  0
 19 32  1  0  0  0  0
 20 18  1  6  0  0  0
 20 17  1  0  0  0  0
 20 43  1  0  0  0  0
 21 12  1  0  0  0  0
 22 21  1  0  0  0  0
 22 23  1  0  0  0  0
 23 24  1  6  0  0  0
 23 46  1  0  0  0  0
 24 33  1  0  0  0  0
 25 34  1  6  0  0  0
 25  4  1  0  0  0  0
 26 25  1  0  0  0  0
 27 35  1  6  0  0  0
 27 26  1  0  0  0  0
 27  2  1  0  0  0  0
 29 16  1  0  0  0  0
 40  8  1  0  0  0  0
 40  5  1  0  0  0  0
 41  9  1  0  0  0  0
 44 18  2  0  0  0  0
 45 15  1  0  0  0  0
 45 10  1  0  0  0  0
 46  1  1  0  0  0  0
M  END
>  <CHROM.1>
-153.61552417,67.51607239,-121.75785255,152.50990792,99.04076983,78.45569800
87.82599568,-67.74953105,159.03108598,165.82210082,176.48548361,64.29847136
161.28892750,-9.77014538,-1.84240381,11.94839789,-1.06197530,0.70558922,1.65176898

>  <Name>
lig.pdb

>  <RI>
0

>  <Rbt.Current_Directory>
/home/afrankz/demos/rdock_decoys_rna/rnas/3wru

>  <Rbt.Executable>
rbdock ($Id: //depot/dev/client3/rdock/2013.1/src/exe/rbdock.cxx#4 $)

>  <Rbt.Library>
libRbt.so (2013.1, Build901 2013/11/27)

>  <Rbt.Parameter_File>
/export/apps/rDock/src/rDock_2013.1_src/data/scripts/dock_solv.prm

>  <Rbt.Receptor>
prm/blind_docking_80.prm

>  <SCORE>
16.1559

>  <SCORE.INTER>
5.97362

>  <SCORE.INTER.CONST>
1

>  <SCORE.INTER.POLAR>
0

>  <SCORE.INTER.ROT>
13

>  <SCORE.INTER.SOLV>
38.6174

>  <SCORE.INTER.VDW>
-21.1567

>  <SCORE.INTER.norm>
0.129861

>  <SCORE.INTRA>
6.09107

>  <SCORE.INTRA.DIHEDRAL>
6.43988

>  <SCORE.INTRA.DIHEDRAL.0>
19.7146

>  <SCORE.INTRA.POLAR>
0

>  <SCORE.INTRA.POLAR.0>
0

>  <SCORE.INTRA.REPUL>
0

>  <SCORE.INTRA.REPUL.0>
0

>  <SCORE.INTRA.SOLV>
0.925467

>  <SCORE.INTRA.SOLV.lig_0>
-116.697

>  <SCORE.INTRA.VDW>
2.40839

>  <SCORE.INTRA.VDW.0>
-7.06424

>  <SCORE.INTRA.norm>
0.132415

>  <SCORE.RESTR>
4.09124

>  <SCORE.RESTR.CAVITY>
4.09124

>  <SCORE.RESTR.norm>
0.08894

>  <SCORE.SYSTEM>
0

>  <SCORE.SYSTEM.CONST>
0

>  <SCORE.SYSTEM.DIHEDRAL>
0

>  <SCORE.SYSTEM.SOLV>
0

>  <SCORE.SYSTEM.norm>
0

>  <SCORE.heavy>
46

>  <SCORE.norm>
0.351216

>  <RMSD>
27.294

$$$$
lig.pdb
 OpenBabel03061811583D
libRbt.so/2013.1/901 2013/11/27
 46 49  0  0  0  0  0  0  0  0999 V2000
   -7.9062    1.8704   12.2117 C   0  0  1  0  0  0  0  0  0  0  0  0
   -9.2065    1.0066   14.2045 C   0  0  1  0  0  0  0  0  0  0  0  0
   -9.1103   -0.2218   15.1592 C   0  0  1  0  0  0  0  0  0  0  0  0
  -10.0531    0.0405   16.4419 C   0  0  2  0  0  0  0  0  0  0  0  0
   -9.3501   -1.7063   13.1155 C   0  0  2  0  0  0  0  0  0  0  0  0
   -8.1368   -2.6584   12.9152 C   0  0  1  0  0  0  0  0  0  0  0  0
   -8.5588   -3.2582   11.5957 C   0  0  1  0  0  0  0  0  0  0  0  0
  -10.0698   -3.6060   11.7830 C   0  0  1  0  0  0  0  0  0  0  0  0
  -10.4015   -4.9556   12.5111 C   0  0  0  0  0  0  0  0  0  0  0  0
   -9.1392   -2.3697    9.3692 C   0  0  1  0  0  0  0  0  0  0  0  0
   -8.9391   -3.6627    8.6364 C   0  0  1  0  0  0  0  0  0  0  0  0
   -7.6965    1.3411   10.7733 C   0  0  1  0  0  0  0  0  0  0  0  0
   -9.8452   -3.6540    7.3545 C   0  0  0  0  0  0  0  0  0  0  0  0
   -9.5636   -2.5961    6.4271 C   0  0  0  0  0  0  0  0  0  0  0  0
   -9.7808   -1.3279    7.0901 C   0  0  2  0  0  0  0  0  0  0  0  0
   -9.4767   -0.1205    6.1182 C   0  0  0  0  0  0  0  0  0  0  0  0
  -10.5851    1.3176   21.5728 C   0  0  2  0  0  0  0  0  0  0  0  0
   -9.6666    2.1616   19.5735 C   0  0  0  0  0  0  0  0  0  0  0  0
   -9.5531    1.6052   22.4459 C   0  0  0  0  0  0  0  0  0  0  0  0
  -10.7562    2.3713   20.7363 C   0  0  1  0  0  0  0  0  0  0  0  0
   -6.4888    0.2989   10.7164 C   0  0  0  0  0  0  0  0  0  0  0  0
   -5.1675    1.0331   11.2525 C   0  0  0  0  0  0  0  0  0  0  0  0
   -5.4497    1.5234   12.7478 C   0  0  1  0  0  0  0  0  0  0  0  0
   -4.2419    2.2530   13.3481 C   0  0  0  0  0  0  0  0  0  0  0  0
   -9.4970    1.3180   17.2097 C   0  0  1  0  0  0  0  0  0  0  0  0
   -9.6440    2.5610   16.1805 C   0  0  0  0  0  0  0  0  0  0  0  0
   -8.7517    2.3115   14.9040 C   0  0  2  0  0  0  0  0  0  0  0  0
  -11.7760    0.9902   22.3239 F   0  0  0  0  0  0  0  0  0  0  0  0
   -9.6459    1.2683    6.7984 N   0  0  0  0  0  0  0  0  0  0  0  0
   -8.9960    0.7341   10.3018 N   0  0  0  0  0  0  0  0  0  0  0  0
   -7.6370   -3.8598    8.1682 N   0  0  0  0  0  0  0  0  0  0  0  0
   -8.7788    0.7716   23.2867 N   0  0  0  0  0  0  0  0  0  0  0  0
   -4.4921    3.6367   13.4656 N   0  0  0  0  0  0  0  0  0  0  0  0
  -10.3251    1.5849   18.3994 N   0  0  0  0  0  0  0  0  0  0  0  0
   -8.8859    3.4335   13.9488 N   0  0  0  0  0  0  0  0  0  0  0  0
   -8.3558    0.8290   13.0792 O   0  0  0  0  0  0  0  0  0  0  0  0
   -9.5724   -1.4155   14.3753 O   0  0  0  0  0  0  0  0  0  0  0  0
   -9.9505   -1.0561   17.2683 O   0  0  0  0  0  0  0  0  0  0  0  0
   -6.9788   -1.8829   12.8455 O   0  0  0  0  0  0  0  0  0  0  0  0
  -10.4574   -2.3735   12.4128 O   0  0  0  0  0  0  0  0  0  0  0  0
   -9.8965   -4.8532   13.8575 O   0  0  0  0  0  0  0  0  0  0  0  0
   -8.3574   -2.2319   10.4955 O   0  0  0  0  0  0  0  0  0  0  0  0
  -12.0790    2.4256   20.1589 O   0  0  0  0  0  0  0  0  0  0  0  0
   -8.4652    2.4617   19.6690 O   0  0  0  0  0  0  0  0  0  0  0  0
   -8.9324   -1.2346    8.3364 O   0  0  0  0  0  0  0  0  0  0  0  0
   -6.6424    2.4652   12.7641 O   0  0  0  0  0  0  0  0  0  0  0  0
  1 36  1  1  0  0  0
  2 36  1  6  0  0  0
  2  3  1  0  0  0  0
  3 37  1  6  0  0  0
  3  4  1  0  0  0  0
  4 38  1  1  0  0  0
  5 37  1  1  0  0  0
  5  6  1  0  0  0  0
  6  7  1  0  0  0  0
  6 39  1  6  0  0  0
  7 42  1  6  0  0  0
  8  9  1  1  0  0  0
  8  7  1  0  0  0  0
 10 42  1  1  0  0  0
 10 11  1  0  0  0  0
 11 31  1  6  0  0  0
 11 13  1  0  0  0  0
 12 30  1  1  0  0  0
 12  1  1  0  0  0  0
 14 13  1  0  0  0  0
 15 16  1  6  0  0  0
 15 14  1  0  0  0  0
 17 19  1  1  0  0  0
 17 28  1  0  0  0  0
 18 34  1  0  0  0  0
 19 32  1  0  0  0  0
 20 18  1  6  0  0  0
 20 17  1  0  0  0  0
 20 43  1  0  0  0  0
 21 12  1  0  0  0  0
 22 21  1  0  0  0  0
 22 23  1  0  0  0  0
 23 24  1  6  0  0  0
 23 46  1  0  0  0  0
 24 33  1  0  0  0  0
 25 34  1  1  0  0  0
 25  4  1  0  0  0  0
 26 25  1  0  0  0  0
 27 35  1  6  0  0  0
 27 26  1  0  0  0  0
 27  2  1  0  0  0  0
 29 16  1  0  0  0  0
 40  8  1  0  0  0  0
 40  5  1  0  0  0  0
 41  9  1  0  0  0  0
 44 18  2  0  0  0  0
 45 15  1  0  0  0  0
 45 10  1  0  0  0  0
 46  1  1  0  0  0  0
M  END
>  <CHROM.1>
-148.95977862,-161.57808737,38.68901444,95.51416471,-155.09680623,63.69140171
-60.97176986,-177.93498290,-163.39006489,100.13397473,83.37217980,108.57397160
147.55105632,-8.87646100,-0.12802865,13.72537060,-1.37766499,0.97743793,1.12760402

>  <Name>
lig.pdb

>  <RI>
0

>  <Rbt.Current_Directory>
/home/afrankz/demos/rdock_decoys_rna/rnas/3wru

>  <Rbt.Executable>
rbdock ($Id: //depot/dev/client3/rdock/2013.1/src/exe/rbdock.cxx#4 $)

>  <Rbt.Library>
libRbt.so (2013.1, Build901 2013/11/27)

>  <Rbt.Parameter_File>
/export/apps/rDock/src/rDock_2013.1_src/data/scripts/dock_solv.prm

>  <Rbt.Receptor>
prm/blind_docking_80.prm

>  <SCORE>
19.7671

>  <SCORE.INTER>
4.02692

>  <SCORE.INTER.CONST>
1

>  <SCORE.INTER.POLAR>
0

>  <SCORE.INTER.ROT>
13

>  <SCORE.INTER.SOLV>
44.9096

>  <SCORE.INTER.VDW>
-24.5519

>  <SCORE.INTER.norm>
0.0875418

>  <SCORE.INTRA>
10.0838

>  <SCORE.INTRA.DIHEDRAL>
5.11454

>  <SCORE.INTRA.DIHEDRAL.0>
19.7146

>  <SCORE.INTRA.POLAR>
0

>  <SCORE.INTRA.POLAR.0>
0

>  <SCORE.INTRA.REPUL>
0.0906674

>  <SCORE.INTRA.REPUL.0>
0

>  <SCORE.INTRA.SOLV>
6.60317

>  <SCORE.INTRA.SOLV.lig_0>
-116.697

>  <SCORE.INTRA.VDW>
3.77156

>  <SCORE.INTRA.VDW.0>
-7.06424

>  <SCORE.INTRA.norm>
0.219212

>  <SCORE.RESTR>
5.65644

>  <SCORE.RESTR.CAVITY>
5.65644

>  <SCORE.RESTR.norm>
0.122966

>  <SCORE.SYSTEM>
0

>  <SCORE.SYSTEM.CONST>
0

>  <SCORE.SYSTEM.DIHEDRAL>
0

>  <SCORE.SYSTEM.SOLV>
0

>  <SCORE.SYSTEM.norm>
0

>  <SCORE.heavy>
46

>  <SCORE.norm>
0.42972

>  <RMSD>
27.294

$$$$
lig.pdb
 OpenBabel03061811583D
libRbt.so/2013.1/901 2013/11/27
 46 49  0  0  0  0  0  0  0  0999 V2000
   -6.7131    0.0224   12.8075 C   0  0  1  0  0  0  0  0  0  0  0  0
   -8.6598   -0.5881   14.3061 C   0  0  1  0  0  0  0  0  0  0  0  0
   -8.8031   -2.1294   14.1226 C   0  0  1  0  0  0  0  0  0  0  0  0
  -10.3309   -2.5500   14.4256 C   0  0  2  0  0  0  0  0  0  0  0  0
   -9.2053   -2.6268   11.6672 C   0  0  2  0  0  0  0  0  0  0  0  0
   -8.8332   -1.7369   10.4473 C   0  0  1  0  0  0  0  0  0  0  0  0
   -9.4099   -2.6166    9.3646 C   0  0  1  0  0  0  0  0  0  0  0  0
   -8.9254   -4.0572    9.7235 C   0  0  1  0  0  0  0  0  0  0  0  0
   -7.4727   -4.4480    9.2776 C   0  0  0  0  0  0  0  0  0  0  0  0
  -11.5483   -2.1939    8.2103 C   0  0  1  0  0  0  0  0  0  0  0  0
  -11.6625   -3.3361    7.2454 C   0  0  1  0  0  0  0  0  0  0  0  0
   -5.1768   -0.1420   12.8848 C   0  0  1  0  0  0  0  0  0  0  0  0
  -12.3366   -2.8103    5.9288 C   0  0  0  0  0  0  0  0  0  0  0  0
  -11.6156   -1.7649    5.2610 C   0  0  0  0  0  0  0  0  0  0  0  0
  -11.5158   -0.6282    6.1515 C   0  0  2  0  0  0  0  0  0  0  0  0
  -10.7210    0.5559    5.4725 C   0  0  0  0  0  0  0  0  0  0  0  0
  -14.0549   -5.3706   16.9542 C   0  0  2  0  0  0  0  0  0  0  0  0
  -12.2503   -3.8553   16.9436 C   0  0  0  0  0  0  0  0  0  0  0  0
  -15.0430   -5.8163   17.8116 C   0  0  0  0  0  0  0  0  0  0  0  0
  -13.8244   -4.0567   17.1986 C   0  0  1  0  0  0  0  0  0  0  0  0
   -4.5203    1.0155   13.7663 C   0  0  0  0  0  0  0  0  0  0  0  0
   -4.9110    2.4267   13.1120 C   0  0  0  0  0  0  0  0  0  0  0  0
   -6.5059    2.5357   13.0940 C   0  0  1  0  0  0  0  0  0  0  0  0
   -6.9822    3.8537   12.4716 C   0  0  0  0  0  0  0  0  0  0  0  0
  -10.6490   -2.1933   15.9429 C   0  0  1  0  0  0  0  0  0  0  0  0
  -10.5080   -0.5837   16.0659 C   0  0  0  0  0  0  0  0  0  0  0  0
   -9.0267   -0.1469   15.7447 C   0  0  2  0  0  0  0  0  0  0  0  0
  -14.4467   -5.6333   15.5878 F   0  0  0  0  0  0  0  0  0  0  0  0
  -10.0732    1.5258    6.5020 N   0  0  0  0  0  0  0  0  0  0  0  0
   -4.8782   -1.5161   13.4344 N   0  0  0  0  0  0  0  0  0  0  0  0
  -10.4352   -3.8718    6.8448 N   0  0  0  0  0  0  0  0  0  0  0  0
  -15.0808   -5.9218   19.2218 N   0  0  0  0  0  0  0  0  0  0  0  0
   -6.6156    3.9341   11.1113 N   0  0  0  0  0  0  0  0  0  0  0  0
  -12.0356   -2.5754   16.2653 N   0  0  0  0  0  0  0  0  0  0  0  0
   -8.8859    1.3229   15.8408 N   0  0  0  0  0  0  0  0  0  0  0  0
   -7.3144   -0.1845   14.0861 O   0  0  0  0  0  0  0  0  0  0  0  0
   -8.4232   -2.4325   12.7025 O   0  0  0  0  0  0  0  0  0  0  0  0
  -10.4310   -3.9131   14.2575 O   0  0  0  0  0  0  0  0  0  0  0  0
   -9.4789   -0.5080   10.5889 O   0  0  0  0  0  0  0  0  0  0  0  0
   -9.2184   -3.9964   11.1294 O   0  0  0  0  0  0  0  0  0  0  0  0
   -7.3992   -4.2708    7.8489 O   0  0  0  0  0  0  0  0  0  0  0  0
  -10.9243   -2.5161    9.3959 O   0  0  0  0  0  0  0  0  0  0  0  0
  -14.5738   -3.1801   16.3290 O   0  0  0  0  0  0  0  0  0  0  0  0
  -11.3703   -4.6610   17.2886 O   0  0  0  0  0  0  0  0  0  0  0  0
  -10.8593   -1.0342    7.4499 O   0  0  0  0  0  0  0  0  0  0  0  0
   -7.0915    1.3827   12.2955 O   0  0  0  0  0  0  0  0  0  0  0  0
  1 36  1  1  0  0  0
  2 36  1  1  0  0  0
  2  3  1  0  0  0  0
  3 37  1  6  0  0  0
  3  4  1  0  0  0  0
  4 38  1  1  0  0  0
  5 37  1  1  0  0  0
  5  6  1  0  0  0  0
  6  7  1  0  0  0  0
  6 39  1  1  0  0  0
  7 42  1  1  0  0  0
  8  9  1  1  0  0  0
  8  7  1  0  0  0  0
 10 42  1  1  0  0  0
 10 11  1  0  0  0  0
 11 31  1  6  0  0  0
 11 13  1  0  0  0  0
 12 30  1  1  0  0  0
 12  1  1  0  0  0  0
 14 13  1  0  0  0  0
 15 16  1  6  0  0  0
 15 14  1  0  0  0  0
 17 19  1  1  0  0  0
 17 28  1  0  0  0  0
 18 34  1  0  0  0  0
 19 32  1  0  0  0  0
 20 18  1  6  0  0  0
 20 17  1  0  0  0  0
 20 43  1  0  0  0  0
 21 12  1  0  0  0  0
 22 21  1  0  0  0  0
 22 23  1  0  0  0  0
 23 24  1  6  0  0  0
 23 46  1  0  0  0  0
 24 33  1  0  0  0  0
 25 34  1  6  0  0  0
 25  4  1  0  0  0  0
 26 25  1  0  0  0  0
 27 35  1  6  0  0  0
 27 26  1  0  0  0  0
 27  2  1  0  0  0  0
 29 16  1  0  0  0  0
 40  8  1  0  0  0  0
 40  5  1  0  0  0  0
 41  9  1  0  0  0  0
 44 18  2  0  0  0  0
 45 15  1  0  0  0  0
 45 10  1  0  0  0  0
 46  1  1  0  0  0  0
M  END
>  <CHROM.1>
-155.79815266,80.55467252,-98.77986543,128.01962088,126.88305046,-57.29302897
77.80817866,-156.05009399,-63.56408306,140.41809247,145.71711782,64.06501178
98.10854755,-9.82712088,-1.80537211,12.27675863,-1.01931916,0.71192752,1.58634253

>  <Name>
lig.pdb

>  <RI>
0

>  <Rbt.Current_Directory>
/home/afrankz/demos/rdock_decoys_rna/rnas/3wru

>  <Rbt.Executable>
rbdock ($Id: //depot/dev/client3/rdock/2013.1/src/exe/rbdock.cxx#4 $)

>  <Rbt.Library>
libRbt.so (2013.1, Build901 2013/11/27)

>  <Rbt.Parameter_File>
/export/apps/rDock/src/rDock_2013.1_src/data/scripts/dock_solv.prm

>  <Rbt.Receptor>
prm/blind_docking_80.prm

>  <SCORE>
17.563

>  <SCORE.INTER>
4.72943

>  <SCORE.INTER.CONST>
1

>  <SCORE.INTER.POLAR>
0

>  <SCORE.INTER.ROT>
13

>  <SCORE.INTER.SOLV>
45.4927

>  <SCORE.INTER.VDW>
-24.278

>  <SCORE.INTER.norm>
0.102814

>  <SCORE.INTRA>
8.17037

>  <SCORE.INTRA.DIHEDRAL>
12.9179

>  <SCORE.INTRA.DIHEDRAL.0>
19.7146

>  <SCORE.INTRA.POLAR>
0

>  <SCORE.INTRA.POLAR.0>
0

>  <SCORE.INTRA.REPUL>
0

>  <SCORE.INTRA.REPUL.0>
0

>  <SCORE.INTRA.SOLV>
2.03309

>  <SCORE.INTRA.SOLV.lig_0>
-116.697

>  <SCORE.INTRA.VDW>
0.694874

>  <SCORE.INTRA.VDW.0>
-7.06424

>  <SCORE.INTRA.norm>
0.177617

>  <SCORE.RESTR>
4.66316

>  <SCORE.RESTR.CAVITY>
4.66316

>  <SCORE.RESTR.norm>
0.101373

>  <SCORE.SYSTEM>
0

>  <SCORE.SYSTEM.CONST>
0

>  <SCORE.SYSTEM.DIHEDRAL>
0

>  <SCORE.SYSTEM.SOLV>
0

>  <SCORE.SYSTEM.norm>
0

>  <SCORE.heavy>
46

>  <SCORE.norm>
0.381803

>  <RMSD>
27.309

$$$$
lig.pdb
 OpenBabel03061811583D
libRbt.so/2013.1/901 2013/11/27
 46 49  0  0  0  0  0  0  0  0999 V2000
  -10.1513   -2.0111   13.4914 C   0  0  1  0  0  0  0  0  0  0  0  0
   -7.8175   -1.0365   13.3847 C   0  0  1  0  0  0  0  0  0  0  0  0
   -7.8250    0.2084   14.3227 C   0  0  1  0  0  0  0  0  0  0  0  0
   -6.7076    1.2532   13.8103 C   0  0  2  0  0  0  0  0  0  0  0  0
   -9.8718    1.4448   15.1712 C   0  0  2  0  0  0  0  0  0  0  0  0
  -11.3715    1.6445   14.8110 C   0  0  1  0  0  0  0  0  0  0  0  0
  -11.9073    1.7744   16.2164 C   0  0  1  0  0  0  0  0  0  0  0  0
  -11.2256    0.6147   17.0098 C   0  0  1  0  0  0  0  0  0  0  0  0
  -11.8764   -0.8075   16.8852 C   0  0  0  0  0  0  0  0  0  0  0  0
  -12.3320    3.6544   17.7556 C   0  0  1  0  0  0  0  0  0  0  0  0
  -11.7564    4.8460   18.4610 C   0  0  1  0  0  0  0  0  0  0  0  0
  -10.8331   -3.3058   13.9935 C   0  0  1  0  0  0  0  0  0  0  0  0
  -12.7597    5.2934   19.5824 C   0  0  0  0  0  0  0  0  0  0  0  0
  -13.0252    4.2993   20.5824 C   0  0  0  0  0  0  0  0  0  0  0  0
  -13.6164    3.1437   19.9421 C   0  0  2  0  0  0  0  0  0  0  0  0
  -13.9237    2.0073   20.9952 C   0  0  0  0  0  0  0  0  0  0  0  0
   -0.8701    2.5488   14.3370 C   0  0  2  0  0  0  0  0  0  0  0  0
   -2.9955    1.5343   14.2572 C   0  0  0  0  0  0  0  0  0  0  0  0
    0.1942    2.9917   13.5747 C   0  0  0  0  0  0  0  0  0  0  0  0
   -1.9975    2.5997   13.5848 C   0  0  1  0  0  0  0  0  0  0  0  0
  -10.2777   -4.5845   13.2161 C   0  0  0  0  0  0  0  0  0  0  0  0
  -10.5415   -4.3717   11.6485 C   0  0  0  0  0  0  0  0  0  0  0  0
   -9.7846   -3.0371   11.1991 C   0  0  1  0  0  0  0  0  0  0  0  0
   -9.9875   -2.7385    9.7088 C   0  0  0  0  0  0  0  0  0  0  0  0
   -5.2856    0.5489   13.9222 C   0  0  1  0  0  0  0  0  0  0  0  0
   -5.3300   -0.7176   12.9122 C   0  0  0  0  0  0  0  0  0  0  0  0
   -6.4374   -1.7395   13.3784 C   0  0  2  0  0  0  0  0  0  0  0  0
   -0.9587    3.3360   15.5462 F   0  0  0  0  0  0  0  0  0  0  0  0
  -14.8027    2.4963   22.1820 N   0  0  0  0  0  0  0  0  0  0  0  0
  -10.6136   -3.4050   15.4839 N   0  0  0  0  0  0  0  0  0  0  0  0
  -10.5511    4.5929   19.1218 N   0  0  0  0  0  0  0  0  0  0  0  0
    1.5864    2.9994   13.8262 N   0  0  0  0  0  0  0  0  0  0  0  0
   -8.8749   -2.0568    9.1718 N   0  0  0  0  0  0  0  0  0  0  0  0
   -4.2321    1.4775   13.4747 N   0  0  0  0  0  0  0  0  0  0  0  0
   -6.4981   -2.8960   12.4575 N   0  0  0  0  0  0  0  0  0  0  0  0
   -8.7640   -1.9996   13.8297 O   0  0  0  0  0  0  0  0  0  0  0  0
   -9.2028    0.7990   14.2458 O   0  0  0  0  0  0  0  0  0  0  0  0
   -6.7338    2.3414   14.6538 O   0  0  0  0  0  0  0  0  0  0  0  0
  -11.4870    2.8060   14.0463 O   0  0  0  0  0  0  0  0  0  0  0  0
   -9.8967    0.8083   16.4977 O   0  0  0  0  0  0  0  0  0  0  0  0
  -11.2319   -1.6614   17.8514 O   0  0  0  0  0  0  0  0  0  0  0  0
  -11.5187    3.1319   16.7735 O   0  0  0  0  0  0  0  0  0  0  0  0
   -2.6137    3.9060   13.5779 O   0  0  0  0  0  0  0  0  0  0  0  0
   -2.7351    0.8641   15.2699 O   0  0  0  0  0  0  0  0  0  0  0  0
  -12.7093    2.6265   18.8505 O   0  0  0  0  0  0  0  0  0  0  0  0
  -10.3010   -1.8565   12.0050 O   0  0  0  0  0  0  0  0  0  0  0  0
  1 36  1  6  0  0  0
  2 36  1  1  0  0  0
  2  3  1  0  0  0  0
  3 37  1  6  0  0  0
  3  4  1  0  0  0  0
  4 38  1  1  0  0  0
  5 37  1  6  0  0  0
  5  6  1  0  0  0  0
  6  7  1  0  0  0  0
  6 39  1  6  0  0  0
  7 42  1  1  0  0  0
  8  9  1  6  0  0  0
  8  7  1  0  0  0  0
 10 42  1  6  0  0  0
 10 11  1  0  0  0  0
 11 31  1  1  0  0  0
 11 13  1  0  0  0  0
 12 30  1  1  0  0  0
 12  1  1  0  0  0  0
 14 13  1  0  0  0  0
 15 16  1  1  0  0  0
 15 14  1  0  0  0  0
 17 19  1  6  0  0  0
 17 28  1  0  0  0  0
 18 34  1  0  0  0  0
 19 32  1  0  0  0  0
 20 18  1  1  0  0  0
 20 17  1  0  0  0  0
 20 43  1  0  0  0  0
 21 12  1  0  0  0  0
 22 21  1  0  0  0  0
 22 23  1  0  0  0  0
 23 24  1  6  0  0  0
 23 46  1  0  0  0  0
 24 33  1  0  0  0  0
 25 34  1  6  0  0  0
 25  4  1  0  0  0  0
 26 25  1  0  0  0  0
 27 35  1  6  0  0  0
 27 26  1  0  0  0  0
 27  2  1  0  0  0  0
 29 16  1  0  0  0  0
 40  8  1  0  0  0  0
 40  5  1  0  0  0  0
 41  9  1  0  0  0  0
 44 18  2  0  0  0  0
 45 15  1  0  0  0  0
 45 10  1  0  0  0  0
 46  1  1  0  0  0  0
M  END
>  <CHROM.1>
172.24765328,85.66537738,148.94948317,-168.15984290,153.95476722,-170.87392678
168.09606528,54.50365581,-172.13067539,-177.70541456,156.40340587,-149.95862056
137.86712377,-8.49395246,0.77450150,15.16549288,2.76169791,0.30717990,0.74755204

>  <Name>
lig.pdb

>  <RI>
0

>  <Rbt.Current_Directory>
/home/afrankz/demos/rdock_decoys_rna/rnas/3wru

>  <Rbt.Executable>
rbdock ($Id: //depot/dev/client3/rdock/2013.1/src/exe/rbdock.cxx#4 $)

>  <Rbt.Library>
libRbt.so (2013.1, Build901 2013/11/27)

>  <Rbt.Parameter_File>
/export/apps/rDock/src/rDock_2013.1_src/data/scripts/dock_solv.prm

>  <Rbt.Receptor>
prm/blind_docking_100.prm

>  <SCORE>
16.5334

>  <SCORE.INTER>
11.538

>  <SCORE.INTER.CONST>
1

>  <SCORE.INTER.POLAR>
0

>  <SCORE.INTER.ROT>
13

>  <SCORE.INTER.SOLV>
32.4299

>  <SCORE.INTER.VDW>
-15.3846

>  <SCORE.INTER.norm>
0.250827

>  <SCORE.INTRA>
-0.784458

>  <SCORE.INTRA.DIHEDRAL>
-1.85625

>  <SCORE.INTRA.DIHEDRAL.0>
19.7146

>  <SCORE.INTRA.POLAR>
0

>  <SCORE.INTRA.POLAR.0>
0

>  <SCORE.INTRA.REPUL>
0

>  <SCORE.INTRA.REPUL.0>
0

>  <SCORE.INTRA.SOLV>
-0.809715

>  <SCORE.INTRA.SOLV.lig_0>
-116.697

>  <SCORE.INTRA.VDW>
0.548526

>  <SCORE.INTRA.VDW.0>
-7.06424

>  <SCORE.INTRA.norm>
-0.0170534

>  <SCORE.RESTR>
5.77985

>  <SCORE.RESTR.CAVITY>
5.77985

>  <SCORE.RESTR.norm>
0.125649

>  <SCORE.SYSTEM>
0

>  <SCORE.SYSTEM.CONST>
0

>  <SCORE.SYSTEM.DIHEDRAL>
0

>  <SCORE.SYSTEM.SOLV>
0

>  <SCORE.SYSTEM.norm>
0

>  <SCORE.heavy>
46

>  <SCORE.norm>
0.359423

>  <RMSD>
27.343

$$$$
lig.pdb
 OpenBabel03061811583D
libRbt.so/2013.1/901 2013/11/27
 46 49  0  0  0  0  0  0  0  0999 V2000
   -6.9663   -1.6370    7.0705 C   0  0  1  0  0  0  0  0  0  0  0  0
   -9.4524   -1.8125    6.6274 C   0  0  1  0  0  0  0  0  0  0  0  0
   -9.8564   -0.3548    6.2510 C   0  0  1  0  0  0  0  0  0  0  0  0
  -11.4165   -0.1399    6.6013 C   0  0  2  0  0  0  0  0  0  0  0  0
   -8.8924    0.6643    8.3652 C   0  0  2  0  0  0  0  0  0  0  0  0
  -10.2780    0.7137    9.0697 C   0  0  1  0  0  0  0  0  0  0  0  0
   -9.8443    0.1914   10.4181 C   0  0  1  0  0  0  0  0  0  0  0  0
   -8.9415   -1.0412   10.0947 C   0  0  1  0  0  0  0  0  0  0  0  0
   -9.6731   -2.3968    9.7966 C   0  0  0  0  0  0  0  0  0  0  0  0
   -7.8281    0.9232   11.6359 C   0  0  1  0  0  0  0  0  0  0  0  0
   -7.8700   -0.0854   12.7449 C   0  0  1  0  0  0  0  0  0  0  0  0
   -5.6486   -1.8322    6.2838 C   0  0  1  0  0  0  0  0  0  0  0  0
   -6.4025   -0.3427   13.2397 C   0  0  0  0  0  0  0  0  0  0  0  0
   -5.7286    0.8168   13.7497 C   0  0  0  0  0  0  0  0  0  0  0  0
   -5.6372    1.8022   12.6935 C   0  0  2  0  0  0  0  0  0  0  0  0
   -4.9102    3.1100   13.1996 C   0  0  0  0  0  0  0  0  0  0  0  0
  -16.2045   -0.3058    5.7341 C   0  0  2  0  0  0  0  0  0  0  0  0
  -14.6136   -2.0361    5.5663 C   0  0  0  0  0  0  0  0  0  0  0  0
  -16.2018   -0.1033    4.3670 C   0  0  0  0  0  0  0  0  0  0  0  0
  -16.1148   -1.6367    5.9789 C   0  0  1  0  0  0  0  0  0  0  0  0
   -5.3488   -3.3814    6.0433 C   0  0  0  0  0  0  0  0  0  0  0  0
   -5.2727   -4.1051    7.4725 C   0  0  0  0  0  0  0  0  0  0  0  0
   -6.6742   -3.8861    8.2099 C   0  0  1  0  0  0  0  0  0  0  0  0
   -6.6972   -4.5350    9.5991 C   0  0  0  0  0  0  0  0  0  0  0  0
  -12.2659   -1.1435    5.7057 C   0  0  1  0  0  0  0  0  0  0  0  0
  -11.8218   -2.6353    6.1568 C   0  0  0  0  0  0  0  0  0  0  0  0
  -10.2907   -2.8572    5.8496 C   0  0  2  0  0  0  0  0  0  0  0  0
  -17.3849    0.2986    6.3094 F   0  0  0  0  0  0  0  0  0  0  0  0
   -3.3651    2.9528   13.2915 N   0  0  0  0  0  0  0  0  0  0  0  0
   -5.7565   -1.0645    4.9883 N   0  0  0  0  0  0  0  0  0  0  0  0
   -8.5736    0.3368   13.8764 N   0  0  0  0  0  0  0  0  0  0  0  0
  -17.0912   -0.5352    3.3551 N   0  0  0  0  0  0  0  0  0  0  0  0
   -8.0150   -4.8573    9.9868 N   0  0  0  0  0  0  0  0  0  0  0  0
  -13.7023   -0.9695    5.9865 N   0  0  0  0  0  0  0  0  0  0  0  0
   -9.8677   -4.2119    6.2683 N   0  0  0  0  0  0  0  0  0  0  0  0
   -8.0910   -2.0523    6.2948 O   0  0  0  0  0  0  0  0  0  0  0  0
   -8.9828    0.5584    7.0607 O   0  0  0  0  0  0  0  0  0  0  0  0
  -11.7482    1.1522    6.2600 O   0  0  0  0  0  0  0  0  0  0  0  0
  -10.7146    2.0390    9.0842 O   0  0  0  0  0  0  0  0  0  0  0  0
   -8.1771   -0.4286    9.0430 O   0  0  0  0  0  0  0  0  0  0  0  0
  -10.4253   -2.7478   10.9753 O   0  0  0  0  0  0  0  0  0  0  0  0
   -9.0667    1.2740   11.1444 O   0  0  0  0  0  0  0  0  0  0  0  0
  -16.3439   -1.9731    7.3648 O   0  0  0  0  0  0  0  0  0  0  0  0
  -14.2953   -3.0928    4.9965 O   0  0  0  0  0  0  0  0  0  0  0  0
   -7.0121    2.1301   12.1606 O   0  0  0  0  0  0  0  0  0  0  0  0
   -6.9474   -2.3990    8.3647 O   0  0  0  0  0  0  0  0  0  0  0  0
  1 36  1  6  0  0  0
  2 36  1  6  0  0  0
  2  3  1  0  0  0  0
  3 37  1  1  0  0  0
  3  4  1  0  0  0  0
  4 38  1  6  0  0  0
  5 37  1  6  0  0  0
  5  6  1  0  0  0  0
  6  7  1  0  0  0  0
  6 39  1  1  0  0  0
  7 42  1  6  0  0  0
  8  9  1  6  0  0  0
  8  7  1  0  0  0  0
 10 42  1  1  0  0  0
 10 11  1  0  0  0  0
 11 31  1  1  0  0  0
 11 13  1  0  0  0  0
 12 30  1  6  0  0  0
 12  1  1  0  0  0  0
 14 13  1  0  0  0  0
 15 16  1  1  0  0  0
 15 14  1  0  0  0  0
 17 19  1  6  0  0  0
 17 28  1  0  0  0  0
 18 34  1  0  0  0  0
 19 32  1  0  0  0  0
 20 18  1  1  0  0  0
 20 17  1  0  0  0  0
 20 43  1  0  0  0  0
 21 12  1  0  0  0  0
 22 21  1  0  0  0  0
 22 23  1  0  0  0  0
 23 24  1  1  0  0  0
 23 46  1  0  0  0  0
 24 33  1  0  0  0  0
 25 34  1  1  0  0  0
 25  4  1  0  0  0  0
 26 25  1  0  0  0  0
 27 35  1  1  0  0  0
 27 26  1  0  0  0  0
 27  2  1  0  0  0  0
 29 16  1  0  0  0  0
 40  8  1  0  0  0  0
 40  5  1  0  0  0  0
 41  9  1  0  0  0  0
 44 18  2  0  0  0  0
 45 15  1  0  0  0  0
 45 10  1  0  0  0  0
 46  1  1  0  0  0  0
M  END
>  <CHROM.1>
-169.37948456,79.54809712,-60.96646922,-45.86146151,-127.82445731,-60.94766255
-66.53656832,77.21145805,61.19233287,39.29639550,70.64971368,-154.29261904
-162.83292092,-9.76451562,-0.88361655,8.37640365,-0.53623646,0.30485223,-2.25720707

>  <Name>
lig.pdb

>  <RI>
0

>  <Rbt.Current_Directory>
/home/afrankz/demos/rdock_decoys_rna/rnas/3wru

>  <Rbt.Executable>
rbdock ($Id: //depot/dev/client3/rdock/2013.1/src/exe/rbdock.cxx#4 $)

>  <Rbt.Library>
libRbt.so (2013.1, Build901 2013/11/27)

>  <Rbt.Parameter_File>
/export/apps/rDock/src/rDock_2013.1_src/data/scripts/dock_solv.prm

>  <Rbt.Receptor>
prm/blind_docking_80.prm

>  <SCORE>
35.9169

>  <SCORE.INTER>
19.9463

>  <SCORE.INTER.CONST>
1

>  <SCORE.INTER.POLAR>
0

>  <SCORE.INTER.ROT>
13

>  <SCORE.INTER.SOLV>
40.7021

>  <SCORE.INTER.VDW>
-12.5365

>  <SCORE.INTER.norm>
0.433616

>  <SCORE.INTRA>
7.97788

>  <SCORE.INTRA.DIHEDRAL>
-4.40635

>  <SCORE.INTRA.DIHEDRAL.0>
19.7146

>  <SCORE.INTRA.POLAR>
0

>  <SCORE.INTRA.POLAR.0>
0

>  <SCORE.INTRA.REPUL>
0.315311

>  <SCORE.INTRA.REPUL.0>
0

>  <SCORE.INTRA.SOLV>
3.2941

>  <SCORE.INTRA.SOLV.lig_0>
-116.697

>  <SCORE.INTRA.VDW>
6.95746

>  <SCORE.INTRA.VDW.0>
-7.06424

>  <SCORE.INTRA.norm>
0.173432

>  <SCORE.RESTR>
7.99268

>  <SCORE.RESTR.CAVITY>
7.99268

>  <SCORE.RESTR.norm>
0.173754

>  <SCORE.SYSTEM>
0

>  <SCORE.SYSTEM.CONST>
0

>  <SCORE.SYSTEM.DIHEDRAL>
0

>  <SCORE.SYSTEM.SOLV>
0

>  <SCORE.SYSTEM.norm>
0

>  <SCORE.heavy>
46

>  <SCORE.norm>
0.780802

>  <RMSD>
27.451

$$$$
lig.pdb
 OpenBabel03061811583D
libRbt.so/2013.1/901 2013/11/27
 46 49  0  0  0  0  0  0  0  0999 V2000
  -10.3644   -2.1747   13.7224 C   0  0  1  0  0  0  0  0  0  0  0  0
   -9.0465   -0.9133   15.4773 C   0  0  1  0  0  0  0  0  0  0  0  0
   -8.9578    0.4707   14.7657 C   0  0  1  0  0  0  0  0  0  0  0  0
   -8.8291    1.6248   15.8856 C   0  0  2  0  0  0  0  0  0  0  0  0
   -6.8558    1.3656   13.6618 C   0  0  2  0  0  0  0  0  0  0  0  0
   -5.4944    0.8092   13.1561 C   0  0  1  0  0  0  0  0  0  0  0  0
   -5.0212    2.0456   12.4305 C   0  0  1  0  0  0  0  0  0  0  0  0
   -6.2614    2.5236   11.6104 C   0  0  1  0  0  0  0  0  0  0  0  0
   -6.5221    1.8089   10.2382 C   0  0  0  0  0  0  0  0  0  0  0  0
   -3.2589    3.1079   13.7905 C   0  0  1  0  0  0  0  0  0  0  0  0
   -2.3330    3.3591   12.6379 C   0  0  1  0  0  0  0  0  0  0  0  0
  -10.2851   -3.5367   12.9931 C   0  0  1  0  0  0  0  0  0  0  0  0
   -0.8552    3.2976   13.1639 C   0  0  0  0  0  0  0  0  0  0  0  0
   -0.4756    2.0411   13.7433 C   0  0  0  0  0  0  0  0  0  0  0  0
   -1.3270    1.7805   14.8845 C   0  0  2  0  0  0  0  0  0  0  0  0
   -0.9615    0.4009   15.5612 C   0  0  0  0  0  0  0  0  0  0  0  0
   -9.8737    3.3027   20.9001 C   0  0  2  0  0  0  0  0  0  0  0  0
  -10.9689    2.5359   18.9596 C   0  0  0  0  0  0  0  0  0  0  0  0
   -9.3977    4.3653   21.6446 C   0  0  0  0  0  0  0  0  0  0  0  0
  -10.7127    3.7783   19.9465 C   0  0  1  0  0  0  0  0  0  0  0  0
   -9.1149   -3.5384   11.9076 C   0  0  0  0  0  0  0  0  0  0  0  0
   -9.3940   -2.3497   10.8677 C   0  0  0  0  0  0  0  0  0  0  0  0
   -9.4320   -0.9778   11.6877 C   0  0  1  0  0  0  0  0  0  0  0  0
   -9.7072    0.2253   10.7775 C   0  0  0  0  0  0  0  0  0  0  0  0
  -10.1491    1.6002   16.7732 C   0  0  1  0  0  0  0  0  0  0  0  0
  -10.1737    0.1536   17.5031 C   0  0  0  0  0  0  0  0  0  0  0  0
  -10.2701   -0.9925   16.4236 C   0  0  2  0  0  0  0  0  0  0  0  0
  -10.4999    2.3401   21.7780 F   0  0  0  0  0  0  0  0  0  0  0  0
    0.4654    0.3839   16.1810 N   0  0  0  0  0  0  0  0  0  0  0  0
  -10.1004   -4.6163   14.0323 N   0  0  0  0  0  0  0  0  0  0  0  0
   -2.4060    2.3985   11.6252 N   0  0  0  0  0  0  0  0  0  0  0  0
   -8.3468    5.2811   21.4031 N   0  0  0  0  0  0  0  0  0  0  0  0
   -9.5909    1.4377   11.4900 N   0  0  0  0  0  0  0  0  0  0  0  0
  -10.0773    2.6517   17.8036 N   0  0  0  0  0  0  0  0  0  0  0  0
  -10.2807   -2.3208   17.0754 N   0  0  0  0  0  0  0  0  0  0  0  0
   -9.2016   -1.9544   14.5216 O   0  0  0  0  0  0  0  0  0  0  0  0
   -7.7442    0.4261   13.8837 O   0  0  0  0  0  0  0  0  0  0  0  0
   -8.7531    2.8350   15.2330 O   0  0  0  0  0  0  0  0  0  0  0  0
   -4.7214    0.4680   14.2666 O   0  0  0  0  0  0  0  0  0  0  0  0
   -7.2339    2.3728   12.6580 O   0  0  0  0  0  0  0  0  0  0  0  0
   -6.8917    0.4457   10.5268 O   0  0  0  0  0  0  0  0  0  0  0  0
   -4.5937    3.0871   13.4487 O   0  0  0  0  0  0  0  0  0  0  0  0
  -11.9717    4.2418   20.4817 O   0  0  0  0  0  0  0  0  0  0  0  0
  -11.7860    1.6244   19.1692 O   0  0  0  0  0  0  0  0  0  0  0  0
   -2.7799    1.8024   14.4718 O   0  0  0  0  0  0  0  0  0  0  0  0
  -10.5189   -1.0421   12.7482 O   0  0  0  0  0  0  0  0  0  0  0  0
  1 36  1  6  0  0  0
  2 36  1  6  0  0  0
  2  3  1  0  0  0  0
  3 37  1  6  0  0  0
  3  4  1  0  0  0  0
  4 38  1  6  0  0  0
  5 37  1  6  0  0  0
  5  6  1  0  0  0  0
  6  7  1  0  0  0  0
  6 39  1  1  0  0  0
  7 42  1  1  0  0  0
  8  9  1  6  0  0  0
  8  7  1  0  0  0  0
 10 42  1  6  0  0  0
 10 11  1  0  0  0  0
 11 31  1  6  0  0  0
 11 13  1  0  0  0  0
 12 30  1  1  0  0  0
 12  1  1  0  0  0  0
 14 13  1  0  0  0  0
 15 16  1  6  0  0  0
 15 14  1  0  0  0  0
 17 19  1  1  0  0  0
 17 28  1  0  0  0  0
 18 34  1  0  0  0  0
 19 32  1  0  0  0  0
 20 18  1  6  0  0  0
 20 17  1  0  0  0  0
 20 43  1  0  0  0  0
 21 12  1  0  0  0  0
 22 21  1  0  0  0  0
 22 23  1  0  0  0  0
 23 24  1  6  0  0  0
 23 46  1  0  0  0  0
 24 33  1  0  0  0  0
 25 34  1  1  0  0  0
 25  4  1  0  0  0  0
 26 25  1  0  0  0  0
 27 35  1  1  0  0  0
 27 26  1  0  0  0  0
 27  2  1  0  0  0  0
 29 16  1  0  0  0  0
 40  8  1  0  0  0  0
 40  5  1  0  0  0  0
 41  9  1  0  0  0  0
 44 18  2  0  0  0  0
 45 15  1  0  0  0  0
 45 10  1  0  0  0  0
 46  1  1  0  0  0  0
M  END
>  <CHROM.1>
-169.46421975,-68.98206709,-139.89889238,157.78749654,93.35445524,67.51741608
59.70544841,64.89303302,-81.84924580,-97.64258733,168.67920886,-173.50440623
-161.38665801,-7.48051172,1.05773195,14.99007776,2.50018821,0.36379841,1.03624784

>  <Name>
lig.pdb

>  <RI>
0

>  <Rbt.Current_Directory>
/home/afrankz/demos/rdock_decoys_rna/rnas/3wru

>  <Rbt.Executable>
rbdock ($Id: //depot/dev/client3/rdock/2013.1/src/exe/rbdock.cxx#4 $)

>  <Rbt.Library>
libRbt.so (2013.1, Build901 2013/11/27)

>  <Rbt.Parameter_File>
/export/apps/rDock/src/rDock_2013.1_src/data/scripts/dock_solv.prm

>  <Rbt.Receptor>
prm/blind_docking_40.prm

>  <SCORE>
16.7661

>  <SCORE.INTER>
4.40387

>  <SCORE.INTER.CONST>
1

>  <SCORE.INTER.POLAR>
0

>  <SCORE.INTER.ROT>
13

>  <SCORE.INTER.SOLV>
39.2931

>  <SCORE.INTER.VDW>
-22.4284

>  <SCORE.INTER.norm>
0.0957364

>  <SCORE.INTRA>
5.74802

>  <SCORE.INTRA.DIHEDRAL>
-2.2556

>  <SCORE.INTRA.DIHEDRAL.0>
19.7146

>  <SCORE.INTRA.POLAR>
0

>  <SCORE.INTRA.POLAR.0>
0

>  <SCORE.INTRA.REPUL>
0.00756668

>  <SCORE.INTRA.REPUL.0>
0

>  <SCORE.INTRA.SOLV>
7.21079

>  <SCORE.INTRA.SOLV.lig_0>
-116.697

>  <SCORE.INTRA.VDW>
3.23259

>  <SCORE.INTRA.VDW.0>
-7.06424

>  <SCORE.INTRA.norm>
0.124957

>  <SCORE.RESTR>
6.61419

>  <SCORE.RESTR.CAVITY>
6.61419

>  <SCORE.RESTR.norm>
0.143787

>  <SCORE.SYSTEM>
0

>  <SCORE.SYSTEM.CONST>
0

>  <SCORE.SYSTEM.DIHEDRAL>
0

>  <SCORE.SYSTEM.SOLV>
0

>  <SCORE.SYSTEM.norm>
0

>  <SCORE.heavy>
46

>  <SCORE.norm>
0.36448

>  <RMSD>
27.496

$$$$
lig.pdb
 OpenBabel03061811583D
libRbt.so/2013.1/901 2013/11/27
 46 49  0  0  0  0  0  0  0  0999 V2000
   -7.8175    1.6209   14.8358 C   0  0  1  0  0  0  0  0  0  0  0  0
   -9.4516   -0.3050   14.6667 C   0  0  1  0  0  0  0  0  0  0  0  0
   -9.6085   -1.4992   13.6772 C   0  0  1  0  0  0  0  0  0  0  0  0
  -11.0783   -2.1384   13.8614 C   0  0  2  0  0  0  0  0  0  0  0  0
   -9.1989   -1.5866   11.1747 C   0  0  2  0  0  0  0  0  0  0  0  0
   -8.8971   -3.0970   11.3898 C   0  0  1  0  0  0  0  0  0  0  0  0
   -9.3333   -3.5916   10.0318 C   0  0  1  0  0  0  0  0  0  0  0  0
  -10.7002   -2.8825    9.7714 C   0  0  1  0  0  0  0  0  0  0  0  0
  -11.9709   -3.5312   10.4242 C   0  0  0  0  0  0  0  0  0  0  0  0
   -8.7061   -3.1666    7.6845 C   0  0  1  0  0  0  0  0  0  0  0  0
   -8.7311   -1.7970    7.0744 C   0  0  1  0  0  0  0  0  0  0  0  0
   -8.8894    2.5795   14.2654 C   0  0  1  0  0  0  0  0  0  0  0  0
   -9.2705   -1.9162    5.6050 C   0  0  0  0  0  0  0  0  0  0  0  0
  -10.5970   -2.4514    5.4936 C   0  0  0  0  0  0  0  0  0  0  0  0
  -10.6043   -3.7910    6.0419 C   0  0  2  0  0  0  0  0  0  0  0  0
  -12.0456   -4.4312    5.9554 C   0  0  0  0  0  0  0  0  0  0  0  0
  -14.3004   -5.4541   17.8676 C   0  0  2  0  0  0  0  0  0  0  0  0
  -12.6764   -4.2346   16.6725 C   0  0  0  0  0  0  0  0  0  0  0  0
  -15.6054   -5.8859   18.0111 C   0  0  0  0  0  0  0  0  0  0  0  0
  -14.1948   -4.7604   16.7070 C   0  0  1  0  0  0  0  0  0  0  0  0
   -8.9011    2.5419   12.6697 C   0  0  0  0  0  0  0  0  0  0  0  0
   -7.4391    2.9453   12.1480 C   0  0  0  0  0  0  0  0  0  0  0  0
   -6.3946    1.8966   12.7521 C   0  0  1  0  0  0  0  0  0  0  0  0
   -4.9569    2.2064   12.3181 C   0  0  0  0  0  0  0  0  0  0  0  0
  -11.1901   -2.6985   15.3462 C   0  0  1  0  0  0  0  0  0  0  0  0
  -11.0440   -1.4144   16.3238 C   0  0  0  0  0  0  0  0  0  0  0  0
   -9.6229   -0.7556   16.1386 C   0  0  2  0  0  0  0  0  0  0  0  0
  -13.4064   -6.5881   17.9342 F   0  0  0  0  0  0  0  0  0  0  0  0
  -12.6027   -4.4872    4.5039 N   0  0  0  0  0  0  0  0  0  0  0  0
  -10.2252    2.1949   14.8546 N   0  0  0  0  0  0  0  0  0  0  0  0
   -9.5928   -0.9012    7.7137 N   0  0  0  0  0  0  0  0  0  0  0  0
  -16.4228   -6.0302   19.1566 N   0  0  0  0  0  0  0  0  0  0  0  0
   -4.8247    2.1385   10.9149 N   0  0  0  0  0  0  0  0  0  0  0  0
  -12.5176   -3.3048   15.5523 N   0  0  0  0  0  0  0  0  0  0  0  0
   -9.4797    0.4268   17.0166 N   0  0  0  0  0  0  0  0  0  0  0  0
   -8.1510    0.2598   14.5615 O   0  0  0  0  0  0  0  0  0  0  0  0
   -9.4228   -0.9428   12.2956 O   0  0  0  0  0  0  0  0  0  0  0  0
  -11.1916   -3.1891   12.9787 O   0  0  0  0  0  0  0  0  0  0  0  0
   -7.5312   -3.2394   11.6376 O   0  0  0  0  0  0  0  0  0  0  0  0
  -10.3024   -1.5700   10.2015 O   0  0  0  0  0  0  0  0  0  0  0  0
  -11.5587   -4.7760   11.0230 O   0  0  0  0  0  0  0  0  0  0  0  0
   -8.2947   -3.1919    8.9994 O   0  0  0  0  0  0  0  0  0  0  0  0
  -14.4557   -5.5695   15.5393 O   0  0  0  0  0  0  0  0  0  0  0  0
  -11.7964   -4.5637   17.4848 O   0  0  0  0  0  0  0  0  0  0  0  0
  -10.1132   -3.7766    7.4703 O   0  0  0  0  0  0  0  0  0  0  0  0
   -6.4591    1.9226   14.2704 O   0  0  0  0  0  0  0  0  0  0  0  0
  1 36  1  6  0  0  0
  2 36  1  1  0  0  0
  2  3  1  0  0  0  0
  3 37  1  6  0  0  0
  3  4  1  0  0  0  0
  4 38  1  6  0  0  0
  5 37  1  1  0  0  0
  5  6  1  0  0  0  0
  6  7  1  0  0  0  0
  6 39  1  6  0  0  0
  7 42  1  6  0  0  0
  8  9  1  1  0  0  0
  8  7  1  0  0  0  0
 10 42  1  1  0  0  0
 10 11  1  0  0  0  0
 11 31  1  1  0  0  0
 11 13  1  0  0  0  0
 12 30  1  1  0  0  0
 12  1  1  0  0  0  0
 14 13  1  0  0  0  0
 15 16  1  1  0  0  0
 15 14  1  0  0  0  0
 17 19  1  6  0  0  0
 17 28  1  0  0  0  0
 18 34  1  0  0  0  0
 19 32  1  0  0  0  0
 20 18  1  6  0  0  0
 20 17  1  0  0  0  0
 20 43  1  0  0  0  0
 21 12  1  0  0  0  0
 22 21  1  0  0  0  0
 22 23  1  0  0  0  0
 23 24  1  1  0  0  0
 23 46  1  0  0  0  0
 24 33  1  0  0  0  0
 25 34  1  6  0  0  0
 25  4  1  0  0  0  0
 26 25  1  0  0  0  0
 27 35  1  1  0  0  0
 27 26  1  0  0  0  0
 27  2  1  0  0  0  0
 29 16  1  0  0  0  0
 40  8  1  0  0  0  0
 40  5  1  0  0  0  0
 41  9  1  0  0  0  0
 44 18  2  0  0  0  0
 45 15  1  0  0  0  0
 45 10  1  0  0  0  0
 46  1  1  0  0  0  0
M  END
>  <CHROM.1>
-41.87682440,151.78249086,164.83359083,-9.32928281,-159.65487342,-6.31333628
113.24229317,57.66829719,-144.36288264,-171.62432644,176.90052581,-61.19635728
161.02430806,-10.26607967,-2.06909245,12.48145053,-0.88867334,0.84165007
1.33285211

>  <Name>
lig.pdb

>  <RI>
0

>  <Rbt.Current_Directory>
/home/afrankz/demos/rdock_decoys_rna/rnas/3wru

>  <Rbt.Executable>
rbdock ($Id: //depot/dev/client3/rdock/2013.1/src/exe/rbdock.cxx#4 $)

>  <Rbt.Library>
libRbt.so (2013.1, Build901 2013/11/27)

>  <Rbt.Parameter_File>
/export/apps/rDock/src/rDock_2013.1_src/data/scripts/dock_solv.prm

>  <Rbt.Receptor>
prm/blind_docking_80.prm

>  <SCORE>
27.5497

>  <SCORE.INTER>
5.66968

>  <SCORE.INTER.CONST>
1

>  <SCORE.INTER.POLAR>
0

>  <SCORE.INTER.ROT>
13

>  <SCORE.INTER.SOLV>
31.9318

>  <SCORE.INTER.VDW>
-19.1308

>  <SCORE.INTER.norm>
0.123254

>  <SCORE.INTRA>
16.6914

>  <SCORE.INTRA.DIHEDRAL>
11.515

>  <SCORE.INTRA.DIHEDRAL.0>
19.7146

>  <SCORE.INTRA.POLAR>
0

>  <SCORE.INTRA.POLAR.0>
0

>  <SCORE.INTRA.REPUL>
0

>  <SCORE.INTRA.REPUL.0>
0

>  <SCORE.INTRA.SOLV>
6.30599

>  <SCORE.INTRA.SOLV.lig_0>
-116.697

>  <SCORE.INTRA.VDW>
7.78088

>  <SCORE.INTRA.VDW.0>
-7.06424

>  <SCORE.INTRA.norm>
0.362856

>  <SCORE.RESTR>
5.18863

>  <SCORE.RESTR.CAVITY>
5.18863

>  <SCORE.RESTR.norm>
0.112796

>  <SCORE.SYSTEM>
0

>  <SCORE.SYSTEM.CONST>
0

>  <SCORE.SYSTEM.DIHEDRAL>
0

>  <SCORE.SYSTEM.SOLV>
0

>  <SCORE.SYSTEM.norm>
0

>  <SCORE.heavy>
46

>  <SCORE.norm>
0.598907

>  <RMSD>
27.572

$$$$
lig.pdb
 OpenBabel03061811583D
libRbt.so/2013.1/901 2013/11/27
 46 49  0  0  0  0  0  0  0  0999 V2000
  -10.2542    1.3727    8.0450 C   0  0  1  0  0  0  0  0  0  0  0  0
  -10.1363    0.9747   10.5421 C   0  0  1  0  0  0  0  0  0  0  0  0
   -9.0055    0.9213   11.6138 C   0  0  1  0  0  0  0  0  0  0  0  0
   -9.6741    0.9930   13.0803 C   0  0  2  0  0  0  0  0  0  0  0  0
   -8.7619   -1.5915   11.3606 C   0  0  2  0  0  0  0  0  0  0  0  0
   -7.8316   -2.6450   12.0264 C   0  0  1  0  0  0  0  0  0  0  0  0
   -8.8875   -3.6680   12.3689 C   0  0  1  0  0  0  0  0  0  0  0  0
  -10.0537   -2.8400   12.9962 C   0  0  1  0  0  0  0  0  0  0  0  0
   -9.9181   -2.4611   14.5127 C   0  0  0  0  0  0  0  0  0  0  0  0
  -10.1792   -3.6781   10.2677 C   0  0  1  0  0  0  0  0  0  0  0  0
  -11.5934   -3.6020   10.7608 C   0  0  1  0  0  0  0  0  0  0  0  0
  -11.2111    0.2703    7.5329 C   0  0  1  0  0  0  0  0  0  0  0  0
  -12.4528   -2.8375    9.6926 C   0  0  0  0  0  0  0  0  0  0  0  0
  -12.4905   -3.4552    8.3981 C   0  0  0  0  0  0  0  0  0  0  0  0
  -11.1431   -3.5142    7.8728 C   0  0  2  0  0  0  0  0  0  0  0  0
  -11.1193   -4.1955    6.4480 C   0  0  0  0  0  0  0  0  0  0  0  0
  -11.5045    4.0364   17.0441 C   0  0  2  0  0  0  0  0  0  0  0  0
  -10.1493    2.6563   15.6981 C   0  0  0  0  0  0  0  0  0  0  0  0
  -12.2931    4.2120   18.1654 C   0  0  0  0  0  0  0  0  0  0  0  0
  -11.0337    2.7646   17.0358 C   0  0  1  0  0  0  0  0  0  0  0  0
  -10.3972   -1.0098    7.0361 C   0  0  0  0  0  0  0  0  0  0  0  0
   -9.3902   -0.5449    5.8777 C   0  0  0  0  0  0  0  0  0  0  0  0
   -8.4182    0.5679    6.4882 C   0  0  1  0  0  0  0  0  0  0  0  0
   -7.4192    1.0881    5.4476 C   0  0  0  0  0  0  0  0  0  0  0  0
  -10.4254    2.3891   13.2121 C   0  0  1  0  0  0  0  0  0  0  0  0
  -11.5988    2.3760   12.0946 C   0  0  0  0  0  0  0  0  0  0  0  0
  -10.9677    2.2768   10.6524 C   0  0  2  0  0  0  0  0  0  0  0  0
  -10.4547    5.0301   17.0317 F   0  0  0  0  0  0  0  0  0  0  0  0
  -11.8818   -3.3767    5.3670 N   0  0  0  0  0  0  0  0  0  0  0  0
  -12.1789   -0.0646    8.6422 N   0  0  0  0  0  0  0  0  0  0  0  0
  -12.2137   -4.8451   10.9145 N   0  0  0  0  0  0  0  0  0  0  0  0
  -11.9562    4.4005   19.5264 N   0  0  0  0  0  0  0  0  0  0  0  0
   -6.5593    0.0583    5.0106 N   0  0  0  0  0  0  0  0  0  0  0  0
  -11.0408    2.5006   14.5468 N   0  0  0  0  0  0  0  0  0  0  0  0
  -12.0287    2.2511    9.6214 N   0  0  0  0  0  0  0  0  0  0  0  0
   -9.5816    0.9542    9.2332 O   0  0  0  0  0  0  0  0  0  0  0  0
   -8.2757   -0.3740   11.4077 O   0  0  0  0  0  0  0  0  0  0  0  0
   -8.6568    0.9448   14.0071 O   0  0  0  0  0  0  0  0  0  0  0  0
   -6.9067   -3.0758   11.0744 O   0  0  0  0  0  0  0  0  0  0  0  0
  -10.0619   -1.7822   12.0230 O   0  0  0  0  0  0  0  0  0  0  0  0
   -8.8234   -1.5302   14.6272 O   0  0  0  0  0  0  0  0  0  0  0  0
   -9.3277   -4.3732   11.0988 O   0  0  0  0  0  0  0  0  0  0  0  0
  -10.2155    2.4573   18.1858 O   0  0  0  0  0  0  0  0  0  0  0  0
   -8.9091    2.7137   15.6649 O   0  0  0  0  0  0  0  0  0  0  0  0
  -10.2377   -4.2522    8.8307 O   0  0  0  0  0  0  0  0  0  0  0  0
   -9.2374    1.7403    7.0025 O   0  0  0  0  0  0  0  0  0  0  0  0
  1 36  1  1  0  0  0
  2 36  1  6  0  0  0
  2  3  1  0  0  0  0
  3 37  1  1  0  0  0
  3  4  1  0  0  0  0
  4 38  1  1  0  0  0
  5 37  1  1  0  0  0
  5  6  1  0  0  0  0
  6  7  1  0  0  0  0
  6 39  1  6  0  0  0
  7 42  1  6  0  0  0
  8  9  1  1  0  0  0
  8  7  1  0  0  0  0
 10 42  1  1  0  0  0
 10 11  1  0  0  0  0
 11 31  1  6  0  0  0
 11 13  1  0  0  0  0
 12 30  1  1  0  0  0
 12  1  1  0  0  0  0
 14 13  1  0  0  0  0
 15 16  1  6  0  0  0
 15 14  1  0  0  0  0
 17 19  1  1  0  0  0
 17 28  1  0  0  0  0
 18 34  1  0  0  0  0
 19 32  1  0  0  0  0
 20 18  1  6  0  0  0
 20 17  1  0  0  0  0
 20 43  1  0  0  0  0
 21 12  1  0  0  0  0
 22 21  1  0  0  0  0
 22 23  1  0  0  0  0
 23 24  1  6  0  0  0
 23 46  1  0  0  0  0
 24 33  1  0  0  0  0
 25 34  1  1  0  0  0
 25  4  1  0  0  0  0
 26 25  1  0  0  0  0
 27 35  1  6  0  0  0
 27 26  1  0  0  0  0
 27  2  1  0  0  0  0
 29 16  1  0  0  0  0
 40  8  1  0  0  0  0
 40  5  1  0  0  0  0
 41  9  1  0  0  0  0
 44 18  2  0  0  0  0
 45 15  1  0  0  0  0
 45 10  1  0  0  0  0
 46  1  1  0  0  0  0
M  END
>  <CHROM.1>
-79.93288283,-160.72439720,-53.74263455,-142.78735244,-76.72429909,67.38142157
-75.09552646,64.73697230,76.56078963,-77.89179827,179.42212519,-63.22824387
69.85569031,-10.11895219,-0.19204468,11.36194210,-0.77169299,1.48533221,0.26859686

>  <Name>
lig.pdb

>  <RI>
0

>  <Rbt.Current_Directory>
/home/afrankz/demos/rdock_decoys_rna/rnas/3wru

>  <Rbt.Executable>
rbdock ($Id: //depot/dev/client3/rdock/2013.1/src/exe/rbdock.cxx#4 $)

>  <Rbt.Library>
libRbt.so (2013.1, Build901 2013/11/27)

>  <Rbt.Parameter_File>
/export/apps/rDock/src/rDock_2013.1_src/data/scripts/dock_solv.prm

>  <Rbt.Receptor>
prm/blind_docking_60.prm

>  <SCORE>
57.7463

>  <SCORE.INTER>
39.6899

>  <SCORE.INTER.CONST>
1

>  <SCORE.INTER.POLAR>
0

>  <SCORE.INTER.ROT>
13

>  <SCORE.INTER.SOLV>
30.0829

>  <SCORE.INTER.VDW>
4.1656

>  <SCORE.INTER.norm>
0.862823

>  <SCORE.INTRA>
14.0228

>  <SCORE.INTRA.DIHEDRAL>
-6.08652

>  <SCORE.INTRA.DIHEDRAL.0>
19.7146

>  <SCORE.INTRA.POLAR>
0

>  <SCORE.INTRA.POLAR.0>
0

>  <SCORE.INTRA.REPUL>
0

>  <SCORE.INTRA.REPUL.0>
0

>  <SCORE.INTRA.SOLV>
11.269

>  <SCORE.INTRA.SOLV.lig_0>
-116.697

>  <SCORE.INTRA.VDW>
11.4315

>  <SCORE.INTRA.VDW.0>
-7.06424

>  <SCORE.INTRA.norm>
0.304843

>  <SCORE.RESTR>
4.03363

>  <SCORE.RESTR.CAVITY>
4.03363

>  <SCORE.RESTR.norm>
0.0876875

>  <SCORE.SYSTEM>
0

>  <SCORE.SYSTEM.CONST>
0

>  <SCORE.SYSTEM.DIHEDRAL>
0

>  <SCORE.SYSTEM.SOLV>
0

>  <SCORE.SYSTEM.norm>
0

>  <SCORE.heavy>
46

>  <SCORE.norm>
1.25535

>  <RMSD>
27.591

$$$$
lig.pdb
 OpenBabel03061811583D
libRbt.so/2013.1/901 2013/11/27
 46 49  0  0  0  0  0  0  0  0999 V2000
   -8.3445    0.2454   13.0112 C   0  0  1  0  0  0  0  0  0  0  0  0
   -9.8792   -0.6530   14.8128 C   0  0  1  0  0  0  0  0  0  0  0  0
   -9.9857   -1.9054   13.8909 C   0  0  1  0  0  0  0  0  0  0  0  0
  -11.1092   -2.8975   14.4880 C   0  0  2  0  0  0  0  0  0  0  0  0
   -9.8568   -1.7348   11.3626 C   0  0  2  0  0  0  0  0  0  0  0  0
  -10.0912   -3.2275   10.9945 C   0  0  1  0  0  0  0  0  0  0  0  0
  -10.0092   -3.0869    9.4937 C   0  0  1  0  0  0  0  0  0  0  0  0
  -10.8849   -1.8366    9.1637 C   0  0  1  0  0  0  0  0  0  0  0  0
  -12.4344   -2.0625    9.0653 C   0  0  0  0  0  0  0  0  0  0  0  0
   -8.3278   -2.5120    7.7831 C   0  0  1  0  0  0  0  0  0  0  0  0
   -7.8266   -1.1091    7.6112 C   0  0  1  0  0  0  0  0  0  0  0  0
   -7.0287   -0.5635   12.9239 C   0  0  1  0  0  0  0  0  0  0  0  0
   -7.6627   -0.8234    6.0763 C   0  0  0  0  0  0  0  0  0  0  0  0
   -8.8717   -0.9356    5.3120 C   0  0  0  0  0  0  0  0  0  0  0  0
   -9.3679   -2.2906    5.4250 C   0  0  2  0  0  0  0  0  0  0  0  0
  -10.7078   -2.4737    4.6088 C   0  0  0  0  0  0  0  0  0  0  0  0
  -14.6706   -5.3517   16.3572 C   0  0  2  0  0  0  0  0  0  0  0  0
  -12.9699   -3.7725   16.7653 C   0  0  0  0  0  0  0  0  0  0  0  0
  -15.6018   -6.2500   16.8430 C   0  0  0  0  0  0  0  0  0  0  0  0
  -13.8794   -4.9458   17.3812 C   0  0  1  0  0  0  0  0  0  0  0  0
   -5.8668    0.1397   13.7625 C   0  0  0  0  0  0  0  0  0  0  0  0
   -5.6633    1.6240   13.1898 C   0  0  0  0  0  0  0  0  0  0  0  0
   -7.0506    2.4040   13.3408 C   0  0  1  0  0  0  0  0  0  0  0  0
   -6.9615    3.8384   12.8063 C   0  0  0  0  0  0  0  0  0  0  0  0
  -10.6313   -3.3736   15.9288 C   0  0  1  0  0  0  0  0  0  0  0  0
  -10.5626   -2.0382   16.8442 C   0  0  0  0  0  0  0  0  0  0  0  0
   -9.4894   -1.0402   16.2609 C   0  0  2  0  0  0  0  0  0  0  0  0
  -15.3512   -4.2596   15.6987 F   0  0  0  0  0  0  0  0  0  0  0  0
  -11.8320   -1.4944    5.0532 N   0  0  0  0  0  0  0  0  0  0  0  0
   -7.3077   -1.9678   13.4029 N   0  0  0  0  0  0  0  0  0  0  0  0
   -8.7036   -0.1266    8.0792 N   0  0  0  0  0  0  0  0  0  0  0  0
  -15.4545   -7.4193   17.6257 N   0  0  0  0  0  0  0  0  0  0  0  0
   -6.8232    3.8490   11.4021 N   0  0  0  0  0  0  0  0  0  0  0  0
  -11.6267   -4.2950   16.5055 N   0  0  0  0  0  0  0  0  0  0  0  0
   -9.4246    0.1903   17.0800 N   0  0  0  0  0  0  0  0  0  0  0  0
   -8.8683    0.2277   14.3396 O   0  0  0  0  0  0  0  0  0  0  0  0
  -10.3649   -1.4069   12.5269 O   0  0  0  0  0  0  0  0  0  0  0  0
  -11.1836   -3.9937   13.6581 O   0  0  0  0  0  0  0  0  0  0  0  0
   -9.0605   -3.9834   11.5544 O   0  0  0  0  0  0  0  0  0  0  0  0
  -10.3804   -0.9877   10.2081 O   0  0  0  0  0  0  0  0  0  0  0  0
  -12.6648   -3.0025    7.9969 O   0  0  0  0  0  0  0  0  0  0  0  0
   -8.5610   -2.8722    9.0925 O   0  0  0  0  0  0  0  0  0  0  0  0
  -14.6284   -4.4398   18.5078 O   0  0  0  0  0  0  0  0  0  0  0  0
  -13.3658   -2.6174   16.5382 O   0  0  0  0  0  0  0  0  0  0  0  0
   -9.5749   -2.6548    6.8763 O   0  0  0  0  0  0  0  0  0  0  0  0
   -8.1400    1.6688   12.5774 O   0  0  0  0  0  0  0  0  0  0  0  0
  1 36  1  1  0  0  0
  2 36  1  6  0  0  0
  2  3  1  0  0  0  0
  3 37  1  6  0  0  0
  3  4  1  0  0  0  0
  4 38  1  6  0  0  0
  5 37  1  1  0  0  0
  5  6  1  0  0  0  0
  6  7  1  0  0  0  0
  6 39  1  1  0  0  0
  7 42  1  1  0  0  0
  8  9  1  1  0  0  0
  8  7  1  0  0  0  0
 10 42  1  1  0  0  0
 10 11  1  0  0  0  0
 11 31  1  6  0  0  0
 11 13  1  0  0  0  0
 12 30  1  1  0  0  0
 12  1  1  0  0  0  0
 14 13  1  0  0  0  0
 15 16  1  6  0  0  0
 15 14  1  0  0  0  0
 17 19  1  1  0  0  0
 17 28  1  0  0  0  0
 18 34  1  0  0  0  0
 19 32  1  0  0  0  0
 20 18  1  6  0  0  0
 20 17  1  0  0  0  0
 20 43  1  0  0  0  0
 21 12  1  0  0  0  0
 22 21  1  0  0  0  0
 22 23  1  0  0  0  0
 23 24  1  6  0  0  0
 23 46  1  0  0  0  0
 24 33  1  0  0  0  0
 25 34  1  1  0  0  0
 25  4  1  0  0  0  0
 26 25  1  0  0  0  0
 27 35  1  1  0  0  0
 27 26  1  0  0  0  0
 27  2  1  0  0  0  0
 29 16  1  0  0  0  0
 40  8  1  0  0  0  0
 40  5  1  0  0  0  0
 41  9  1  0  0  0  0
 44 18  2  0  0  0  0
 45 15  1  0  0  0  0
 45 10  1  0  0  0  0
 46  1  1  0  0  0  0
M  END
>  <CHROM.1>
-96.99070589,20.29464416,134.01398172,64.36043473,-169.94395056,-61.17731487
111.39235685,-57.59363892,-51.25904082,-103.28060015,-172.72755163,69.04676793
-62.89403170,-10.24905041,-1.89396252,12.27213251,-0.94672060,0.75389664
1.46987365

>  <Name>
lig.pdb

>  <RI>
0

>  <Rbt.Current_Directory>
/home/afrankz/demos/rdock_decoys_rna/rnas/3wru

>  <Rbt.Executable>
rbdock ($Id: //depot/dev/client3/rdock/2013.1/src/exe/rbdock.cxx#4 $)

>  <Rbt.Library>
libRbt.so (2013.1, Build901 2013/11/27)

>  <Rbt.Parameter_File>
/export/apps/rDock/src/rDock_2013.1_src/data/scripts/dock_solv.prm

>  <Rbt.Receptor>
prm/blind_docking_60.prm

>  <SCORE>
27.2615

>  <SCORE.INTER>
8.98716

>  <SCORE.INTER.CONST>
1

>  <SCORE.INTER.POLAR>
0

>  <SCORE.INTER.ROT>
13

>  <SCORE.INTER.SOLV>
33.8394

>  <SCORE.INTER.VDW>
-17.555

>  <SCORE.INTER.norm>
0.195373

>  <SCORE.INTRA>
12.7771

>  <SCORE.INTRA.DIHEDRAL>
7.30453

>  <SCORE.INTRA.DIHEDRAL.0>
19.7146

>  <SCORE.INTRA.POLAR>
0

>  <SCORE.INTRA.POLAR.0>
0

>  <SCORE.INTRA.REPUL>
0

>  <SCORE.INTRA.REPUL.0>
0

>  <SCORE.INTRA.SOLV>
8.91667

>  <SCORE.INTRA.SOLV.lig_0>
-116.697

>  <SCORE.INTRA.VDW>
4.66652

>  <SCORE.INTRA.VDW.0>
-7.06424

>  <SCORE.INTRA.norm>
0.277763

>  <SCORE.RESTR>
5.49718

>  <SCORE.RESTR.CAVITY>
5.49718

>  <SCORE.RESTR.norm>
0.119504

>  <SCORE.SYSTEM>
0

>  <SCORE.SYSTEM.CONST>
0

>  <SCORE.SYSTEM.DIHEDRAL>
0

>  <SCORE.SYSTEM.SOLV>
0

>  <SCORE.SYSTEM.norm>
0

>  <SCORE.heavy>
46

>  <SCORE.norm>
0.59264

>  <RMSD>
27.619

$$$$
lig.pdb
 OpenBabel03061811583D
libRbt.so/2013.1/901 2013/11/27
 46 49  0  0  0  0  0  0  0  0999 V2000
   -7.5162    2.3141   12.0669 C   0  0  1  0  0  0  0  0  0  0  0  0
   -8.7543    1.2771   14.0162 C   0  0  1  0  0  0  0  0  0  0  0  0
   -8.5009    0.1055   15.0126 C   0  0  1  0  0  0  0  0  0  0  0  0
   -9.5511    0.2223   16.2317 C   0  0  2  0  0  0  0  0  0  0  0  0
   -9.6338   -1.4652   13.3733 C   0  0  2  0  0  0  0  0  0  0  0  0
   -9.5679   -2.9414   12.8885 C   0  0  1  0  0  0  0  0  0  0  0  0
  -11.0184   -3.0978   12.5006 C   0  0  1  0  0  0  0  0  0  0  0  0
  -11.8168   -2.4822   13.6934 C   0  0  1  0  0  0  0  0  0  0  0  0
  -12.0443   -3.4021   14.9438 C   0  0  0  0  0  0  0  0  0  0  0  0
  -10.8932   -2.9596   10.0411 C   0  0  1  0  0  0  0  0  0  0  0  0
   -9.6776   -2.3641    9.3958 C   0  0  1  0  0  0  0  0  0  0  0  0
   -7.0082    1.7937   10.7015 C   0  0  1  0  0  0  0  0  0  0  0  0
   -9.4001   -3.1305    8.0541 C   0  0  0  0  0  0  0  0  0  0  0  0
  -10.4632   -3.0631    7.0930 C   0  0  0  0  0  0  0  0  0  0  0  0
  -11.6480   -3.6628    7.6690 C   0  0  2  0  0  0  0  0  0  0  0  0
  -12.8596   -3.6097    6.6570 C   0  0  0  0  0  0  0  0  0  0  0  0
  -10.6350    1.3165   21.3017 C   0  0  2  0  0  0  0  0  0  0  0  0
   -9.6850    2.2830   19.3740 C   0  0  0  0  0  0  0  0  0  0  0  0
   -9.6354    1.6824   22.1832 C   0  0  0  0  0  0  0  0  0  0  0  0
  -10.8717    2.3498   20.4559 C   0  0  1  0  0  0  0  0  0  0  0  0
   -5.5948    1.0680   10.8545 C   0  0  0  0  0  0  0  0  0  0  0  0
   -4.5589    2.1165   11.4868 C   0  0  0  0  0  0  0  0  0  0  0  0
   -5.1349    2.5839   12.9030 C   0  0  1  0  0  0  0  0  0  0  0  0
   -4.2156    3.6034   13.5862 C   0  0  0  0  0  0  0  0  0  0  0  0
   -9.2769    1.5940   16.9893 C   0  0  1  0  0  0  0  0  0  0  0  0
   -9.5784    2.7694   15.9153 C   0  0  0  0  0  0  0  0  0  0  0  0
   -8.5804    2.6564   14.6991 C   0  0  2  0  0  0  0  0  0  0  0  0
  -11.8076    0.9101   22.0431 F   0  0  0  0  0  0  0  0  0  0  0  0
  -12.8797   -2.3140    5.7962 N   0  0  0  0  0  0  0  0  0  0  0  0
   -8.0609    0.8765   10.1270 N   0  0  0  0  0  0  0  0  0  0  0  0
   -9.8216   -1.0221    9.0328 N   0  0  0  0  0  0  0  0  0  0  0  0
   -9.0754    1.0099   23.2947 N   0  0  0  0  0  0  0  0  0  0  0  0
   -2.8591    3.2475   13.4307 N   0  0  0  0  0  0  0  0  0  0  0  0
  -10.2097    1.7338   18.1219 N   0  0  0  0  0  0  0  0  0  0  0  0
   -8.8523    3.7166   13.7034 N   0  0  0  0  0  0  0  0  0  0  0  0
   -7.8190    1.2306   12.9464 O   0  0  0  0  0  0  0  0  0  0  0  0
   -8.6965   -1.1673   14.2416 O   0  0  0  0  0  0  0  0  0  0  0  0
   -9.3068   -0.8212   17.0963 O   0  0  0  0  0  0  0  0  0  0  0  0
   -8.6791   -3.0102   11.8149 O   0  0  0  0  0  0  0  0  0  0  0  0
  -11.0162   -1.2987   13.8490 O   0  0  0  0  0  0  0  0  0  0  0  0
  -10.7816   -3.5150   15.6300 O   0  0  0  0  0  0  0  0  0  0  0  0
  -11.2732   -2.3386   11.2110 O   0  0  0  0  0  0  0  0  0  0  0  0
  -12.1471    2.2506   19.7853 O   0  0  0  0  0  0  0  0  0  0  0  0
   -8.5189    2.6571   19.5808 O   0  0  0  0  0  0  0  0  0  0  0  0
  -12.0070   -2.9759    8.9655 O   0  0  0  0  0  0  0  0  0  0  0  0
   -6.5056    3.2143   12.7182 O   0  0  0  0  0  0  0  0  0  0  0  0
  1 36  1  1  0  0  0
  2 36  1  6  0  0  0
  2  3  1  0  0  0  0
  3 37  1  6  0  0  0
  3  4  1  0  0  0  0
  4 38  1  1  0  0  0
  5 37  1  1  0  0  0
  5  6  1  0  0  0  0
  6  7  1  0  0  0  0
  6 39  1  6  0  0  0
  7 42  1  6  0  0  0
  8  9  1  1  0  0  0
  8  7  1  0  0  0  0
 10 42  1  1  0  0  0
 10 11  1  0  0  0  0
 11 31  1  6  0  0  0
 11 13  1  0  0  0  0
 12 30  1  1  0  0  0
 12  1  1  0  0  0  0
 14 13  1  0  0  0  0
 15 16  1  6  0  0  0
 15 14  1  0  0  0  0
 17 19  1  1  0  0  0
 17 28  1  0  0  0  0
 18 34  1  0  0  0  0
 19 32  1  0  0  0  0
 20 18  1  6  0  0  0
 20 17  1  0  0  0  0
 20 43  1  0  0  0  0
 21 12  1  0  0  0  0
 22 21  1  0  0  0  0
 22 23  1  0  0  0  0
 23 24  1  6  0  0  0
 23 46  1  0  0  0  0
 24 33  1  0  0  0  0
 25 34  1  1  0  0  0
 25  4  1  0  0  0  0
 26 25  1  0  0  0  0
 27 35  1  6  0  0  0
 27 26  1  0  0  0  0
 27  2  1  0  0  0  0
 29 16  1  0  0  0  0
 40  8  1  0  0  0  0
 40  5  1  0  0  0  0
 41  9  1  0  0  0  0
 44 18  2  0  0  0  0
 45 15  1  0  0  0  0
 45 10  1  0  0  0  0
 46  1  1  0  0  0  0
M  END
>  <CHROM.1>
-153.90004561,-162.09420764,-42.74174517,-174.56721015,79.93215234,72.93703147
-107.41447805,-35.88261413,175.95651190,104.29020884,78.82173983,-41.14825992
139.65344720,-9.34211165,-0.01478947,13.92246541,-1.64146624,0.69782784,1.26742287

>  <Name>
lig.pdb

>  <RI>
0

>  <Rbt.Current_Directory>
/home/afrankz/demos/rdock_decoys_rna/rnas/3wru

>  <Rbt.Executable>
rbdock ($Id: //depot/dev/client3/rdock/2013.1/src/exe/rbdock.cxx#4 $)

>  <Rbt.Library>
libRbt.so (2013.1, Build901 2013/11/27)

>  <Rbt.Parameter_File>
/export/apps/rDock/src/rDock_2013.1_src/data/scripts/dock_solv.prm

>  <Rbt.Receptor>
prm/blind_docking_80.prm

>  <SCORE>
26.8917

>  <SCORE.INTER>
12.2215

>  <SCORE.INTER.CONST>
1

>  <SCORE.INTER.POLAR>
0

>  <SCORE.INTER.ROT>
13

>  <SCORE.INTER.SOLV>
37.1703

>  <SCORE.INTER.VDW>
-16.5091

>  <SCORE.INTER.norm>
0.265684

>  <SCORE.INTRA>
9.22197

>  <SCORE.INTRA.DIHEDRAL>
2.22756

>  <SCORE.INTRA.DIHEDRAL.0>
19.7146

>  <SCORE.INTRA.POLAR>
0

>  <SCORE.INTRA.POLAR.0>
0

>  <SCORE.INTRA.REPUL>
0

>  <SCORE.INTRA.REPUL.0>
0

>  <SCORE.INTRA.SOLV>
4.48048

>  <SCORE.INTRA.SOLV.lig_0>
-116.697

>  <SCORE.INTRA.VDW>
5.86795

>  <SCORE.INTRA.VDW.0>
-7.06424

>  <SCORE.INTRA.norm>
0.200478

>  <SCORE.RESTR>
5.44825

>  <SCORE.RESTR.CAVITY>
5.44825

>  <SCORE.RESTR.norm>
0.11844

>  <SCORE.SYSTEM>
0

>  <SCORE.SYSTEM.CONST>
0

>  <SCORE.SYSTEM.DIHEDRAL>
0

>  <SCORE.SYSTEM.SOLV>
0

>  <SCORE.SYSTEM.norm>
0

>  <SCORE.heavy>
46

>  <SCORE.norm>
0.584602

>  <RMSD>
27.641

$$$$
lig.pdb
 OpenBabel03061811583D
libRbt.so/2013.1/901 2013/11/27
 46 49  0  0  0  0  0  0  0  0999 V2000
  -12.0163   -3.3594   11.3814 C   0  0  1  0  0  0  0  0  0  0  0  0
  -11.3074   -1.1713   10.3243 C   0  0  1  0  0  0  0  0  0  0  0  0
   -9.7820   -1.4335   10.1399 C   0  0  1  0  0  0  0  0  0  0  0  0
   -9.2541   -0.5732    8.8813 C   0  0  2  0  0  0  0  0  0  0  0  0
   -9.6214   -0.3441   12.4258 C   0  0  2  0  0  0  0  0  0  0  0  0
   -8.7523   -0.4361   13.7122 C   0  0  1  0  0  0  0  0  0  0  0  0
   -9.2112    0.8452   14.3653 C   0  0  1  0  0  0  0  0  0  0  0  0
   -9.1771    1.9080   13.2214 C   0  0  1  0  0  0  0  0  0  0  0  0
   -7.7865    2.5604   12.9013 C   0  0  0  0  0  0  0  0  0  0  0  0
  -10.9666    1.4030   16.0058 C   0  0  1  0  0  0  0  0  0  0  0  0
  -10.8261    2.8834   15.8122 C   0  0  1  0  0  0  0  0  0  0  0  0
  -12.0605   -3.9334   12.8173 C   0  0  1  0  0  0  0  0  0  0  0  0
  -11.2001    3.5994   17.1582 C   0  0  0  0  0  0  0  0  0  0  0  0
  -10.3776    3.2409   18.2779 C   0  0  0  0  0  0  0  0  0  0  0  0
  -10.5151    1.8202   18.5184 C   0  0  2  0  0  0  0  0  0  0  0  0
   -9.6223    1.3627   19.7385 C   0  0  0  0  0  0  0  0  0  0  0  0
   -7.7193    1.5914    5.1512 C   0  0  2  0  0  0  0  0  0  0  0  0
   -9.6294    1.1290    6.4514 C   0  0  0  0  0  0  0  0  0  0  0  0
   -7.3943    0.2735    4.8915 C   0  0  0  0  0  0  0  0  0  0  0  0
   -9.0659    1.7330    5.0727 C   0  0  1  0  0  0  0  0  0  0  0  0
  -10.6411   -3.7944   13.5340 C   0  0  0  0  0  0  0  0  0  0  0  0
   -9.5526   -4.5662   12.6443 C   0  0  0  0  0  0  0  0  0  0  0  0
   -9.5438   -3.9003   11.1909 C   0  0  1  0  0  0  0  0  0  0  0  0
   -8.5371   -4.5811   10.2557 C   0  0  0  0  0  0  0  0  0  0  0  0
  -10.0126   -1.0861    7.5804 C   0  0  1  0  0  0  0  0  0  0  0  0
  -11.5831   -0.7664    7.8197 C   0  0  0  0  0  0  0  0  0  0  0  0
  -12.1135   -1.5760    9.0652 C   0  0  2  0  0  0  0  0  0  0  0  0
   -7.0040    2.4541    4.2381 F   0  0  0  0  0  0  0  0  0  0  0  0
  -10.3088    0.2864   20.6276 N   0  0  0  0  0  0  0  0  0  0  0  0
  -13.1542   -3.2199   13.5752 N   0  0  0  0  0  0  0  0  0  0  0  0
   -9.5250    3.3015   15.5194 N   0  0  0  0  0  0  0  0  0  0  0  0
   -6.1431   -0.3750    4.7679 N   0  0  0  0  0  0  0  0  0  0  0  0
   -8.4863   -3.9303    9.0047 N   0  0  0  0  0  0  0  0  0  0  0  0
   -9.5479   -0.3323    6.4020 N   0  0  0  0  0  0  0  0  0  0  0  0
  -13.5444   -1.2841    9.3037 N   0  0  0  0  0  0  0  0  0  0  0  0
  -11.8179   -1.9454   11.4020 O   0  0  0  0  0  0  0  0  0  0  0  0
   -9.1131   -1.0066   11.4139 O   0  0  0  0  0  0  0  0  0  0  0  0
   -7.9072   -0.8221    8.7394 O   0  0  0  0  0  0  0  0  0  0  0  0
   -9.1161   -1.5919   14.4044 O   0  0  0  0  0  0  0  0  0  0  0  0
   -9.8044    1.1001   12.2116 O   0  0  0  0  0  0  0  0  0  0  0  0
   -7.9855    3.4850   11.8134 O   0  0  0  0  0  0  0  0  0  0  0  0
  -10.6176    0.6535   14.9034 O   0  0  0  0  0  0  0  0  0  0  0  0
   -9.4825    3.1095    4.9387 O   0  0  0  0  0  0  0  0  0  0  0  0
  -10.0481    1.8101    7.4019 O   0  0  0  0  0  0  0  0  0  0  0  0
  -10.1577    1.0400   17.2753 O   0  0  0  0  0  0  0  0  0  0  0  0
  -10.9275   -4.0015   10.5702 O   0  0  0  0  0  0  0  0  0  0  0  0
  1 36  1  1  0  0  0
  2 36  1  1  0  0  0
  2  3  1  0  0  0  0
  3 37  1  1  0  0  0
  3  4  1  0  0  0  0
  4 38  1  6  0  0  0
  5 37  1  6  0  0  0
  5  6  1  0  0  0  0
  6  7  1  0  0  0  0
  6 39  1  1  0  0  0
  7 42  1  6  0  0  0
  8  9  1  6  0  0  0
  8  7  1  0  0  0  0
 10 42  1  6  0  0  0
 10 11  1  0  0  0  0
 11 31  1  1  0  0  0
 11 13  1  0  0  0  0
 12 30  1  1  0  0  0
 12  1  1  0  0  0  0
 14 13  1  0  0  0  0
 15 16  1  1  0  0  0
 15 14  1  0  0  0  0
 17 19  1  6  0  0  0
 17 28  1  0  0  0  0
 18 34  1  0  0  0  0
 19 32  1  0  0  0  0
 20 18  1  1  0  0  0
 20 17  1  0  0  0  0
 20 43  1  0  0  0  0
 21 12  1  0  0  0  0
 22 21  1  0  0  0  0
 22 23  1  0  0  0  0
 23 24  1  6  0  0  0
 23 46  1  0  0  0  0
 24 33  1  0  0  0  0
 25 34  1  6  0  0  0
 25  4  1  0  0  0  0
 26 25  1  0  0  0  0
 27 35  1  1  0  0  0
 27 26  1  0  0  0  0
 27  2  1  0  0  0  0
 29 16  1  0  0  0  0
 40  8  1  0  0  0  0
 40  5  1  0  0  0  0
 41  9  1  0  0  0  0
 44 18  2  0  0  0  0
 45 15  1  0  0  0  0
 45 10  1  0  0  0  0
 46  1  1  0  0  0  0
M  END
>  <CHROM.1>
158.50992261,-72.14919531,-10.11630538,163.80504568,150.89949374,179.19638715
57.18536372,141.84487991,175.56091748,-74.61665325,77.47455522,-176.50182181
-54.75865732,-9.81486131,-0.15180255,11.43105946,2.01649359,1.23758905,1.07139014

>  <Name>
lig.pdb

>  <RI>
0

>  <Rbt.Current_Directory>
/home/afrankz/demos/rdock_decoys_rna/rnas/3wru

>  <Rbt.Executable>
rbdock ($Id: //depot/dev/client3/rdock/2013.1/src/exe/rbdock.cxx#4 $)

>  <Rbt.Library>
libRbt.so (2013.1, Build901 2013/11/27)

>  <Rbt.Parameter_File>
/export/apps/rDock/src/rDock_2013.1_src/data/scripts/dock_solv.prm

>  <Rbt.Receptor>
prm/blind_docking_60.prm

>  <SCORE>
26.2669

>  <SCORE.INTER>
5.99898

>  <SCORE.INTER.CONST>
1

>  <SCORE.INTER.POLAR>
0

>  <SCORE.INTER.ROT>
13

>  <SCORE.INTER.SOLV>
28.3172

>  <SCORE.INTER.VDW>
-17.7064

>  <SCORE.INTER.norm>
0.130413

>  <SCORE.INTRA>
9.22954

>  <SCORE.INTRA.DIHEDRAL>
0.38759

>  <SCORE.INTRA.DIHEDRAL.0>
19.7146

>  <SCORE.INTRA.POLAR>
0

>  <SCORE.INTRA.POLAR.0>
0

>  <SCORE.INTRA.REPUL>
0

>  <SCORE.INTRA.REPUL.0>
0

>  <SCORE.INTRA.SOLV>
5.48805

>  <SCORE.INTRA.SOLV.lig_0>
-116.697

>  <SCORE.INTRA.VDW>
6.29172

>  <SCORE.INTRA.VDW.0>
-7.06424

>  <SCORE.INTRA.norm>
0.200642

>  <SCORE.RESTR>
11.0384

>  <SCORE.RESTR.CAVITY>
11.0384

>  <SCORE.RESTR.norm>
0.239965

>  <SCORE.SYSTEM>
0

>  <SCORE.SYSTEM.CONST>
0

>  <SCORE.SYSTEM.DIHEDRAL>
0

>  <SCORE.SYSTEM.SOLV>
0

>  <SCORE.SYSTEM.norm>
0

>  <SCORE.heavy>
46

>  <SCORE.norm>
0.571019

>  <RMSD>
27.645

$$$$
lig.pdb
 OpenBabel03061811583D
libRbt.so/2013.1/901 2013/11/27
 46 49  0  0  0  0  0  0  0  0999 V2000
   -7.1926    0.9677   13.5963 C   0  0  1  0  0  0  0  0  0  0  0  0
   -8.1038    0.0698   11.4119 C   0  0  1  0  0  0  0  0  0  0  0  0
   -9.4103   -0.6506   11.8630 C   0  0  1  0  0  0  0  0  0  0  0  0
   -9.7599   -1.8107   10.7977 C   0  0  2  0  0  0  0  0  0  0  0  0
   -9.0816   -0.5993   14.3784 C   0  0  2  0  0  0  0  0  0  0  0  0
  -10.4148    0.1047   14.7600 C   0  0  1  0  0  0  0  0  0  0  0  0
  -10.2253    0.1111   16.2576 C   0  0  1  0  0  0  0  0  0  0  0  0
   -9.7334   -1.3306   16.6017 C   0  0  1  0  0  0  0  0  0  0  0  0
  -10.8334   -2.4411   16.7381 C   0  0  0  0  0  0  0  0  0  0  0  0
   -9.5831    2.1481   17.4913 C   0  0  1  0  0  0  0  0  0  0  0  0
   -9.6475    1.7202   18.9272 C   0  0  1  0  0  0  0  0  0  0  0  0
   -6.8998    2.3411   14.2453 C   0  0  1  0  0  0  0  0  0  0  0  0
  -10.1667    2.9287   19.7841 C   0  0  0  0  0  0  0  0  0  0  0  0
  -11.4732    3.4014   19.4262 C   0  0  0  0  0  0  0  0  0  0  0  0
  -11.4413    3.8577   18.0530 C   0  0  2  0  0  0  0  0  0  0  0  0
  -12.8593    4.3834   17.5971 C   0  0  0  0  0  0  0  0  0  0  0  0
  -11.5444   -3.9626    7.0316 C   0  0  2  0  0  0  0  0  0  0  0  0
  -10.8955   -1.6982    7.0992 C   0  0  0  0  0  0  0  0  0  0  0  0
  -12.8479   -3.7425    7.4345 C   0  0  0  0  0  0  0  0  0  0  0  0
  -11.1810   -2.9791    6.1713 C   0  0  1  0  0  0  0  0  0  0  0  0
   -5.7671    3.1258   13.4398 C   0  0  0  0  0  0  0  0  0  0  0  0
   -4.4478    2.2142   13.4136 C   0  0  0  0  0  0  0  0  0  0  0  0
   -4.8202    0.8304   12.7047 C   0  0  1  0  0  0  0  0  0  0  0  0
   -3.6195   -0.1213   12.6415 C   0  0  0  0  0  0  0  0  0  0  0  0
  -10.0271   -1.1221    9.3887 C   0  0  1  0  0  0  0  0  0  0  0  0
   -8.6334   -0.4134    8.9626 C   0  0  0  0  0  0  0  0  0  0  0  0
   -8.2571    0.7061   10.0081 C   0  0  2  0  0  0  0  0  0  0  0  0
  -11.4323   -5.2858    6.4606 F   0  0  0  0  0  0  0  0  0  0  0  0
  -12.8881    4.8550   16.1149 N   0  0  0  0  0  0  0  0  0  0  0  0
   -8.1940    3.1158   14.3100 N   0  0  0  0  0  0  0  0  0  0  0  0
  -10.5457    0.6781   19.1741 N   0  0  0  0  0  0  0  0  0  0  0  0
  -14.0750   -3.8638    6.7410 N   0  0  0  0  0  0  0  0  0  0  0  0
   -3.2609   -0.5718   13.9297 N   0  0  0  0  0  0  0  0  0  0  0  0
  -10.3639   -2.1495    8.3870 N   0  0  0  0  0  0  0  0  0  0  0  0
   -6.9792    1.3540    9.6386 N   0  0  0  0  0  0  0  0  0  0  0  0
   -7.7852    1.1275   12.3069 O   0  0  0  0  0  0  0  0  0  0  0  0
   -9.1408   -1.2213   13.2249 O   0  0  0  0  0  0  0  0  0  0  0  0
  -10.9157   -2.4303   11.2175 O   0  0  0  0  0  0  0  0  0  0  0  0
  -10.4211    1.3738   14.1798 O   0  0  0  0  0  0  0  0  0  0  0  0
   -8.7702   -1.4458   15.5411 O   0  0  0  0  0  0  0  0  0  0  0  0
  -11.2619   -2.7878   15.4061 O   0  0  0  0  0  0  0  0  0  0  0  0
   -9.1853    1.1548   16.6231 O   0  0  0  0  0  0  0  0  0  0  0  0
   -9.9962   -3.3025    5.4111 O   0  0  0  0  0  0  0  0  0  0  0  0
  -11.0867   -0.5202    6.7551 O   0  0  0  0  0  0  0  0  0  0  0  0
  -10.9664    2.7500   17.1423 O   0  0  0  0  0  0  0  0  0  0  0  0
   -5.9417    0.1462   13.4691 O   0  0  0  0  0  0  0  0  0  0  0  0
  1 36  1  6  0  0  0
  2 36  1  1  0  0  0
  2  3  1  0  0  0  0
  3 37  1  1  0  0  0
  3  4  1  0  0  0  0
  4 38  1  1  0  0  0
  5 37  1  6  0  0  0
  5  6  1  0  0  0  0
  6  7  1  0  0  0  0
  6 39  1  6  0  0  0
  7 42  1  6  0  0  0
  8  9  1  6  0  0  0
  8  7  1  0  0  0  0
 10 42  1  6  0  0  0
 10 11  1  0  0  0  0
 11 31  1  6  0  0  0
 11 13  1  0  0  0  0
 12 30  1  6  0  0  0
 12  1  1  0  0  0  0
 14 13  1  0  0  0  0
 15 16  1  6  0  0  0
 15 14  1  0  0  0  0
 17 19  1  6  0  0  0
 17 28  1  0  0  0  0
 18 34  1  0  0  0  0
 19 32  1  0  0  0  0
 20 18  1  1  0  0  0
 20 17  1  0  0  0  0
 20 43  1  0  0  0  0
 21 12  1  0  0  0  0
 22 21  1  0  0  0  0
 22 23  1  0  0  0  0
 23 24  1  1  0  0  0
 23 46  1  0  0  0  0
 24 33  1  0  0  0  0
 25 34  1  6  0  0  0
 25  4  1  0  0  0  0
 26 25  1  0  0  0  0
 27 35  1  6  0  0  0
 27 26  1  0  0  0  0
 27  2  1  0  0  0  0
 29 16  1  0  0  0  0
 40  8  1  0  0  0  0
 40  5  1  0  0  0  0
 41  9  1  0  0  0  0
 44 18  2  0  0  0  0
 45 15  1  0  0  0  0
 45 10  1  0  0  0  0
 46  1  1  0  0  0  0
M  END
>  <CHROM.1>
176.03095285,77.36118935,75.85355474,60.95772460,121.78916187,75.72965479
77.28030085,-178.62020276,71.13695586,32.63855464,76.64437581,68.18069913
168.35190196,-9.41399264,-0.02951253,12.92168373,-1.47577434,-0.25497621
-2.00847248

>  <Name>
lig.pdb

>  <RI>
0

>  <Rbt.Current_Directory>
/home/afrankz/demos/rdock_decoys_rna/rnas/3wru

>  <Rbt.Executable>
rbdock ($Id: //depot/dev/client3/rdock/2013.1/src/exe/rbdock.cxx#4 $)

>  <Rbt.Library>
libRbt.so (2013.1, Build901 2013/11/27)

>  <Rbt.Parameter_File>
/export/apps/rDock/src/rDock_2013.1_src/data/scripts/dock_solv.prm

>  <Rbt.Receptor>
prm/blind_docking_80.prm

>  <SCORE>
24.7853

>  <SCORE.INTER>
11.8284

>  <SCORE.INTER.CONST>
1

>  <SCORE.INTER.POLAR>
0

>  <SCORE.INTER.ROT>
13

>  <SCORE.INTER.SOLV>
29.3835

>  <SCORE.INTER.VDW>
-14.1755

>  <SCORE.INTER.norm>
0.25714

>  <SCORE.INTRA>
5.66853

>  <SCORE.INTRA.DIHEDRAL>
-4.46109

>  <SCORE.INTRA.DIHEDRAL.0>
19.7146

>  <SCORE.INTRA.POLAR>
0

>  <SCORE.INTRA.POLAR.0>
0

>  <SCORE.INTRA.REPUL>
0

>  <SCORE.INTRA.REPUL.0>
0

>  <SCORE.INTRA.SOLV>
5.2949

>  <SCORE.INTRA.SOLV.lig_0>
-116.697

>  <SCORE.INTRA.VDW>
5.25163

>  <SCORE.INTRA.VDW.0>
-7.06424

>  <SCORE.INTRA.norm>
0.123229

>  <SCORE.RESTR>
7.28837

>  <SCORE.RESTR.CAVITY>
7.28837

>  <SCORE.RESTR.norm>
0.158443

>  <SCORE.SYSTEM>
0

>  <SCORE.SYSTEM.CONST>
0

>  <SCORE.SYSTEM.DIHEDRAL>
0

>  <SCORE.SYSTEM.SOLV>
0

>  <SCORE.SYSTEM.norm>
0

>  <SCORE.heavy>
46

>  <SCORE.norm>
0.538812

>  <RMSD>
27.679

$$$$
lig.pdb
 OpenBabel03061811583D
libRbt.so/2013.1/901 2013/11/27
 46 49  0  0  0  0  0  0  0  0999 V2000
   -9.2577    1.8000   12.5407 C   0  0  1  0  0  0  0  0  0  0  0  0
   -9.8534    0.6671   14.7247 C   0  0  1  0  0  0  0  0  0  0  0  0
   -9.6466   -0.7266   15.3914 C   0  0  1  0  0  0  0  0  0  0  0  0
  -10.4052   -0.7404   16.8152 C   0  0  2  0  0  0  0  0  0  0  0  0
   -9.9956   -1.9038   13.1710 C   0  0  2  0  0  0  0  0  0  0  0  0
   -8.6486   -2.6241   12.8787 C   0  0  1  0  0  0  0  0  0  0  0  0
   -9.0049   -3.1900   11.5253 C   0  0  1  0  0  0  0  0  0  0  0  0
  -10.4318   -3.7967   11.7119 C   0  0  1  0  0  0  0  0  0  0  0  0
  -10.5152   -5.2312   12.3419 C   0  0  0  0  0  0  0  0  0  0  0  0
   -9.6647   -2.3139    9.3160 C   0  0  1  0  0  0  0  0  0  0  0  0
   -9.0559   -3.4081    8.4908 C   0  0  1  0  0  0  0  0  0  0  0  0
   -9.1781    1.2681   11.0902 C   0  0  1  0  0  0  0  0  0  0  0  0
   -9.8689   -3.5348    7.1539 C   0  0  0  0  0  0  0  0  0  0  0  0
   -9.8793   -2.3513    6.3428 C   0  0  0  0  0  0  0  0  0  0  0  0
  -10.4943   -1.2786    7.0954 C   0  0  2  0  0  0  0  0  0  0  0  0
  -10.5262    0.0581    6.2545 C   0  0  0  0  0  0  0  0  0  0  0  0
  -10.0313    0.5725   22.1985 C   0  0  2  0  0  0  0  0  0  0  0  0
  -10.0128    1.4304   20.0038 C   0  0  0  0  0  0  0  0  0  0  0  0
   -9.1796    1.4732   22.8097 C   0  0  0  0  0  0  0  0  0  0  0  0
  -10.8552    1.2497   21.3606 C   0  0  1  0  0  0  0  0  0  0  0  0
   -7.7347    0.6609   10.7807 C   0  0  0  0  0  0  0  0  0  0  0  0
   -6.6439    1.8105   11.0276 C   0  0  0  0  0  0  0  0  0  0  0  0
   -6.7666    2.2863   12.5489 C   0  0  1  0  0  0  0  0  0  0  0  0
   -5.7666    3.4000   12.8824 C   0  0  0  0  0  0  0  0  0  0  0  0
   -9.7341    0.3644   17.7424 C   0  0  1  0  0  0  0  0  0  0  0  0
  -10.0012    1.7867   17.0132 C   0  0  0  0  0  0  0  0  0  0  0  0
   -9.2915    1.8111   15.6047 C   0  0  2  0  0  0  0  0  0  0  0  0
  -10.7420   -0.1808   23.2069 F   0  0  0  0  0  0  0  0  0  0  0  0
  -11.4095   -0.0446    4.9780 N   0  0  0  0  0  0  0  0  0  0  0  0
  -10.2771    0.2501   10.9019 N   0  0  0  0  0  0  0  0  0  0  0  0
   -7.7363   -3.1636    8.1001 N   0  0  0  0  0  0  0  0  0  0  0  0
   -8.3832    2.5156   22.2802 N   0  0  0  0  0  0  0  0  0  0  0  0
   -6.2225    4.6493   12.4107 N   0  0  0  0  0  0  0  0  0  0  0  0
  -10.3915    0.3753   19.0616 N   0  0  0  0  0  0  0  0  0  0  0  0
   -9.5375    3.1002   14.9212 N   0  0  0  0  0  0  0  0  0  0  0  0
   -9.1638    0.7311   13.4830 O   0  0  0  0  0  0  0  0  0  0  0  0
  -10.2255   -1.7448   14.4528 O   0  0  0  0  0  0  0  0  0  0  0  0
  -10.2074   -1.9792   17.3830 O   0  0  0  0  0  0  0  0  0  0  0  0
   -7.6366   -1.6638   12.8476 O   0  0  0  0  0  0  0  0  0  0  0  0
  -10.9983   -2.6940   12.4393 O   0  0  0  0  0  0  0  0  0  0  0  0
  -11.8816   -5.6748   12.2219 O   0  0  0  0  0  0  0  0  0  0  0  0
   -9.0077   -2.0686   10.5021 O   0  0  0  0  0  0  0  0  0  0  0  0
  -12.0824    0.5414   21.0803 O   0  0  0  0  0  0  0  0  0  0  0  0
   -9.1882    2.3365   19.7999 O   0  0  0  0  0  0  0  0  0  0  0  0
   -9.7653   -1.0683    8.4016 O   0  0  0  0  0  0  0  0  0  0  0  0
   -8.1718    2.8006   12.8155 O   0  0  0  0  0  0  0  0  0  0  0  0
  1 36  1  1  0  0  0
  2 36  1  6  0  0  0
  2  3  1  0  0  0  0
  3 37  1  6  0  0  0
  3  4  1  0  0  0  0
  4 38  1  1  0  0  0
  5 37  1  1  0  0  0
  5  6  1  0  0  0  0
  6  7  1  0  0  0  0
  6 39  1  6  0  0  0
  7 42  1  6  0  0  0
  8  9  1  1  0  0  0
  8  7  1  0  0  0  0
 10 42  1  1  0  0  0
 10 11  1  0  0  0  0
 11 31  1  6  0  0  0
 11 13  1  0  0  0  0
 12 30  1  1  0  0  0
 12  1  1  0  0  0  0
 14 13  1  0  0  0  0
 15 16  1  6  0  0  0
 15 14  1  0  0  0  0
 17 19  1  1  0  0  0
 17 28  1  0  0  0  0
 18 34  1  0  0  0  0
 19 32  1  0  0  0  0
 20 18  1  6  0  0  0
 20 17  1  0  0  0  0
 20 43  1  0  0  0  0
 21 12  1  0  0  0  0
 22 21  1  0  0  0  0
 22 23  1  0  0  0  0
 23 24  1  6  0  0  0
 23 46  1  0  0  0  0
 24 33  1  0  0  0  0
 25 34  1  1  0  0  0
 25  4  1  0  0  0  0
 26 25  1  0  0  0  0
 27 35  1  6  0  0  0
 27 26  1  0  0  0  0
 27  2  1  0  0  0  0
 29 16  1  0  0  0  0
 40  8  1  0  0  0  0
 40  5  1  0  0  0  0
 41  9  1  0  0  0  0
 44 18  2  0  0  0  0
 45 15  1  0  0  0  0
 45 10  1  0  0  0  0
 46  1  1  0  0  0  0
M  END
>  <CHROM.1>
-144.64486354,172.62425962,51.37498178,78.15354009,-162.22911127,-170.91372247
-64.31478663,64.08602038,-48.50475571,96.93240410,83.31378882,79.08171940
-173.21113563,-9.48542342,-0.31126956,13.80624146,-1.50109102,1.12581272
1.28347806

>  <Name>
lig.pdb

>  <RI>
0

>  <Rbt.Current_Directory>
/home/afrankz/demos/rdock_decoys_rna/rnas/3wru

>  <Rbt.Executable>
rbdock ($Id: //depot/dev/client3/rdock/2013.1/src/exe/rbdock.cxx#4 $)

>  <Rbt.Library>
libRbt.so (2013.1, Build901 2013/11/27)

>  <Rbt.Parameter_File>
/export/apps/rDock/src/rDock_2013.1_src/data/scripts/dock_solv.prm

>  <Rbt.Receptor>
prm/blind_docking_40.prm

>  <SCORE>
3.78348

>  <SCORE.INTER>
-2.86103

>  <SCORE.INTER.CONST>
1

>  <SCORE.INTER.POLAR>
0

>  <SCORE.INTER.ROT>
13

>  <SCORE.INTER.SOLV>
39.1192

>  <SCORE.INTER.VDW>
-27.2138

>  <SCORE.INTER.norm>
-0.0621964

>  <SCORE.INTRA>
4.37698

>  <SCORE.INTRA.DIHEDRAL>
-5.79374

>  <SCORE.INTRA.DIHEDRAL.0>
19.7146

>  <SCORE.INTRA.POLAR>
0

>  <SCORE.INTRA.POLAR.0>
0

>  <SCORE.INTRA.REPUL>
0.0781886

>  <SCORE.INTRA.REPUL.0>
0

>  <SCORE.INTRA.SOLV>
8.87412

>  <SCORE.INTRA.SOLV.lig_0>
-116.697

>  <SCORE.INTRA.VDW>
2.44585

>  <SCORE.INTRA.VDW.0>
-7.06424

>  <SCORE.INTRA.norm>
0.0951516

>  <SCORE.RESTR>
2.26754

>  <SCORE.RESTR.CAVITY>
2.26754

>  <SCORE.RESTR.norm>
0.0492944

>  <SCORE.SYSTEM>
0

>  <SCORE.SYSTEM.CONST>
0

>  <SCORE.SYSTEM.DIHEDRAL>
0

>  <SCORE.SYSTEM.SOLV>
0

>  <SCORE.SYSTEM.norm>
0

>  <SCORE.heavy>
46

>  <SCORE.norm>
0.0822497

>  <RMSD>
27.685

$$$$
lig.pdb
 OpenBabel03061811583D
libRbt.so/2013.1/901 2013/11/27
 46 49  0  0  0  0  0  0  0  0999 V2000
  -10.0732    2.0279   12.5838 C   0  0  1  0  0  0  0  0  0  0  0  0
  -10.9090    0.6308   14.5223 C   0  0  1  0  0  0  0  0  0  0  0  0
   -9.7853   -0.3590   14.9548 C   0  0  1  0  0  0  0  0  0  0  0  0
   -9.9164   -0.6357   16.5389 C   0  0  2  0  0  0  0  0  0  0  0  0
   -9.7508   -1.8314   12.8887 C   0  0  2  0  0  0  0  0  0  0  0  0
   -8.4776   -2.6902   12.6431 C   0  0  1  0  0  0  0  0  0  0  0  0
   -8.8630   -3.2528   11.2963 C   0  0  1  0  0  0  0  0  0  0  0  0
  -10.3470   -3.7087   11.4665 C   0  0  1  0  0  0  0  0  0  0  0  0
  -10.5863   -5.1107   12.1290 C   0  0  0  0  0  0  0  0  0  0  0  0
   -8.8559   -2.5543    8.9308 C   0  0  1  0  0  0  0  0  0  0  0  0
   -8.4957   -1.4899    7.9377 C   0  0  1  0  0  0  0  0  0  0  0  0
  -10.1068    1.9918   11.0376 C   0  0  1  0  0  0  0  0  0  0  0  0
   -8.7372   -2.0545    6.4930 C   0  0  0  0  0  0  0  0  0  0  0  0
  -10.0902   -2.4457    6.2193 C   0  0  0  0  0  0  0  0  0  0  0  0
  -10.4631   -3.5001    7.1381 C   0  0  2  0  0  0  0  0  0  0  0  0
  -11.9514   -3.9677    6.8907 C   0  0  0  0  0  0  0  0  0  0  0  0
   -8.7440    1.5129   21.6876 C   0  0  2  0  0  0  0  0  0  0  0  0
   -9.8474    1.7151   19.6153 C   0  0  0  0  0  0  0  0  0  0  0  0
   -8.6804    2.8580   21.9985 C   0  0  0  0  0  0  0  0  0  0  0  0
   -9.9595    1.2460   21.1485 C   0  0  1  0  0  0  0  0  0  0  0  0
   -9.3069    0.7296   10.4763 C   0  0  0  0  0  0  0  0  0  0  0  0
   -7.7977    0.8136   11.0126 C   0  0  0  0  0  0  0  0  0  0  0  0
   -7.8431    0.8164   12.6107 C   0  0  1  0  0  0  0  0  0  0  0  0
   -6.4400    0.9073   13.2226 C   0  0  0  0  0  0  0  0  0  0  0  0
   -9.6918    0.7428   17.3005 C   0  0  1  0  0  0  0  0  0  0  0  0
  -10.8979    1.7180   16.8310 C   0  0  0  0  0  0  0  0  0  0  0  0
  -10.8059    1.9787   15.2781 C   0  0  2  0  0  0  0  0  0  0  0  0
   -8.4636    0.7302   22.8702 F   0  0  0  0  0  0  0  0  0  0  0  0
  -12.9861   -2.8155    7.0397 N   0  0  0  0  0  0  0  0  0  0  0  0
  -11.5513    1.9926   10.5986 N   0  0  0  0  0  0  0  0  0  0  0  0
   -9.2834   -0.3384    8.0218 N   0  0  0  0  0  0  0  0  0  0  0  0
   -7.6610    3.6322   22.6009 N   0  0  0  0  0  0  0  0  0  0  0  0
   -6.4602    0.5644   14.5912 N   0  0  0  0  0  0  0  0  0  0  0  0
   -9.7906    0.5308   18.7558 N   0  0  0  0  0  0  0  0  0  0  0  0
  -11.9092    2.8583   14.8326 N   0  0  0  0  0  0  0  0  0  0  0  0
  -10.8008    0.9305   13.1367 O   0  0  0  0  0  0  0  0  0  0  0  0
   -9.9881   -1.6166   14.1609 O   0  0  0  0  0  0  0  0  0  0  0  0
   -8.9145   -1.5105   16.8955 O   0  0  0  0  0  0  0  0  0  0  0  0
   -7.3738   -1.8371   12.6109 O   0  0  0  0  0  0  0  0  0  0  0  0
  -10.8136   -2.5362   12.1546 O   0  0  0  0  0  0  0  0  0  0  0  0
  -11.9961   -5.3962   12.0338 O   0  0  0  0  0  0  0  0  0  0  0  0
   -8.7334   -2.1639   10.2466 O   0  0  0  0  0  0  0  0  0  0  0  0
  -10.3071   -0.1549   21.2041 O   0  0  0  0  0  0  0  0  0  0  0  0
   -9.8294    2.8984   19.2384 O   0  0  0  0  0  0  0  0  0  0  0  0
  -10.2795   -3.0421    8.5658 O   0  0  0  0  0  0  0  0  0  0  0  0
   -8.6631    1.9988   13.1001 O   0  0  0  0  0  0  0  0  0  0  0  0
  1 36  1  1  0  0  0
  2 36  1  6  0  0  0
  2  3  1  0  0  0  0
  3 37  1  6  0  0  0
  3  4  1  0  0  0  0
  4 38  1  1  0  0  0
  5 37  1  1  0  0  0
  5  6  1  0  0  0  0
  6  7  1  0  0  0  0
  6 39  1  6  0  0  0
  7 42  1  6  0  0  0
  8  9  1  1  0  0  0
  8  7  1  0  0  0  0
 10 42  1  1  0  0  0
 10 11  1  0  0  0  0
 11 31  1  1  0  0  0
 11 13  1  0  0  0  0
 12 30  1  1  0  0  0
 12  1  1  0  0  0  0
 14 13  1  0  0  0  0
 15 16  1  1  0  0  0
 15 14  1  0  0  0  0
 17 19  1  1  0  0  0
 17 28  1  0  0  0  0
 18 34  1  0  0  0  0
 19 32  1  0  0  0  0
 20 18  1  6  0  0  0
 20 17  1  0  0  0  0
 20 43  1  0  0  0  0
 21 12  1  0  0  0  0
 22 21  1  0  0  0  0
 22 23  1  0  0  0  0
 23 24  1  1  0  0  0
 23 46  1  0  0  0  0
 24 33  1  0  0  0  0
 25 34  1  1  0  0  0
 25  4  1  0  0  0  0
 26 25  1  0  0  0  0
 27 35  1  6  0  0  0
 27 26  1  0  0  0  0
 27  2  1  0  0  0  0
 29 16  1  0  0  0  0
 40  8  1  0  0  0  0
 40  5  1  0  0  0  0
 41  9  1  0  0  0  0
 44 18  2  0  0  0  0
 45 15  1  0  0  0  0
 45 10  1  0  0  0  0
 46  1  1  0  0  0  0
M  END
>  <CHROM.1>
176.58916396,-91.95727606,73.28577816,105.39554781,170.71387330,-172.98578035
-170.37067453,-58.52235447,178.35413836,107.40386562,80.15620818,-164.77634797
-169.45761144,-9.63201994,-0.43588429,13.70629792,-1.88681697,1.34891635
1.55103862

>  <Name>
lig.pdb

>  <RI>
0

>  <Rbt.Current_Directory>
/home/afrankz/demos/rdock_decoys_rna/rnas/3wru

>  <Rbt.Executable>
rbdock ($Id: //depot/dev/client3/rdock/2013.1/src/exe/rbdock.cxx#4 $)

>  <Rbt.Library>
libRbt.so (2013.1, Build901 2013/11/27)

>  <Rbt.Parameter_File>
/export/apps/rDock/src/rDock_2013.1_src/data/scripts/dock_solv.prm

>  <Rbt.Receptor>
prm/blind_docking_60.prm

>  <SCORE>
10.5225

>  <SCORE.INTER>
3.08585

>  <SCORE.INTER.CONST>
1

>  <SCORE.INTER.POLAR>
0

>  <SCORE.INTER.ROT>
13

>  <SCORE.INTER.SOLV>
27.2638

>  <SCORE.INTER.VDW>
-19.2974

>  <SCORE.INTER.norm>
0.0670837

>  <SCORE.INTRA>
2.87862

>  <SCORE.INTRA.DIHEDRAL>
-3.05939

>  <SCORE.INTRA.DIHEDRAL.0>
19.7146

>  <SCORE.INTRA.POLAR>
0

>  <SCORE.INTRA.POLAR.0>
0

>  <SCORE.INTRA.REPUL>
0

>  <SCORE.INTRA.REPUL.0>
0

>  <SCORE.INTRA.SOLV>
4.3352

>  <SCORE.INTRA.SOLV.lig_0>
-116.697

>  <SCORE.INTRA.VDW>
2.24072

>  <SCORE.INTRA.VDW.0>
-7.06424

>  <SCORE.INTRA.norm>
0.0625787

>  <SCORE.RESTR>
4.55804

>  <SCORE.RESTR.CAVITY>
4.55804

>  <SCORE.RESTR.norm>
0.0990878

>  <SCORE.SYSTEM>
0

>  <SCORE.SYSTEM.CONST>
0

>  <SCORE.SYSTEM.DIHEDRAL>
0

>  <SCORE.SYSTEM.SOLV>
0

>  <SCORE.SYSTEM.norm>
0

>  <SCORE.heavy>
46

>  <SCORE.norm>
0.22875

>  <RMSD>
27.690

$$$$
lig.pdb
 OpenBabel03061811583D
libRbt.so/2013.1/901 2013/11/27
 46 49  0  0  0  0  0  0  0  0999 V2000
   -9.3194    1.8675   12.6250 C   0  0  1  0  0  0  0  0  0  0  0  0
   -9.9500    0.6522   14.7541 C   0  0  1  0  0  0  0  0  0  0  0  0
   -9.7213   -0.7500   15.3955 C   0  0  1  0  0  0  0  0  0  0  0  0
  -10.4417   -0.7863   16.8386 C   0  0  2  0  0  0  0  0  0  0  0  0
  -10.0315   -1.9818   13.1990 C   0  0  2  0  0  0  0  0  0  0  0  0
   -8.7046   -2.7711   13.0118 C   0  0  1  0  0  0  0  0  0  0  0  0
   -9.0132   -3.3802   11.6654 C   0  0  1  0  0  0  0  0  0  0  0  0
  -10.4740   -3.9166   11.7979 C   0  0  1  0  0  0  0  0  0  0  0  0
  -10.6554   -5.3172   12.4814 C   0  0  0  0  0  0  0  0  0  0  0  0
   -9.4825   -2.5894    9.3767 C   0  0  1  0  0  0  0  0  0  0  0  0
   -8.7115   -2.0677    8.2010 C   0  0  1  0  0  0  0  0  0  0  0  0
   -9.3828    1.4254   11.1438 C   0  0  1  0  0  0  0  0  0  0  0  0
   -9.5059   -2.4129    6.8917 C   0  0  0  0  0  0  0  0  0  0  0  0
  -10.8210   -1.8437    6.8194 C   0  0  0  0  0  0  0  0  0  0  0  0
  -11.6083   -2.3534    7.9218 C   0  0  2  0  0  0  0  0  0  0  0  0
  -13.0690   -1.7529    7.9007 C   0  0  0  0  0  0  0  0  0  0  0  0
   -9.7067    0.7443   22.4396 C   0  0  2  0  0  0  0  0  0  0  0  0
   -9.7992    1.1735   20.1244 C   0  0  0  0  0  0  0  0  0  0  0  0
   -9.0114    1.9072   22.7117 C   0  0  0  0  0  0  0  0  0  0  0  0
  -10.6358    1.0035   21.4862 C   0  0  1  0  0  0  0  0  0  0  0  0
   -8.0373    0.6852   10.7085 C   0  0  0  0  0  0  0  0  0  0  0  0
   -6.8111    1.6899   10.9522 C   0  0  0  0  0  0  0  0  0  0  0  0
   -6.7928    2.0764   12.5034 C   0  0  1  0  0  0  0  0  0  0  0  0
   -5.6558    3.0497   12.8370 C   0  0  0  0  0  0  0  0  0  0  0  0
   -9.7493    0.3077   17.7631 C   0  0  1  0  0  0  0  0  0  0  0  0
  -10.0400    1.7391   17.0613 C   0  0  0  0  0  0  0  0  0  0  0  0
   -9.3683    1.7856   15.6349 C   0  0  2  0  0  0  0  0  0  0  0  0
  -10.2777    0.2258   23.6622 F   0  0  0  0  0  0  0  0  0  0  0  0
  -13.8624   -2.1221    6.6144 N   0  0  0  0  0  0  0  0  0  0  0  0
  -10.5989    0.5485   10.9667 N   0  0  0  0  0  0  0  0  0  0  0  0
   -8.5599   -0.6783    8.1868 N   0  0  0  0  0  0  0  0  0  0  0  0
   -7.9332    2.1694   23.5893 N   0  0  0  0  0  0  0  0  0  0  0  0
   -4.3963    2.4406   12.6537 N   0  0  0  0  0  0  0  0  0  0  0  0
  -10.3713    0.2980   19.0993 N   0  0  0  0  0  0  0  0  0  0  0  0
   -9.6362    3.0833   14.9763 N   0  0  0  0  0  0  0  0  0  0  0  0
   -9.2940    0.7358   13.4955 O   0  0  0  0  0  0  0  0  0  0  0  0
  -10.3221   -1.7569   14.4584 O   0  0  0  0  0  0  0  0  0  0  0  0
  -10.2251   -2.0322   17.3835 O   0  0  0  0  0  0  0  0  0  0  0  0
   -7.6502   -1.8572   12.9969 O   0  0  0  0  0  0  0  0  0  0  0  0
  -11.0282   -2.7599   12.4464 O   0  0  0  0  0  0  0  0  0  0  0  0
  -12.0184   -5.7307   12.2594 O   0  0  0  0  0  0  0  0  0  0  0  0
   -8.9109   -2.3057   10.5980 O   0  0  0  0  0  0  0  0  0  0  0  0
  -11.6014   -0.0598   21.3341 O   0  0  0  0  0  0  0  0  0  0  0  0
   -8.8343    1.9419   19.9796 O   0  0  0  0  0  0  0  0  0  0  0  0
  -10.9281   -2.0523    9.2365 O   0  0  0  0  0  0  0  0  0  0  0  0
   -8.1133    2.7231   12.8881 O   0  0  0  0  0  0  0  0  0  0  0  0
  1 36  1  1  0  0  0
  2 36  1  6  0  0  0
  2  3  1  0  0  0  0
  3 37  1  6  0  0  0
  3  4  1  0  0  0  0
  4 38  1  1  0  0  0
  5 37  1  1  0  0  0
  5  6  1  0  0  0  0
  6  7  1  0  0  0  0
  6 39  1  6  0  0  0
  7 42  1  6  0  0  0
  8  9  1  1  0  0  0
  8  7  1  0  0  0  0
 10 42  1  1  0  0  0
 10 11  1  0  0  0  0
 11 31  1  1  0  0  0
 11 13  1  0  0  0  0
 12 30  1  1  0  0  0
 12  1  1  0  0  0  0
 14 13  1  0  0  0  0
 15 16  1  1  0  0  0
 15 14  1  0  0  0  0
 17 19  1  1  0  0  0
 17 28  1  0  0  0  0
 18 34  1  0  0  0  0
 19 32  1  0  0  0  0
 20 18  1  6  0  0  0
 20 17  1  0  0  0  0
 20 43  1  0  0  0  0
 21 12  1  0  0  0  0
 22 21  1  0  0  0  0
 22 23  1  0  0  0  0
 23 24  1  6  0  0  0
 23 46  1  0  0  0  0
 24 33  1  0  0  0  0
 25 34  1  1  0  0  0
 25  4  1  0  0  0  0
 26 25  1  0  0  0  0
 27 35  1  6  0  0  0
 27 26  1  0  0  0  0
 27  2  1  0  0  0  0
 29 16  1  0  0  0  0
 40  8  1  0  0  0  0
 40  5  1  0  0  0  0
 41  9  1  0  0  0  0
 44 18  2  0  0  0  0
 45 15  1  0  0  0  0
 45 10  1  0  0  0  0
 46  1  1  0  0  0  0
M  END
>  <CHROM.1>
-142.55586433,178.60536912,58.67886979,76.22870898,-163.94077004,-168.71314975
-142.67657586,61.50241067,-178.24916451,127.89698044,72.98504876,-65.84029420
175.61454967,-9.60325535,-0.43374475,14.00455653,-1.64723315,0.91966257,1.39136737

>  <Name>
lig.pdb

>  <RI>
0

>  <Rbt.Current_Directory>
/home/afrankz/demos/rdock_decoys_rna/rnas/3wru

>  <Rbt.Executable>
rbdock ($Id: //depot/dev/client3/rdock/2013.1/src/exe/rbdock.cxx#4 $)

>  <Rbt.Library>
libRbt.so (2013.1, Build901 2013/11/27)

>  <Rbt.Parameter_File>
/export/apps/rDock/src/rDock_2013.1_src/data/scripts/dock_solv.prm

>  <Rbt.Receptor>
prm/blind_docking_60.prm

>  <SCORE>
5.93494

>  <SCORE.INTER>
-3.02961

>  <SCORE.INTER.CONST>
1

>  <SCORE.INTER.POLAR>
0

>  <SCORE.INTER.ROT>
13

>  <SCORE.INTER.SOLV>
30.3722

>  <SCORE.INTER.VDW>
-24.4105

>  <SCORE.INTER.norm>
-0.0658612

>  <SCORE.INTRA>
5.71189

>  <SCORE.INTRA.DIHEDRAL>
-3.72021

>  <SCORE.INTRA.DIHEDRAL.0>
19.7146

>  <SCORE.INTRA.POLAR>
0

>  <SCORE.INTRA.POLAR.0>
0

>  <SCORE.INTRA.REPUL>
0.281571

>  <SCORE.INTRA.REPUL.0>
0

>  <SCORE.INTRA.SOLV>
6.04367

>  <SCORE.INTRA.SOLV.lig_0>
-116.697

>  <SCORE.INTRA.VDW>
3.14231

>  <SCORE.INTRA.VDW.0>
-7.06424

>  <SCORE.INTRA.norm>
0.124172

>  <SCORE.RESTR>
3.25266

>  <SCORE.RESTR.CAVITY>
3.25266

>  <SCORE.RESTR.norm>
0.0707101

>  <SCORE.SYSTEM>
0

>  <SCORE.SYSTEM.CONST>
0

>  <SCORE.SYSTEM.DIHEDRAL>
0

>  <SCORE.SYSTEM.SOLV>
0

>  <SCORE.SYSTEM.norm>
0

>  <SCORE.heavy>
46

>  <SCORE.norm>
0.12902

>  <RMSD>
27.720

$$$$
lig.pdb
 OpenBabel03061811583D
libRbt.so/2013.1/901 2013/11/27
 46 49  0  0  0  0  0  0  0  0999 V2000
   -7.9912    1.2339   11.9486 C   0  0  1  0  0  0  0  0  0  0  0  0
   -8.9180   -1.0844   12.3664 C   0  0  1  0  0  0  0  0  0  0  0  0
   -8.9029   -1.8380   11.0020 C   0  0  1  0  0  0  0  0  0  0  0  0
  -10.0631   -2.9590   11.0134 C   0  0  2  0  0  0  0  0  0  0  0  0
  -10.1184   -0.7521    9.0574 C   0  0  2  0  0  0  0  0  0  0  0  0
  -10.1406    0.5826    8.2595 C   0  0  1  0  0  0  0  0  0  0  0  0
  -10.8464    0.0753    7.0253 C   0  0  1  0  0  0  0  0  0  0  0  0
  -10.1310   -1.2704    6.6839 C   0  0  1  0  0  0  0  0  0  0  0  0
   -8.7848   -1.1743    5.8837 C   0  0  0  0  0  0  0  0  0  0  0  0
  -12.9939   -1.0430    6.5550 C   0  0  1  0  0  0  0  0  0  0  0  0
  -14.4870   -0.9443    6.6545 C   0  0  1  0  0  0  0  0  0  0  0  0
   -6.6583    1.9957   12.1391 C   0  0  1  0  0  0  0  0  0  0  0  0
  -15.1211   -2.0611    5.7516 C   0  0  0  0  0  0  0  0  0  0  0  0
  -14.7623   -3.4022    6.1140 C   0  0  0  0  0  0  0  0  0  0  0  0
  -13.3270   -3.5465    5.9954 C   0  0  2  0  0  0  0  0  0  0  0  0
  -12.8692   -5.0053    6.3919 C   0  0  0  0  0  0  0  0  0  0  0  0
  -13.6032   -5.9888   11.2069 C   0  0  2  0  0  0  0  0  0  0  0  0
  -12.1411   -4.6468   12.4774 C   0  0  0  0  0  0  0  0  0  0  0  0
  -14.5357   -7.0070   11.1439 C   0  0  0  0  0  0  0  0  0  0  0  0
  -13.0856   -5.9471   12.4597 C   0  0  1  0  0  0  0  0  0  0  0  0
   -6.3238    2.1868   13.6881 C   0  0  0  0  0  0  0  0  0  0  0  0
   -7.5384    2.9830   14.3687 C   0  0  0  0  0  0  0  0  0  0  0  0
   -8.8696    2.1233   14.1575 C   0  0  1  0  0  0  0  0  0  0  0  0
  -10.0974    2.8111   14.7665 C   0  0  0  0  0  0  0  0  0  0  0  0
   -9.7294   -4.0024   12.1670 C   0  0  1  0  0  0  0  0  0  0  0  0
   -9.7830   -3.1697   13.5562 C   0  0  0  0  0  0  0  0  0  0  0  0
   -8.6744   -2.0478   13.5545 C   0  0  2  0  0  0  0  0  0  0  0  0
  -14.2195   -4.7442   10.8058 F   0  0  0  0  0  0  0  0  0  0  0  0
  -11.3605   -5.2674    6.1174 N   0  0  0  0  0  0  0  0  0  0  0  0
   -5.5750    1.2366   11.4113 N   0  0  0  0  0  0  0  0  0  0  0  0
  -14.9916   -1.1744    7.9374 N   0  0  0  0  0  0  0  0  0  0  0  0
  -14.4572   -8.3717   11.5081 N   0  0  0  0  0  0  0  0  0  0  0  0
   -9.9852    2.8998   16.1703 N   0  0  0  0  0  0  0  0  0  0  0  0
  -10.7615   -5.0540   12.2026 N   0  0  0  0  0  0  0  0  0  0  0  0
   -8.7197   -1.2704   14.8127 N   0  0  0  0  0  0  0  0  0  0  0  0
   -7.8804   -0.1133   12.4091 O   0  0  0  0  0  0  0  0  0  0  0  0
   -9.1468   -0.8086    9.9372 O   0  0  0  0  0  0  0  0  0  0  0  0
  -10.0288   -3.6095    9.8002 O   0  0  0  0  0  0  0  0  0  0  0  0
  -10.8725    1.5181    8.9919 O   0  0  0  0  0  0  0  0  0  0  0  0
  -10.0982   -1.7965    8.0210 O   0  0  0  0  0  0  0  0  0  0  0  0
   -7.8252   -0.5155    6.7342 O   0  0  0  0  0  0  0  0  0  0  0  0
  -12.3143   -0.1417    7.3452 O   0  0  0  0  0  0  0  0  0  0  0  0
  -14.0961   -5.8280   13.4850 O   0  0  0  0  0  0  0  0  0  0  0  0
  -12.5391   -3.4875   12.6781 O   0  0  0  0  0  0  0  0  0  0  0  0
  -12.6234   -2.5176    6.8487 O   0  0  0  0  0  0  0  0  0  0  0  0
   -9.1174    1.9148   12.6725 O   0  0  0  0  0  0  0  0  0  0  0  0
  1 36  1  1  0  0  0
  2 36  1  6  0  0  0
  2  3  1  0  0  0  0
  3 37  1  6  0  0  0
  3  4  1  0  0  0  0
  4 38  1  6  0  0  0
  5 37  1  1  0  0  0
  5  6  1  0  0  0  0
  6  7  1  0  0  0  0
  6 39  1  1  0  0  0
  7 42  1  1  0  0  0
  8  9  1  1  0  0  0
  8  7  1  0  0  0  0
 10 42  1  1  0  0  0
 10 11  1  0  0  0  0
 11 31  1  1  0  0  0
 11 13  1  0  0  0  0
 12 30  1  6  0  0  0
 12  1  1  0  0  0  0
 14 13  1  0  0  0  0
 15 16  1  1  0  0  0
 15 14  1  0  0  0  0
 17 19  1  1  0  0  0
 17 28  1  0  0  0  0
 18 34  1  0  0  0  0
 19 32  1  0  0  0  0
 20 18  1  6  0  0  0
 20 17  1  0  0  0  0
 20 43  1  0  0  0  0
 21 12  1  0  0  0  0
 22 21  1  0  0  0  0
 22 23  1  0  0  0  0
 23 24  1  6  0  0  0
 23 46  1  0  0  0  0
 24 33  1  0  0  0  0
 25 34  1  1  0  0  0
 25  4  1  0  0  0  0
 26 25  1  0  0  0  0
 27 35  1  1  0  0  0
 27 26  1  0  0  0  0
 27  2  1  0  0  0  0
 29 16  1  0  0  0  0
 40  8  1  0  0  0  0
 40  5  1  0  0  0  0
 41  9  1  0  0  0  0
 44 18  2  0  0  0  0
 45 15  1  0  0  0  0
 45 10  1  0  0  0  0
 46  1  1  0  0  0  0
M  END
>  <CHROM.1>
-179.38773210,87.94215822,-120.47542552,171.46552131,-156.16609733,65.54064420
-163.97233748,172.98856510,-51.44316970,-95.84644142,-174.10324436,-65.02303805
-61.15922635,-10.82953584,-1.77010355,10.34129348,-0.28177808,-0.90946327
-1.20952631

>  <Name>
lig.pdb

>  <RI>
0

>  <Rbt.Current_Directory>
/home/afrankz/demos/rdock_decoys_rna/rnas/3wru

>  <Rbt.Executable>
rbdock ($Id: //depot/dev/client3/rdock/2013.1/src/exe/rbdock.cxx#4 $)

>  <Rbt.Library>
libRbt.so (2013.1, Build901 2013/11/27)

>  <Rbt.Parameter_File>
/export/apps/rDock/src/rDock_2013.1_src/data/scripts/dock_solv.prm

>  <Rbt.Receptor>
prm/blind_docking_80.prm

>  <SCORE>
20.9366

>  <SCORE.INTER>
10.9561

>  <SCORE.INTER.CONST>
1

>  <SCORE.INTER.POLAR>
0

>  <SCORE.INTER.ROT>
13

>  <SCORE.INTER.SOLV>
36.6249

>  <SCORE.INTER.VDW>
-17.1709

>  <SCORE.INTER.norm>
0.238176

>  <SCORE.INTRA>
2.12033

>  <SCORE.INTRA.DIHEDRAL>
-2.46879

>  <SCORE.INTRA.DIHEDRAL.0>
19.7146

>  <SCORE.INTRA.POLAR>
0

>  <SCORE.INTRA.POLAR.0>
0

>  <SCORE.INTRA.REPUL>
0

>  <SCORE.INTRA.REPUL.0>
0

>  <SCORE.INTRA.SOLV>
-0.0466827

>  <SCORE.INTRA.SOLV.lig_0>
-116.697

>  <SCORE.INTRA.VDW>
3.37807

>  <SCORE.INTRA.VDW.0>
-7.06424

>  <SCORE.INTRA.norm>
0.0460941

>  <SCORE.RESTR>
7.86012

>  <SCORE.RESTR.CAVITY>
7.86012

>  <SCORE.RESTR.norm>
0.170872

>  <SCORE.SYSTEM>
0

>  <SCORE.SYSTEM.CONST>
0

>  <SCORE.SYSTEM.DIHEDRAL>
0

>  <SCORE.SYSTEM.SOLV>
0

>  <SCORE.SYSTEM.norm>
0

>  <SCORE.heavy>
46

>  <SCORE.norm>
0.455143

>  <RMSD>
27.721

$$$$
lig.pdb
 OpenBabel03061811583D
libRbt.so/2013.1/901 2013/11/27
 46 49  0  0  0  0  0  0  0  0999 V2000
   -7.0039    2.5802   13.3404 C   0  0  1  0  0  0  0  0  0  0  0  0
   -9.0811    1.1405   13.4839 C   0  0  1  0  0  0  0  0  0  0  0  0
   -8.4913   -0.1461   14.1370 C   0  0  1  0  0  0  0  0  0  0  0  0
   -9.6519   -0.8782   14.9855 C   0  0  2  0  0  0  0  0  0  0  0  0
   -8.5662   -1.2509   11.8541 C   0  0  2  0  0  0  0  0  0  0  0  0
  -10.1025   -1.4702   11.9563 C   0  0  1  0  0  0  0  0  0  0  0  0
  -10.4647   -1.0637   10.5483 C   0  0  1  0  0  0  0  0  0  0  0  0
   -9.6676    0.2559   10.2987 C   0  0  1  0  0  0  0  0  0  0  0  0
  -10.2996    1.5811   10.8520 C   0  0  0  0  0  0  0  0  0  0  0  0
  -10.4961   -2.0610    8.2926 C   0  0  1  0  0  0  0  0  0  0  0  0
  -10.2083   -3.2645    7.4455 C   0  0  1  0  0  0  0  0  0  0  0  0
   -6.1952    3.3277   12.2539 C   0  0  1  0  0  0  0  0  0  0  0  0
  -10.7317   -2.9869    5.9918 C   0  0  0  0  0  0  0  0  0  0  0  0
  -10.1282   -1.8595    5.3412 C   0  0  0  0  0  0  0  0  0  0  0  0
  -10.4157   -0.6696    6.1135 C   0  0  2  0  0  0  0  0  0  0  0  0
   -9.7667    0.6081    5.4491 C   0  0  0  0  0  0  0  0  0  0  0  0
  -12.1953   -1.2664   19.8577 C   0  0  2  0  0  0  0  0  0  0  0  0
  -11.6950    0.2181   18.0973 C   0  0  0  0  0  0  0  0  0  0  0  0
  -11.9068   -0.3157   20.8184 C   0  0  0  0  0  0  0  0  0  0  0  0
  -12.8280   -0.6623   18.8213 C   0  0  1  0  0  0  0  0  0  0  0  0
   -5.4259    2.3010   11.3042 C   0  0  0  0  0  0  0  0  0  0  0  0
   -4.4609    1.4012   12.2160 C   0  0  0  0  0  0  0  0  0  0  0  0
   -5.3681    0.6402   13.2902 C   0  0  1  0  0  0  0  0  0  0  0  0
   -4.5307   -0.2425   14.2234 C   0  0  0  0  0  0  0  0  0  0  0  0
  -10.1116    0.1084   16.1457 C   0  0  1  0  0  0  0  0  0  0  0  0
  -10.7346    1.4102   15.4089 C   0  0  0  0  0  0  0  0  0  0  0  0
   -9.6226    2.1259   14.5491 C   0  0  2  0  0  0  0  0  0  0  0  0
  -12.9696   -2.3331   20.4511 F   0  0  0  0  0  0  0  0  0  0  0  0
   -8.2266    0.4858    5.2669 N   0  0  0  0  0  0  0  0  0  0  0  0
   -7.1467    4.2124   11.4850 N   0  0  0  0  0  0  0  0  0  0  0  0
   -8.8479   -3.5507    7.3010 N   0  0  0  0  0  0  0  0  0  0  0  0
  -12.7488    0.4740   21.6362 N   0  0  0  0  0  0  0  0  0  0  0  0
   -3.6048   -1.0175   13.4933 N   0  0  0  0  0  0  0  0  0  0  0  0
  -11.1652   -0.5298   16.9552 N   0  0  0  0  0  0  0  0  0  0  0  0
  -10.1806    3.3103   13.8598 N   0  0  0  0  0  0  0  0  0  0  0  0
   -8.0748    1.8357   12.7590 O   0  0  0  0  0  0  0  0  0  0  0  0
   -8.0026   -1.0150   13.0150 O   0  0  0  0  0  0  0  0  0  0  0  0
   -9.1068   -2.0089   15.5516 O   0  0  0  0  0  0  0  0  0  0  0  0
  -10.3344   -2.8169   12.2393 O   0  0  0  0  0  0  0  0  0  0  0  0
   -8.4156   -0.1882   10.8475 O   0  0  0  0  0  0  0  0  0  0  0  0
  -11.3091    2.0010    9.9125 O   0  0  0  0  0  0  0  0  0  0  0  0
  -10.0386   -2.1599    9.5887 O   0  0  0  0  0  0  0  0  0  0  0  0
  -13.3909   -1.6007   17.8785 O   0  0  0  0  0  0  0  0  0  0  0  0
  -11.3490    1.3561   18.4550 O   0  0  0  0  0  0  0  0  0  0  0  0
   -9.9300   -0.8354    7.5342 O   0  0  0  0  0  0  0  0  0  0  0  0
   -6.1272    1.6527   14.1321 O   0  0  0  0  0  0  0  0  0  0  0  0
  1 36  1  6  0  0  0
  2 36  1  1  0  0  0
  2  3  1  0  0  0  0
  3 37  1  6  0  0  0
  3  4  1  0  0  0  0
  4 38  1  1  0  0  0
  5 37  1  1  0  0  0
  5  6  1  0  0  0  0
  6  7  1  0  0  0  0
  6 39  1  6  0  0  0
  7 42  1  6  0  0  0
  8  9  1  1  0  0  0
  8  7  1  0  0  0  0
 10 42  1  1  0  0  0
 10 11  1  0  0  0  0
 11 31  1  6  0  0  0
 11 13  1  0  0  0  0
 12 30  1  6  0  0  0
 12  1  1  0  0  0  0
 14 13  1  0  0  0  0
 15 16  1  6  0  0  0
 15 14  1  0  0  0  0
 17 19  1  1  0  0  0
 17 28  1  0  0  0  0
 18 34  1  0  0  0  0
 19 32  1  0  0  0  0
 20 18  1  6  0  0  0
 20 17  1  0  0  0  0
 20 43  1  0  0  0  0
 21 12  1  0  0  0  0
 22 21  1  0  0  0  0
 22 23  1  0  0  0  0
 23 24  1  1  0  0  0
 23 46  1  0  0  0  0
 24 33  1  0  0  0  0
 25 34  1  1  0  0  0
 25  4  1  0  0  0  0
 26 25  1  0  0  0  0
 27 35  1  6  0  0  0
 27 26  1  0  0  0  0
 27  2  1  0  0  0  0
 29 16  1  0  0  0  0
 40  8  1  0  0  0  0
 40  5  1  0  0  0  0
 41  9  1  0  0  0  0
 44 18  2  0  0  0  0
 45 15  1  0  0  0  0
 45 10  1  0  0  0  0
 46  1  1  0  0  0  0
M  END
>  <CHROM.1>
-173.77922011,-72.80496490,-40.85480938,-41.91460770,169.16496756,-80.40459907
-171.72633849,-57.23523959,65.19806402,97.24127935,71.21609542,-46.79542694
178.57464754,-9.39975516,-0.09409774,12.85932789,-1.82497279,-0.55689995
-1.74493587

>  <Name>
lig.pdb

>  <RI>
0

>  <Rbt.Current_Directory>
/home/afrankz/demos/rdock_decoys_rna/rnas/3wru

>  <Rbt.Executable>
rbdock ($Id: //depot/dev/client3/rdock/2013.1/src/exe/rbdock.cxx#4 $)

>  <Rbt.Library>
libRbt.so (2013.1, Build901 2013/11/27)

>  <Rbt.Parameter_File>
/export/apps/rDock/src/rDock_2013.1_src/data/scripts/dock_solv.prm

>  <Rbt.Receptor>
prm/blind_docking_100.prm

>  <SCORE>
10.362

>  <SCORE.INTER>
10.0137

>  <SCORE.INTER.CONST>
1

>  <SCORE.INTER.POLAR>
0

>  <SCORE.INTER.ROT>
13

>  <SCORE.INTER.SOLV>
32.5223

>  <SCORE.INTER.VDW>
-16.4317

>  <SCORE.INTER.norm>
0.217688

>  <SCORE.INTRA>
-1.38636

>  <SCORE.INTRA.DIHEDRAL>
-10.049

>  <SCORE.INTRA.DIHEDRAL.0>
19.7146

>  <SCORE.INTRA.POLAR>
0

>  <SCORE.INTRA.POLAR.0>
0

>  <SCORE.INTRA.REPUL>
0

>  <SCORE.INTRA.REPUL.0>
0

>  <SCORE.INTRA.SOLV>
1.88213

>  <SCORE.INTRA.SOLV.lig_0>
-116.697

>  <SCORE.INTRA.VDW>
2.69706

>  <SCORE.INTRA.VDW.0>
-7.06424

>  <SCORE.INTRA.norm>
-0.0301382

>  <SCORE.RESTR>
1.73468

>  <SCORE.RESTR.CAVITY>
1.73468

>  <SCORE.RESTR.norm>
0.0377104

>  <SCORE.SYSTEM>
0

>  <SCORE.SYSTEM.CONST>
0

>  <SCORE.SYSTEM.DIHEDRAL>
0

>  <SCORE.SYSTEM.SOLV>
0

>  <SCORE.SYSTEM.norm>
0

>  <SCORE.heavy>
46

>  <SCORE.norm>
0.225261

>  <RMSD>
27.733

$$$$
lig.pdb
 OpenBabel03061811583D
libRbt.so/2013.1/901 2013/11/27
 46 49  0  0  0  0  0  0  0  0999 V2000
   -7.2429    2.4466   13.5027 C   0  0  1  0  0  0  0  0  0  0  0  0
   -9.2816    1.1682   14.2883 C   0  0  1  0  0  0  0  0  0  0  0  0
   -8.6132   -0.0809   14.9385 C   0  0  1  0  0  0  0  0  0  0  0  0
   -9.5731   -0.6340   16.1113 C   0  0  2  0  0  0  0  0  0  0  0  0
   -9.3044   -1.4722   12.9323 C   0  0  2  0  0  0  0  0  0  0  0  0
   -8.6400   -2.2076   11.7339 C   0  0  1  0  0  0  0  0  0  0  0  0
   -9.8408   -3.0068   11.2888 C   0  0  1  0  0  0  0  0  0  0  0  0
  -10.4350   -3.5977   12.6067 C   0  0  1  0  0  0  0  0  0  0  0  0
   -9.7642   -4.9020   13.1641 C   0  0  0  0  0  0  0  0  0  0  0  0
  -10.5932   -1.8027    9.2719 C   0  0  1  0  0  0  0  0  0  0  0  0
  -11.2051   -0.5193    8.7951 C   0  0  1  0  0  0  0  0  0  0  0  0
   -6.6737    3.0019   12.1757 C   0  0  1  0  0  0  0  0  0  0  0  0
  -10.9066   -0.3648    7.2617 C   0  0  0  0  0  0  0  0  0  0  0  0
  -11.4343   -1.4146    6.4383 C   0  0  0  0  0  0  0  0  0  0  0  0
  -10.8378   -2.6686    6.8467 C   0  0  2  0  0  0  0  0  0  0  0  0
  -11.3890   -3.8678    5.9789 C   0  0  0  0  0  0  0  0  0  0  0  0
  -11.1126    0.5209   21.8736 C   0  0  2  0  0  0  0  0  0  0  0  0
  -10.2963    0.5443   19.6631 C   0  0  0  0  0  0  0  0  0  0  0  0
  -12.2886    1.0865   22.3289 C   0  0  0  0  0  0  0  0  0  0  0  0
  -11.3540   -0.0960   20.6901 C   0  0  1  0  0  0  0  0  0  0  0  0
   -6.1772    1.8193   11.2256 C   0  0  0  0  0  0  0  0  0  0  0  0
   -5.0648    0.9756   12.0150 C   0  0  0  0  0  0  0  0  0  0  0  0
   -5.7331    0.4118   13.3534 C   0  0  1  0  0  0  0  0  0  0  0  0
   -4.7395   -0.4040   14.1892 C   0  0  0  0  0  0  0  0  0  0  0  0
   -9.7019    0.5003   17.2193 C   0  0  1  0  0  0  0  0  0  0  0  0
  -10.4217    1.7581   16.4940 C   0  0  0  0  0  0  0  0  0  0  0  0
   -9.5123    2.2971   15.3234 C   0  0  2  0  0  0  0  0  0  0  0  0
  -10.5841   -0.3710   22.8809 F   0  0  0  0  0  0  0  0  0  0  0  0
  -11.3720   -3.5743    4.4512 N   0  0  0  0  0  0  0  0  0  0  0  0
   -7.7413    3.8472   11.5235 N   0  0  0  0  0  0  0  0  0  0  0  0
  -12.5974   -0.4724    8.9080 N   0  0  0  0  0  0  0  0  0  0  0  0
  -13.4933    0.5015   22.7848 N   0  0  0  0  0  0  0  0  0  0  0  0
   -3.7452   -0.9833   13.3726 N   0  0  0  0  0  0  0  0  0  0  0  0
  -10.5629    0.0287   18.3187 N   0  0  0  0  0  0  0  0  0  0  0  0
  -10.1631    3.4387   14.6433 N   0  0  0  0  0  0  0  0  0  0  0  0
   -8.4441    1.7088   13.2746 O   0  0  0  0  0  0  0  0  0  0  0  0
   -8.4419   -1.0966   13.8467 O   0  0  0  0  0  0  0  0  0  0  0  0
   -8.9615   -1.7345   16.6689 O   0  0  0  0  0  0  0  0  0  0  0  0
   -8.2183   -1.2490   10.8116 O   0  0  0  0  0  0  0  0  0  0  0  0
  -10.3541   -2.3958   13.3907 O   0  0  0  0  0  0  0  0  0  0  0  0
  -10.0645   -4.9718   14.5724 O   0  0  0  0  0  0  0  0  0  0  0  0
  -10.8277   -2.0809   10.6009 O   0  0  0  0  0  0  0  0  0  0  0  0
  -11.1679   -1.5270   20.7505 O   0  0  0  0  0  0  0  0  0  0  0  0
   -9.4113    1.3574   19.9763 O   0  0  0  0  0  0  0  0  0  0  0  0
  -11.0882   -2.9156    8.3157 O   0  0  0  0  0  0  0  0  0  0  0  0
   -6.2446    1.5666   14.1990 O   0  0  0  0  0  0  0  0  0  0  0  0
  1 36  1  6  0  0  0
  2 36  1  6  0  0  0
  2  3  1  0  0  0  0
  3 37  1  6  0  0  0
  3  4  1  0  0  0  0
  4 38  1  1  0  0  0
  5 37  1  1  0  0  0
  5  6  1  0  0  0  0
  6  7  1  0  0  0  0
  6 39  1  6  0  0  0
  7 42  1  1  0  0  0
  8  9  1  1  0  0  0
  8  7  1  0  0  0  0
 10 42  1  1  0  0  0
 10 11  1  0  0  0  0
 11 31  1  6  0  0  0
 11 13  1  0  0  0  0
 12 30  1  6  0  0  0
 12  1  1  0  0  0  0
 14 13  1  0  0  0  0
 15 16  1  6  0  0  0
 15 14  1  0  0  0  0
 17 19  1  1  0  0  0
 17 28  1  0  0  0  0
 18 34  1  0  0  0  0
 19 32  1  0  0  0  0
 20 18  1  6  0  0  0
 20 17  1  0  0  0  0
 20 43  1  0  0  0  0
 21 12  1  0  0  0  0
 22 21  1  0  0  0  0
 22 23  1  0  0  0  0
 23 24  1  1  0  0  0
 23 46  1  0  0  0  0
 24 33  1  0  0  0  0
 25 34  1  1  0  0  0
 25  4  1  0  0  0  0
 26 25  1  0  0  0  0
 27 35  1  6  0  0  0
 27 26  1  0  0  0  0
 27  2  1  0  0  0  0
 29 16  1  0  0  0  0
 40  8  1  0  0  0  0
 40  5  1  0  0  0  0
 41  9  1  0  0  0  0
 44 18  2  0  0  0  0
 45 15  1  0  0  0  0
 45 10  1  0  0  0  0
 46  1  1  0  0  0  0
M  END
>  <CHROM.1>
-174.12986878,-73.64348992,-45.52901690,162.41568977,82.83814261,157.57515352
-156.47928899,47.78196809,67.50930611,-174.74099929,124.95831440,-27.43115949
149.57860028,-9.47503477,-0.49668968,13.87192671,-1.62024414,-0.68822904
-1.78176761

>  <Name>
lig.pdb

>  <RI>
0

>  <Rbt.Current_Directory>
/home/afrankz/demos/rdock_decoys_rna/rnas/3wru

>  <Rbt.Executable>
rbdock ($Id: //depot/dev/client3/rdock/2013.1/src/exe/rbdock.cxx#4 $)

>  <Rbt.Library>
libRbt.so (2013.1, Build901 2013/11/27)

>  <Rbt.Parameter_File>
/export/apps/rDock/src/rDock_2013.1_src/data/scripts/dock_solv.prm

>  <Rbt.Receptor>
prm/blind_docking_60.prm

>  <SCORE>
17.6017

>  <SCORE.INTER>
10.9684

>  <SCORE.INTER.CONST>
1

>  <SCORE.INTER.POLAR>
0

>  <SCORE.INTER.ROT>
13

>  <SCORE.INTER.SOLV>
42.6336

>  <SCORE.INTER.VDW>
-19.1656

>  <SCORE.INTER.norm>
0.238444

>  <SCORE.INTRA>
2.16381

>  <SCORE.INTRA.DIHEDRAL>
-0.0379323

>  <SCORE.INTRA.DIHEDRAL.0>
19.7146

>  <SCORE.INTRA.POLAR>
0

>  <SCORE.INTRA.POLAR.0>
0

>  <SCORE.INTRA.REPUL>
0

>  <SCORE.INTRA.REPUL.0>
0

>  <SCORE.INTRA.SOLV>
-1.06723

>  <SCORE.INTRA.SOLV.lig_0>
-116.697

>  <SCORE.INTRA.VDW>
2.71638

>  <SCORE.INTRA.VDW.0>
-7.06424

>  <SCORE.INTRA.norm>
0.0470392

>  <SCORE.RESTR>
4.46944

>  <SCORE.RESTR.CAVITY>
4.46944

>  <SCORE.RESTR.norm>
0.0971617

>  <SCORE.SYSTEM>
0

>  <SCORE.SYSTEM.CONST>
0

>  <SCORE.SYSTEM.DIHEDRAL>
0

>  <SCORE.SYSTEM.SOLV>
0

>  <SCORE.SYSTEM.norm>
0

>  <SCORE.heavy>
46

>  <SCORE.norm>
0.382645

>  <RMSD>
27.758

$$$$
lig.pdb
 OpenBabel03061811583D
libRbt.so/2013.1/901 2013/11/27
 46 49  0  0  0  0  0  0  0  0999 V2000
   -7.3879   -0.4238   12.5266 C   0  0  1  0  0  0  0  0  0  0  0  0
   -9.2725   -1.2933   13.9759 C   0  0  1  0  0  0  0  0  0  0  0  0
   -9.8741   -2.2495   12.9019 C   0  0  1  0  0  0  0  0  0  0  0  0
  -11.4176   -2.5408   13.2701 C   0  0  2  0  0  0  0  0  0  0  0  0
  -10.1183   -1.9646   10.3925 C   0  0  2  0  0  0  0  0  0  0  0  0
  -11.0861   -0.9806    9.6757 C   0  0  1  0  0  0  0  0  0  0  0  0
  -10.7770   -1.3836    8.2541 C   0  0  1  0  0  0  0  0  0  0  0  0
   -9.2183   -1.4598    8.1931 C   0  0  1  0  0  0  0  0  0  0  0  0
   -8.4503   -0.1076    7.9846 C   0  0  0  0  0  0  0  0  0  0  0  0
  -11.9246   -2.9235    6.7064 C   0  0  1  0  0  0  0  0  0  0  0  0
  -12.2989   -4.3434    6.4019 C   0  0  1  0  0  0  0  0  0  0  0  0
   -5.8410   -0.4078   12.5345 C   0  0  1  0  0  0  0  0  0  0  0  0
  -12.8109   -4.4164    4.9197 C   0  0  0  0  0  0  0  0  0  0  0  0
  -11.8514   -4.0125    3.9323 C   0  0  0  0  0  0  0  0  0  0  0  0
  -11.4915   -2.6314    4.1730 C   0  0  2  0  0  0  0  0  0  0  0  0
  -10.4268   -2.1310    3.1189 C   0  0  0  0  0  0  0  0  0  0  0  0
  -14.8516   -5.7305   16.4887 C   0  0  2  0  0  0  0  0  0  0  0  0
  -13.1021   -4.1565   16.3682 C   0  0  0  0  0  0  0  0  0  0  0  0
  -15.8758   -6.0910   17.3438 C   0  0  0  0  0  0  0  0  0  0  0  0
  -14.6821   -4.3864   16.5520 C   0  0  1  0  0  0  0  0  0  0  0  0
   -5.2836    0.5392   13.6922 C   0  0  0  0  0  0  0  0  0  0  0  0
   -5.8683    2.0142   13.4584 C   0  0  0  0  0  0  0  0  0  0  0  0
   -7.4640    1.9219   13.4931 C   0  0  1  0  0  0  0  0  0  0  0  0
   -8.1212    3.2885   13.2654 C   0  0  0  0  0  0  0  0  0  0  0  0
  -11.4578   -3.2790   14.6787 C   0  0  1  0  0  0  0  0  0  0  0  0
  -10.8450   -2.2321   15.7531 C   0  0  0  0  0  0  0  0  0  0  0  0
   -9.3430   -1.9103   15.3948 C   0  0  2  0  0  0  0  0  0  0  0  0
  -15.1474   -6.2029   15.1550 F   0  0  0  0  0  0  0  0  0  0  0  0
   -8.9769   -2.5855    3.4527 N   0  0  0  0  0  0  0  0  0  0  0  0
   -5.3570   -1.8305   12.6791 N   0  0  0  0  0  0  0  0  0  0  0  0
  -11.2322   -5.2439    6.4701 N   0  0  0  0  0  0  0  0  0  0  0  0
  -15.9922   -6.0096   18.7514 N   0  0  0  0  0  0  0  0  0  0  0  0
   -9.5232    3.2065   13.4028 N   0  0  0  0  0  0  0  0  0  0  0  0
  -12.8538   -3.5760   15.0469 N   0  0  0  0  0  0  0  0  0  0  0  0
   -8.7736   -0.9450   16.3609 N   0  0  0  0  0  0  0  0  0  0  0  0
   -7.8987   -1.0452   13.7065 O   0  0  0  0  0  0  0  0  0  0  0  0
   -9.7494   -1.5483   11.5807 O   0  0  0  0  0  0  0  0  0  0  0  0
  -11.9250   -3.3863   12.3089 O   0  0  0  0  0  0  0  0  0  0  0  0
  -12.3884   -1.2737   10.0821 O   0  0  0  0  0  0  0  0  0  0  0  0
   -9.0285   -2.1735    9.4262 O   0  0  0  0  0  0  0  0  0  0  0  0
   -9.0036    0.5251    6.8135 O   0  0  0  0  0  0  0  0  0  0  0  0
  -11.4106   -2.7336    7.9708 O   0  0  0  0  0  0  0  0  0  0  0  0
  -15.4001   -3.6770   15.5189 O   0  0  0  0  0  0  0  0  0  0  0  0
  -12.2453   -4.4207   17.2277 O   0  0  0  0  0  0  0  0  0  0  0  0
  -10.9676   -2.4627    5.5797 O   0  0  0  0  0  0  0  0  0  0  0  0
   -7.9477    0.9655   12.4154 O   0  0  0  0  0  0  0  0  0  0  0  0
  1 36  1  1  0  0  0
  2 36  1  6  0  0  0
  2  3  1  0  0  0  0
  3 37  1  6  0  0  0
  3  4  1  0  0  0  0
  4 38  1  6  0  0  0
  5 37  1  1  0  0  0
  5  6  1  0  0  0  0
  6  7  1  0  0  0  0
  6 39  1  1  0  0  0
  7 42  1  1  0  0  0
  8  9  1  1  0  0  0
  8  7  1  0  0  0  0
 10 42  1  1  0  0  0
 10 11  1  0  0  0  0
 11 31  1  6  0  0  0
 11 13  1  0  0  0  0
 12 30  1  1  0  0  0
 12  1  1  0  0  0  0
 14 13  1  0  0  0  0
 15 16  1  6  0  0  0
 15 14  1  0  0  0  0
 17 19  1  1  0  0  0
 17 28  1  0  0  0  0
 18 34  1  0  0  0  0
 19 32  1  0  0  0  0
 20 18  1  6  0  0  0
 20 17  1  0  0  0  0
 20 43  1  0  0  0  0
 21 12  1  0  0  0  0
 22 21  1  0  0  0  0
 22 23  1  0  0  0  0
 23 24  1  6  0  0  0
 23 46  1  0  0  0  0
 24 33  1  0  0  0  0
 25 34  1  1  0  0  0
 25  4  1  0  0  0  0
 26 25  1  0  0  0  0
 27 35  1  1  0  0  0
 27 26  1  0  0  0  0
 27  2  1  0  0  0  0
 29 16  1  0  0  0  0
 40  8  1  0  0  0  0
 40  5  1  0  0  0  0
 41  9  1  0  0  0  0
 44 18  2  0  0  0  0
 45 15  1  0  0  0  0
 45 10  1  0  0  0  0
 46  1  1  0  0  0  0
M  END
>  <CHROM.1>
-176.05884876,61.37043430,179.94208215,124.31246894,143.35966960,-53.41830911
169.03050189,-79.79206524,-64.43582180,108.34382328,145.45264431,-175.41909822
-174.99904118,-10.62000676,-2.14257446,11.50931842,-1.24262744,0.69031515
1.51803152

>  <Name>
lig.pdb

>  <RI>
0

>  <Rbt.Current_Directory>
/home/afrankz/demos/rdock_decoys_rna/rnas/3wru

>  <Rbt.Executable>
rbdock ($Id: //depot/dev/client3/rdock/2013.1/src/exe/rbdock.cxx#4 $)

>  <Rbt.Library>
libRbt.so (2013.1, Build901 2013/11/27)

>  <Rbt.Parameter_File>
/export/apps/rDock/src/rDock_2013.1_src/data/scripts/dock_solv.prm

>  <Rbt.Receptor>
prm/blind_docking_80.prm

>  <SCORE>
24.082

>  <SCORE.INTER>
14.6436

>  <SCORE.INTER.CONST>
1

>  <SCORE.INTER.POLAR>
0

>  <SCORE.INTER.ROT>
13

>  <SCORE.INTER.SOLV>
36.1992

>  <SCORE.INTER.VDW>
-14.5706

>  <SCORE.INTER.norm>
0.31834

>  <SCORE.INTRA>
0.137414

>  <SCORE.INTRA.DIHEDRAL>
-0.18231

>  <SCORE.INTRA.DIHEDRAL.0>
19.7146

>  <SCORE.INTRA.POLAR>
0

>  <SCORE.INTRA.POLAR.0>
0

>  <SCORE.INTRA.REPUL>
0

>  <SCORE.INTRA.REPUL.0>
0

>  <SCORE.INTRA.SOLV>
-2.58675

>  <SCORE.INTRA.SOLV.lig_0>
-116.697

>  <SCORE.INTRA.VDW>
1.52195

>  <SCORE.INTRA.VDW.0>
-7.06424

>  <SCORE.INTRA.norm>
0.00298725

>  <SCORE.RESTR>
9.30095

>  <SCORE.RESTR.CAVITY>
9.30095

>  <SCORE.RESTR.norm>
0.202195

>  <SCORE.SYSTEM>
0

>  <SCORE.SYSTEM.CONST>
0

>  <SCORE.SYSTEM.DIHEDRAL>
0

>  <SCORE.SYSTEM.SOLV>
0

>  <SCORE.SYSTEM.norm>
0

>  <SCORE.heavy>
46

>  <SCORE.norm>
0.523522

>  <RMSD>
27.781

$$$$
lig.pdb
 OpenBabel03061811583D
libRbt.so/2013.1/901 2013/11/27
 46 49  0  0  0  0  0  0  0  0999 V2000
  -11.4048    0.8294    9.0031 C   0  0  1  0  0  0  0  0  0  0  0  0
  -10.6032    1.7767   11.2095 C   0  0  1  0  0  0  0  0  0  0  0  0
   -9.2886    1.3122   11.9065 C   0  0  1  0  0  0  0  0  0  0  0  0
   -9.4214    1.5701   13.4935 C   0  0  2  0  0  0  0  0  0  0  0  0
   -8.9184   -1.1427   12.4303 C   0  0  2  0  0  0  0  0  0  0  0  0
   -8.7435   -2.5101   11.7104 C   0  0  1  0  0  0  0  0  0  0  0  0
   -7.9248   -3.2016   12.7737 C   0  0  1  0  0  0  0  0  0  0  0  0
   -6.8423   -2.1537   13.1852 C   0  0  1  0  0  0  0  0  0  0  0  0
   -5.5741   -2.0471   12.2676 C   0  0  0  0  0  0  0  0  0  0  0  0
   -9.8533   -2.6826   14.2213 C   0  0  1  0  0  0  0  0  0  0  0  0
   -9.4615   -1.5358   15.1045 C   0  0  1  0  0  0  0  0  0  0  0  0
  -11.3692   -0.6614    9.4146 C   0  0  1  0  0  0  0  0  0  0  0  0
  -10.7362   -0.6623   15.3812 C   0  0  0  0  0  0  0  0  0  0  0  0
  -11.8072   -1.3542   16.0392 C   0  0  0  0  0  0  0  0  0  0  0  0
  -12.2374   -2.4504   15.1976 C   0  0  2  0  0  0  0  0  0  0  0  0
  -13.4132   -3.2582   15.8757 C   0  0  0  0  0  0  0  0  0  0  0  0
   -9.9319    2.2852   18.0405 C   0  0  2  0  0  0  0  0  0  0  0  0
  -10.7954    2.7810   15.9047 C   0  0  0  0  0  0  0  0  0  0  0  0
   -9.7866    2.6068   19.3768 C   0  0  0  0  0  0  0  0  0  0  0  0
  -10.7154    3.2207   17.4486 C   0  0  1  0  0  0  0  0  0  0  0  0
   -9.9537   -1.3161    9.0747 C   0  0  0  0  0  0  0  0  0  0  0  0
   -9.6904   -1.1520    7.5012 C   0  0  0  0  0  0  0  0  0  0  0  0
   -9.7120    0.4095    7.1591 C   0  0  1  0  0  0  0  0  0  0  0  0
   -9.4803    0.6714    5.6661 C   0  0  0  0  0  0  0  0  0  0  0  0
   -9.5876    3.1350   13.7267 C   0  0  1  0  0  0  0  0  0  0  0  0
  -10.9763    3.5528   13.0036 C   0  0  0  0  0  0  0  0  0  0  0  0
  -10.8787    3.2813   11.4529 C   0  0  2  0  0  0  0  0  0  0  0  0
  -10.4600    0.9449   17.9211 F   0  0  0  0  0  0  0  0  0  0  0  0
  -13.0897   -3.7006   17.3317 N   0  0  0  0  0  0  0  0  0  0  0  0
  -11.7006   -0.7512   10.8848 N   0  0  0  0  0  0  0  0  0  0  0  0
   -8.9936   -1.9179   16.3649 N   0  0  0  0  0  0  0  0  0  0  0  0
   -9.3113    3.7786   20.0111 N   0  0  0  0  0  0  0  0  0  0  0  0
  -10.4488    0.0128    4.8792 N   0  0  0  0  0  0  0  0  0  0  0  0
   -9.6993    3.4155   15.1694 N   0  0  0  0  0  0  0  0  0  0  0  0
  -12.1452    3.6466   10.7806 N   0  0  0  0  0  0  0  0  0  0  0  0
  -10.5077    1.6018    9.8017 O   0  0  0  0  0  0  0  0  0  0  0  0
   -9.1303   -0.1487   11.6007 O   0  0  0  0  0  0  0  0  0  0  0  0
   -8.2500    1.1530   14.0850 O   0  0  0  0  0  0  0  0  0  0  0  0
  -10.0082   -3.0654   11.5124 O   0  0  0  0  0  0  0  0  0  0  0  0
   -7.7206   -1.0196   13.2760 O   0  0  0  0  0  0  0  0  0  0  0  0
   -4.5932   -1.2661   12.9788 O   0  0  0  0  0  0  0  0  0  0  0  0
   -8.8258   -3.5575   13.9424 O   0  0  0  0  0  0  0  0  0  0  0  0
  -12.0461    3.2790   18.0071 O   0  0  0  0  0  0  0  0  0  0  0  0
  -11.6489    2.0120   15.4328 O   0  0  0  0  0  0  0  0  0  0  0  0
  -11.0741   -3.3629   14.8880 O   0  0  0  0  0  0  0  0  0  0  0  0
  -11.0542    1.0040    7.5531 O   0  0  0  0  0  0  0  0  0  0  0  0
  1 36  1  1  0  0  0
  2 36  1  6  0  0  0
  2  3  1  0  0  0  0
  3 37  1  1  0  0  0
  3  4  1  0  0  0  0
  4 38  1  1  0  0  0
  5 37  1  6  0  0  0
  5  6  1  0  0  0  0
  6  7  1  0  0  0  0
  6 39  1  1  0  0  0
  7 42  1  1  0  0  0
  8  9  1  6  0  0  0
  8  7  1  0  0  0  0
 10 42  1  1  0  0  0
 10 11  1  0  0  0  0
 11 31  1  1  0  0  0
 11 13  1  0  0  0  0
 12 30  1  1  0  0  0
 12  1  1  0  0  0  0
 14 13  1  0  0  0  0
 15 16  1  1  0  0  0
 15 14  1  0  0  0  0
 17 19  1  1  0  0  0
 17 28  1  0  0  0  0
 18 34  1  0  0  0  0
 19 32  1  0  0  0  0
 20 18  1  6  0  0  0
 20 17  1  0  0  0  0
 20 43  1  0  0  0  0
 21 12  1  0  0  0  0
 22 21  1  0  0  0  0
 22 23  1  0  0  0  0
 23 24  1  6  0  0  0
 23 46  1  0  0  0  0
 24 33  1  0  0  0  0
 25 34  1  1  0  0  0
 25  4  1  0  0  0  0
 26 25  1  0  0  0  0
 27 35  1  6  0  0  0
 27 26  1  0  0  0  0
 27  2  1  0  0  0  0
 29 16  1  0  0  0  0
 40  8  1  0  0  0  0
 40  5  1  0  0  0  0
 41  9  1  0  0  0  0
 44 18  2  0  0  0  0
 45 15  1  0  0  0  0
 45 10  1  0  0  0  0
 46  1  1  0  0  0  0
M  END
>  <CHROM.1>
-62.63559371,123.03299426,-128.45759750,-177.21673760,-33.96122317,-167.20921203
-85.40972283,-51.74934273,-56.21379060,-90.06260560,178.72873943,57.79447145
-58.73731101,-9.98616126,0.05825293,13.16279634,1.28920102,1.31214300,-1.43103977

>  <Name>
lig.pdb

>  <RI>
0

>  <Rbt.Current_Directory>
/home/afrankz/demos/rdock_decoys_rna/rnas/3wru

>  <Rbt.Executable>
rbdock ($Id: //depot/dev/client3/rdock/2013.1/src/exe/rbdock.cxx#4 $)

>  <Rbt.Library>
libRbt.so (2013.1, Build901 2013/11/27)

>  <Rbt.Parameter_File>
/export/apps/rDock/src/rDock_2013.1_src/data/scripts/dock_solv.prm

>  <Rbt.Receptor>
prm/blind_docking_40.prm

>  <SCORE>
38.586

>  <SCORE.INTER>
14.4265

>  <SCORE.INTER.CONST>
1

>  <SCORE.INTER.POLAR>
0

>  <SCORE.INTER.ROT>
13

>  <SCORE.INTER.SOLV>
28.3325

>  <SCORE.INTER.VDW>
-12.0931

>  <SCORE.INTER.norm>
0.313621

>  <SCORE.INTRA>
17.2156

>  <SCORE.INTRA.DIHEDRAL>
2.63561

>  <SCORE.INTRA.DIHEDRAL.0>
19.7146

>  <SCORE.INTRA.POLAR>
0

>  <SCORE.INTRA.POLAR.0>
0

>  <SCORE.INTRA.REPUL>
0

>  <SCORE.INTRA.REPUL.0>
0

>  <SCORE.INTRA.SOLV>
8.40376

>  <SCORE.INTRA.SOLV.lig_0>
-116.697

>  <SCORE.INTRA.VDW>
11.6959

>  <SCORE.INTRA.VDW.0>
-7.06424

>  <SCORE.INTRA.norm>
0.374251

>  <SCORE.RESTR>
6.94389

>  <SCORE.RESTR.CAVITY>
6.94389

>  <SCORE.RESTR.norm>
0.150954

>  <SCORE.SYSTEM>
0

>  <SCORE.SYSTEM.CONST>
0

>  <SCORE.SYSTEM.DIHEDRAL>
0

>  <SCORE.SYSTEM.SOLV>
0

>  <SCORE.SYSTEM.norm>
0

>  <SCORE.heavy>
46

>  <SCORE.norm>
0.838826

>  <RMSD>
27.782

$$$$
lig.pdb
 OpenBabel03061811583D
libRbt.so/2013.1/901 2013/11/27
 46 49  0  0  0  0  0  0  0  0999 V2000
   -8.3067    1.3731   12.0881 C   0  0  1  0  0  0  0  0  0  0  0  0
  -10.0555    0.7589   13.8121 C   0  0  1  0  0  0  0  0  0  0  0  0
   -9.3101   -0.2143   14.7749 C   0  0  1  0  0  0  0  0  0  0  0  0
   -9.9492   -0.0785   16.2500 C   0  0  2  0  0  0  0  0  0  0  0  0
   -9.4498   -1.9952   12.9730 C   0  0  2  0  0  0  0  0  0  0  0  0
   -8.6844   -3.3367   12.7905 C   0  0  1  0  0  0  0  0  0  0  0  0
   -9.3510   -3.7841   11.5121 C   0  0  1  0  0  0  0  0  0  0  0  0
  -10.8746   -3.5383   11.7518 C   0  0  1  0  0  0  0  0  0  0  0  0
  -11.6530   -4.6405   12.5523 C   0  0  0  0  0  0  0  0  0  0  0  0
   -9.5903   -2.9289    9.2110 C   0  0  1  0  0  0  0  0  0  0  0  0
   -8.9535   -3.6149    8.0394 C   0  0  1  0  0  0  0  0  0  0  0  0
   -7.7861    0.7984   10.7495 C   0  0  1  0  0  0  0  0  0  0  0  0
   -9.9031   -3.4651    6.7983 C   0  0  0  0  0  0  0  0  0  0  0  0
  -10.1651   -2.1111    6.4025 C   0  0  0  0  0  0  0  0  0  0  0  0
  -10.8141   -1.4246    7.4991 C   0  0  2  0  0  0  0  0  0  0  0  0
  -11.1206    0.0790    7.1248 C   0  0  0  0  0  0  0  0  0  0  0  0
  -12.2707    2.2698   19.9422 C   0  0  2  0  0  0  0  0  0  0  0  0
  -10.4382    2.9360   18.6189 C   0  0  0  0  0  0  0  0  0  0  0  0
  -12.4255    1.3186   20.9329 C   0  0  0  0  0  0  0  0  0  0  0  0
  -11.0646    2.8703   20.0976 C   0  0  1  0  0  0  0  0  0  0  0  0
   -7.2802   -0.7047   10.9292 C   0  0  0  0  0  0  0  0  0  0  0  0
   -6.1255   -0.7153   12.0422 C   0  0  0  0  0  0  0  0  0  0  0  0
   -6.7446   -0.1384   13.3986 C   0  0  1  0  0  0  0  0  0  0  0  0
   -5.7082   -0.0963   14.5280 C   0  0  0  0  0  0  0  0  0  0  0  0
   -9.7093    1.4104   16.7564 C   0  0  1  0  0  0  0  0  0  0  0  0
  -10.5237    2.3697   15.7354 C   0  0  0  0  0  0  0  0  0  0  0  0
   -9.9334    2.2306   14.2793 C   0  0  2  0  0  0  0  0  0  0  0  0
  -13.3771    3.1989   19.9877 F   0  0  0  0  0  0  0  0  0  0  0  0
   -9.8818    0.8325    6.5610 N   0  0  0  0  0  0  0  0  0  0  0  0
   -8.8926    0.9093    9.7283 N   0  0  0  0  0  0  0  0  0  0  0  0
   -7.7348   -3.0573    7.6427 N   0  0  0  0  0  0  0  0  0  0  0  0
  -11.6001    0.2420   21.3338 N   0  0  0  0  0  0  0  0  0  0  0  0
   -4.4989    0.4807   14.0857 N   0  0  0  0  0  0  0  0  0  0  0  0
  -10.2684    1.5732   18.1104 N   0  0  0  0  0  0  0  0  0  0  0  0
  -10.6761    3.0921   13.3330 N   0  0  0  0  0  0  0  0  0  0  0  0
   -9.4920    0.6965   12.5083 O   0  0  0  0  0  0  0  0  0  0  0  0
   -9.4981   -1.5971   14.2221 O   0  0  0  0  0  0  0  0  0  0  0  0
   -9.2748   -0.9459   17.0800 O   0  0  0  0  0  0  0  0  0  0  0  0
   -7.3254   -3.0503   12.6559 O   0  0  0  0  0  0  0  0  0  0  0  0
  -10.7527   -2.2281   12.3300 O   0  0  0  0  0  0  0  0  0  0  0  0
  -12.6486   -3.9698   13.3505 O   0  0  0  0  0  0  0  0  0  0  0  0
   -8.8281   -2.9470   10.3589 O   0  0  0  0  0  0  0  0  0  0  0  0
  -11.1634    4.2039   20.6435 O   0  0  0  0  0  0  0  0  0  0  0  0
  -10.1636    3.9856   18.0143 O   0  0  0  0  0  0  0  0  0  0  0  0
   -9.9618   -1.5000    8.7440 O   0  0  0  0  0  0  0  0  0  0  0  0
   -7.2673    1.2700   13.1674 O   0  0  0  0  0  0  0  0  0  0  0  0
  1 36  1  1  0  0  0
  2 36  1  6  0  0  0
  2  3  1  0  0  0  0
  3 37  1  6  0  0  0
  3  4  1  0  0  0  0
  4 38  1  1  0  0  0
  5 37  1  1  0  0  0
  5  6  1  0  0  0  0
  6  7  1  0  0  0  0
  6 39  1  6  0  0  0
  7 42  1  6  0  0  0
  8  9  1  1  0  0  0
  8  7  1  0  0  0  0
 10 42  1  1  0  0  0
 10 11  1  0  0  0  0
 11 31  1  6  0  0  0
 11 13  1  0  0  0  0
 12 30  1  6  0  0  0
 12  1  1  0  0  0  0
 14 13  1  0  0  0  0
 15 16  1  6  0  0  0
 15 14  1  0  0  0  0
 17 19  1  1  0  0  0
 17 28  1  0  0  0  0
 18 34  1  0  0  0  0
 19 32  1  0  0  0  0
 20 18  1  6  0  0  0
 20 17  1  0  0  0  0
 20 43  1  0  0  0  0
 21 12  1  0  0  0  0
 22 21  1  0  0  0  0
 22 23  1  0  0  0  0
 23 24  1  1  0  0  0
 23 46  1  0  0  0  0
 24 33  1  0  0  0  0
 25 34  1  1  0  0  0
 25  4  1  0  0  0  0
 26 25  1  0  0  0  0
 27 35  1  6  0  0  0
 27 26  1  0  0  0  0
 27  2  1  0  0  0  0
 29 16  1  0  0  0  0
 40  8  1  0  0  0  0
 40  5  1  0  0  0  0
 41  9  1  0  0  0  0
 44 18  2  0  0  0  0
 45 15  1  0  0  0  0
 45 10  1  0  0  0  0
 46  1  1  0  0  0  0
M  END
>  <CHROM.1>
165.09784006,-80.86637390,41.31798088,137.73834268,-161.10231783,144.95817153
-111.85367314,-50.78566516,-52.96734725,-61.65785931,135.11134071,47.54348518
-165.54336260,-9.62695761,-0.27212587,13.43372695,-1.32711480,0.85250623
0.98605138

>  <Name>
lig.pdb

>  <RI>
0

>  <Rbt.Current_Directory>
/home/afrankz/demos/rdock_decoys_rna/rnas/3wru

>  <Rbt.Executable>
rbdock ($Id: //depot/dev/client3/rdock/2013.1/src/exe/rbdock.cxx#4 $)

>  <Rbt.Library>
libRbt.so (2013.1, Build901 2013/11/27)

>  <Rbt.Parameter_File>
/export/apps/rDock/src/rDock_2013.1_src/data/scripts/dock_solv.prm

>  <Rbt.Receptor>
prm/blind_docking_40.prm

>  <SCORE>
24.7029

>  <SCORE.INTER>
9.14943

>  <SCORE.INTER.CONST>
1

>  <SCORE.INTER.POLAR>
0

>  <SCORE.INTER.ROT>
13

>  <SCORE.INTER.SOLV>
30.8825

>  <SCORE.INTER.VDW>
-16.4612

>  <SCORE.INTER.norm>
0.198901

>  <SCORE.INTRA>
10.6152

>  <SCORE.INTRA.DIHEDRAL>
8.52

>  <SCORE.INTRA.DIHEDRAL.0>
19.7146

>  <SCORE.INTRA.POLAR>
0

>  <SCORE.INTRA.POLAR.0>
0

>  <SCORE.INTRA.REPUL>
0.0185584

>  <SCORE.INTRA.REPUL.0>
0

>  <SCORE.INTRA.SOLV>
5.53982

>  <SCORE.INTRA.SOLV.lig_0>
-116.697

>  <SCORE.INTRA.VDW>
3.49254

>  <SCORE.INTRA.VDW.0>
-7.06424

>  <SCORE.INTRA.norm>
0.230766

>  <SCORE.RESTR>
4.93818

>  <SCORE.RESTR.CAVITY>
4.93818

>  <SCORE.RESTR.norm>
0.107352

>  <SCORE.SYSTEM>
0

>  <SCORE.SYSTEM.CONST>
0

>  <SCORE.SYSTEM.DIHEDRAL>
0

>  <SCORE.SYSTEM.SOLV>
0

>  <SCORE.SYSTEM.norm>
0

>  <SCORE.heavy>
46

>  <SCORE.norm>
0.537019

>  <RMSD>
27.791

$$$$
lig.pdb
 OpenBabel03061811583D
libRbt.so/2013.1/901 2013/11/27
 46 49  0  0  0  0  0  0  0  0999 V2000
   -8.0649    2.3896   15.0535 C   0  0  1  0  0  0  0  0  0  0  0  0
   -9.4747    0.3011   15.2957 C   0  0  1  0  0  0  0  0  0  0  0  0
   -9.4754   -1.0703   14.5547 C   0  0  1  0  0  0  0  0  0  0  0  0
  -10.8756   -1.8177   14.8438 C   0  0  2  0  0  0  0  0  0  0  0  0
   -9.5297   -1.5544   12.0645 C   0  0  2  0  0  0  0  0  0  0  0  0
   -9.0440   -0.9448   10.7187 C   0  0  1  0  0  0  0  0  0  0  0  0
   -8.8456   -2.2374    9.9646 C   0  0  1  0  0  0  0  0  0  0  0  0
   -8.0840   -3.1664   10.9628 C   0  0  1  0  0  0  0  0  0  0  0  0
   -6.5297   -2.9769   11.0621 C   0  0  0  0  0  0  0  0  0  0  0  0
  -10.6264   -2.6137    8.3001 C   0  0  1  0  0  0  0  0  0  0  0  0
   -9.8738   -3.4118    7.2776 C   0  0  1  0  0  0  0  0  0  0  0  0
   -9.2106    3.0631   14.2615 C   0  0  1  0  0  0  0  0  0  0  0  0
  -10.4241   -3.0431    5.8544 C   0  0  0  0  0  0  0  0  0  0  0  0
  -10.2846   -1.6608    5.4961 C   0  0  0  0  0  0  0  0  0  0  0  0
  -11.0297   -0.8587    6.4430 C   0  0  2  0  0  0  0  0  0  0  0  0
  -10.9059    0.6791    6.1045 C   0  0  0  0  0  0  0  0  0  0  0  0
  -14.1881   -4.9055   16.2149 C   0  0  2  0  0  0  0  0  0  0  0  0
  -12.1580   -4.1784   17.1652 C   0  0  0  0  0  0  0  0  0  0  0  0
  -15.3733   -5.6033   16.3511 C   0  0  0  0  0  0  0  0  0  0  0  0
  -13.6434   -4.7254   17.4438 C   0  0  1  0  0  0  0  0  0  0  0  0
   -9.1536    2.6612   12.7178 C   0  0  0  0  0  0  0  0  0  0  0  0
   -7.7242    3.1003   12.1380 C   0  0  0  0  0  0  0  0  0  0  0  0
   -6.5973    2.3441   12.9832 C   0  0  1  0  0  0  0  0  0  0  0  0
   -5.1853    2.7099   12.5099 C   0  0  0  0  0  0  0  0  0  0  0  0
  -10.9746   -2.0920   16.4077 C   0  0  1  0  0  0  0  0  0  0  0  0
  -10.9937   -0.6363   17.1195 C   0  0  0  0  0  0  0  0  0  0  0  0
   -9.6439    0.1248   16.8251 C   0  0  2  0  0  0  0  0  0  0  0  0
  -14.4360   -3.6643   15.5167 F   0  0  0  0  0  0  0  0  0  0  0  0
   -9.4407    1.1995    6.1556 N   0  0  0  0  0  0  0  0  0  0  0  0
  -10.5195    2.6722   14.9045 N   0  0  0  0  0  0  0  0  0  0  0  0
   -8.5049   -3.1340    7.2289 N   0  0  0  0  0  0  0  0  0  0  0  0
  -16.1634   -6.2994   15.4063 N   0  0  0  0  0  0  0  0  0  0  0  0
   -4.2243    1.8319   13.0546 N   0  0  0  0  0  0  0  0  0  0  0  0
  -12.2375   -2.7877   16.7134 N   0  0  0  0  0  0  0  0  0  0  0  0
   -9.6522    1.4618   17.4589 N   0  0  0  0  0  0  0  0  0  0  0  0
   -8.2375    0.9727   15.0967 O   0  0  0  0  0  0  0  0  0  0  0  0
   -9.3057   -0.7719   13.0935 O   0  0  0  0  0  0  0  0  0  0  0  0
  -10.8511   -3.0240   14.1802 O   0  0  0  0  0  0  0  0  0  0  0  0
  -10.0630   -0.1380   10.2107 O   0  0  0  0  0  0  0  0  0  0  0  0
   -8.8857   -2.8763   12.1199 O   0  0  0  0  0  0  0  0  0  0  0  0
   -6.2801   -2.0061   12.0980 O   0  0  0  0  0  0  0  0  0  0  0  0
  -10.2015   -2.8116    9.5959 O   0  0  0  0  0  0  0  0  0  0  0  0
  -14.3696   -3.7717   18.2496 O   0  0  0  0  0  0  0  0  0  0  0  0
  -11.1197   -4.8401   17.3282 O   0  0  0  0  0  0  0  0  0  0  0  0
  -10.5564   -1.1334    7.8510 O   0  0  0  0  0  0  0  0  0  0  0  0
   -6.7255    2.7083   14.4532 O   0  0  0  0  0  0  0  0  0  0  0  0
  1 36  1  6  0  0  0
  2 36  1  1  0  0  0
  2  3  1  0  0  0  0
  3 37  1  6  0  0  0
  3  4  1  0  0  0  0
  4 38  1  6  0  0  0
  5 37  1  1  0  0  0
  5  6  1  0  0  0  0
  6  7  1  0  0  0  0
  6 39  1  6  0  0  0
  7 42  1  1  0  0  0
  8  9  1  1  0  0  0
  8  7  1  0  0  0  0
 10 42  1  1  0  0  0
 10 11  1  0  0  0  0
 11 31  1  6  0  0  0
 11 13  1  0  0  0  0
 12 30  1  1  0  0  0
 12  1  1  0  0  0  0
 14 13  1  0  0  0  0
 15 16  1  6  0  0  0
 15 14  1  0  0  0  0
 17 19  1  1  0  0  0
 17 28  1  0  0  0  0
 18 34  1  0  0  0  0
 19 32  1  0  0  0  0
 20 18  1  6  0  0  0
 20 17  1  0  0  0  0
 20 43  1  0  0  0  0
 21 12  1  0  0  0  0
 22 21  1  0  0  0  0
 22 23  1  0  0  0  0
 23 24  1  6  0  0  0
 23 46  1  0  0  0  0
 24 33  1  0  0  0  0
 25 34  1  6  0  0  0
 25  4  1  0  0  0  0
 26 25  1  0  0  0  0
 27 35  1  1  0  0  0
 27 26  1  0  0  0  0
 27  2  1  0  0  0  0
 29 16  1  0  0  0  0
 40  8  1  0  0  0  0
 40  5  1  0  0  0  0
 41  9  1  0  0  0  0
 44 18  2  0  0  0  0
 45 15  1  0  0  0  0
 45 10  1  0  0  0  0
 46  1  1  0  0  0  0
M  END
>  <CHROM.1>
-41.10839531,149.18343755,-163.83463407,-171.89990552,100.85070480,90.56646974
70.96922708,-60.80177109,-163.77126172,73.46090574,169.13367489,-167.20824694
111.55316713,-10.01137450,-1.25076936,12.77264122,-2.22751184,-0.82673380
-1.75705452

>  <Name>
lig.pdb

>  <RI>
0

>  <Rbt.Current_Directory>
/home/afrankz/demos/rdock_decoys_rna/rnas/3wru

>  <Rbt.Executable>
rbdock ($Id: //depot/dev/client3/rdock/2013.1/src/exe/rbdock.cxx#4 $)

>  <Rbt.Library>
libRbt.so (2013.1, Build901 2013/11/27)

>  <Rbt.Parameter_File>
/export/apps/rDock/src/rDock_2013.1_src/data/scripts/dock_solv.prm

>  <Rbt.Receptor>
prm/blind_docking_40.prm

>  <SCORE>
11.6474

>  <SCORE.INTER>
3.76639

>  <SCORE.INTER.CONST>
1

>  <SCORE.INTER.POLAR>
0

>  <SCORE.INTER.ROT>
13

>  <SCORE.INTER.SOLV>
34.39

>  <SCORE.INTER.VDW>
-21.2191

>  <SCORE.INTER.norm>
0.0818779

>  <SCORE.INTRA>
4.21812

>  <SCORE.INTRA.DIHEDRAL>
0.0325285

>  <SCORE.INTRA.DIHEDRAL.0>
19.7146

>  <SCORE.INTRA.POLAR>
0

>  <SCORE.INTRA.POLAR.0>
0

>  <SCORE.INTRA.REPUL>
0

>  <SCORE.INTRA.REPUL.0>
0

>  <SCORE.INTRA.SOLV>
5.05944

>  <SCORE.INTRA.SOLV.lig_0>
-116.697

>  <SCORE.INTRA.VDW>
1.67214

>  <SCORE.INTRA.VDW.0>
-7.06424

>  <SCORE.INTRA.norm>
0.0916983

>  <SCORE.RESTR>
3.66285

>  <SCORE.RESTR.CAVITY>
3.66285

>  <SCORE.RESTR.norm>
0.0796272

>  <SCORE.SYSTEM>
0

>  <SCORE.SYSTEM.CONST>
0

>  <SCORE.SYSTEM.DIHEDRAL>
0

>  <SCORE.SYSTEM.SOLV>
0

>  <SCORE.SYSTEM.norm>
0

>  <SCORE.heavy>
46

>  <SCORE.norm>
0.253203

>  <RMSD>
27.798

$$$$
lig.pdb
 OpenBabel03061811583D
libRbt.so/2013.1/901 2013/11/27
 46 49  0  0  0  0  0  0  0  0999 V2000
  -10.3045    1.9507   12.1793 C   0  0  1  0  0  0  0  0  0  0  0  0
  -10.9158    0.6662   14.2732 C   0  0  1  0  0  0  0  0  0  0  0  0
   -9.6592   -0.1618   14.6793 C   0  0  1  0  0  0  0  0  0  0  0  0
   -9.6449   -0.3338   16.2834 C   0  0  2  0  0  0  0  0  0  0  0  0
   -9.5106   -1.7887   12.7378 C   0  0  2  0  0  0  0  0  0  0  0  0
   -8.4654   -2.9311   12.5928 C   0  0  1  0  0  0  0  0  0  0  0  0
   -8.8831   -3.4231   11.2282 C   0  0  1  0  0  0  0  0  0  0  0  0
  -10.4410   -3.5095   11.2971 C   0  0  1  0  0  0  0  0  0  0  0  0
  -11.0510   -4.7962   11.9561 C   0  0  0  0  0  0  0  0  0  0  0  0
   -9.1577   -2.3789    9.0106 C   0  0  1  0  0  0  0  0  0  0  0  0
   -9.1165   -3.6458    8.2093 C   0  0  1  0  0  0  0  0  0  0  0  0
  -10.4766    1.8097   10.6484 C   0  0  1  0  0  0  0  0  0  0  0  0
   -9.9377   -3.4271    6.8894 C   0  0  0  0  0  0  0  0  0  0  0  0
   -9.4467   -2.3773    6.0435 C   0  0  0  0  0  0  0  0  0  0  0  0
   -9.5048   -1.1285    6.7729 C   0  0  2  0  0  0  0  0  0  0  0  0
   -8.9662    0.0676    5.8929 C   0  0  0  0  0  0  0  0  0  0  0  0
  -10.7945    2.1485   21.2127 C   0  0  2  0  0  0  0  0  0  0  0  0
   -9.5974    2.2332   19.1847 C   0  0  0  0  0  0  0  0  0  0  0  0
  -11.0582    1.3363   22.2994 C   0  0  0  0  0  0  0  0  0  0  0  0
   -9.5510    1.8683   20.7493 C   0  0  1  0  0  0  0  0  0  0  0  0
   -9.6885    0.5354   10.0981 C   0  0  0  0  0  0  0  0  0  0  0  0
   -8.1407    0.6974   10.4857 C   0  0  0  0  0  0  0  0  0  0  0  0
   -8.0412    0.8065   12.0776 C   0  0  1  0  0  0  0  0  0  0  0  0
   -6.5923    0.9775   12.5498 C   0  0  0  0  0  0  0  0  0  0  0  0
   -9.5244    1.1132   16.9335 C   0  0  1  0  0  0  0  0  0  0  0  0
  -10.8636    1.9150   16.4981 C   0  0  0  0  0  0  0  0  0  0  0  0
  -10.9126    2.0693   14.9291 C   0  0  2  0  0  0  0  0  0  0  0  0
  -10.9594    3.5332   21.5934 F   0  0  0  0  0  0  0  0  0  0  0  0
  -10.0421    0.6522    4.9332 N   0  0  0  0  0  0  0  0  0  0  0  0
  -11.9542    1.7406   10.3460 N   0  0  0  0  0  0  0  0  0  0  0  0
   -7.8356   -4.0173    7.7913 N   0  0  0  0  0  0  0  0  0  0  0  0
  -10.9601   -0.0651   22.4661 N   0  0  0  0  0  0  0  0  0  0  0  0
   -6.5232    1.0554   13.9570 N   0  0  0  0  0  0  0  0  0  0  0  0
   -9.4947    0.9993   18.4027 N   0  0  0  0  0  0  0  0  0  0  0  0
  -12.1375    2.7892   14.5157 N   0  0  0  0  0  0  0  0  0  0  0  0
  -10.9412    0.8732   12.8668 O   0  0  0  0  0  0  0  0  0  0  0  0
   -9.7741   -1.4889   13.9875 O   0  0  0  0  0  0  0  0  0  0  0  0
   -8.5275   -1.0665   16.6160 O   0  0  0  0  0  0  0  0  0  0  0  0
   -7.1905   -2.3650   12.6301 O   0  0  0  0  0  0  0  0  0  0  0  0
  -10.6595   -2.2415   11.9376 O   0  0  0  0  0  0  0  0  0  0  0  0
  -12.4055   -4.9225   11.4792 O   0  0  0  0  0  0  0  0  0  0  0  0
   -8.4282   -2.4253   10.1787 O   0  0  0  0  0  0  0  0  0  0  0  0
   -8.5184    2.6419   21.3985 O   0  0  0  0  0  0  0  0  0  0  0  0
   -9.7176    3.3831   18.7309 O   0  0  0  0  0  0  0  0  0  0  0  0
   -8.7230   -1.2356    8.0609 O   0  0  0  0  0  0  0  0  0  0  0  0
   -8.8532    1.9958   12.5636 O   0  0  0  0  0  0  0  0  0  0  0  0
  1 36  1  1  0  0  0
  2 36  1  6  0  0  0
  2  3  1  0  0  0  0
  3 37  1  6  0  0  0
  3  4  1  0  0  0  0
  4 38  1  6  0  0  0
  5 37  1  1  0  0  0
  5  6  1  0  0  0  0
  6  7  1  0  0  0  0
  6 39  1  6  0  0  0
  7 42  1  6  0  0  0
  8  9  1  1  0  0  0
  8  7  1  0  0  0  0
 10 42  1  1  0  0  0
 10 11  1  0  0  0  0
 11 31  1  6  0  0  0
 11 13  1  0  0  0  0
 12 30  1  1  0  0  0
 12  1  1  0  0  0  0
 14 13  1  0  0  0  0
 15 16  1  6  0  0  0
 15 14  1  0  0  0  0
 17 19  1  1  0  0  0
 17 28  1  0  0  0  0
 18 34  1  0  0  0  0
 19 32  1  0  0  0  0
 20 18  1  6  0  0  0
 20 17  1  0  0  0  0
 20 43  1  0  0  0  0
 21 12  1  0  0  0  0
 22 21  1  0  0  0  0
 22 23  1  0  0  0  0
 23 24  1  6  0  0  0
 23 46  1  0  0  0  0
 24 33  1  0  0  0  0
 25 34  1  1  0  0  0
 25  4  1  0  0  0  0
 26 25  1  0  0  0  0
 27 35  1  1  0  0  0
 27 26  1  0  0  0  0
 27  2  1  0  0  0  0
 29 16  1  0  0  0  0
 40  8  1  0  0  0  0
 40  5  1  0  0  0  0
 41  9  1  0  0  0  0
 44 18  2  0  0  0  0
 45 15  1  0  0  0  0
 45 10  1  0  0  0  0
 46  1  1  0  0  0  0
M  END
>  <CHROM.1>
176.74102999,-87.35690717,78.80907666,123.47829236,-153.38119667,-158.59065811
-63.62002022,83.32477382,-51.58189103,-111.60632909,152.33546924,-179.27960428
-170.64262327,-9.65130491,-0.20234540,13.36589739,-0.25640186,1.50915327
-0.05786839

>  <Name>
lig.pdb

>  <RI>
0

>  <Rbt.Current_Directory>
/home/afrankz/demos/rdock_decoys_rna/rnas/3wru

>  <Rbt.Executable>
rbdock ($Id: //depot/dev/client3/rdock/2013.1/src/exe/rbdock.cxx#4 $)

>  <Rbt.Library>
libRbt.so (2013.1, Build901 2013/11/27)

>  <Rbt.Parameter_File>
/export/apps/rDock/src/rDock_2013.1_src/data/scripts/dock_solv.prm

>  <Rbt.Receptor>
prm/blind_docking_60.prm

>  <SCORE>
16.3784

>  <SCORE.INTER>
7.599

>  <SCORE.INTER.CONST>
1

>  <SCORE.INTER.POLAR>
0

>  <SCORE.INTER.ROT>
13

>  <SCORE.INTER.SOLV>
34.7435

>  <SCORE.INTER.VDW>
-18.7818

>  <SCORE.INTER.norm>
0.165196

>  <SCORE.INTRA>
2.93024

>  <SCORE.INTRA.DIHEDRAL>
3.3234

>  <SCORE.INTRA.DIHEDRAL.0>
19.7146

>  <SCORE.INTRA.POLAR>
0

>  <SCORE.INTRA.POLAR.0>
0

>  <SCORE.INTRA.REPUL>
0.0435053

>  <SCORE.INTRA.REPUL.0>
0

>  <SCORE.INTRA.SOLV>
1.1816

>  <SCORE.INTRA.SOLV.lig_0>
-116.697

>  <SCORE.INTRA.VDW>
0.46021

>  <SCORE.INTRA.VDW.0>
-7.06424

>  <SCORE.INTRA.norm>
0.0637008

>  <SCORE.RESTR>
5.84915

>  <SCORE.RESTR.CAVITY>
5.84915

>  <SCORE.RESTR.norm>
0.127155

>  <SCORE.SYSTEM>
0

>  <SCORE.SYSTEM.CONST>
0

>  <SCORE.SYSTEM.DIHEDRAL>
0

>  <SCORE.SYSTEM.SOLV>
0

>  <SCORE.SYSTEM.norm>
0

>  <SCORE.heavy>
46

>  <SCORE.norm>
0.356052

>  <RMSD>
27.803

$$$$
lig.pdb
 OpenBabel03061811583D
libRbt.so/2013.1/901 2013/11/27
 46 49  0  0  0  0  0  0  0  0999 V2000
   -4.2258   -0.3330   13.0578 C   0  0  1  0  0  0  0  0  0  0  0  0
   -6.7449   -0.3183   13.3067 C   0  0  1  0  0  0  0  0  0  0  0  0
   -7.1288    0.9891   12.5497 C   0  0  1  0  0  0  0  0  0  0  0  0
   -8.6126    0.8207   11.9391 C   0  0  2  0  0  0  0  0  0  0  0  0
   -7.8940    2.3537   14.5473 C   0  0  2  0  0  0  0  0  0  0  0  0
   -9.3885    2.3546   14.1167 C   0  0  1  0  0  0  0  0  0  0  0  0
   -9.9918    2.0188   15.4592 C   0  0  1  0  0  0  0  0  0  0  0  0
   -9.1191    0.8436   16.0037 C   0  0  1  0  0  0  0  0  0  0  0  0
   -9.4624   -0.5954   15.4811 C   0  0  0  0  0  0  0  0  0  0  0  0
  -10.8176    3.3067   17.3938 C   0  0  1  0  0  0  0  0  0  0  0  0
  -12.1082    3.9794   17.0320 C   0  0  1  0  0  0  0  0  0  0  0  0
   -3.0348    0.3264   13.7925 C   0  0  1  0  0  0  0  0  0  0  0  0
  -13.0156    4.0369   18.3117 C   0  0  0  0  0  0  0  0  0  0  0  0
  -12.4550    4.7655   19.4133 C   0  0  0  0  0  0  0  0  0  0  0  0
  -11.2218    4.1229   19.8149 C   0  0  2  0  0  0  0  0  0  0  0  0
  -10.5508    4.8883   21.0228 C   0  0  0  0  0  0  0  0  0  0  0  0
  -11.6194   -2.4369    7.6983 C   0  0  2  0  0  0  0  0  0  0  0  0
  -10.0602   -1.5282    9.2136 C   0  0  0  0  0  0  0  0  0  0  0  0
  -12.9079   -2.5033    7.2030 C   0  0  0  0  0  0  0  0  0  0  0  0
  -11.5933   -1.5593    8.7320 C   0  0  1  0  0  0  0  0  0  0  0  0
   -3.2315    1.9068   13.8997 C   0  0  0  0  0  0  0  0  0  0  0  0
   -3.3826    2.4950   12.4153 C   0  0  0  0  0  0  0  0  0  0  0  0
   -4.6460    1.7912   11.7337 C   0  0  1  0  0  0  0  0  0  0  0  0
   -4.8681    2.2812   10.2978 C   0  0  0  0  0  0  0  0  0  0  0  0
   -8.5819   -0.3757   10.8911 C   0  0  1  0  0  0  0  0  0  0  0  0
   -8.2025   -1.7050   11.7367 C   0  0  0  0  0  0  0  0  0  0  0  0
   -6.7652   -1.5498   12.3677 C   0  0  2  0  0  0  0  0  0  0  0  0
  -10.7096   -2.0846    6.6317 F   0  0  0  0  0  0  0  0  0  0  0  0
  -11.5850    5.5724   21.9622 N   0  0  0  0  0  0  0  0  0  0  0  0
   -2.9001   -0.3246   15.1480 N   0  0  0  0  0  0  0  0  0  0  0  0
  -11.9656    5.3070   16.6191 N   0  0  0  0  0  0  0  0  0  0  0  0
  -14.1502   -2.7023    7.8499 N   0  0  0  0  0  0  0  0  0  0  0  0
   -6.1842    2.0103    9.8671 N   0  0  0  0  0  0  0  0  0  0  0  0
   -9.9195   -0.5546   10.2984 N   0  0  0  0  0  0  0  0  0  0  0  0
   -6.4102   -2.7520   13.1539 N   0  0  0  0  0  0  0  0  0  0  0  0
   -5.4247   -0.2225   13.8257 O   0  0  0  0  0  0  0  0  0  0  0  0
   -7.0736    2.1025   13.5549 O   0  0  0  0  0  0  0  0  0  0  0  0
   -8.9274    1.9860   11.2764 O   0  0  0  0  0  0  0  0  0  0  0  0
   -9.7086    3.6301   13.6498 O   0  0  0  0  0  0  0  0  0  0  0  0
   -7.8389    1.4066   15.6721 O   0  0  0  0  0  0  0  0  0  0  0  0
  -10.8760   -0.7984   15.6778 O   0  0  0  0  0  0  0  0  0  0  0  0
   -9.9081    3.2369   16.3611 O   0  0  0  0  0  0  0  0  0  0  0  0
  -12.0115   -0.2292    8.3547 O   0  0  0  0  0  0  0  0  0  0  0  0
   -9.1566   -2.2363    8.7397 O   0  0  0  0  0  0  0  0  0  0  0  0
  -10.2698    4.0356   18.6454 O   0  0  0  0  0  0  0  0  0  0  0  0
   -4.4434    0.2851   11.7063 O   0  0  0  0  0  0  0  0  0  0  0  0
  1 36  1  1  0  0  0
  2 36  1  6  0  0  0
  2  3  1  0  0  0  0
  3 37  1  1  0  0  0
  3  4  1  0  0  0  0
  4 38  1  6  0  0  0
  5 37  1  6  0  0  0
  5  6  1  0  0  0  0
  6  7  1  0  0  0  0
  6 39  1  1  0  0  0
  7 42  1  1  0  0  0
  8  9  1  6  0  0  0
  8  7  1  0  0  0  0
 10 42  1  6  0  0  0
 10 11  1  0  0  0  0
 11 31  1  1  0  0  0
 11 13  1  0  0  0  0
 12 30  1  1  0  0  0
 12  1  1  0  0  0  0
 14 13  1  0  0  0  0
 15 16  1  1  0  0  0
 15 14  1  0  0  0  0
 17 19  1  6  0  0  0
 17 28  1  0  0  0  0
 18 34  1  0  0  0  0
 19 32  1  0  0  0  0
 20 18  1  6  0  0  0
 20 17  1  0  0  0  0
 20 43  1  0  0  0  0
 21 12  1  0  0  0  0
 22 21  1  0  0  0  0
 22 23  1  0  0  0  0
 23 24  1  6  0  0  0
 23 46  1  0  0  0  0
 24 33  1  0  0  0  0
 25 34  1  1  0  0  0
 25  4  1  0  0  0  0
 26 25  1  0  0  0  0
 27 35  1  1  0  0  0
 27 26  1  0  0  0  0
 27  2  1  0  0  0  0
 29 16  1  0  0  0  0
 40  8  1  0  0  0  0
 40  5  1  0  0  0  0
 41  9  1  0  0  0  0
 44 18  2  0  0  0  0
 45 15  1  0  0  0  0
 45 10  1  0  0  0  0
 46  1  1  0  0  0  0
M  END
>  <CHROM.1>
158.73562571,-75.49555636,-71.83986639,-49.59405917,156.12107780,-51.58773919
-88.93338712,31.11850371,-50.26670028,177.50473608,-178.78258088,-160.79722404
174.25746937,-8.73685906,1.03592966,13.40100239,-1.43760538,-0.02659648,1.06259054

>  <Name>
lig.pdb

>  <RI>
0

>  <Rbt.Current_Directory>
/home/afrankz/demos/rdock_decoys_rna/rnas/3wru

>  <Rbt.Executable>
rbdock ($Id: //depot/dev/client3/rdock/2013.1/src/exe/rbdock.cxx#4 $)

>  <Rbt.Library>
libRbt.so (2013.1, Build901 2013/11/27)

>  <Rbt.Parameter_File>
/export/apps/rDock/src/rDock_2013.1_src/data/scripts/dock_solv.prm

>  <Rbt.Receptor>
prm/blind_docking_80.prm

>  <SCORE>
38.6481

>  <SCORE.INTER>
25.919

>  <SCORE.INTER.CONST>
1

>  <SCORE.INTER.POLAR>
0

>  <SCORE.INTER.ROT>
13

>  <SCORE.INTER.SOLV>
42.1293

>  <SCORE.INTER.VDW>
-9.03046

>  <SCORE.INTER.norm>
0.563456

>  <SCORE.INTRA>
4.76536

>  <SCORE.INTRA.DIHEDRAL>
-4.22014

>  <SCORE.INTRA.DIHEDRAL.0>
19.7146

>  <SCORE.INTRA.POLAR>
0

>  <SCORE.INTRA.POLAR.0>
0

>  <SCORE.INTRA.REPUL>
0

>  <SCORE.INTRA.REPUL.0>
0

>  <SCORE.INTRA.SOLV>
3.42425

>  <SCORE.INTRA.SOLV.lig_0>
-116.697

>  <SCORE.INTRA.VDW>
5.16331

>  <SCORE.INTRA.VDW.0>
-7.06424

>  <SCORE.INTRA.norm>
0.103595

>  <SCORE.RESTR>
7.96377

>  <SCORE.RESTR.CAVITY>
7.96377

>  <SCORE.RESTR.norm>
0.173126

>  <SCORE.SYSTEM>
0

>  <SCORE.SYSTEM.CONST>
0

>  <SCORE.SYSTEM.DIHEDRAL>
0

>  <SCORE.SYSTEM.SOLV>
0

>  <SCORE.SYSTEM.norm>
0

>  <SCORE.heavy>
46

>  <SCORE.norm>
0.840176

>  <RMSD>
27.830

$$$$
lig.pdb
 OpenBabel03061811583D
libRbt.so/2013.1/901 2013/11/27
 46 49  0  0  0  0  0  0  0  0999 V2000
  -11.0191   -1.7987   15.5157 C   0  0  1  0  0  0  0  0  0  0  0  0
  -10.0048   -2.4829   13.2996 C   0  0  1  0  0  0  0  0  0  0  0  0
   -8.5380   -2.1135   12.9233 C   0  0  1  0  0  0  0  0  0  0  0  0
   -8.4134   -2.0483   11.3161 C   0  0  2  0  0  0  0  0  0  0  0  0
   -8.8549    0.3689   13.3417 C   0  0  2  0  0  0  0  0  0  0  0  0
   -8.4288    1.4704   14.3535 C   0  0  1  0  0  0  0  0  0  0  0  0
   -8.7368    2.6726   13.4939 C   0  0  1  0  0  0  0  0  0  0  0  0
   -8.1335    2.3258   12.0958 C   0  0  1  0  0  0  0  0  0  0  0  0
   -6.5960    2.5744   11.9058 C   0  0  0  0  0  0  0  0  0  0  0  0
  -10.7792    3.0586   12.1661 C   0  0  1  0  0  0  0  0  0  0  0  0
  -12.1686    3.6230   12.1765 C   0  0  1  0  0  0  0  0  0  0  0  0
  -10.4619   -1.6432   16.9505 C   0  0  1  0  0  0  0  0  0  0  0  0
  -12.6689    3.7417   10.6933 C   0  0  0  0  0  0  0  0  0  0  0  0
  -12.7238    2.4999    9.9767 C   0  0  0  0  0  0  0  0  0  0  0  0
  -11.3902    1.9407    9.9149 C   0  0  2  0  0  0  0  0  0  0  0  0
  -11.3884    0.5628    9.1427 C   0  0  0  0  0  0  0  0  0  0  0  0
   -9.6041   -1.6496    6.4280 C   0  0  2  0  0  0  0  0  0  0  0  0
   -9.6330   -2.7530    8.5100 C   0  0  0  0  0  0  0  0  0  0  0  0
   -8.7365   -1.3776    5.3871 C   0  0  0  0  0  0  0  0  0  0  0  0
   -9.3022   -2.8681    6.9413 C   0  0  1  0  0  0  0  0  0  0  0  0
  -10.4568   -3.0427   17.7182 C   0  0  0  0  0  0  0  0  0  0  0  0
  -11.9589   -3.6041   17.7470 C   0  0  0  0  0  0  0  0  0  0  0  0
  -12.4525   -3.7659   16.2351 C   0  0  1  0  0  0  0  0  0  0  0  0
  -13.8918   -4.2891   16.1561 C   0  0  0  0  0  0  0  0  0  0  0  0
   -8.7309   -3.4958   10.7376 C   0  0  1  0  0  0  0  0  0  0  0  0
  -10.2689   -3.8129   11.1376 C   0  0  0  0  0  0  0  0  0  0  0  0
  -10.4196   -3.8525   12.7073 C   0  0  2  0  0  0  0  0  0  0  0  0
  -10.9676   -1.5540    5.9575 F   0  0  0  0  0  0  0  0  0  0  0  0
  -11.7945    0.7004    7.6473 N   0  0  0  0  0  0  0  0  0  0  0  0
   -9.0812   -1.0398   16.8558 N   0  0  0  0  0  0  0  0  0  0  0  0
  -13.1096    2.8154   12.8213 N   0  0  0  0  0  0  0  0  0  0  0  0
   -7.3319   -1.2111    5.3587 N   0  0  0  0  0  0  0  0  0  0  0  0
  -14.0539   -5.4490   16.9431 N   0  0  0  0  0  0  0  0  0  0  0  0
   -8.6146   -3.4826    9.2683 N   0  0  0  0  0  0  0  0  0  0  0  0
  -11.8226   -4.1288   13.0878 N   0  0  0  0  0  0  0  0  0  0  0  0
  -10.1440   -2.5894   14.7105 O   0  0  0  0  0  0  0  0  0  0  0  0
   -8.2544   -0.7790   13.5489 O   0  0  0  0  0  0  0  0  0  0  0  0
   -7.1112   -1.7215   11.0100 O   0  0  0  0  0  0  0  0  0  0  0  0
   -9.2341    1.3581   15.4876 O   0  0  0  0  0  0  0  0  0  0  0  0
   -8.6245    0.9770   12.0218 O   0  0  0  0  0  0  0  0  0  0  0  0
   -6.3212    2.5086   10.4922 O   0  0  0  0  0  0  0  0  0  0  0  0
  -10.2415    2.8584   13.4189 O   0  0  0  0  0  0  0  0  0  0  0  0
  -10.0803   -3.9358    6.3575 O   0  0  0  0  0  0  0  0  0  0  0  0
  -10.5950   -2.1270    8.9848 O   0  0  0  0  0  0  0  0  0  0  0  0
  -10.8264    1.7718   11.3061 O   0  0  0  0  0  0  0  0  0  0  0  0
  -12.3848   -2.4237   15.5252 O   0  0  0  0  0  0  0  0  0  0  0  0
  1 36  1  6  0  0  0
  2 36  1  1  0  0  0
  2  3  1  0  0  0  0
  3 37  1  1  0  0  0
  3  4  1  0  0  0  0
  4 38  1  1  0  0  0
  5 37  1  6  0  0  0
  5  6  1  0  0  0  0
  6  7  1  0  0  0  0
  6 39  1  1  0  0  0
  7 42  1  6  0  0  0
  8  9  1  1  0  0  0
  8  7  1  0  0  0  0
 10 42  1  1  0  0  0
 10 11  1  0  0  0  0
 11 31  1  1  0  0  0
 11 13  1  0  0  0  0
 12 30  1  6  0  0  0
 12  1  1  0  0  0  0
 14 13  1  0  0  0  0
 15 16  1  1  0  0  0
 15 14  1  0  0  0  0
 17 19  1  6  0  0  0
 17 28  1  0  0  0  0
 18 34  1  0  0  0  0
 19 32  1  0  0  0  0
 20 18  1  1  0  0  0
 20 17  1  0  0  0  0
 20 43  1  0  0  0  0
 21 12  1  0  0  0  0
 22 21  1  0  0  0  0
 22 23  1  0  0  0  0
 23 24  1  1  0  0  0
 23 46  1  0  0  0  0
 24 33  1  0  0  0  0
 25 34  1  6  0  0  0
 25  4  1  0  0  0  0
 26 25  1  0  0  0  0
 27 35  1  6  0  0  0
 27 26  1  0  0  0  0
 27  2  1  0  0  0  0
 29 16  1  0  0  0  0
 40  8  1  0  0  0  0
 40  5  1  0  0  0  0
 41  9  1  0  0  0  0
 44 18  2  0  0  0  0
 45 15  1  0  0  0  0
 45 10  1  0  0  0  0
 46  1  1  0  0  0  0
M  END
>  <CHROM.1>
-151.67436332,119.76869241,-60.71609564,170.37877953,-132.09024567,-166.18859034
-163.15456449,64.13234490,-63.14201819,-141.43236794,146.97546732,-51.16448962
-70.06109582,-10.13017231,-0.79931610,11.90940746,2.62421260,1.33903238,0.71455016

>  <Name>
lig.pdb

>  <RI>
0

>  <Rbt.Current_Directory>
/home/afrankz/demos/rdock_decoys_rna/rnas/3wru

>  <Rbt.Executable>
rbdock ($Id: //depot/dev/client3/rdock/2013.1/src/exe/rbdock.cxx#4 $)

>  <Rbt.Library>
libRbt.so (2013.1, Build901 2013/11/27)

>  <Rbt.Parameter_File>
/export/apps/rDock/src/rDock_2013.1_src/data/scripts/dock_solv.prm

>  <Rbt.Receptor>
prm/blind_docking_60.prm

>  <SCORE>
15.7215

>  <SCORE.INTER>
2.03186

>  <SCORE.INTER.CONST>
1

>  <SCORE.INTER.POLAR>
0

>  <SCORE.INTER.ROT>
13

>  <SCORE.INTER.SOLV>
35.1412

>  <SCORE.INTER.VDW>
-22.6258

>  <SCORE.INTER.norm>
0.0441708

>  <SCORE.INTRA>
8.57918

>  <SCORE.INTRA.DIHEDRAL>
4.85175

>  <SCORE.INTRA.DIHEDRAL.0>
19.7146

>  <SCORE.INTRA.POLAR>
0

>  <SCORE.INTRA.POLAR.0>
0

>  <SCORE.INTRA.REPUL>
0

>  <SCORE.INTRA.REPUL.0>
0

>  <SCORE.INTRA.SOLV>
6.19941

>  <SCORE.INTRA.SOLV.lig_0>
-116.697

>  <SCORE.INTRA.VDW>
3.0536

>  <SCORE.INTRA.VDW.0>
-7.06424

>  <SCORE.INTRA.norm>
0.186504

>  <SCORE.RESTR>
5.11047

>  <SCORE.RESTR.CAVITY>
5.11047

>  <SCORE.RESTR.norm>
0.111097

>  <SCORE.SYSTEM>
0

>  <SCORE.SYSTEM.CONST>
0

>  <SCORE.SYSTEM.DIHEDRAL>
0

>  <SCORE.SYSTEM.SOLV>
0

>  <SCORE.SYSTEM.norm>
0

>  <SCORE.heavy>
46

>  <SCORE.norm>
0.341772

>  <RMSD>
27.866

$$$$
lig.pdb
 OpenBabel03061811583D
libRbt.so/2013.1/901 2013/11/27
 46 49  0  0  0  0  0  0  0  0999 V2000
   -8.2992    2.7483   15.0357 C   0  0  1  0  0  0  0  0  0  0  0  0
   -9.6489    0.7355   15.7671 C   0  0  1  0  0  0  0  0  0  0  0  0
   -9.7862   -0.6152   15.0013 C   0  0  1  0  0  0  0  0  0  0  0  0
  -11.1579   -1.3336   15.4542 C   0  0  2  0  0  0  0  0  0  0  0  0
   -9.7789   -1.0982   12.5104 C   0  0  2  0  0  0  0  0  0  0  0  0
   -8.9178   -0.5676   11.3289 C   0  0  1  0  0  0  0  0  0  0  0  0
   -8.5912   -1.8985   10.6957 C   0  0  1  0  0  0  0  0  0  0  0  0
   -8.1758   -2.8150   11.8901 C   0  0  1  0  0  0  0  0  0  0  0  0
   -6.6979   -2.6870   12.4011 C   0  0  0  0  0  0  0  0  0  0  0  0
  -10.2372   -1.7509    8.8647 C   0  0  1  0  0  0  0  0  0  0  0  0
  -11.5505   -2.2171    8.3109 C   0  0  1  0  0  0  0  0  0  0  0  0
   -9.4273    3.1570   14.0592 C   0  0  1  0  0  0  0  0  0  0  0  0
  -11.8601   -1.3985    7.0077 C   0  0  0  0  0  0  0  0  0  0  0  0
  -10.8873   -1.5421    5.9628 C   0  0  0  0  0  0  0  0  0  0  0  0
   -9.6098   -1.0673    6.4501 C   0  0  2  0  0  0  0  0  0  0  0  0
   -8.4923   -1.2093    5.3428 C   0  0  0  0  0  0  0  0  0  0  0  0
  -14.0184   -5.4979   17.2188 C   0  0  2  0  0  0  0  0  0  0  0  0
  -12.4572   -3.7348   17.1346 C   0  0  0  0  0  0  0  0  0  0  0  0
  -14.7991   -6.2379   18.0865 C   0  0  0  0  0  0  0  0  0  0  0  0
  -13.8576   -4.2520   17.7300 C   0  0  1  0  0  0  0  0  0  0  0  0
   -9.2863    2.3891   12.6670 C   0  0  0  0  0  0  0  0  0  0  0  0
   -7.8459    2.7307   12.0498 C   0  0  0  0  0  0  0  0  0  0  0  0
   -6.7364    2.2544   13.0977 C   0  0  1  0  0  0  0  0  0  0  0  0
   -5.3161    2.5505   12.6013 C   0  0  0  0  0  0  0  0  0  0  0  0
  -11.0601   -1.6467   17.0108 C   0  0  1  0  0  0  0  0  0  0  0  0
  -10.9439   -0.2105   17.7523 C   0  0  0  0  0  0  0  0  0  0  0  0
   -9.6224    0.5230   17.3011 C   0  0  2  0  0  0  0  0  0  0  0  0
  -14.6224   -5.4988   15.9055 F   0  0  0  0  0  0  0  0  0  0  0  0
   -7.0827   -0.7770    5.8390 N   0  0  0  0  0  0  0  0  0  0  0  0
  -10.7518    2.8827   14.7300 N   0  0  0  0  0  0  0  0  0  0  0  0
  -11.5621   -3.5582    7.9174 N   0  0  0  0  0  0  0  0  0  0  0  0
  -16.1113   -6.0309   18.5731 N   0  0  0  0  0  0  0  0  0  0  0  0
   -4.3538    1.8858   13.3907 N   0  0  0  0  0  0  0  0  0  0  0  0
  -12.2920   -2.3174   17.4634 N   0  0  0  0  0  0  0  0  0  0  0  0
   -9.5090    1.8425   17.9610 N   0  0  0  0  0  0  0  0  0  0  0  0
   -8.4292    1.3800   15.4231 O   0  0  0  0  0  0  0  0  0  0  0  0
   -9.7998   -0.2825   13.5377 O   0  0  0  0  0  0  0  0  0  0  0  0
  -11.2553   -2.5220   14.7655 O   0  0  0  0  0  0  0  0  0  0  0  0
   -9.7191    0.2588   10.5400 O   0  0  0  0  0  0  0  0  0  0  0  0
   -9.2432   -2.4423   12.7775 O   0  0  0  0  0  0  0  0  0  0  0  0
   -6.5624   -1.3840   13.0027 O   0  0  0  0  0  0  0  0  0  0  0  0
   -9.8257   -2.4305    9.9906 O   0  0  0  0  0  0  0  0  0  0  0  0
  -14.9136   -3.3437   17.3477 O   0  0  0  0  0  0  0  0  0  0  0  0
  -11.6498   -4.4437   16.5115 O   0  0  0  0  0  0  0  0  0  0  0  0
   -9.2153   -1.8133    7.7030 O   0  0  0  0  0  0  0  0  0  0  0  0
   -6.9440    2.9646   14.4253 O   0  0  0  0  0  0  0  0  0  0  0  0
  1 36  1  6  0  0  0
  2 36  1  6  0  0  0
  2  3  1  0  0  0  0
  3 37  1  6  0  0  0
  3  4  1  0  0  0  0
  4 38  1  6  0  0  0
  5 37  1  1  0  0  0
  5  6  1  0  0  0  0
  6  7  1  0  0  0  0
  6 39  1  6  0  0  0
  7 42  1  1  0  0  0
  8  9  1  1  0  0  0
  8  7  1  0  0  0  0
 10 42  1  1  0  0  0
 10 11  1  0  0  0  0
 11 31  1  6  0  0  0
 11 13  1  0  0  0  0
 12 30  1  1  0  0  0
 12  1  1  0  0  0  0
 14 13  1  0  0  0  0
 15 16  1  6  0  0  0
 15 14  1  0  0  0  0
 17 19  1  1  0  0  0
 17 28  1  0  0  0  0
 18 34  1  0  0  0  0
 19 32  1  0  0  0  0
 20 18  1  6  0  0  0
 20 17  1  0  0  0  0
 20 43  1  0  0  0  0
 21 12  1  0  0  0  0
 22 21  1  0  0  0  0
 22 23  1  0  0  0  0
 23 24  1  6  0  0  0
 23 46  1  0  0  0  0
 24 33  1  0  0  0  0
 25 34  1  1  0  0  0
 25  4  1  0  0  0  0
 26 25  1  0  0  0  0
 27 35  1  1  0  0  0
 27 26  1  0  0  0  0
 27  2  1  0  0  0  0
 29 16  1  0  0  0  0
 40  8  1  0  0  0  0
 40  5  1  0  0  0  0
 41  9  1  0  0  0  0
 44 18  2  0  0  0  0
 45 15  1  0  0  0  0
 45 10  1  0  0  0  0
 46  1  1  0  0  0  0
M  END
>  <CHROM.1>
-42.68047780,131.14016353,173.29214809,-142.08351304,68.88671896,67.85263824
-172.86946703,-177.18638113,58.84786965,171.35650718,152.85007853,-167.79670019
76.53869724,-10.08186961,-1.13053978,13.19146182,-0.82439123,0.82872156,1.33476631

>  <Name>
lig.pdb

>  <RI>
0

>  <Rbt.Current_Directory>
/home/afrankz/demos/rdock_decoys_rna/rnas/3wru

>  <Rbt.Executable>
rbdock ($Id: //depot/dev/client3/rdock/2013.1/src/exe/rbdock.cxx#4 $)

>  <Rbt.Library>
libRbt.so (2013.1, Build901 2013/11/27)

>  <Rbt.Parameter_File>
/export/apps/rDock/src/rDock_2013.1_src/data/scripts/dock_solv.prm

>  <Rbt.Receptor>
prm/blind_docking_60.prm

>  <SCORE>
18.4565

>  <SCORE.INTER>
9.14959

>  <SCORE.INTER.CONST>
1

>  <SCORE.INTER.POLAR>
0

>  <SCORE.INTER.ROT>
13

>  <SCORE.INTER.SOLV>
28.1207

>  <SCORE.INTER.VDW>
-15.5405

>  <SCORE.INTER.norm>
0.198904

>  <SCORE.INTRA>
4.03299

>  <SCORE.INTRA.DIHEDRAL>
-1.74745

>  <SCORE.INTRA.DIHEDRAL.0>
19.7146

>  <SCORE.INTRA.POLAR>
0

>  <SCORE.INTRA.POLAR.0>
0

>  <SCORE.INTRA.REPUL>
0.146533

>  <SCORE.INTRA.REPUL.0>
0

>  <SCORE.INTRA.SOLV>
3.72019

>  <SCORE.INTRA.SOLV.lig_0>
-116.697

>  <SCORE.INTRA.VDW>
2.31395

>  <SCORE.INTRA.VDW.0>
-7.06424

>  <SCORE.INTRA.norm>
0.0876737

>  <SCORE.RESTR>
5.27391

>  <SCORE.RESTR.CAVITY>
5.27391

>  <SCORE.RESTR.norm>
0.11465

>  <SCORE.SYSTEM>
0

>  <SCORE.SYSTEM.CONST>
0

>  <SCORE.SYSTEM.DIHEDRAL>
0

>  <SCORE.SYSTEM.SOLV>
0

>  <SCORE.SYSTEM.norm>
0

>  <SCORE.heavy>
46

>  <SCORE.norm>
0.401228

>  <RMSD>
27.998

$$$$
lig.pdb
 OpenBabel03061811583D
libRbt.so/2013.1/901 2013/11/27
 46 49  0  0  0  0  0  0  0  0999 V2000
   -6.5967   -0.1662   12.2309 C   0  0  1  0  0  0  0  0  0  0  0  0
   -8.6494    1.3062   12.3930 C   0  0  1  0  0  0  0  0  0  0  0  0
   -9.6019    0.5496   11.4183 C   0  0  1  0  0  0  0  0  0  0  0  0
  -10.7001    1.5876   10.8530 C   0  0  2  0  0  0  0  0  0  0  0  0
   -9.0582   -0.8708    9.3873 C   0  0  2  0  0  0  0  0  0  0  0  0
   -9.3989   -2.2739    9.9652 C   0  0  1  0  0  0  0  0  0  0  0  0
  -10.2770   -2.7562    8.8359 C   0  0  1  0  0  0  0  0  0  0  0  0
  -11.2263   -1.5543    8.5301 C   0  0  1  0  0  0  0  0  0  0  0  0
  -12.4862   -1.3940    9.4513 C   0  0  0  0  0  0  0  0  0  0  0  0
   -9.0229   -2.0442    6.8349 C   0  0  1  0  0  0  0  0  0  0  0  0
   -9.9017   -1.8324    5.6384 C   0  0  1  0  0  0  0  0  0  0  0  0
   -5.9791   -1.3421   13.0241 C   0  0  1  0  0  0  0  0  0  0  0  0
   -9.3133   -0.6487    4.7917 C   0  0  0  0  0  0  0  0  0  0  0  0
   -7.9813   -0.8635    4.3035 C   0  0  0  0  0  0  0  0  0  0  0  0
   -7.0951   -1.0371    5.4347 C   0  0  2  0  0  0  0  0  0  0  0  0
   -5.6101   -1.2875    4.9583 C   0  0  0  0  0  0  0  0  0  0  0  0
  -14.5160    4.1884   10.4349 C   0  0  2  0  0  0  0  0  0  0  0  0
  -13.7329    3.3173   12.4796 C   0  0  0  0  0  0  0  0  0  0  0  0
  -15.4239    3.2513    9.9794 C   0  0  0  0  0  0  0  0  0  0  0  0
  -14.7097    4.3743   11.7643 C   0  0  1  0  0  0  0  0  0  0  0  0
   -5.2830   -0.8262   14.3647 C   0  0  0  0  0  0  0  0  0  0  0  0
   -4.1587    0.2456   13.9652 C   0  0  0  0  0  0  0  0  0  0  0  0
   -4.8745    1.4394   13.1788 C   0  0  1  0  0  0  0  0  0  0  0  0
   -3.8747    2.5163   12.7406 C   0  0  0  0  0  0  0  0  0  0  0  0
  -11.5581    2.1166   12.0838 C   0  0  1  0  0  0  0  0  0  0  0  0
  -10.5235    2.9109   13.0454 C   0  0  0  0  0  0  0  0  0  0  0  0
   -9.4225    1.9196   13.5868 C   0  0  2  0  0  0  0  0  0  0  0  0
  -14.6511    5.4051    9.6662 F   0  0  0  0  0  0  0  0  0  0  0  0
   -4.8926    0.0105    4.4885 N   0  0  0  0  0  0  0  0  0  0  0  0
   -7.0706   -2.3481   13.2993 N   0  0  0  0  0  0  0  0  0  0  0  0
   -9.9526   -2.9228    4.7654 N   0  0  0  0  0  0  0  0  0  0  0  0
  -15.6455    1.9046   10.3519 N   0  0  0  0  0  0  0  0  0  0  0  0
   -2.9583    2.8082   13.7731 N   0  0  0  0  0  0  0  0  0  0  0  0
  -12.5849    3.0606   11.6073 N   0  0  0  0  0  0  0  0  0  0  0  0
   -8.4625    2.6341   14.4570 N   0  0  0  0  0  0  0  0  0  0  0  0
   -7.6903    0.4127   12.9437 O   0  0  0  0  0  0  0  0  0  0  0  0
   -8.7449    0.0040   10.3134 O   0  0  0  0  0  0  0  0  0  0  0  0
  -11.5278    0.8964    9.9968 O   0  0  0  0  0  0  0  0  0  0  0  0
   -8.2091   -2.9887   10.1087 O   0  0  0  0  0  0  0  0  0  0  0  0
  -10.2223   -0.5260    8.5560 O   0  0  0  0  0  0  0  0  0  0  0  0
  -13.4132   -0.5290    8.7654 O   0  0  0  0  0  0  0  0  0  0  0  0
   -9.4070   -3.0952    7.6391 O   0  0  0  0  0  0  0  0  0  0  0  0
  -14.3827    5.7116   12.2015 O   0  0  0  0  0  0  0  0  0  0  0  0
  -13.9295    2.8206   13.6009 O   0  0  0  0  0  0  0  0  0  0  0  0
   -7.5731   -2.1742    6.3067 O   0  0  0  0  0  0  0  0  0  0  0  0
   -5.5738    0.8955   11.9438 O   0  0  0  0  0  0  0  0  0  0  0  0
  1 36  1  1  0  0  0
  2 36  1  1  0  0  0
  2  3  1  0  0  0  0
  3 37  1  6  0  0  0
  3  4  1  0  0  0  0
  4 38  1  6  0  0  0
  5 37  1  1  0  0  0
  5  6  1  0  0  0  0
  6  7  1  0  0  0  0
  6 39  1  6  0  0  0
  7 42  1  6  0  0  0
  8  9  1  1  0  0  0
  8  7  1  0  0  0  0
 10 42  1  6  0  0  0
 10 11  1  0  0  0  0
 11 31  1  6  0  0  0
 11 13  1  0  0  0  0
 12 30  1  1  0  0  0
 12  1  1  0  0  0  0
 14 13  1  0  0  0  0
 15 16  1  6  0  0  0
 15 14  1  0  0  0  0
 17 19  1  6  0  0  0
 17 28  1  0  0  0  0
 18 34  1  0  0  0  0
 19 32  1  0  0  0  0
 20 18  1  1  0  0  0
 20 17  1  0  0  0  0
 20 43  1  0  0  0  0
 21 12  1  0  0  0  0
 22 21  1  0  0  0  0
 22 23  1  0  0  0  0
 23 24  1  6  0  0  0
 23 46  1  0  0  0  0
 24 33  1  0  0  0  0
 25 34  1  6  0  0  0
 25  4  1  0  0  0  0
 26 25  1  0  0  0  0
 27 35  1  1  0  0  0
 27 26  1  0  0  0  0
 27  2  1  0  0  0  0
 29 16  1  0  0  0  0
 40  8  1  0  0  0  0
 40  5  1  0  0  0  0
 41  9  1  0  0  0  0
 44 18  2  0  0  0  0
 45 15  1  0  0  0  0
 45 10  1  0  0  0  0
 46  1  1  0  0  0  0
M  END
>  <CHROM.1>
-165.79335679,71.47141199,168.06154504,-63.91338502,-82.05401121,-162.26163386
-95.44998829,76.89649425,-59.23007266,28.19270667,91.03041274,-43.26424519
160.36013387,-9.56193582,0.51968506,10.21304724,-0.56732428,-0.34410094,1.06582386

>  <Name>
lig.pdb

>  <RI>
0

>  <Rbt.Current_Directory>
/home/afrankz/demos/rdock_decoys_rna/rnas/3wru

>  <Rbt.Executable>
rbdock ($Id: //depot/dev/client3/rdock/2013.1/src/exe/rbdock.cxx#4 $)

>  <Rbt.Library>
libRbt.so (2013.1, Build901 2013/11/27)

>  <Rbt.Parameter_File>
/export/apps/rDock/src/rDock_2013.1_src/data/scripts/dock_solv.prm

>  <Rbt.Receptor>
prm/blind_docking_60.prm

>  <SCORE>
27.362

>  <SCORE.INTER>
11.6165

>  <SCORE.INTER.CONST>
1

>  <SCORE.INTER.POLAR>
0

>  <SCORE.INTER.ROT>
13

>  <SCORE.INTER.SOLV>
37.5661

>  <SCORE.INTER.VDW>
-17.0444

>  <SCORE.INTER.norm>
0.252532

>  <SCORE.INTRA>
8.58601

>  <SCORE.INTRA.DIHEDRAL>
-3.08055

>  <SCORE.INTRA.DIHEDRAL.0>
19.7146

>  <SCORE.INTRA.POLAR>
0

>  <SCORE.INTRA.POLAR.0>
0

>  <SCORE.INTRA.REPUL>
0

>  <SCORE.INTRA.REPUL.0>
0

>  <SCORE.INTRA.SOLV>
2.1685

>  <SCORE.INTRA.SOLV.lig_0>
-116.697

>  <SCORE.INTRA.VDW>
9.04204

>  <SCORE.INTRA.VDW.0>
-7.06424

>  <SCORE.INTRA.norm>
0.186652

>  <SCORE.RESTR>
7.1595

>  <SCORE.RESTR.CAVITY>
7.1595

>  <SCORE.RESTR.norm>
0.155641

>  <SCORE.SYSTEM>
0

>  <SCORE.SYSTEM.CONST>
0

>  <SCORE.SYSTEM.DIHEDRAL>
0

>  <SCORE.SYSTEM.SOLV>
0

>  <SCORE.SYSTEM.norm>
0

>  <SCORE.heavy>
46

>  <SCORE.norm>
0.594826

>  <RMSD>
28.013

$$$$
lig.pdb
 OpenBabel03061811583D
libRbt.so/2013.1/901 2013/11/27
 46 49  0  0  0  0  0  0  0  0999 V2000
   -8.5560   -0.8610   12.4127 C   0  0  1  0  0  0  0  0  0  0  0  0
   -9.3640   -0.3289   14.7519 C   0  0  1  0  0  0  0  0  0  0  0  0
   -9.9640   -1.4590   15.6421 C   0  0  1  0  0  0  0  0  0  0  0  0
  -10.9919   -0.8006   16.6970 C   0  0  2  0  0  0  0  0  0  0  0  0
  -10.3443   -2.7491   13.4906 C   0  0  2  0  0  0  0  0  0  0  0  0
   -9.8483   -4.2184   13.3728 C   0  0  1  0  0  0  0  0  0  0  0  0
  -10.1998   -4.4407   11.9216 C   0  0  1  0  0  0  0  0  0  0  0  0
  -11.6452   -3.8687   11.7711 C   0  0  1  0  0  0  0  0  0  0  0  0
  -12.8266   -4.8040   12.2083 C   0  0  0  0  0  0  0  0  0  0  0  0
   -9.6165   -3.3942    9.7656 C   0  0  1  0  0  0  0  0  0  0  0  0
   -8.7523   -3.9920    8.6958 C   0  0  1  0  0  0  0  0  0  0  0  0
   -7.1820   -0.6754   11.7265 C   0  0  1  0  0  0  0  0  0  0  0  0
   -9.2970   -3.5279    7.2985 C   0  0  0  0  0  0  0  0  0  0  0  0
   -9.2971   -2.1076    7.0954 C   0  0  0  0  0  0  0  0  0  0  0  0
  -10.1519   -1.4968    8.0910 C   0  0  2  0  0  0  0  0  0  0  0  0
  -10.1850    0.0735    7.9235 C   0  0  0  0  0  0  0  0  0  0  0  0
  -11.6494    3.6015   20.3914 C   0  0  2  0  0  0  0  0  0  0  0  0
  -10.4854    1.7050   19.6161 C   0  0  0  0  0  0  0  0  0  0  0  0
  -12.9576    4.0465   20.3640 C   0  0  0  0  0  0  0  0  0  0  0  0
  -11.6486    2.2581   20.5775 C   0  0  1  0  0  0  0  0  0  0  0  0
   -6.5847    0.7749   12.0228 C   0  0  0  0  0  0  0  0  0  0  0  0
   -7.6362    1.8667   11.4989 C   0  0  0  0  0  0  0  0  0  0  0  0
   -9.0158    1.6312   12.2716 C   0  0  1  0  0  0  0  0  0  0  0  0
  -10.0965    2.6247   11.8285 C   0  0  0  0  0  0  0  0  0  0  0  0
  -10.1716    0.1922   17.6310 C   0  0  1  0  0  0  0  0  0  0  0  0
   -9.5950    1.3525   16.6577 C   0  0  0  0  0  0  0  0  0  0  0  0
   -8.6088    0.7256   15.5983 C   0  0  2  0  0  0  0  0  0  0  0  0
  -10.9176    4.3163   21.4128 F   0  0  0  0  0  0  0  0  0  0  0  0
  -11.0676    0.7829    8.9903 N   0  0  0  0  0  0  0  0  0  0  0  0
   -6.2662   -1.7773   12.2026 N   0  0  0  0  0  0  0  0  0  0  0  0
   -7.4206   -3.5695    8.7331 N   0  0  0  0  0  0  0  0  0  0  0  0
  -13.5013    5.3506   20.2926 N   0  0  0  0  0  0  0  0  0  0  0  0
  -10.6478    3.3024   12.9366 N   0  0  0  0  0  0  0  0  0  0  0  0
  -11.0745    0.8067   18.6208 N   0  0  0  0  0  0  0  0  0  0  0  0
   -8.0837    1.7725   14.6940 N   0  0  0  0  0  0  0  0  0  0  0  0
   -8.4209   -0.8672   13.8342 O   0  0  0  0  0  0  0  0  0  0  0  0
  -10.6642   -2.4117   14.7173 O   0  0  0  0  0  0  0  0  0  0  0  0
  -11.5068   -1.8171   17.4701 O   0  0  0  0  0  0  0  0  0  0  0  0
   -8.4786   -4.2405   13.6385 O   0  0  0  0  0  0  0  0  0  0  0  0
  -11.4291   -2.6497   12.5013 O   0  0  0  0  0  0  0  0  0  0  0  0
  -12.4469   -6.1564   11.8842 O   0  0  0  0  0  0  0  0  0  0  0  0
   -9.2111   -3.6884   11.0493 O   0  0  0  0  0  0  0  0  0  0  0  0
  -11.3730    1.8769   21.9431 O   0  0  0  0  0  0  0  0  0  0  0  0
   -9.2861    2.0143   19.7086 O   0  0  0  0  0  0  0  0  0  0  0  0
   -9.6935   -1.8742    9.4799 O   0  0  0  0  0  0  0  0  0  0  0  0
   -9.5176    0.2205   12.0103 O   0  0  0  0  0  0  0  0  0  0  0  0
  1 36  1  1  0  0  0
  2 36  1  6  0  0  0
  2  3  1  0  0  0  0
  3 37  1  6  0  0  0
  3  4  1  0  0  0  0
  4 38  1  1  0  0  0
  5 37  1  1  0  0  0
  5  6  1  0  0  0  0
  6  7  1  0  0  0  0
  6 39  1  6  0  0  0
  7 42  1  6  0  0  0
  8  9  1  1  0  0  0
  8  7  1  0  0  0  0
 10 42  1  1  0  0  0
 10 11  1  0  0  0  0
 11 31  1  1  0  0  0
 11 13  1  0  0  0  0
 12 30  1  1  0  0  0
 12  1  1  0  0  0  0
 14 13  1  0  0  0  0
 15 16  1  1  0  0  0
 15 14  1  0  0  0  0
 17 19  1  1  0  0  0
 17 28  1  0  0  0  0
 18 34  1  0  0  0  0
 19 32  1  0  0  0  0
 20 18  1  6  0  0  0
 20 17  1  0  0  0  0
 20 43  1  0  0  0  0
 21 12  1  0  0  0  0
 22 21  1  0  0  0  0
 22 23  1  0  0  0  0
 23 24  1  6  0  0  0
 23 46  1  0  0  0  0
 24 33  1  0  0  0  0
 25 34  1  1  0  0  0
 25  4  1  0  0  0  0
 26 25  1  0  0  0  0
 27 35  1  6  0  0  0
 27 26  1  0  0  0  0
 27  2  1  0  0  0  0
 29 16  1  0  0  0  0
 40  8  1  0  0  0  0
 40  5  1  0  0  0  0
 41  9  1  0  0  0  0
 44 18  2  0  0  0  0
 45 15  1  0  0  0  0
 45 10  1  0  0  0  0
 46  1  1  0  0  0  0
M  END
>  <CHROM.1>
144.86669416,115.84237215,33.70849313,110.59632517,-158.50769571,-34.65796680
-119.67766620,-178.77256807,174.91344647,-118.06260783,140.00347744,-126.24045431
177.03832802,-9.96532409,-0.57029371,13.91594053,-1.15549775,1.19254938,0.69123106

>  <Name>
lig.pdb

>  <RI>
0

>  <Rbt.Current_Directory>
/home/afrankz/demos/rdock_decoys_rna/rnas/3wru

>  <Rbt.Executable>
rbdock ($Id: //depot/dev/client3/rdock/2013.1/src/exe/rbdock.cxx#4 $)

>  <Rbt.Library>
libRbt.so (2013.1, Build901 2013/11/27)

>  <Rbt.Parameter_File>
/export/apps/rDock/src/rDock_2013.1_src/data/scripts/dock_solv.prm

>  <Rbt.Receptor>
prm/blind_docking_40.prm

>  <SCORE>
26.7384

>  <SCORE.INTER>
4.98971

>  <SCORE.INTER.CONST>
1

>  <SCORE.INTER.POLAR>
0

>  <SCORE.INTER.ROT>
13

>  <SCORE.INTER.SOLV>
31.6003

>  <SCORE.INTER.VDW>
-19.4736

>  <SCORE.INTER.norm>
0.108472

>  <SCORE.INTRA>
16.9872

>  <SCORE.INTRA.DIHEDRAL>
24.1083

>  <SCORE.INTRA.DIHEDRAL.0>
19.7146

>  <SCORE.INTRA.POLAR>
0

>  <SCORE.INTRA.POLAR.0>
0

>  <SCORE.INTRA.REPUL>
0

>  <SCORE.INTRA.REPUL.0>
0

>  <SCORE.INTRA.SOLV>
6.49687

>  <SCORE.INTRA.SOLV.lig_0>
-116.697

>  <SCORE.INTRA.VDW>
1.68461

>  <SCORE.INTRA.VDW.0>
-7.06424

>  <SCORE.INTRA.norm>
0.369287

>  <SCORE.RESTR>
4.76148

>  <SCORE.RESTR.CAVITY>
4.76148

>  <SCORE.RESTR.norm>
0.10351

>  <SCORE.SYSTEM>
0

>  <SCORE.SYSTEM.CONST>
0

>  <SCORE.SYSTEM.DIHEDRAL>
0

>  <SCORE.SYSTEM.SOLV>
0

>  <SCORE.SYSTEM.norm>
0

>  <SCORE.heavy>
46

>  <SCORE.norm>
0.581269

>  <RMSD>
28.026

$$$$
lig.pdb
 OpenBabel03061811583D
libRbt.so/2013.1/901 2013/11/27
 46 49  0  0  0  0  0  0  0  0999 V2000
   -9.5600   -3.6089   13.4699 C   0  0  1  0  0  0  0  0  0  0  0  0
   -9.8078   -1.8877   15.3094 C   0  0  1  0  0  0  0  0  0  0  0  0
   -9.7157   -0.3320   15.3417 C   0  0  1  0  0  0  0  0  0  0  0  0
   -9.5504    0.1483   16.8730 C   0  0  2  0  0  0  0  0  0  0  0  0
   -8.4160    0.1286   13.2118 C   0  0  2  0  0  0  0  0  0  0  0  0
   -9.4929    1.0497   12.5709 C   0  0  1  0  0  0  0  0  0  0  0  0
   -8.7335    1.4177   11.3193 C   0  0  1  0  0  0  0  0  0  0  0  0
   -7.2963    1.7726   11.8169 C   0  0  1  0  0  0  0  0  0  0  0  0
   -7.0795    3.2198   12.3830 C   0  0  0  0  0  0  0  0  0  0  0  0
   -8.9029    0.4918    9.0394 C   0  0  1  0  0  0  0  0  0  0  0  0
  -10.3097    0.8624    8.6755 C   0  0  1  0  0  0  0  0  0  0  0  0
   -8.6436   -3.4246   12.2373 C   0  0  1  0  0  0  0  0  0  0  0  0
  -10.3819    1.0782    7.1223 C   0  0  0  0  0  0  0  0  0  0  0  0
  -10.0333   -0.0724    6.3392 C   0  0  0  0  0  0  0  0  0  0  0  0
   -8.6654   -0.4396    6.6379 C   0  0  2  0  0  0  0  0  0  0  0  0
   -8.2257   -1.7105    5.8094 C   0  0  0  0  0  0  0  0  0  0  0  0
   -9.6218    2.1573   21.1209 C   0  0  2  0  0  0  0  0  0  0  0  0
  -11.0923    1.5267   19.3909 C   0  0  0  0  0  0  0  0  0  0  0  0
   -9.3210    2.1876   22.4695 C   0  0  0  0  0  0  0  0  0  0  0  0
  -10.9122    1.7683   20.9696 C   0  0  1  0  0  0  0  0  0  0  0  0
   -9.4564   -2.8188   11.0043 C   0  0  0  0  0  0  0  0  0  0  0  0
  -10.6712   -3.8107   10.6689 C   0  0  0  0  0  0  0  0  0  0  0  0
  -11.5862   -3.9269   11.9747 C   0  0  1  0  0  0  0  0  0  0  0  0
  -12.7761   -4.8694   11.7574 C   0  0  0  0  0  0  0  0  0  0  0  0
  -10.8528   -0.2944   17.6721 C   0  0  1  0  0  0  0  0  0  0  0  0
  -10.8813   -1.9139   17.6245 C   0  0  0  0  0  0  0  0  0  0  0  0
  -11.0134   -2.4064   16.1319 C   0  0  2  0  0  0  0  0  0  0  0  0
   -8.6852    1.2947   20.4365 F   0  0  0  0  0  0  0  0  0  0  0  0
   -7.9664   -1.4003    4.3072 N   0  0  0  0  0  0  0  0  0  0  0  0
   -7.4832   -2.5473   12.6414 N   0  0  0  0  0  0  0  0  0  0  0  0
  -11.2537   -0.1294    8.9560 N   0  0  0  0  0  0  0  0  0  0  0  0
   -9.1850    1.1501   23.4216 N   0  0  0  0  0  0  0  0  0  0  0  0
  -12.4417   -6.1964   12.1014 N   0  0  0  0  0  0  0  0  0  0  0  0
  -10.7474    0.1385   19.0771 N   0  0  0  0  0  0  0  0  0  0  0  0
  -11.0280   -3.8848   16.0718 N   0  0  0  0  0  0  0  0  0  0  0  0
   -9.9949   -2.3468   13.9769 O   0  0  0  0  0  0  0  0  0  0  0  0
   -8.5204    0.0473   14.5170 O   0  0  0  0  0  0  0  0  0  0  0  0
   -9.4720    1.5230   16.8745 O   0  0  0  0  0  0  0  0  0  0  0  0
  -10.6391    0.2880   12.3402 O   0  0  0  0  0  0  0  0  0  0  0  0
   -7.1380    0.6565   12.7085 O   0  0  0  0  0  0  0  0  0  0  0  0
   -7.7721    3.2961   13.6450 O   0  0  0  0  0  0  0  0  0  0  0  0
   -8.7171    0.2263   10.3787 O   0  0  0  0  0  0  0  0  0  0  0  0
  -11.2240    0.5535   21.6860 O   0  0  0  0  0  0  0  0  0  0  0  0
  -11.4788    2.3884   18.5841 O   0  0  0  0  0  0  0  0  0  0  0  0
   -8.4992   -0.6861    8.1189 O   0  0  0  0  0  0  0  0  0  0  0  0
  -10.7592   -4.4501   13.1376 O   0  0  0  0  0  0  0  0  0  0  0  0
  1 36  1  6  0  0  0
  2 36  1  6  0  0  0
  2  3  1  0  0  0  0
  3 37  1  6  0  0  0
  3  4  1  0  0  0  0
  4 38  1  6  0  0  0
  5 37  1  1  0  0  0
  5  6  1  0  0  0  0
  6  7  1  0  0  0  0
  6 39  1  6  0  0  0
  7 42  1  6  0  0  0
  8  9  1  1  0  0  0
  8  7  1  0  0  0  0
 10 42  1  1  0  0  0
 10 11  1  0  0  0  0
 11 31  1  6  0  0  0
 11 13  1  0  0  0  0
 12 30  1  1  0  0  0
 12  1  1  0  0  0  0
 14 13  1  0  0  0  0
 15 16  1  6  0  0  0
 15 14  1  0  0  0  0
 17 19  1  1  0  0  0
 17 28  1  0  0  0  0
 18 34  1  0  0  0  0
 19 32  1  0  0  0  0
 20 18  1  6  0  0  0
 20 17  1  0  0  0  0
 20 43  1  0  0  0  0
 21 12  1  0  0  0  0
 22 21  1  0  0  0  0
 22 23  1  0  0  0  0
 23 24  1  6  0  0  0
 23 46  1  0  0  0  0
 24 33  1  0  0  0  0
 25 34  1  1  0  0  0
 25  4  1  0  0  0  0
 26 25  1  0  0  0  0
 27 35  1  1  0  0  0
 27 26  1  0  0  0  0
 27  2  1  0  0  0  0
 29 16  1  0  0  0  0
 40  8  1  0  0  0  0
 40  5  1  0  0  0  0
 41  9  1  0  0  0  0
 44 18  2  0  0  0  0
 45 15  1  0  0  0  0
 45 10  1  0  0  0  0
 46  1  1  0  0  0  0
M  END
>  <CHROM.1>
-123.75514841,151.12286705,79.65806020,54.15007708,139.07948996,70.38596250
-73.01185837,74.24078659,68.77684858,89.18555829,-170.83256373,89.84159174
81.64096633,-9.67900002,-0.49109899,13.78437831,1.41638957,-1.14689682,-1.88002440

>  <Name>
lig.pdb

>  <RI>
0

>  <Rbt.Current_Directory>
/home/afrankz/demos/rdock_decoys_rna/rnas/3wru

>  <Rbt.Executable>
rbdock ($Id: //depot/dev/client3/rdock/2013.1/src/exe/rbdock.cxx#4 $)

>  <Rbt.Library>
libRbt.so (2013.1, Build901 2013/11/27)

>  <Rbt.Parameter_File>
/export/apps/rDock/src/rDock_2013.1_src/data/scripts/dock_solv.prm

>  <Rbt.Receptor>
prm/blind_docking_40.prm

>  <SCORE>
11.2954

>  <SCORE.INTER>
1.4836

>  <SCORE.INTER.CONST>
1

>  <SCORE.INTER.POLAR>
0

>  <SCORE.INTER.ROT>
13

>  <SCORE.INTER.SOLV>
38.4233

>  <SCORE.INTER.VDW>
-24.0854

>  <SCORE.INTER.norm>
0.0322521

>  <SCORE.INTRA>
6.57703

>  <SCORE.INTRA.DIHEDRAL>
5.24521

>  <SCORE.INTRA.DIHEDRAL.0>
19.7146

>  <SCORE.INTRA.POLAR>
0

>  <SCORE.INTRA.POLAR.0>
0

>  <SCORE.INTRA.REPUL>
0

>  <SCORE.INTRA.REPUL.0>
0

>  <SCORE.INTRA.SOLV>
7.01115

>  <SCORE.INTRA.SOLV.lig_0>
-116.697

>  <SCORE.INTRA.VDW>
0.448848

>  <SCORE.INTRA.VDW.0>
-7.06424

>  <SCORE.INTRA.norm>
0.142979

>  <SCORE.RESTR>
3.23478

>  <SCORE.RESTR.CAVITY>
3.23478

>  <SCORE.RESTR.norm>
0.0703214

>  <SCORE.SYSTEM>
0

>  <SCORE.SYSTEM.CONST>
0

>  <SCORE.SYSTEM.DIHEDRAL>
0

>  <SCORE.SYSTEM.SOLV>
0

>  <SCORE.SYSTEM.norm>
0

>  <SCORE.heavy>
46

>  <SCORE.norm>
0.245552

>  <RMSD>
28.091

$$$$
lig.pdb
 OpenBabel03061811583D
libRbt.so/2013.1/901 2013/11/27
 46 49  0  0  0  0  0  0  0  0999 V2000
  -10.2583   -2.3259   16.7717 C   0  0  1  0  0  0  0  0  0  0  0  0
  -10.5772   -2.0800   14.2726 C   0  0  1  0  0  0  0  0  0  0  0  0
   -9.0195   -2.0306   14.2444 C   0  0  1  0  0  0  0  0  0  0  0  0
   -8.5240   -2.0977   12.7105 C   0  0  2  0  0  0  0  0  0  0  0  0
   -8.7709    0.4861   14.4503 C   0  0  2  0  0  0  0  0  0  0  0  0
   -8.0508    1.5477   15.3296 C   0  0  1  0  0  0  0  0  0  0  0  0
   -7.8744    2.6095   14.2711 C   0  0  1  0  0  0  0  0  0  0  0  0
   -7.3473    1.8384   13.0195 C   0  0  1  0  0  0  0  0  0  0  0  0
   -5.8101    1.5272   12.9742 C   0  0  0  0  0  0  0  0  0  0  0  0
  -10.2664    2.8893   14.8038 C   0  0  1  0  0  0  0  0  0  0  0  0
  -11.5964    2.8652   14.1115 C   0  0  1  0  0  0  0  0  0  0  0  0
  -10.9946   -3.2803   17.7415 C   0  0  1  0  0  0  0  0  0  0  0  0
  -12.6975    2.4792   15.1617 C   0  0  0  0  0  0  0  0  0  0  0  0
  -12.8151    3.3841   16.2690 C   0  0  0  0  0  0  0  0  0  0  0  0
  -11.5573    3.4070   16.9848 C   0  0  2  0  0  0  0  0  0  0  0  0
  -11.6225    4.3967   18.2141 C   0  0  0  0  0  0  0  0  0  0  0  0
   -9.2445   -2.2442    7.4150 C   0  0  2  0  0  0  0  0  0  0  0  0
   -9.1084   -2.6529    9.7318 C   0  0  0  0  0  0  0  0  0  0  0  0
   -8.7139   -0.9749    7.2833 C   0  0  0  0  0  0  0  0  0  0  0  0
   -8.4783   -2.9501    8.2834 C   0  0  1  0  0  0  0  0  0  0  0  0
  -12.2896   -2.5817   18.3600 C   0  0  0  0  0  0  0  0  0  0  0  0
  -11.8255   -1.2459   19.1167 C   0  0  0  0  0  0  0  0  0  0  0  0
  -11.1030   -0.3013   18.0482 C   0  0  1  0  0  0  0  0  0  0  0  0
  -10.6087    1.0050   18.6814 C   0  0  0  0  0  0  0  0  0  0  0  0
   -8.9933   -3.4902   12.1011 C   0  0  1  0  0  0  0  0  0  0  0  0
  -10.6133   -3.4730   12.1346 C   0  0  0  0  0  0  0  0  0  0  0  0
  -11.1200   -3.3782   13.6254 C   0  0  2  0  0  0  0  0  0  0  0  0
   -9.3436   -2.8637    6.1127 F   0  0  0  0  0  0  0  0  0  0  0  0
  -12.2844    5.7607   17.8653 N   0  0  0  0  0  0  0  0  0  0  0  0
  -11.3332   -4.5450   16.9896 N   0  0  0  0  0  0  0  0  0  0  0  0
  -11.9950    4.1010   13.5943 N   0  0  0  0  0  0  0  0  0  0  0  0
   -9.1328    0.1399    6.5197 N   0  0  0  0  0  0  0  0  0  0  0  0
   -9.9206    0.7556   19.8877 N   0  0  0  0  0  0  0  0  0  0  0  0
   -8.5476   -3.5975   10.7003 N   0  0  0  0  0  0  0  0  0  0  0  0
  -12.5986   -3.3488   13.6708 N   0  0  0  0  0  0  0  0  0  0  0  0
  -11.0507   -2.0634   15.6131 O   0  0  0  0  0  0  0  0  0  0  0  0
   -8.6164   -0.7388   14.8938 O   0  0  0  0  0  0  0  0  0  0  0  0
   -7.1477   -2.0530   12.7128 O   0  0  0  0  0  0  0  0  0  0  0  0
   -8.9101    1.9126   16.3668 O   0  0  0  0  0  0  0  0  0  0  0  0
   -8.2682    0.7372   13.0903 O   0  0  0  0  0  0  0  0  0  0  0  0
   -5.5443    0.5263   13.9769 O   0  0  0  0  0  0  0  0  0  0  0  0
   -9.2155    3.2649   13.9955 O   0  0  0  0  0  0  0  0  0  0  0  0
   -8.4973   -4.3715    8.0273 O   0  0  0  0  0  0  0  0  0  0  0  0
   -9.9271   -1.7509    9.9742 O   0  0  0  0  0  0  0  0  0  0  0  0
  -10.4301    3.7880   16.0542 O   0  0  0  0  0  0  0  0  0  0  0  0
   -9.9131   -1.0267   17.4416 O   0  0  0  0  0  0  0  0  0  0  0  0
  1 36  1  6  0  0  0
  2 36  1  1  0  0  0
  2  3  1  0  0  0  0
  3 37  1  6  0  0  0
  3  4  1  0  0  0  0
  4 38  1  1  0  0  0
  5 37  1  1  0  0  0
  5  6  1  0  0  0  0
  6  7  1  0  0  0  0
  6 39  1  1  0  0  0
  7 42  1  6  0  0  0
  8  9  1  1  0  0  0
  8  7  1  0  0  0  0
 10 42  1  6  0  0  0
 10 11  1  0  0  0  0
 11 31  1  1  0  0  0
 11 13  1  0  0  0  0
 12 30  1  6  0  0  0
 12  1  1  0  0  0  0
 14 13  1  0  0  0  0
 15 16  1  1  0  0  0
 15 14  1  0  0  0  0
 17 19  1  6  0  0  0
 17 28  1  0  0  0  0
 18 34  1  0  0  0  0
 19 32  1  0  0  0  0
 20 18  1  1  0  0  0
 20 17  1  0  0  0  0
 20 43  1  0  0  0  0
 21 12  1  0  0  0  0
 22 21  1  0  0  0  0
 22 23  1  0  0  0  0
 23 24  1  1  0  0  0
 23 46  1  0  0  0  0
 24 33  1  0  0  0  0
 25 34  1  6  0  0  0
 25  4  1  0  0  0  0
 26 25  1  0  0  0  0
 27 35  1  6  0  0  0
 27 26  1  0  0  0  0
 27  2  1  0  0  0  0
 29 16  1  0  0  0  0
 40  8  1  0  0  0  0
 40  5  1  0  0  0  0
 41  9  1  0  0  0  0
 44 18  2  0  0  0  0
 45 15  1  0  0  0  0
 45 10  1  0  0  0  0
 46  1  1  0  0  0  0
M  END
>  <CHROM.1>
-134.64371529,-15.69586890,-69.46243769,-172.35667670,5.84737539,70.29057839
-146.09357104,-44.94706032,-179.38187118,167.38031929,88.93484051,47.07991183
-64.68933337,-9.80949029,-0.26465855,13.93854349,2.42466811,1.27495134,0.27711430

>  <Name>
lig.pdb

>  <RI>
0

>  <Rbt.Current_Directory>
/home/afrankz/demos/rdock_decoys_rna/rnas/3wru

>  <Rbt.Executable>
rbdock ($Id: //depot/dev/client3/rdock/2013.1/src/exe/rbdock.cxx#4 $)

>  <Rbt.Library>
libRbt.so (2013.1, Build901 2013/11/27)

>  <Rbt.Parameter_File>
/export/apps/rDock/src/rDock_2013.1_src/data/scripts/dock_solv.prm

>  <Rbt.Receptor>
prm/blind_docking_40.prm

>  <SCORE>
26.8804

>  <SCORE.INTER>
2.70442

>  <SCORE.INTER.CONST>
1

>  <SCORE.INTER.POLAR>
0

>  <SCORE.INTER.ROT>
13

>  <SCORE.INTER.SOLV>
35.1923

>  <SCORE.INTER.VDW>
-22.1945

>  <SCORE.INTER.norm>
0.0587917

>  <SCORE.INTRA>
20.4453

>  <SCORE.INTRA.DIHEDRAL>
9.49802

>  <SCORE.INTRA.DIHEDRAL.0>
19.7146

>  <SCORE.INTRA.POLAR>
0

>  <SCORE.INTRA.POLAR.0>
0

>  <SCORE.INTRA.REPUL>
0

>  <SCORE.INTRA.REPUL.0>
0

>  <SCORE.INTRA.SOLV>
3.79487

>  <SCORE.INTRA.SOLV.lig_0>
-116.697

>  <SCORE.INTRA.VDW>
13.7988

>  <SCORE.INTRA.VDW.0>
-7.06424

>  <SCORE.INTRA.norm>
0.444462

>  <SCORE.RESTR>
3.73075

>  <SCORE.RESTR.CAVITY>
3.73075

>  <SCORE.RESTR.norm>
0.0811033

>  <SCORE.SYSTEM>
0

>  <SCORE.SYSTEM.CONST>
0

>  <SCORE.SYSTEM.DIHEDRAL>
0

>  <SCORE.SYSTEM.SOLV>
0

>  <SCORE.SYSTEM.norm>
0

>  <SCORE.heavy>
46

>  <SCORE.norm>
0.584357

>  <RMSD>
28.193

$$$$
lig.pdb
 OpenBabel03061811583D
libRbt.so/2013.1/901 2013/11/27
 46 49  0  0  0  0  0  0  0  0999 V2000
  -12.9774    3.1060   13.3689 C   0  0  1  0  0  0  0  0  0  0  0  0
  -11.4910    2.7340   11.3540 C   0  0  1  0  0  0  0  0  0  0  0  0
  -10.8190    1.4237   11.8652 C   0  0  1  0  0  0  0  0  0  0  0  0
  -10.3396    0.5540   10.5937 C   0  0  2  0  0  0  0  0  0  0  0  0
   -8.5736    1.1580   13.0165 C   0  0  2  0  0  0  0  0  0  0  0  0
   -7.9644    1.5589   14.3901 C   0  0  1  0  0  0  0  0  0  0  0  0
   -7.2516    0.2619   14.6880 C   0  0  1  0  0  0  0  0  0  0  0  0
   -8.2961   -0.8505   14.3550 C   0  0  1  0  0  0  0  0  0  0  0  0
   -9.3628   -1.1745   15.4590 C   0  0  0  0  0  0  0  0  0  0  0  0
   -5.0457    1.1082   13.9799 C   0  0  1  0  0  0  0  0  0  0  0  0
   -4.9197    2.0787   12.8435 C   0  0  1  0  0  0  0  0  0  0  0  0
  -13.8694    4.3044   13.7705 C   0  0  1  0  0  0  0  0  0  0  0  0
   -3.7375    3.0625   13.1578 C   0  0  0  0  0  0  0  0  0  0  0  0
   -2.4583    2.4327   13.3179 C   0  0  0  0  0  0  0  0  0  0  0  0
   -2.5310    1.5117   14.4321 C   0  0  2  0  0  0  0  0  0  0  0  0
   -1.1496    0.7782   14.6526 C   0  0  0  0  0  0  0  0  0  0  0  0
  -11.3440   -1.4487    5.9111 C   0  0  2  0  0  0  0  0  0  0  0  0
  -10.4476    0.0040    7.5357 C   0  0  0  0  0  0  0  0  0  0  0  0
  -11.1717   -2.5116    5.0447 C   0  0  0  0  0  0  0  0  0  0  0  0
  -10.1299   -1.0630    6.3764 C   0  0  1  0  0  0  0  0  0  0  0  0
  -13.0424    5.3766   14.6156 C   0  0  0  0  0  0  0  0  0  0  0  0
  -12.4523    4.6440   15.9145 C   0  0  0  0  0  0  0  0  0  0  0  0
  -11.5215    3.4417   15.4207 C   0  0  1  0  0  0  0  0  0  0  0  0
  -10.9158    2.6667   16.5971 C   0  0  0  0  0  0  0  0  0  0  0  0
  -11.6299    0.1605    9.7505 C   0  0  1  0  0  0  0  0  0  0  0  0
  -12.2687    1.5552    9.2283 C   0  0  0  0  0  0  0  0  0  0  0  0
  -12.7184    2.4351   10.4578 C   0  0  2  0  0  0  0  0  0  0  0  0
  -12.2608   -1.8267    6.9628 F   0  0  0  0  0  0  0  0  0  0  0  0
   -1.1069   -0.0633   15.9603 N   0  0  0  0  0  0  0  0  0  0  0  0
  -14.4534    4.8984   12.5114 N   0  0  0  0  0  0  0  0  0  0  0  0
   -4.5943    1.4876   11.6195 N   0  0  0  0  0  0  0  0  0  0  0  0
  -12.1025   -3.3993    4.4557 N   0  0  0  0  0  0  0  0  0  0  0  0
  -11.8715    1.8132   17.1883 N   0  0  0  0  0  0  0  0  0  0  0  0
  -11.2357   -0.6486    8.5833 N   0  0  0  0  0  0  0  0  0  0  0  0
  -13.2926    3.7183    9.9962 N   0  0  0  0  0  0  0  0  0  0  0  0
  -11.9635    3.5095   12.4479 O   0  0  0  0  0  0  0  0  0  0  0  0
   -9.6536    1.8390   12.7151 O   0  0  0  0  0  0  0  0  0  0  0  0
   -9.7510   -0.5958   11.0709 O   0  0  0  0  0  0  0  0  0  0  0  0
   -7.1124    2.6458   14.1905 O   0  0  0  0  0  0  0  0  0  0  0  0
   -8.7469   -0.3005   13.1059 O   0  0  0  0  0  0  0  0  0  0  0  0
   -8.6876   -1.1409   16.7322 O   0  0  0  0  0  0  0  0  0  0  0  0
   -6.0238    0.1540   13.8019 O   0  0  0  0  0  0  0  0  0  0  0  0
   -9.3595   -2.1570    6.9203 O   0  0  0  0  0  0  0  0  0  0  0  0
  -10.0636    1.1851    7.5330 O   0  0  0  0  0  0  0  0  0  0  0  0
   -3.6376    0.5073   14.2121 O   0  0  0  0  0  0  0  0  0  0  0  0
  -12.3336    2.4775   14.5716 O   0  0  0  0  0  0  0  0  0  0  0  0
  1 36  1  6  0  0  0
  2 36  1  1  0  0  0
  2  3  1  0  0  0  0
  3 37  1  1  0  0  0
  3  4  1  0  0  0  0
  4 38  1  1  0  0  0
  5 37  1  1  0  0  0
  5  6  1  0  0  0  0
  6  7  1  0  0  0  0
  6 39  1  6  0  0  0
  7 42  1  6  0  0  0
  8  9  1  1  0  0  0
  8  7  1  0  0  0  0
 10 42  1  6  0  0  0
 10 11  1  0  0  0  0
 11 31  1  6  0  0  0
 11 13  1  0  0  0  0
 12 30  1  6  0  0  0
 12  1  1  0  0  0  0
 14 13  1  0  0  0  0
 15 16  1  6  0  0  0
 15 14  1  0  0  0  0
 17 19  1  6  0  0  0
 17 28  1  0  0  0  0
 18 34  1  0  0  0  0
 19 32  1  0  0  0  0
 20 18  1  1  0  0  0
 20 17  1  0  0  0  0
 20 43  1  0  0  0  0
 21 12  1  0  0  0  0
 22 21  1  0  0  0  0
 22 23  1  0  0  0  0
 23 24  1  1  0  0  0
 23 46  1  0  0  0  0
 24 33  1  0  0  0  0
 25 34  1  6  0  0  0
 25  4  1  0  0  0  0
 26 25  1  0  0  0  0
 27 35  1  6  0  0  0
 27 26  1  0  0  0  0
 27  2  1  0  0  0  0
 29 16  1  0  0  0  0
 40  8  1  0  0  0  0
 40  5  1  0  0  0  0
 41  9  1  0  0  0  0
 44 18  2  0  0  0  0
 45 15  1  0  0  0  0
 45 10  1  0  0  0  0
 46  1  1  0  0  0  0
M  END
>  <CHROM.1>
-142.81722324,-63.17511924,-156.77527089,-151.45700083,63.10726089,-39.94601218
-110.09987041,171.50586167,169.12630343,60.62776919,-171.30959300,76.43809680
-67.00814175,-9.27466750,1.12368327,12.08809049,2.41510963,0.26525656,-2.04781796

>  <Name>
lig.pdb

>  <RI>
0

>  <Rbt.Current_Directory>
/home/afrankz/demos/rdock_decoys_rna/rnas/3wru

>  <Rbt.Executable>
rbdock ($Id: //depot/dev/client3/rdock/2013.1/src/exe/rbdock.cxx#4 $)

>  <Rbt.Library>
libRbt.so (2013.1, Build901 2013/11/27)

>  <Rbt.Parameter_File>
/export/apps/rDock/src/rDock_2013.1_src/data/scripts/dock_solv.prm

>  <Rbt.Receptor>
prm/blind_docking_60.prm

>  <SCORE>
34.1352

>  <SCORE.INTER>
14.7055

>  <SCORE.INTER.CONST>
1

>  <SCORE.INTER.POLAR>
0

>  <SCORE.INTER.ROT>
13

>  <SCORE.INTER.SOLV>
32.2332

>  <SCORE.INTER.VDW>
-13.2074

>  <SCORE.INTER.norm>
0.319684

>  <SCORE.INTRA>
12.475

>  <SCORE.INTRA.DIHEDRAL>
1.8126

>  <SCORE.INTRA.DIHEDRAL.0>
19.7146

>  <SCORE.INTRA.POLAR>
0

>  <SCORE.INTRA.POLAR.0>
0

>  <SCORE.INTRA.REPUL>
0

>  <SCORE.INTRA.REPUL.0>
0

>  <SCORE.INTRA.SOLV>
2.59463

>  <SCORE.INTRA.SOLV.lig_0>
-116.697

>  <SCORE.INTRA.VDW>
10.2714

>  <SCORE.INTRA.VDW.0>
-7.06424

>  <SCORE.INTRA.norm>
0.271195

>  <SCORE.RESTR>
6.95474

>  <SCORE.RESTR.CAVITY>
6.95474

>  <SCORE.RESTR.norm>
0.15119

>  <SCORE.SYSTEM>
0

>  <SCORE.SYSTEM.CONST>
0

>  <SCORE.SYSTEM.DIHEDRAL>
0

>  <SCORE.SYSTEM.SOLV>
0

>  <SCORE.SYSTEM.norm>
0

>  <SCORE.heavy>
46

>  <SCORE.norm>
0.742069

>  <RMSD>
28.219

$$$$
lig.pdb
 OpenBabel03061811583D
libRbt.so/2013.1/901 2013/11/27
 46 49  0  0  0  0  0  0  0  0999 V2000
  -11.0122   -2.9781   12.3280 C   0  0  1  0  0  0  0  0  0  0  0  0
  -11.2035   -0.7356   11.1694 C   0  0  1  0  0  0  0  0  0  0  0  0
   -9.7236   -0.5518   10.7157 C   0  0  1  0  0  0  0  0  0  0  0  0
   -9.6958    0.3656    9.3889 C   0  0  2  0  0  0  0  0  0  0  0  0
   -9.3798    1.1340   12.5807 C   0  0  2  0  0  0  0  0  0  0  0  0
   -8.7404    1.1436   13.9983 C   0  0  1  0  0  0  0  0  0  0  0  0
   -8.8303    2.6282   14.2569 C   0  0  1  0  0  0  0  0  0  0  0  0
   -8.3229    3.2923   12.9375 C   0  0  1  0  0  0  0  0  0  0  0  0
   -6.7690    3.4104   12.7556 C   0  0  0  0  0  0  0  0  0  0  0  0
  -10.7785    2.6174   15.7695 C   0  0  1  0  0  0  0  0  0  0  0  0
  -12.0240    3.3478   16.1747 C   0  0  1  0  0  0  0  0  0  0  0  0
  -10.6604   -3.4639   13.7540 C   0  0  1  0  0  0  0  0  0  0  0  0
  -12.4463    2.8567   17.6047 C   0  0  0  0  0  0  0  0  0  0  0  0
  -11.4704    3.0862   18.6311 C   0  0  0  0  0  0  0  0  0  0  0  0
  -10.2619    2.3656   18.2916 C   0  0  2  0  0  0  0  0  0  0  0  0
   -9.1432    2.5881   19.3842 C   0  0  0  0  0  0  0  0  0  0  0  0
  -10.3202    1.9479    5.1241 C   0  0  2  0  0  0  0  0  0  0  0  0
  -10.5510   -0.3184    5.7269 C   0  0  0  0  0  0  0  0  0  0  0  0
   -8.9608    2.1332    5.2911 C   0  0  0  0  0  0  0  0  0  0  0  0
  -10.5275    0.7488    4.5253 C   0  0  1  0  0  0  0  0  0  0  0  0
   -9.2689   -2.8520   14.2409 C   0  0  0  0  0  0  0  0  0  0  0  0
   -8.1354   -3.2885   13.1934 C   0  0  0  0  0  0  0  0  0  0  0  0
   -8.5522   -2.7274   11.7556 C   0  0  1  0  0  0  0  0  0  0  0  0
   -7.5310   -3.1055   10.6760 C   0  0  0  0  0  0  0  0  0  0  0  0
  -10.4812   -0.4050    8.2399 C   0  0  1  0  0  0  0  0  0  0  0  0
  -12.0109   -0.5445    8.7561 C   0  0  0  0  0  0  0  0  0  0  0  0
  -12.0583   -1.4147   10.0708 C   0  0  2  0  0  0  0  0  0  0  0  0
  -10.8707    3.0571    4.3783 F   0  0  0  0  0  0  0  0  0  0  0  0
   -9.5110    1.9785   20.7675 N   0  0  0  0  0  0  0  0  0  0  0  0
  -11.7995   -3.0910   14.6720 N   0  0  0  0  0  0  0  0  0  0  0  0
  -11.8641    4.7314   16.2905 N   0  0  0  0  0  0  0  0  0  0  0  0
   -7.9874    1.3620    5.9686 N   0  0  0  0  0  0  0  0  0  0  0  0
   -7.8843   -4.3175   10.0456 N   0  0  0  0  0  0  0  0  0  0  0  0
  -10.4678    0.3958    7.0026 N   0  0  0  0  0  0  0  0  0  0  0  0
  -13.4487   -1.5402   10.5612 N   0  0  0  0  0  0  0  0  0  0  0  0
  -11.2713   -1.5738   12.3158 O   0  0  0  0  0  0  0  0  0  0  0  0
   -9.0018    0.1095   11.8536 O   0  0  0  0  0  0  0  0  0  0  0  0
   -8.3805    0.5123    9.0087 O   0  0  0  0  0  0  0  0  0  0  0  0
   -9.5359    0.3678   14.8424 O   0  0  0  0  0  0  0  0  0  0  0  0
   -9.0588    2.4588   12.0266 O   0  0  0  0  0  0  0  0  0  0  0  0
   -6.5262    4.4706   11.8095 O   0  0  0  0  0  0  0  0  0  0  0  0
  -10.2745    2.9967   14.5443 O   0  0  0  0  0  0  0  0  0  0  0  0
  -11.7734    0.6886    3.7971 O   0  0  0  0  0  0  0  0  0  0  0  0
  -10.6419   -1.5481    5.5776 O   0  0  0  0  0  0  0  0  0  0  0  0
   -9.7652    2.7857   16.9282 O   0  0  0  0  0  0  0  0  0  0  0  0
   -9.9081   -3.2875   11.3580 O   0  0  0  0  0  0  0  0  0  0  0  0
  1 36  1  1  0  0  0
  2 36  1  1  0  0  0
  2  3  1  0  0  0  0
  3 37  1  1  0  0  0
  3  4  1  0  0  0  0
  4 38  1  6  0  0  0
  5 37  1  6  0  0  0
  5  6  1  0  0  0  0
  6  7  1  0  0  0  0
  6 39  1  1  0  0  0
  7 42  1  6  0  0  0
  8  9  1  6  0  0  0
  8  7  1  0  0  0  0
 10 42  1  6  0  0  0
 10 11  1  0  0  0  0
 11 31  1  1  0  0  0
 11 13  1  0  0  0  0
 12 30  1  1  0  0  0
 12  1  1  0  0  0  0
 14 13  1  0  0  0  0
 15 16  1  1  0  0  0
 15 14  1  0  0  0  0
 17 19  1  6  0  0  0
 17 28  1  0  0  0  0
 18 34  1  0  0  0  0
 19 32  1  0  0  0  0
 20 18  1  1  0  0  0
 20 17  1  0  0  0  0
 20 43  1  0  0  0  0
 21 12  1  0  0  0  0
 22 21  1  0  0  0  0
 22 23  1  0  0  0  0
 23 24  1  6  0  0  0
 23 46  1  0  0  0  0
 24 33  1  0  0  0  0
 25 34  1  6  0  0  0
 25  4  1  0  0  0  0
 26 25  1  0  0  0  0
 27 35  1  1  0  0  0
 27 26  1  0  0  0  0
 27  2  1  0  0  0  0
 29 16  1  0  0  0  0
 40  8  1  0  0  0  0
 40  5  1  0  0  0  0
 41  9  1  0  0  0  0
 44 18  2  0  0  0  0
 45 15  1  0  0  0  0
 45 10  1  0  0  0  0
 46  1  1  0  0  0  0
M  END
>  <CHROM.1>
158.84918110,-70.45446020,-45.58461143,154.23427263,73.19430984,-157.56973972
162.09820458,65.81081424,-57.77420803,5.13943502,85.57997687,92.08545169
152.08749451,-9.96404971,0.50646165,11.70727295,1.52707408,1.50652588,1.44262328

>  <Name>
lig.pdb

>  <RI>
0

>  <Rbt.Current_Directory>
/home/afrankz/demos/rdock_decoys_rna/rnas/3wru

>  <Rbt.Executable>
rbdock ($Id: //depot/dev/client3/rdock/2013.1/src/exe/rbdock.cxx#4 $)

>  <Rbt.Library>
libRbt.so (2013.1, Build901 2013/11/27)

>  <Rbt.Parameter_File>
/export/apps/rDock/src/rDock_2013.1_src/data/scripts/dock_solv.prm

>  <Rbt.Receptor>
prm/blind_docking_80.prm

>  <SCORE>
26.2332

>  <SCORE.INTER>
6.98288

>  <SCORE.INTER.CONST>
1

>  <SCORE.INTER.POLAR>
0

>  <SCORE.INTER.ROT>
13

>  <SCORE.INTER.SOLV>
28.4055

>  <SCORE.INTER.VDW>
-17.0799

>  <SCORE.INTER.norm>
0.151802

>  <SCORE.INTRA>
7.72277

>  <SCORE.INTRA.DIHEDRAL>
-1.54663

>  <SCORE.INTRA.DIHEDRAL.0>
19.7146

>  <SCORE.INTRA.POLAR>
0

>  <SCORE.INTRA.POLAR.0>
0

>  <SCORE.INTRA.REPUL>
0

>  <SCORE.INTRA.REPUL.0>
0

>  <SCORE.INTRA.SOLV>
2.70019

>  <SCORE.INTRA.SOLV.lig_0>
-116.697

>  <SCORE.INTRA.VDW>
7.14598

>  <SCORE.INTRA.VDW.0>
-7.06424

>  <SCORE.INTRA.norm>
0.167886

>  <SCORE.RESTR>
11.5275

>  <SCORE.RESTR.CAVITY>
11.5275

>  <SCORE.RESTR.norm>
0.250598

>  <SCORE.SYSTEM>
0

>  <SCORE.SYSTEM.CONST>
0

>  <SCORE.SYSTEM.DIHEDRAL>
0

>  <SCORE.SYSTEM.SOLV>
0

>  <SCORE.SYSTEM.norm>
0

>  <SCORE.heavy>
46

>  <SCORE.norm>
0.570286

>  <RMSD>
28.264

$$$$
lig.pdb
 OpenBabel03061811583D
libRbt.so/2013.1/901 2013/11/27
 46 49  0  0  0  0  0  0  0  0999 V2000
   -9.9560   -2.3592   14.3300 C   0  0  1  0  0  0  0  0  0  0  0  0
  -10.4255   -1.0367   12.2231 C   0  0  1  0  0  0  0  0  0  0  0  0
   -8.8971   -0.7390   12.2950 C   0  0  1  0  0  0  0  0  0  0  0  0
   -8.4742    0.1285   11.0021 C   0  0  2  0  0  0  0  0  0  0  0  0
   -9.2149    1.1482   13.9609 C   0  0  2  0  0  0  0  0  0  0  0  0
   -8.5191    1.7612   15.2094 C   0  0  1  0  0  0  0  0  0  0  0  0
   -8.9111    3.2009   14.9800 C   0  0  1  0  0  0  0  0  0  0  0  0
   -8.6275    3.4528   13.4650 C   0  0  1  0  0  0  0  0  0  0  0  0
   -7.1466    3.7848   13.0668 C   0  0  0  0  0  0  0  0  0  0  0  0
  -10.7767    3.0521   16.5865 C   0  0  1  0  0  0  0  0  0  0  0  0
  -12.2400    3.2499   16.8485 C   0  0  1  0  0  0  0  0  0  0  0  0
  -10.4102   -3.7684   14.7784 C   0  0  1  0  0  0  0  0  0  0  0  0
  -12.5282    2.9018   18.3519 C   0  0  0  0  0  0  0  0  0  0  0  0
  -11.8173    3.7082   19.3021 C   0  0  0  0  0  0  0  0  0  0  0  0
  -10.3966    3.5157   19.1028 C   0  0  2  0  0  0  0  0  0  0  0  0
   -9.5583    4.3885   20.1180 C   0  0  0  0  0  0  0  0  0  0  0  0
   -8.8691    0.0902    5.0038 C   0  0  2  0  0  0  0  0  0  0  0  0
   -8.4998   -0.6675    7.2044 C   0  0  0  0  0  0  0  0  0  0  0  0
   -8.5859    0.9759    3.9814 C   0  0  0  0  0  0  0  0  0  0  0  0
   -8.0321    0.3387    6.0416 C   0  0  1  0  0  0  0  0  0  0  0  0
  -11.8113   -3.7035   15.5403 C   0  0  0  0  0  0  0  0  0  0  0  0
  -11.6507   -2.7272   16.8026 C   0  0  0  0  0  0  0  0  0  0  0  0
  -11.2110   -1.2893   16.2594 C   0  0  1  0  0  0  0  0  0  0  0  0
  -11.0186   -0.2816   17.3990 C   0  0  0  0  0  0  0  0  0  0  0  0
   -8.7543   -0.7499    9.7056 C   0  0  1  0  0  0  0  0  0  0  0  0
  -10.3541   -1.0056    9.6723 C   0  0  0  0  0  0  0  0  0  0  0  0
  -10.7944   -1.8284   10.9440 C   0  0  2  0  0  0  0  0  0  0  0  0
   -8.7732   -1.2647    4.5093 F   0  0  0  0  0  0  0  0  0  0  0  0
   -9.6524    3.8779   21.5845 N   0  0  0  0  0  0  0  0  0  0  0  0
  -10.4656   -4.6549   13.5576 N   0  0  0  0  0  0  0  0  0  0  0  0
  -12.6784    4.5666   16.6825 N   0  0  0  0  0  0  0  0  0  0  0  0
   -7.4356    1.1359    3.1735 N   0  0  0  0  0  0  0  0  0  0  0  0
  -12.1784   -0.1911   18.1976 N   0  0  0  0  0  0  0  0  0  0  0  0
   -8.3678    0.0036    8.4993 N   0  0  0  0  0  0  0  0  0  0  0  0
  -12.2559   -2.0588   10.9335 N   0  0  0  0  0  0  0  0  0  0  0  0
  -10.8285   -1.8356   13.3280 O   0  0  0  0  0  0  0  0  0  0  0  0
   -8.6649    0.0244   13.5662 O   0  0  0  0  0  0  0  0  0  0  0  0
   -7.1227    0.3774   11.0887 O   0  0  0  0  0  0  0  0  0  0  0  0
   -9.0848    1.1902   16.3501 O   0  0  0  0  0  0  0  0  0  0  0  0
   -9.2145    2.2372   12.9714 O   0  0  0  0  0  0  0  0  0  0  0  0
   -7.1186    3.9790   11.6387 O   0  0  0  0  0  0  0  0  0  0  0  0
  -10.3837    3.3735   15.3055 O   0  0  0  0  0  0  0  0  0  0  0  0
   -6.6450    0.0977    5.7190 O   0  0  0  0  0  0  0  0  0  0  0  0
   -8.9186   -1.8211    7.0138 O   0  0  0  0  0  0  0  0  0  0  0  0
  -10.0166    3.8446   17.6783 O   0  0  0  0  0  0  0  0  0  0  0  0
   -9.9053   -1.4070   15.4905 O   0  0  0  0  0  0  0  0  0  0  0  0
  1 36  1  6  0  0  0
  2 36  1  1  0  0  0
  2  3  1  0  0  0  0
  3 37  1  1  0  0  0
  3  4  1  0  0  0  0
  4 38  1  1  0  0  0
  5 37  1  6  0  0  0
  5  6  1  0  0  0  0
  6  7  1  0  0  0  0
  6 39  1  1  0  0  0
  7 42  1  6  0  0  0
  8  9  1  1  0  0  0
  8  7  1  0  0  0  0
 10 42  1  6  0  0  0
 10 11  1  0  0  0  0
 11 31  1  1  0  0  0
 11 13  1  0  0  0  0
 12 30  1  6  0  0  0
 12  1  1  0  0  0  0
 14 13  1  0  0  0  0
 15 16  1  1  0  0  0
 15 14  1  0  0  0  0
 17 19  1  6  0  0  0
 17 28  1  0  0  0  0
 18 34  1  0  0  0  0
 19 32  1  0  0  0  0
 20 18  1  1  0  0  0
 20 17  1  0  0  0  0
 20 43  1  0  0  0  0
 21 12  1  0  0  0  0
 22 21  1  0  0  0  0
 22 23  1  0  0  0  0
 23 24  1  1  0  0  0
 23 46  1  0  0  0  0
 24 33  1  0  0  0  0
 25 34  1  6  0  0  0
 25  4  1  0  0  0  0
 26 25  1  0  0  0  0
 27 35  1  6  0  0  0
 27 26  1  0  0  0  0
 27  2  1  0  0  0  0
 29 16  1  0  0  0  0
 40  8  1  0  0  0  0
 40  5  1  0  0  0  0
 41  9  1  0  0  0  0
 44 18  2  0  0  0  0
 45 15  1  0  0  0  0
 45 10  1  0  0  0  0
 46  1  1  0  0  0  0
M  END
>  <CHROM.1>
-143.61771390,-3.15133795,-56.37672461,-169.00753323,58.81294471,-179.92519204
179.71395736,70.51902947,65.11381012,-143.26175986,176.41727838,-55.14166063
177.43722324,-9.69179687,0.59080188,13.01631102,2.10247009,1.17642735,0.85403163

>  <Name>
lig.pdb

>  <RI>
0

>  <Rbt.Current_Directory>
/home/afrankz/demos/rdock_decoys_rna/rnas/3wru

>  <Rbt.Executable>
rbdock ($Id: //depot/dev/client3/rdock/2013.1/src/exe/rbdock.cxx#4 $)

>  <Rbt.Library>
libRbt.so (2013.1, Build901 2013/11/27)

>  <Rbt.Parameter_File>
/export/apps/rDock/src/rDock_2013.1_src/data/scripts/dock_solv.prm

>  <Rbt.Receptor>
prm/blind_docking_100.prm

>  <SCORE>
22.4833

>  <SCORE.INTER>
13.3807

>  <SCORE.INTER.CONST>
1

>  <SCORE.INTER.POLAR>
0

>  <SCORE.INTER.ROT>
13

>  <SCORE.INTER.SOLV>
23.118

>  <SCORE.INTER.VDW>
-11.0522

>  <SCORE.INTER.norm>
0.290884

>  <SCORE.INTRA>
4.68346

>  <SCORE.INTRA.DIHEDRAL>
-4.42041

>  <SCORE.INTRA.DIHEDRAL.0>
19.7146

>  <SCORE.INTRA.POLAR>
0

>  <SCORE.INTRA.POLAR.0>
0

>  <SCORE.INTRA.REPUL>
0

>  <SCORE.INTRA.REPUL.0>
0

>  <SCORE.INTRA.SOLV>
3.14871

>  <SCORE.INTRA.SOLV.lig_0>
-116.697

>  <SCORE.INTRA.VDW>
5.31931

>  <SCORE.INTRA.VDW.0>
-7.06424

>  <SCORE.INTRA.norm>
0.101814

>  <SCORE.RESTR>
4.41921

>  <SCORE.RESTR.CAVITY>
4.41921

>  <SCORE.RESTR.norm>
0.0960697

>  <SCORE.SYSTEM>
0

>  <SCORE.SYSTEM.CONST>
0

>  <SCORE.SYSTEM.DIHEDRAL>
0

>  <SCORE.SYSTEM.SOLV>
0

>  <SCORE.SYSTEM.norm>
0

>  <SCORE.heavy>
46

>  <SCORE.norm>
0.488768

>  <RMSD>
28.292

$$$$
lig.pdb
 OpenBabel03061811583D
libRbt.so/2013.1/901 2013/11/27
 46 49  0  0  0  0  0  0  0  0999 V2000
   -9.8165    2.3430   14.6812 C   0  0  1  0  0  0  0  0  0  0  0  0
   -9.7688    0.1921   13.3473 C   0  0  1  0  0  0  0  0  0  0  0  0
  -10.1330   -1.2957   13.6366 C   0  0  1  0  0  0  0  0  0  0  0  0
   -9.5511   -2.2153   12.4455 C   0  0  2  0  0  0  0  0  0  0  0  0
  -10.0598   -2.2037   16.0047 C   0  0  2  0  0  0  0  0  0  0  0  0
  -11.2576   -1.3871   16.5677 C   0  0  1  0  0  0  0  0  0  0  0  0
  -11.9896   -2.5256   17.2362 C   0  0  1  0  0  0  0  0  0  0  0  0
  -11.9849   -3.6755   16.1793 C   0  0  1  0  0  0  0  0  0  0  0  0
  -13.0842   -3.6152   15.0615 C   0  0  0  0  0  0  0  0  0  0  0  0
  -11.6077   -2.2880   19.6614 C   0  0  1  0  0  0  0  0  0  0  0  0
  -13.0426   -1.8543   19.7016 C   0  0  1  0  0  0  0  0  0  0  0  0
   -8.7175    2.2712   15.7676 C   0  0  1  0  0  0  0  0  0  0  0  0
  -13.2963   -1.0973   21.0532 C   0  0  0  0  0  0  0  0  0  0  0  0
  -12.4954    0.0779   21.2430 C   0  0  0  0  0  0  0  0  0  0  0  0
  -11.1001   -0.3071   21.2456 C   0  0  2  0  0  0  0  0  0  0  0  0
  -10.1652    0.9507   21.4422 C   0  0  0  0  0  0  0  0  0  0  0  0
   -8.3681   -3.1279    7.6798 C   0  0  2  0  0  0  0  0  0  0  0  0
  -10.3903   -2.4248    8.6642 C   0  0  0  0  0  0  0  0  0  0  0  0
   -7.6687   -4.2959    7.9181 C   0  0  0  0  0  0  0  0  0  0  0  0
   -9.6913   -3.4172    7.6108 C   0  0  1  0  0  0  0  0  0  0  0  0
   -9.3188    1.7711   17.1590 C   0  0  0  0  0  0  0  0  0  0  0  0
  -10.4854    2.7824   17.5933 C   0  0  0  0  0  0  0  0  0  0  0  0
  -11.5931    2.7797   16.4405 C   0  0  1  0  0  0  0  0  0  0  0  0
  -12.7524    3.7316   16.7589 C   0  0  0  0  0  0  0  0  0  0  0  0
  -10.2633   -1.7781   11.0919 C   0  0  1  0  0  0  0  0  0  0  0  0
   -9.8303   -0.2382   10.8326 C   0  0  0  0  0  0  0  0  0  0  0  0
  -10.3648    0.6755   12.0019 C   0  0  2  0  0  0  0  0  0  0  0  0
   -7.8617   -2.4979    6.4814 F   0  0  0  0  0  0  0  0  0  0  0  0
  -10.5077    2.1227   20.4782 N   0  0  0  0  0  0  0  0  0  0  0  0
   -7.6174    1.3680   15.2643 N   0  0  0  0  0  0  0  0  0  0  0  0
  -13.3950   -0.9479   18.6977 N   0  0  0  0  0  0  0  0  0  0  0  0
   -7.7456   -5.2339    8.9744 N   0  0  0  0  0  0  0  0  0  0  0  0
  -12.3332    5.0778   16.7042 N   0  0  0  0  0  0  0  0  0  0  0  0
   -9.7678   -2.6057    9.9774 N   0  0  0  0  0  0  0  0  0  0  0  0
   -9.9659    2.0837   11.7849 N   0  0  0  0  0  0  0  0  0  0  0  0
  -10.3011    1.0393   14.3574 O   0  0  0  0  0  0  0  0  0  0  0  0
   -9.5059   -1.6456   14.9546 O   0  0  0  0  0  0  0  0  0  0  0  0
   -9.8857   -3.5218   12.7236 O   0  0  0  0  0  0  0  0  0  0  0  0
  -10.7580   -0.4313   17.4532 O   0  0  0  0  0  0  0  0  0  0  0  0
  -10.6060   -3.5535   15.7926 O   0  0  0  0  0  0  0  0  0  0  0  0
  -14.3303   -4.0219   15.6615 O   0  0  0  0  0  0  0  0  0  0  0  0
  -11.2428   -2.9259   18.4957 O   0  0  0  0  0  0  0  0  0  0  0  0
  -10.2490   -3.2017    6.2960 O   0  0  0  0  0  0  0  0  0  0  0  0
  -11.3010   -1.6274    8.3861 O   0  0  0  0  0  0  0  0  0  0  0  0
  -10.7533   -1.0334   19.9673 O   0  0  0  0  0  0  0  0  0  0  0  0
  -10.9653    3.2038   15.1229 O   0  0  0  0  0  0  0  0  0  0  0  0
  1 36  1  1  0  0  0
  2 36  1  1  0  0  0
  2  3  1  0  0  0  0
  3 37  1  1  0  0  0
  3  4  1  0  0  0  0
  4 38  1  1  0  0  0
  5 37  1  6  0  0  0
  5  6  1  0  0  0  0
  6  7  1  0  0  0  0
  6 39  1  1  0  0  0
  7 42  1  1  0  0  0
  8  9  1  6  0  0  0
  8  7  1  0  0  0  0
 10 42  1  6  0  0  0
 10 11  1  0  0  0  0
 11 31  1  6  0  0  0
 11 13  1  0  0  0  0
 12 30  1  6  0  0  0
 12  1  1  0  0  0  0
 14 13  1  0  0  0  0
 15 16  1  6  0  0  0
 15 14  1  0  0  0  0
 17 19  1  6  0  0  0
 17 28  1  0  0  0  0
 18 34  1  0  0  0  0
 19 32  1  0  0  0  0
 20 18  1  1  0  0  0
 20 17  1  0  0  0  0
 20 43  1  0  0  0  0
 21 12  1  0  0  0  0
 22 21  1  0  0  0  0
 22 23  1  0  0  0  0
 23 24  1  1  0  0  0
 23 46  1  0  0  0  0
 24 33  1  0  0  0  0
 25 34  1  6  0  0  0
 25  4  1  0  0  0  0
 26 25  1  0  0  0  0
 27 35  1  6  0  0  0
 27 26  1  0  0  0  0
 27  2  1  0  0  0  0
 29 16  1  0  0  0  0
 40  8  1  0  0  0  0
 40  5  1  0  0  0  0
 41  9  1  0  0  0  0
 44 18  2  0  0  0  0
 45 15  1  0  0  0  0
 45 10  1  0  0  0  0
 46  1  1  0  0  0  0
M  END
>  <CHROM.1>
-89.88133555,157.53961876,129.29442130,-58.84559601,90.44075511,-75.63444981
29.50987250,-49.75644344,-58.62576911,-55.37440946,126.61776296,68.76314157
175.05961628,-10.59744225,-0.86565746,14.65496310,-2.32152266,-1.26868685
-2.57401490

>  <Name>
lig.pdb

>  <RI>
0

>  <Rbt.Current_Directory>
/home/afrankz/demos/rdock_decoys_rna/rnas/3wru

>  <Rbt.Executable>
rbdock ($Id: //depot/dev/client3/rdock/2013.1/src/exe/rbdock.cxx#4 $)

>  <Rbt.Library>
libRbt.so (2013.1, Build901 2013/11/27)

>  <Rbt.Parameter_File>
/export/apps/rDock/src/rDock_2013.1_src/data/scripts/dock_solv.prm

>  <Rbt.Receptor>
prm/blind_docking_60.prm

>  <SCORE>
37.1105

>  <SCORE.INTER>
15.047

>  <SCORE.INTER.CONST>
1

>  <SCORE.INTER.POLAR>
0

>  <SCORE.INTER.ROT>
13

>  <SCORE.INTER.SOLV>
33.9425

>  <SCORE.INTER.VDW>
-13.5495

>  <SCORE.INTER.norm>
0.327108

>  <SCORE.INTRA>
11.6083

>  <SCORE.INTRA.DIHEDRAL>
7.18708

>  <SCORE.INTRA.DIHEDRAL.0>
19.7146

>  <SCORE.INTRA.POLAR>
0

>  <SCORE.INTRA.POLAR.0>
0

>  <SCORE.INTRA.REPUL>
0

>  <SCORE.INTRA.REPUL.0>
0

>  <SCORE.INTRA.SOLV>
8.76456

>  <SCORE.INTRA.SOLV.lig_0>
-116.697

>  <SCORE.INTRA.VDW>
3.63251

>  <SCORE.INTRA.VDW.0>
-7.06424

>  <SCORE.INTRA.norm>
0.252355

>  <SCORE.RESTR>
10.4552

>  <SCORE.RESTR.CAVITY>
10.4552

>  <SCORE.RESTR.norm>
0.227287

>  <SCORE.SYSTEM>
0

>  <SCORE.SYSTEM.CONST>
0

>  <SCORE.SYSTEM.DIHEDRAL>
0

>  <SCORE.SYSTEM.SOLV>
0

>  <SCORE.SYSTEM.norm>
0

>  <SCORE.heavy>
46

>  <SCORE.norm>
0.80675

>  <RMSD>
28.293

$$$$
lig.pdb
 OpenBabel03061811583D
libRbt.so/2013.1/901 2013/11/27
 46 49  0  0  0  0  0  0  0  0999 V2000
  -10.0118   -3.1780   14.7693 C   0  0  1  0  0  0  0  0  0  0  0  0
   -9.8516   -0.7732   15.5434 C   0  0  1  0  0  0  0  0  0  0  0  0
   -9.4291    0.5833   14.9022 C   0  0  1  0  0  0  0  0  0  0  0  0
   -9.3043    1.6932   16.0664 C   0  0  2  0  0  0  0  0  0  0  0  0
   -7.7537    0.6431   12.9976 C   0  0  2  0  0  0  0  0  0  0  0  0
   -8.0323    2.1261   12.6211 C   0  0  1  0  0  0  0  0  0  0  0  0
   -6.9910    2.2645   11.5369 C   0  0  1  0  0  0  0  0  0  0  0  0
   -5.7019    1.6216   12.1404 C   0  0  1  0  0  0  0  0  0  0  0  0
   -4.8403    2.5222   13.0934 C   0  0  0  0  0  0  0  0  0  0  0  0
   -8.4744    0.6042   10.4756 C   0  0  1  0  0  0  0  0  0  0  0  0
   -8.2141   -0.7333    9.8492 C   0  0  1  0  0  0  0  0  0  0  0  0
   -9.5001   -3.9411   13.5247 C   0  0  1  0  0  0  0  0  0  0  0  0
   -9.4723   -1.6437   10.0781 C   0  0  0  0  0  0  0  0  0  0  0  0
  -10.6892   -1.1410    9.5079 C   0  0  0  0  0  0  0  0  0  0  0  0
  -10.9931    0.1369   10.1158 C   0  0  2  0  0  0  0  0  0  0  0  0
  -12.3224    0.7468    9.5193 C   0  0  0  0  0  0  0  0  0  0  0  0
   -9.2651    3.4249   21.0995 C   0  0  2  0  0  0  0  0  0  0  0  0
   -9.8986    2.5752   18.9948 C   0  0  0  0  0  0  0  0  0  0  0  0
   -7.9224    3.6801   20.8943 C   0  0  0  0  0  0  0  0  0  0  0  0
   -9.9583    3.8244   20.0044 C   0  0  1  0  0  0  0  0  0  0  0  0
  -10.5150   -3.7893   12.3021 C   0  0  0  0  0  0  0  0  0  0  0  0
  -11.9453   -4.3476   12.7656 C   0  0  0  0  0  0  0  0  0  0  0  0
  -12.4196   -3.4940   14.0315 C   0  0  1  0  0  0  0  0  0  0  0  0
  -13.7807   -3.9627   14.5600 C   0  0  0  0  0  0  0  0  0  0  0  0
  -10.7389    1.8763   16.7292 C   0  0  1  0  0  0  0  0  0  0  0  0
  -11.1119    0.4475   17.3966 C   0  0  0  0  0  0  0  0  0  0  0  0
  -11.2106   -0.6599   16.2777 C   0  0  2  0  0  0  0  0  0  0  0  0
   -9.7000    4.0756   22.3149 F   0  0  0  0  0  0  0  0  0  0  0  0
  -12.6212    2.1830   10.0370 N   0  0  0  0  0  0  0  0  0  0  0  0
   -8.1221   -3.4232   13.1894 N   0  0  0  0  0  0  0  0  0  0  0  0
   -8.0344   -0.6913    8.4638 N   0  0  0  0  0  0  0  0  0  0  0  0
   -6.7814    3.3695   21.6708 N   0  0  0  0  0  0  0  0  0  0  0  0
  -13.9138   -3.6838   15.9368 N   0  0  0  0  0  0  0  0  0  0  0  0
  -10.6711    2.8948   17.7925 N   0  0  0  0  0  0  0  0  0  0  0  0
  -11.5385   -1.9737   16.8743 N   0  0  0  0  0  0  0  0  0  0  0  0
  -10.0112   -1.7684   14.5407 O   0  0  0  0  0  0  0  0  0  0  0  0
   -8.1100    0.3491   14.2255 O   0  0  0  0  0  0  0  0  0  0  0  0
   -8.9314    2.8797   15.4755 O   0  0  0  0  0  0  0  0  0  0  0  0
   -9.3476    2.2221   12.1650 O   0  0  0  0  0  0  0  0  0  0  0  0
   -6.3288    0.4490   12.6861 O   0  0  0  0  0  0  0  0  0  0  0  0
   -3.6478    1.7821   13.4225 O   0  0  0  0  0  0  0  0  0  0  0  0
   -7.4575    1.5175   10.3006 O   0  0  0  0  0  0  0  0  0  0  0  0
  -11.3353    4.1495   20.2947 O   0  0  0  0  0  0  0  0  0  0  0  0
   -9.2776    1.5215   19.2110 O   0  0  0  0  0  0  0  0  0  0  0  0
   -9.8390    1.0940    9.9316 O   0  0  0  0  0  0  0  0  0  0  0  0
  -11.3966   -3.6186   15.1486 O   0  0  0  0  0  0  0  0  0  0  0  0
  1 36  1  6  0  0  0
  2 36  1  6  0  0  0
  2  3  1  0  0  0  0
  3 37  1  1  0  0  0
  3  4  1  0  0  0  0
  4 38  1  6  0  0  0
  5 37  1  1  0  0  0
  5  6  1  0  0  0  0
  6  7  1  0  0  0  0
  6 39  1  6  0  0  0
  7 42  1  6  0  0  0
  8  9  1  1  0  0  0
  8  7  1  0  0  0  0
 10 42  1  6  0  0  0
 10 11  1  0  0  0  0
 11 31  1  6  0  0  0
 11 13  1  0  0  0  0
 12 30  1  6  0  0  0
 12  1  1  0  0  0  0
 14 13  1  0  0  0  0
 15 16  1  6  0  0  0
 15 14  1  0  0  0  0
 17 19  1  6  0  0  0
 17 28  1  0  0  0  0
 18 34  1  0  0  0  0
 19 32  1  0  0  0  0
 20 18  1  6  0  0  0
 20 17  1  0  0  0  0
 20 43  1  0  0  0  0
 21 12  1  0  0  0  0
 22 21  1  0  0  0  0
 22 23  1  0  0  0  0
 23 24  1  1  0  0  0
 23 46  1  0  0  0  0
 24 33  1  0  0  0  0
 25 34  1  1  0  0  0
 25  4  1  0  0  0  0
 26 25  1  0  0  0  0
 27 35  1  1  0  0  0
 27 26  1  0  0  0  0
 27  2  1  0  0  0  0
 29 16  1  0  0  0  0
 40  8  1  0  0  0  0
 40  5  1  0  0  0  0
 41  9  1  0  0  0  0
 44 18  2  0  0  0  0
 45 15  1  0  0  0  0
 45 10  1  0  0  0  0
 46  1  1  0  0  0  0
M  END
>  <CHROM.1>
-151.35609140,161.02373863,129.33245334,51.98307920,-16.68443843,-174.46799818
-131.64420710,-174.38002155,-174.74891674,177.80717297,85.64626179,153.07647258
-67.66196452,-9.48799967,0.35607037,14.51240934,1.59696906,-0.79953990,-1.95347218

>  <Name>
lig.pdb

>  <RI>
0

>  <Rbt.Current_Directory>
/home/afrankz/demos/rdock_decoys_rna/rnas/3wru

>  <Rbt.Executable>
rbdock ($Id: //depot/dev/client3/rdock/2013.1/src/exe/rbdock.cxx#4 $)

>  <Rbt.Library>
libRbt.so (2013.1, Build901 2013/11/27)

>  <Rbt.Parameter_File>
/export/apps/rDock/src/rDock_2013.1_src/data/scripts/dock_solv.prm

>  <Rbt.Receptor>
prm/blind_docking_60.prm

>  <SCORE>
34.5792

>  <SCORE.INTER>
9.0916

>  <SCORE.INTER.CONST>
1

>  <SCORE.INTER.POLAR>
0

>  <SCORE.INTER.ROT>
13

>  <SCORE.INTER.SOLV>
33.6818

>  <SCORE.INTER.VDW>
-17.4329

>  <SCORE.INTER.norm>
0.197644

>  <SCORE.INTRA>
18.2415

>  <SCORE.INTRA.DIHEDRAL>
10.025

>  <SCORE.INTRA.DIHEDRAL.0>
19.7146

>  <SCORE.INTRA.POLAR>
0

>  <SCORE.INTRA.POLAR.0>
0

>  <SCORE.INTRA.REPUL>
0.0168882

>  <SCORE.INTRA.REPUL.0>
0

>  <SCORE.INTRA.SOLV>
4.79023

>  <SCORE.INTRA.SOLV.lig_0>
-116.697

>  <SCORE.INTRA.VDW>
10.7494

>  <SCORE.INTRA.VDW.0>
-7.06424

>  <SCORE.INTRA.norm>
0.396554

>  <SCORE.RESTR>
7.24615

>  <SCORE.RESTR.CAVITY>
7.24615

>  <SCORE.RESTR.norm>
0.157525

>  <SCORE.SYSTEM>
0

>  <SCORE.SYSTEM.CONST>
0

>  <SCORE.SYSTEM.DIHEDRAL>
0

>  <SCORE.SYSTEM.SOLV>
0

>  <SCORE.SYSTEM.norm>
0

>  <SCORE.heavy>
46

>  <SCORE.norm>
0.751722

>  <RMSD>
28.340

$$$$
lig.pdb
 OpenBabel03061811583D
libRbt.so/2013.1/901 2013/11/27
 46 49  0  0  0  0  0  0  0  0999 V2000
   -9.8409   -1.7698   13.8211 C   0  0  1  0  0  0  0  0  0  0  0  0
  -10.5062   -1.0099   11.4999 C   0  0  1  0  0  0  0  0  0  0  0  0
   -8.9715   -0.8479   11.2805 C   0  0  1  0  0  0  0  0  0  0  0  0
   -8.7210   -0.1515    9.8469 C   0  0  2  0  0  0  0  0  0  0  0  0
   -8.9296    1.1572   12.8347 C   0  0  2  0  0  0  0  0  0  0  0  0
   -8.3436    1.5719   14.2143 C   0  0  1  0  0  0  0  0  0  0  0  0
   -8.5348    3.0635   14.0815 C   0  0  1  0  0  0  0  0  0  0  0  0
   -8.0224    3.4030   12.6457 C   0  0  1  0  0  0  0  0  0  0  0  0
   -6.4733    3.5783   12.4690 C   0  0  0  0  0  0  0  0  0  0  0  0
  -10.6013    3.0302   15.4275 C   0  0  1  0  0  0  0  0  0  0  0  0
  -12.0829    3.2580   15.4706 C   0  0  1  0  0  0  0  0  0  0  0  0
   -9.1259   -3.1415   13.7996 C   0  0  1  0  0  0  0  0  0  0  0  0
  -12.6071    2.8576   16.8951 C   0  0  0  0  0  0  0  0  0  0  0  0
  -12.0342    3.6047   17.9778 C   0  0  0  0  0  0  0  0  0  0  0  0
  -10.6043    3.3808   17.9904 C   0  0  2  0  0  0  0  0  0  0  0  0
   -9.9142    4.1879   19.1597 C   0  0  0  0  0  0  0  0  0  0  0  0
   -9.4323    0.1319    4.8837 C   0  0  2  0  0  0  0  0  0  0  0  0
   -9.6334    0.7999    7.1345 C   0  0  0  0  0  0  0  0  0  0  0  0
  -10.7816   -0.0383    4.6376 C   0  0  0  0  0  0  0  0  0  0  0  0
   -9.2626    1.2475    5.6360 C   0  0  1  0  0  0  0  0  0  0  0  0
  -10.1518   -4.3273   14.0981 C   0  0  0  0  0  0  0  0  0  0  0  0
  -10.8269   -4.0581   15.5277 C   0  0  0  0  0  0  0  0  0  0  0  0
  -11.5683   -2.6432   15.4629 C   0  0  1  0  0  0  0  0  0  0  0  0
  -12.2393   -2.2874   16.7950 C   0  0  0  0  0  0  0  0  0  0  0  0
   -9.2896   -1.1214    8.7214 C   0  0  1  0  0  0  0  0  0  0  0  0
  -10.8845   -1.2314    8.9859 C   0  0  0  0  0  0  0  0  0  0  0  0
  -11.1525   -1.8840   10.3967 C   0  0  2  0  0  0  0  0  0  0  0  0
   -8.7149    0.1788    3.6296 F   0  0  0  0  0  0  0  0  0  0  0  0
  -10.1894    3.5812   20.5656 N   0  0  0  0  0  0  0  0  0  0  0  0
   -8.4485   -3.2974   12.4594 N   0  0  0  0  0  0  0  0  0  0  0  0
  -12.4622    4.5922   15.2979 N   0  0  0  0  0  0  0  0  0  0  0  0
  -11.8511   -0.3948    5.4923 N   0  0  0  0  0  0  0  0  0  0  0  0
  -13.1597   -3.2845   17.1818 N   0  0  0  0  0  0  0  0  0  0  0  0
   -9.0679   -0.5263    7.3913 N   0  0  0  0  0  0  0  0  0  0  0  0
  -12.6059   -1.9794   10.6575 N   0  0  0  0  0  0  0  0  0  0  0  0
  -10.7654   -1.6582   12.7384 O   0  0  0  0  0  0  0  0  0  0  0  0
   -8.4628    0.0100   12.4022 O   0  0  0  0  0  0  0  0  0  0  0  0
   -7.3608   -0.0204    9.6771 O   0  0  0  0  0  0  0  0  0  0  0  0
   -9.1193    0.9836   15.2140 O   0  0  0  0  0  0  0  0  0  0  0  0
   -8.6718    2.3161   11.9654 O   0  0  0  0  0  0  0  0  0  0  0  0
   -6.2133    4.9894   12.3304 O   0  0  0  0  0  0  0  0  0  0  0  0
  -10.0085    3.3921   14.2374 O   0  0  0  0  0  0  0  0  0  0  0  0
   -7.9101    1.7530    5.6002 O   0  0  0  0  0  0  0  0  0  0  0  0
  -10.2833    1.4898    7.9372 O   0  0  0  0  0  0  0  0  0  0  0  0
  -10.0020    3.7563   16.6569 O   0  0  0  0  0  0  0  0  0  0  0  0
  -10.5670   -1.5530   15.1179 O   0  0  0  0  0  0  0  0  0  0  0  0
  1 36  1  6  0  0  0
  2 36  1  1  0  0  0
  2  3  1  0  0  0  0
  3 37  1  1  0  0  0
  3  4  1  0  0  0  0
  4 38  1  6  0  0  0
  5 37  1  6  0  0  0
  5  6  1  0  0  0  0
  6  7  1  0  0  0  0
  6 39  1  1  0  0  0
  7 42  1  6  0  0  0
  8  9  1  1  0  0  0
  8  7  1  0  0  0  0
 10 42  1  6  0  0  0
 10 11  1  0  0  0  0
 11 31  1  1  0  0  0
 11 13  1  0  0  0  0
 12 30  1  6  0  0  0
 12  1  1  0  0  0  0
 14 13  1  0  0  0  0
 15 16  1  1  0  0  0
 15 14  1  0  0  0  0
 17 19  1  6  0  0  0
 17 28  1  0  0  0  0
 18 34  1  0  0  0  0
 19 32  1  0  0  0  0
 20 18  1  1  0  0  0
 20 17  1  0  0  0  0
 20 43  1  0  0  0  0
 21 12  1  0  0  0  0
 22 21  1  0  0  0  0
 22 23  1  0  0  0  0
 23 24  1  1  0  0  0
 23 46  1  0  0  0  0
 24 33  1  0  0  0  0
 25 34  1  6  0  0  0
 25  4  1  0  0  0  0
 26 25  1  0  0  0  0
 27 35  1  1  0  0  0
 27 26  1  0  0  0  0
 27  2  1  0  0  0  0
 29 16  1  0  0  0  0
 40  8  1  0  0  0  0
 40  5  1  0  0  0  0
 41  9  1  0  0  0  0
 44 18  2  0  0  0  0
 45 15  1  0  0  0  0
 45 10  1  0  0  0  0
 46  1  1  0  0  0  0
M  END
>  <CHROM.1>
-97.62078668,18.61366032,-49.41756025,166.51725443,59.49739837,-105.36579258
-174.31614605,73.24759920,-69.68492504,41.46466159,78.83203680,-57.26095830
-57.46745624,-9.88932043,0.57306207,12.29976909,1.94910401,1.23609311,1.04166898

>  <Name>
lig.pdb

>  <RI>
0

>  <Rbt.Current_Directory>
/home/afrankz/demos/rdock_decoys_rna/rnas/3wru

>  <Rbt.Executable>
rbdock ($Id: //depot/dev/client3/rdock/2013.1/src/exe/rbdock.cxx#4 $)

>  <Rbt.Library>
libRbt.so (2013.1, Build901 2013/11/27)

>  <Rbt.Parameter_File>
/export/apps/rDock/src/rDock_2013.1_src/data/scripts/dock_solv.prm

>  <Rbt.Receptor>
prm/blind_docking_80.prm

>  <SCORE>
34.5965

>  <SCORE.INTER>
14.5895

>  <SCORE.INTER.CONST>
1

>  <SCORE.INTER.POLAR>
0

>  <SCORE.INTER.ROT>
13

>  <SCORE.INTER.SOLV>
27.599

>  <SCORE.INTER.VDW>
-11.74

>  <SCORE.INTER.norm>
0.317163

>  <SCORE.INTRA>
9.08608

>  <SCORE.INTRA.DIHEDRAL>
0.291891

>  <SCORE.INTRA.DIHEDRAL.0>
19.7146

>  <SCORE.INTRA.POLAR>
0

>  <SCORE.INTRA.POLAR.0>
0

>  <SCORE.INTRA.REPUL>
0.204382

>  <SCORE.INTRA.REPUL.0>
0

>  <SCORE.INTRA.SOLV>
3.50394

>  <SCORE.INTRA.SOLV.lig_0>
-116.697

>  <SCORE.INTRA.VDW>
6.16626

>  <SCORE.INTRA.VDW.0>
-7.06424

>  <SCORE.INTRA.norm>
0.197524

>  <SCORE.RESTR>
10.921

>  <SCORE.RESTR.CAVITY>
10.921

>  <SCORE.RESTR.norm>
0.237413

>  <SCORE.SYSTEM>
0

>  <SCORE.SYSTEM.CONST>
0

>  <SCORE.SYSTEM.DIHEDRAL>
0

>  <SCORE.SYSTEM.SOLV>
0

>  <SCORE.SYSTEM.norm>
0

>  <SCORE.heavy>
46

>  <SCORE.norm>
0.752099

>  <RMSD>
28.378

$$$$
lig.pdb
 OpenBabel03061811583D
libRbt.so/2013.1/901 2013/11/27
 46 49  0  0  0  0  0  0  0  0999 V2000
   -7.7388    0.6134   13.2563 C   0  0  1  0  0  0  0  0  0  0  0  0
   -9.3029    0.1899   15.2011 C   0  0  1  0  0  0  0  0  0  0  0  0
   -9.1719   -1.3520   15.3883 C   0  0  1  0  0  0  0  0  0  0  0  0
  -10.5187   -1.9089   16.0803 C   0  0  2  0  0  0  0  0  0  0  0  0
   -9.7094   -1.7735   12.9446 C   0  0  2  0  0  0  0  0  0  0  0  0
   -8.9697   -2.1746   11.6367 C   0  0  1  0  0  0  0  0  0  0  0  0
  -10.1853   -2.4845   10.7970 C   0  0  1  0  0  0  0  0  0  0  0  0
  -11.0977   -3.3496   11.7235 C   0  0  1  0  0  0  0  0  0  0  0  0
  -10.7638   -4.8797   11.8183 C   0  0  0  0  0  0  0  0  0  0  0  0
  -10.2290   -0.4151    9.4557 C   0  0  1  0  0  0  0  0  0  0  0  0
  -11.0994    0.6351    8.8324 C   0  0  1  0  0  0  0  0  0  0  0  0
   -6.3859    1.3166   12.9952 C   0  0  1  0  0  0  0  0  0  0  0  0
  -10.2642    1.3884    7.7372 C   0  0  0  0  0  0  0  0  0  0  0  0
   -9.7800    0.5564    6.6733 C   0  0  0  0  0  0  0  0  0  0  0  0
   -8.9048   -0.4510    7.2338 C   0  0  2  0  0  0  0  0  0  0  0  0
   -8.3457   -1.4067    6.1073 C   0  0  0  0  0  0  0  0  0  0  0  0
  -14.1089   -1.1555   20.3242 C   0  0  2  0  0  0  0  0  0  0  0  0
  -11.9082   -1.6638   19.6524 C   0  0  0  0  0  0  0  0  0  0  0  0
  -15.3847   -1.5763   20.6489 C   0  0  0  0  0  0  0  0  0  0  0  0
  -13.3175   -2.2448   20.1619 C   0  0  1  0  0  0  0  0  0  0  0  0
   -6.5131    2.8954   13.1924 C   0  0  0  0  0  0  0  0  0  0  0  0
   -7.6407    3.4367   12.1885 C   0  0  0  0  0  0  0  0  0  0  0  0
   -9.0101    2.6894   12.5379 C   0  0  1  0  0  0  0  0  0  0  0  0
  -10.1545    3.1326   11.6185 C   0  0  0  0  0  0  0  0  0  0  0  0
  -10.6488   -1.2380   17.5169 C   0  0  1  0  0  0  0  0  0  0  0  0
  -10.8052    0.3539   17.2576 C   0  0  0  0  0  0  0  0  0  0  0  0
   -9.5095    0.9147   16.5543 C   0  0  2  0  0  0  0  0  0  0  0  0
  -13.6257   -0.2496   21.3419 F   0  0  0  0  0  0  0  0  0  0  0  0
   -6.9724   -2.0408    6.4709 N   0  0  0  0  0  0  0  0  0  0  0  0
   -5.3548    0.7084   13.9152 N   0  0  0  0  0  0  0  0  0  0  0  0
  -12.2169    0.1288    8.1628 N   0  0  0  0  0  0  0  0  0  0  0  0
  -16.2162   -2.5688   20.0790 N   0  0  0  0  0  0  0  0  0  0  0  0
  -11.3931    2.6318   12.0724 N   0  0  0  0  0  0  0  0  0  0  0  0
  -11.8634   -1.7319   18.1902 N   0  0  0  0  0  0  0  0  0  0  0  0
   -9.6432    2.3661   16.2996 N   0  0  0  0  0  0  0  0  0  0  0  0
   -8.1157    0.7237   14.6293 O   0  0  0  0  0  0  0  0  0  0  0  0
   -8.9767   -1.9382   14.0203 O   0  0  0  0  0  0  0  0  0  0  0  0
  -10.3781   -3.2699   16.2348 O   0  0  0  0  0  0  0  0  0  0  0  0
   -8.2354   -1.0737   11.1939 O   0  0  0  0  0  0  0  0  0  0  0  0
  -10.9627   -2.5435   12.9058 O   0  0  0  0  0  0  0  0  0  0  0  0
   -9.8353   -5.0506   12.9077 O   0  0  0  0  0  0  0  0  0  0  0  0
  -10.8645   -1.1845   10.4059 O   0  0  0  0  0  0  0  0  0  0  0  0
  -13.1231   -2.9893   21.3842 O   0  0  0  0  0  0  0  0  0  0  0  0
  -11.0182   -1.2179   20.3950 O   0  0  0  0  0  0  0  0  0  0  0  0
   -9.6301   -1.2457    8.2941 O   0  0  0  0  0  0  0  0  0  0  0  0
   -8.8275    1.1873   12.3953 O   0  0  0  0  0  0  0  0  0  0  0  0
  1 36  1  1  0  0  0
  2 36  1  1  0  0  0
  2  3  1  0  0  0  0
  3 37  1  6  0  0  0
  3  4  1  0  0  0  0
  4 38  1  1  0  0  0
  5 37  1  1  0  0  0
  5  6  1  0  0  0  0
  6  7  1  0  0  0  0
  6 39  1  6  0  0  0
  7 42  1  1  0  0  0
  8  9  1  1  0  0  0
  8  7  1  0  0  0  0
 10 42  1  1  0  0  0
 10 11  1  0  0  0  0
 11 31  1  6  0  0  0
 11 13  1  0  0  0  0
 12 30  1  1  0  0  0
 12  1  1  0  0  0  0
 14 13  1  0  0  0  0
 15 16  1  6  0  0  0
 15 14  1  0  0  0  0
 17 19  1  1  0  0  0
 17 28  1  0  0  0  0
 18 34  1  0  0  0  0
 19 32  1  0  0  0  0
 20 18  1  1  0  0  0
 20 17  1  0  0  0  0
 20 43  1  0  0  0  0
 21 12  1  0  0  0  0
 22 21  1  0  0  0  0
 22 23  1  0  0  0  0
 23 24  1  6  0  0  0
 23 46  1  0  0  0  0
 24 33  1  0  0  0  0
 25 34  1  6  0  0  0
 25  4  1  0  0  0  0
 26 25  1  0  0  0  0
 27 35  1  6  0  0  0
 27 26  1  0  0  0  0
 27  2  1  0  0  0  0
 29 16  1  0  0  0  0
 40  8  1  0  0  0  0
 40  5  1  0  0  0  0
 41  9  1  0  0  0  0
 44 18  2  0  0  0  0
 45 15  1  0  0  0  0
 45 10  1  0  0  0  0
 46  1  1  0  0  0  0
M  END
>  <CHROM.1>
179.88930029,75.98210898,-52.99566995,162.34942305,72.78276166,90.20057367
163.74830687,153.31813479,-47.24275162,-95.66428140,174.70669937,-170.54067112
156.92867253,-10.20909792,-0.66412880,13.76614308,-1.00083820,0.92463176
1.22059410

>  <Name>
lig.pdb

>  <RI>
0

>  <Rbt.Current_Directory>
/home/afrankz/demos/rdock_decoys_rna/rnas/3wru

>  <Rbt.Executable>
rbdock ($Id: //depot/dev/client3/rdock/2013.1/src/exe/rbdock.cxx#4 $)

>  <Rbt.Library>
libRbt.so (2013.1, Build901 2013/11/27)

>  <Rbt.Parameter_File>
/export/apps/rDock/src/rDock_2013.1_src/data/scripts/dock_solv.prm

>  <Rbt.Receptor>
prm/blind_docking_40.prm

>  <SCORE>
8.8598

>  <SCORE.INTER>
5.39335

>  <SCORE.INTER.CONST>
1

>  <SCORE.INTER.POLAR>
0

>  <SCORE.INTER.ROT>
13

>  <SCORE.INTER.SOLV>
29.6566

>  <SCORE.INTER.VDW>
-18.5566

>  <SCORE.INTER.norm>
0.117247

>  <SCORE.INTRA>
-2.5399

>  <SCORE.INTRA.DIHEDRAL>
-6.58056

>  <SCORE.INTRA.DIHEDRAL.0>
19.7146

>  <SCORE.INTRA.POLAR>
0

>  <SCORE.INTRA.POLAR.0>
0

>  <SCORE.INTRA.REPUL>
0

>  <SCORE.INTRA.REPUL.0>
0

>  <SCORE.INTRA.SOLV>
-0.193633

>  <SCORE.INTRA.SOLV.lig_0>
-116.697

>  <SCORE.INTRA.VDW>
0.8472

>  <SCORE.INTRA.VDW.0>
-7.06424

>  <SCORE.INTRA.norm>
-0.0552152

>  <SCORE.RESTR>
6.00634

>  <SCORE.RESTR.CAVITY>
6.00634

>  <SCORE.RESTR.norm>
0.130573

>  <SCORE.SYSTEM>
0

>  <SCORE.SYSTEM.CONST>
0

>  <SCORE.SYSTEM.DIHEDRAL>
0

>  <SCORE.SYSTEM.SOLV>
0

>  <SCORE.SYSTEM.norm>
0

>  <SCORE.heavy>
46

>  <SCORE.norm>
0.192604

>  <RMSD>
28.382

$$$$
lig.pdb
 OpenBabel03061811583D
libRbt.so/2013.1/901 2013/11/27
 46 49  0  0  0  0  0  0  0  0999 V2000
  -11.9739   -2.9340   14.4733 C   0  0  1  0  0  0  0  0  0  0  0  0
  -10.7452   -1.0700   15.6666 C   0  0  1  0  0  0  0  0  0  0  0  0
  -10.0166    0.2381   15.2334 C   0  0  1  0  0  0  0  0  0  0  0  0
   -9.1851    0.8120   16.4913 C   0  0  2  0  0  0  0  0  0  0  0  0
   -9.3105   -0.0021   12.8082 C   0  0  2  0  0  0  0  0  0  0  0  0
   -9.6255    1.4604   12.3834 C   0  0  1  0  0  0  0  0  0  0  0  0
   -9.1635    1.3645   10.9494 C   0  0  1  0  0  0  0  0  0  0  0  0
   -7.7873    0.6299   11.0241 C   0  0  1  0  0  0  0  0  0  0  0  0
   -6.5345    1.5060   11.3770 C   0  0  0  0  0  0  0  0  0  0  0  0
  -10.2580    0.8345    8.8036 C   0  0  1  0  0  0  0  0  0  0  0  0
  -11.1845   -0.0718    8.0491 C   0  0  1  0  0  0  0  0  0  0  0  0
  -10.8836   -3.9262   14.9423 C   0  0  1  0  0  0  0  0  0  0  0  0
  -11.1299    0.3143    6.5285 C   0  0  0  0  0  0  0  0  0  0  0  0
   -9.8347    0.1911    5.9236 C   0  0  0  0  0  0  0  0  0  0  0  0
   -8.9183    1.0808    6.6045 C   0  0  2  0  0  0  0  0  0  0  0  0
   -7.4680    0.9822    5.9865 C   0  0  0  0  0  0  0  0  0  0  0  0
   -8.6167    3.4026   20.6069 C   0  0  2  0  0  0  0  0  0  0  0  0
  -10.2024    1.7362   20.0955 C   0  0  0  0  0  0  0  0  0  0  0  0
   -8.3550    4.3756   21.5529 C   0  0  0  0  0  0  0  0  0  0  0  0
   -9.2293    2.3561   21.2144 C   0  0  1  0  0  0  0  0  0  0  0  0
   -9.6224   -3.8960   13.9645 C   0  0  0  0  0  0  0  0  0  0  0  0
  -10.1259   -4.2587   12.4856 C   0  0  0  0  0  0  0  0  0  0  0  0
  -11.2238   -3.1770   12.0608 C   0  0  1  0  0  0  0  0  0  0  0  0
  -11.7791   -3.4463   10.6571 C   0  0  0  0  0  0  0  0  0  0  0  0
  -10.2206    1.1722   17.6441 C   0  0  1  0  0  0  0  0  0  0  0  0
  -10.9263   -0.2238   18.0674 C   0  0  0  0  0  0  0  0  0  0  0  0
  -11.7219   -0.8182   16.8420 C   0  0  2  0  0  0  0  0  0  0  0  0
   -7.3875    3.0325   19.9422 F   0  0  0  0  0  0  0  0  0  0  0  0
   -7.0770   -0.4661    5.5745 N   0  0  0  0  0  0  0  0  0  0  0  0
  -10.5116   -3.5784   16.3636 N   0  0  0  0  0  0  0  0  0  0  0  0
  -10.8313   -1.4232    8.1010 N   0  0  0  0  0  0  0  0  0  0  0  0
   -7.4883    5.4935   21.5306 N   0  0  0  0  0  0  0  0  0  0  0  0
  -12.6094   -4.5871   10.6502 N   0  0  0  0  0  0  0  0  0  0  0  0
   -9.5005    1.7140   18.8104 N   0  0  0  0  0  0  0  0  0  0  0  0
  -12.3617   -2.1005   17.2104 N   0  0  0  0  0  0  0  0  0  0  0  0
  -11.5226   -1.5845   14.5931 O   0  0  0  0  0  0  0  0  0  0  0  0
   -9.1067   -0.1299   14.0979 O   0  0  0  0  0  0  0  0  0  0  0  0
   -8.5524    1.9652   16.0840 O   0  0  0  0  0  0  0  0  0  0  0  0
  -10.9971    1.6725   12.5284 O   0  0  0  0  0  0  0  0  0  0  0  0
   -8.1866   -0.3987   11.9453 O   0  0  0  0  0  0  0  0  0  0  0  0
   -6.4812    2.5845   10.4221 O   0  0  0  0  0  0  0  0  0  0  0  0
  -10.1777    0.5643   10.1524 O   0  0  0  0  0  0  0  0  0  0  0  0
   -8.3031    1.3447   21.6677 O   0  0  0  0  0  0  0  0  0  0  0  0
  -11.3568    1.3312   20.3095 O   0  0  0  0  0  0  0  0  0  0  0  0
   -8.8887    0.7731    8.0832 O   0  0  0  0  0  0  0  0  0  0  0  0
  -12.3769   -3.1981   13.0507 O   0  0  0  0  0  0  0  0  0  0  0  0
  1 36  1  6  0  0  0
  2 36  1  6  0  0  0
  2  3  1  0  0  0  0
  3 37  1  6  0  0  0
  3  4  1  0  0  0  0
  4 38  1  6  0  0  0
  5 37  1  1  0  0  0
  5  6  1  0  0  0  0
  6  7  1  0  0  0  0
  6 39  1  6  0  0  0
  7 42  1  6  0  0  0
  8  9  1  1  0  0  0
  8  7  1  0  0  0  0
 10 42  1  1  0  0  0
 10 11  1  0  0  0  0
 11 31  1  6  0  0  0
 11 13  1  0  0  0  0
 12 30  1  1  0  0  0
 12  1  1  0  0  0  0
 14 13  1  0  0  0  0
 15 16  1  6  0  0  0
 15 14  1  0  0  0  0
 17 19  1  1  0  0  0
 17 28  1  0  0  0  0
 18 34  1  0  0  0  0
 19 32  1  0  0  0  0
 20 18  1  6  0  0  0
 20 17  1  0  0  0  0
 20 43  1  0  0  0  0
 21 12  1  0  0  0  0
 22 21  1  0  0  0  0
 22 23  1  0  0  0  0
 23 24  1  6  0  0  0
 23 46  1  0  0  0  0
 24 33  1  0  0  0  0
 25 34  1  1  0  0  0
 25  4  1  0  0  0  0
 26 25  1  0  0  0  0
 27 35  1  1  0  0  0
 27 26  1  0  0  0  0
 27  2  1  0  0  0  0
 29 16  1  0  0  0  0
 40  8  1  0  0  0  0
 40  5  1  0  0  0  0
 41  9  1  0  0  0  0
 44 18  2  0  0  0  0
 45 15  1  0  0  0  0
 45 10  1  0  0  0  0
 46  1  1  0  0  0  0
M  END
>  <CHROM.1>
-39.36029697,159.36891862,97.86135158,56.92594322,153.03329164,-55.21406185
174.67008289,-37.77827207,163.40572706,41.60766849,148.44849486,71.42485650
-162.37468260,-9.74702295,0.06596590,13.80206944,1.52138678,0.99610009,1.41211895

>  <Name>
lig.pdb

>  <RI>
0

>  <Rbt.Current_Directory>
/home/afrankz/demos/rdock_decoys_rna/rnas/3wru

>  <Rbt.Executable>
rbdock ($Id: //depot/dev/client3/rdock/2013.1/src/exe/rbdock.cxx#4 $)

>  <Rbt.Library>
libRbt.so (2013.1, Build901 2013/11/27)

>  <Rbt.Parameter_File>
/export/apps/rDock/src/rDock_2013.1_src/data/scripts/dock_solv.prm

>  <Rbt.Receptor>
prm/blind_docking_60.prm

>  <SCORE>
28.4549

>  <SCORE.INTER>
11.977

>  <SCORE.INTER.CONST>
1

>  <SCORE.INTER.POLAR>
0

>  <SCORE.INTER.ROT>
13

>  <SCORE.INTER.SOLV>
31.6154

>  <SCORE.INTER.VDW>
-14.8205

>  <SCORE.INTER.norm>
0.26037

>  <SCORE.INTRA>
6.65854

>  <SCORE.INTRA.DIHEDRAL>
-0.543183

>  <SCORE.INTRA.DIHEDRAL.0>
19.7146

>  <SCORE.INTRA.POLAR>
0

>  <SCORE.INTRA.POLAR.0>
0

>  <SCORE.INTRA.REPUL>
0

>  <SCORE.INTRA.REPUL.0>
0

>  <SCORE.INTRA.SOLV>
4.9593

>  <SCORE.INTRA.SOLV.lig_0>
-116.697

>  <SCORE.INTRA.VDW>
4.45049

>  <SCORE.INTRA.VDW.0>
-7.06424

>  <SCORE.INTRA.norm>
0.144751

>  <SCORE.RESTR>
9.81934

>  <SCORE.RESTR.CAVITY>
9.81934

>  <SCORE.RESTR.norm>
0.213464

>  <SCORE.SYSTEM>
0

>  <SCORE.SYSTEM.CONST>
0

>  <SCORE.SYSTEM.DIHEDRAL>
0

>  <SCORE.SYSTEM.SOLV>
0

>  <SCORE.SYSTEM.norm>
0

>  <SCORE.heavy>
46

>  <SCORE.norm>
0.618585

>  <RMSD>
28.400

$$$$
lig.pdb
 OpenBabel03061811583D
libRbt.so/2013.1/901 2013/11/27
 46 49  0  0  0  0  0  0  0  0999 V2000
  -10.3360    1.1201   16.6708 C   0  0  1  0  0  0  0  0  0  0  0  0
   -8.5363    0.7710   14.9253 C   0  0  1  0  0  0  0  0  0  0  0  0
   -9.4659   -0.3614   14.3932 C   0  0  1  0  0  0  0  0  0  0  0  0
   -8.9327   -0.8363   12.9465 C   0  0  2  0  0  0  0  0  0  0  0  0
  -10.2986   -2.4008   15.6523 C   0  0  2  0  0  0  0  0  0  0  0  0
  -11.7126   -1.8153   15.9292 C   0  0  1  0  0  0  0  0  0  0  0  0
  -12.5205   -3.0292   15.5388 C   0  0  1  0  0  0  0  0  0  0  0  0
  -11.8933   -3.5065   14.1905 C   0  0  1  0  0  0  0  0  0  0  0  0
  -12.3626   -2.7663   12.8891 C   0  0  0  0  0  0  0  0  0  0  0  0
  -13.5133   -4.8187   16.9157 C   0  0  1  0  0  0  0  0  0  0  0  0
  -14.6235   -4.0168   17.5267 C   0  0  1  0  0  0  0  0  0  0  0  0
  -11.1270    2.4323   16.4575 C   0  0  1  0  0  0  0  0  0  0  0  0
  -15.8123   -4.9860   17.8608 C   0  0  0  0  0  0  0  0  0  0  0  0
  -15.4908   -6.0341   18.7864 C   0  0  0  0  0  0  0  0  0  0  0  0
  -14.4438   -6.8533   18.2140 C   0  0  2  0  0  0  0  0  0  0  0  0
  -14.0392   -8.0234   19.1949 C   0  0  0  0  0  0  0  0  0  0  0  0
   -9.4362    0.2732    7.1662 C   0  0  2  0  0  0  0  0  0  0  0  0
   -9.5282    0.0604    9.5113 C   0  0  0  0  0  0  0  0  0  0  0  0
  -10.6541   -0.3326    6.9219 C   0  0  0  0  0  0  0  0  0  0  0  0
   -8.8017   -0.4043    8.1550 C   0  0  1  0  0  0  0  0  0  0  0  0
  -10.5382    3.6097   17.3602 C   0  0  0  0  0  0  0  0  0  0  0  0
  -10.6047    3.1463   18.8942 C   0  0  0  0  0  0  0  0  0  0  0  0
   -9.7436    1.8074   19.0412 C   0  0  1  0  0  0  0  0  0  0  0  0
   -9.7552    1.2747   20.4791 C   0  0  0  0  0  0  0  0  0  0  0  0
   -9.0315    0.4026   11.9534 C   0  0  1  0  0  0  0  0  0  0  0  0
   -8.0306    1.5326   12.5426 C   0  0  0  0  0  0  0  0  0  0  0  0
   -8.5175    1.9910   13.9712 C   0  0  2  0  0  0  0  0  0  0  0  0
   -9.6452    1.6691    7.4786 F   0  0  0  0  0  0  0  0  0  0  0  0
  -15.1666   -9.0786   19.3843 N   0  0  0  0  0  0  0  0  0  0  0  0
  -11.0906    2.7692   14.9862 N   0  0  0  0  0  0  0  0  0  0  0  0
  -14.2895   -3.4083   18.7398 N   0  0  0  0  0  0  0  0  0  0  0  0
  -11.6306   -0.1022    5.9245 N   0  0  0  0  0  0  0  0  0  0  0  0
  -11.0575    0.8974   20.8699 N   0  0  0  0  0  0  0  0  0  0  0  0
   -8.5647    0.0061   10.6128 N   0  0  0  0  0  0  0  0  0  0  0  0
   -7.6052    3.0145   14.5276 N   0  0  0  0  0  0  0  0  0  0  0  0
   -8.9995    1.2439   16.1835 O   0  0  0  0  0  0  0  0  0  0  0  0
   -9.4023   -1.4785   15.3937 O   0  0  0  0  0  0  0  0  0  0  0  0
   -9.7690   -1.8344   12.4988 O   0  0  0  0  0  0  0  0  0  0  0  0
  -11.7929   -1.4873   17.2832 O   0  0  0  0  0  0  0  0  0  0  0  0
  -10.5163   -3.3915   14.5863 O   0  0  0  0  0  0  0  0  0  0  0  0
  -13.7897   -2.9421   12.7855 O   0  0  0  0  0  0  0  0  0  0  0  0
  -12.3842   -4.0863   16.6196 O   0  0  0  0  0  0  0  0  0  0  0  0
   -8.9057   -1.8381    8.0144 O   0  0  0  0  0  0  0  0  0  0  0  0
  -10.7144    0.4201    9.5895 O   0  0  0  0  0  0  0  0  0  0  0  0
  -13.2412   -6.0056   17.8722 O   0  0  0  0  0  0  0  0  0  0  0  0
  -10.3014    0.7333   18.1217 O   0  0  0  0  0  0  0  0  0  0  0  0
  1 36  1  1  0  0  0
  2 36  1  1  0  0  0
  2  3  1  0  0  0  0
  3 37  1  1  0  0  0
  3  4  1  0  0  0  0
  4 38  1  6  0  0  0
  5 37  1  6  0  0  0
  5  6  1  0  0  0  0
  6  7  1  0  0  0  0
  6 39  1  1  0  0  0
  7 42  1  1  0  0  0
  8  9  1  6  0  0  0
  8  7  1  0  0  0  0
 10 42  1  1  0  0  0
 10 11  1  0  0  0  0
 11 31  1  1  0  0  0
 11 13  1  0  0  0  0
 12 30  1  6  0  0  0
 12  1  1  0  0  0  0
 14 13  1  0  0  0  0
 15 16  1  1  0  0  0
 15 14  1  0  0  0  0
 17 19  1  1  0  0  0
 17 28  1  0  0  0  0
 18 34  1  0  0  0  0
 19 32  1  0  0  0  0
 20 18  1  1  0  0  0
 20 17  1  0  0  0  0
 20 43  1  0  0  0  0
 21 12  1  0  0  0  0
 22 21  1  0  0  0  0
 22 23  1  0  0  0  0
 23 24  1  1  0  0  0
 23 46  1  0  0  0  0
 24 33  1  0  0  0  0
 25 34  1  6  0  0  0
 25  4  1  0  0  0  0
 26 25  1  0  0  0  0
 27 35  1  1  0  0  0
 27 26  1  0  0  0  0
 27  2  1  0  0  0  0
 29 16  1  0  0  0  0
 40  8  1  0  0  0  0
 40  5  1  0  0  0  0
 41  9  1  0  0  0  0
 44 18  2  0  0  0  0
 45 15  1  0  0  0  0
 45 10  1  0  0  0  0
 46  1  1  0  0  0  0
M  END
>  <CHROM.1>
-99.04275235,-22.42188448,153.89389609,-51.67698482,141.77504244,-59.44192106
-65.87387287,67.44193463,-173.34509895,-149.93743554,-76.98259948,63.83085697
117.27750087,-11.05308537,-1.23791482,14.63927733,-2.38985620,-1.04167396
-1.80356047

>  <Name>
lig.pdb

>  <RI>
0

>  <Rbt.Current_Directory>
/home/afrankz/demos/rdock_decoys_rna/rnas/3wru

>  <Rbt.Executable>
rbdock ($Id: //depot/dev/client3/rdock/2013.1/src/exe/rbdock.cxx#4 $)

>  <Rbt.Library>
libRbt.so (2013.1, Build901 2013/11/27)

>  <Rbt.Parameter_File>
/export/apps/rDock/src/rDock_2013.1_src/data/scripts/dock_solv.prm

>  <Rbt.Receptor>
prm/blind_docking_40.prm

>  <SCORE>
18.842

>  <SCORE.INTER>
5.20975

>  <SCORE.INTER.CONST>
1

>  <SCORE.INTER.POLAR>
0

>  <SCORE.INTER.ROT>
13

>  <SCORE.INTER.SOLV>
30.193

>  <SCORE.INTER.VDW>
-18.8578

>  <SCORE.INTER.norm>
0.113255

>  <SCORE.INTRA>
9.83934

>  <SCORE.INTRA.DIHEDRAL>
3.15313

>  <SCORE.INTRA.DIHEDRAL.0>
19.7146

>  <SCORE.INTRA.POLAR>
0

>  <SCORE.INTRA.POLAR.0>
0

>  <SCORE.INTRA.REPUL>
0

>  <SCORE.INTRA.REPUL.0>
0

>  <SCORE.INTRA.SOLV>
4.5335

>  <SCORE.INTRA.SOLV.lig_0>
-116.697

>  <SCORE.INTRA.VDW>
5.99602

>  <SCORE.INTRA.VDW.0>
-7.06424

>  <SCORE.INTRA.norm>
0.213899

>  <SCORE.RESTR>
3.79291

>  <SCORE.RESTR.CAVITY>
3.79291

>  <SCORE.RESTR.norm>
0.0824545

>  <SCORE.SYSTEM>
0

>  <SCORE.SYSTEM.CONST>
0

>  <SCORE.SYSTEM.DIHEDRAL>
0

>  <SCORE.SYSTEM.SOLV>
0

>  <SCORE.SYSTEM.norm>
0

>  <SCORE.heavy>
46

>  <SCORE.norm>
0.409609

>  <RMSD>
28.457

$$$$
lig.pdb
 OpenBabel03061811583D
libRbt.so/2013.1/901 2013/11/27
 46 49  0  0  0  0  0  0  0  0999 V2000
   -8.8012    1.4621   12.5043 C   0  0  1  0  0  0  0  0  0  0  0  0
  -10.4154    0.7830   14.3321 C   0  0  1  0  0  0  0  0  0  0  0  0
   -9.7400   -0.4014   15.0876 C   0  0  1  0  0  0  0  0  0  0  0  0
  -10.2190   -0.3774   16.6280 C   0  0  2  0  0  0  0  0  0  0  0  0
  -10.9749   -2.6041   14.8402 C   0  0  2  0  0  0  0  0  0  0  0  0
  -12.4109   -2.0937   15.1500 C   0  0  1  0  0  0  0  0  0  0  0  0
  -13.1388   -3.4053   14.9808 C   0  0  1  0  0  0  0  0  0  0  0  0
  -12.5664   -4.0093   13.6592 C   0  0  1  0  0  0  0  0  0  0  0  0
  -13.1831   -3.4852   12.3151 C   0  0  0  0  0  0  0  0  0  0  0  0
  -13.9105   -4.9676   16.7266 C   0  0  1  0  0  0  0  0  0  0  0  0
  -14.8813   -4.0847   17.4525 C   0  0  1  0  0  0  0  0  0  0  0  0
   -8.3748    0.8953   11.1294 C   0  0  1  0  0  0  0  0  0  0  0  0
  -16.0057   -4.9867   18.0744 C   0  0  0  0  0  0  0  0  0  0  0  0
  -15.5396   -5.9640   19.0158 C   0  0  0  0  0  0  0  0  0  0  0  0
  -14.6242   -6.8590   18.3404 C   0  0  2  0  0  0  0  0  0  0  0  0
  -14.0684   -7.9557   19.3319 C   0  0  0  0  0  0  0  0  0  0  0  0
   -9.3646    0.7386   21.6470 C   0  0  2  0  0  0  0  0  0  0  0  0
   -9.3478    1.8961   19.5945 C   0  0  0  0  0  0  0  0  0  0  0  0
   -9.1045    1.0333   22.9720 C   0  0  0  0  0  0  0  0  0  0  0  0
   -9.9721    1.8066   21.0728 C   0  0  1  0  0  0  0  0  0  0  0  0
   -7.9128   -0.6273   11.2555 C   0  0  0  0  0  0  0  0  0  0  0  0
   -6.7003   -0.6983   12.3029 C   0  0  0  0  0  0  0  0  0  0  0  0
   -7.2240   -0.1262   13.7009 C   0  0  1  0  0  0  0  0  0  0  0  0
   -6.1268   -0.1409   14.7721 C   0  0  0  0  0  0  0  0  0  0  0  0
   -9.7176    0.9847   17.2792 C   0  0  1  0  0  0  0  0  0  0  0  0
  -10.4683    2.1725   16.4720 C   0  0  0  0  0  0  0  0  0  0  0  0
  -10.0361    2.1493   14.9552 C   0  0  2  0  0  0  0  0  0  0  0  0
  -10.1505   -0.4720   21.5669 F   0  0  0  0  0  0  0  0  0  0  0  0
  -15.0598   -9.1330   19.5581 N   0  0  0  0  0  0  0  0  0  0  0  0
   -9.5307    1.0631   10.1729 N   0  0  0  0  0  0  0  0  0  0  0  0
  -14.3267   -3.3885   18.5300 N   0  0  0  0  0  0  0  0  0  0  0  0
   -8.2560    1.9960   23.5675 N   0  0  0  0  0  0  0  0  0  0  0  0
   -4.8893    0.2747   14.2365 N   0  0  0  0  0  0  0  0  0  0  0  0
  -10.1245    1.0406   18.6948 N   0  0  0  0  0  0  0  0  0  0  0  0
  -10.7240    3.2215   14.2024 N   0  0  0  0  0  0  0  0  0  0  0  0
   -9.9848    0.8185   12.9776 O   0  0  0  0  0  0  0  0  0  0  0  0
  -10.1785   -1.6602   14.3976 O   0  0  0  0  0  0  0  0  0  0  0  0
   -9.6095   -1.4306   17.2725 O   0  0  0  0  0  0  0  0  0  0  0  0
  -12.4267   -1.5958   16.4535 O   0  0  0  0  0  0  0  0  0  0  0  0
  -11.1804   -3.7408   13.9287 O   0  0  0  0  0  0  0  0  0  0  0  0
  -12.2734   -3.8440   11.2559 O   0  0  0  0  0  0  0  0  0  0  0  0
  -12.8417   -4.2966   16.1731 O   0  0  0  0  0  0  0  0  0  0  0  0
  -11.4066    1.6620   20.9869 O   0  0  0  0  0  0  0  0  0  0  0  0
   -8.3716    2.5972   19.2814 O   0  0  0  0  0  0  0  0  0  0  0  0
  -13.4895   -6.0791   17.7191 O   0  0  0  0  0  0  0  0  0  0  0  0
   -7.7088    1.3032   13.5228 O   0  0  0  0  0  0  0  0  0  0  0  0
  1 36  1  1  0  0  0
  2 36  1  6  0  0  0
  2  3  1  0  0  0  0
  3 37  1  6  0  0  0
  3  4  1  0  0  0  0
  4 38  1  1  0  0  0
  5 37  1  6  0  0  0
  5  6  1  0  0  0  0
  6  7  1  0  0  0  0
  6 39  1  1  0  0  0
  7 42  1  1  0  0  0
  8  9  1  6  0  0  0
  8  7  1  0  0  0  0
 10 42  1  1  0  0  0
 10 11  1  0  0  0  0
 11 31  1  1  0  0  0
 11 13  1  0  0  0  0
 12 30  1  6  0  0  0
 12  1  1  0  0  0  0
 14 13  1  0  0  0  0
 15 16  1  1  0  0  0
 15 14  1  0  0  0  0
 17 19  1  1  0  0  0
 17 28  1  0  0  0  0
 18 34  1  0  0  0  0
 19 32  1  0  0  0  0
 20 18  1  6  0  0  0
 20 17  1  0  0  0  0
 20 43  1  0  0  0  0
 21 12  1  0  0  0  0
 22 21  1  0  0  0  0
 22 23  1  0  0  0  0
 23 24  1  1  0  0  0
 23 46  1  0  0  0  0
 24 33  1  0  0  0  0
 25 34  1  1  0  0  0
 25  4  1  0  0  0  0
 26 25  1  0  0  0  0
 27 35  1  6  0  0  0
 27 26  1  0  0  0  0
 27  2  1  0  0  0  0
 29 16  1  0  0  0  0
 40  8  1  0  0  0  0
 40  5  1  0  0  0  0
 41  9  1  0  0  0  0
 44 18  2  0  0  0  0
 45 15  1  0  0  0  0
 45 10  1  0  0  0  0
 46  1  1  0  0  0  0
M  END
>  <CHROM.1>
159.59398376,-85.64249609,-110.94438801,61.54169381,135.76655082,163.05036663
-70.16220976,80.35944040,-64.80865767,87.04635234,141.27568491,41.54325404
156.07902775,-10.80945003,-1.32838322,16.33167689,0.22901523,-0.89446696
-1.78590412

>  <Name>
lig.pdb

>  <RI>
0

>  <Rbt.Current_Directory>
/home/afrankz/demos/rdock_decoys_rna/rnas/3wru

>  <Rbt.Executable>
rbdock ($Id: //depot/dev/client3/rdock/2013.1/src/exe/rbdock.cxx#4 $)

>  <Rbt.Library>
libRbt.so (2013.1, Build901 2013/11/27)

>  <Rbt.Parameter_File>
/export/apps/rDock/src/rDock_2013.1_src/data/scripts/dock_solv.prm

>  <Rbt.Receptor>
prm/blind_docking_60.prm

>  <SCORE>
36.0684

>  <SCORE.INTER>
14.805

>  <SCORE.INTER.CONST>
1

>  <SCORE.INTER.POLAR>
0

>  <SCORE.INTER.ROT>
13

>  <SCORE.INTER.SOLV>
34.1763

>  <SCORE.INTER.VDW>
-13.7888

>  <SCORE.INTER.norm>
0.321848

>  <SCORE.INTRA>
8.14563

>  <SCORE.INTRA.DIHEDRAL>
7.15001

>  <SCORE.INTRA.DIHEDRAL.0>
19.7146

>  <SCORE.INTRA.POLAR>
0

>  <SCORE.INTRA.POLAR.0>
0

>  <SCORE.INTRA.REPUL>
0.0353713

>  <SCORE.INTRA.REPUL.0>
0

>  <SCORE.INTRA.SOLV>
-0.0144298

>  <SCORE.INTRA.SOLV.lig_0>
-116.697

>  <SCORE.INTRA.VDW>
4.40099

>  <SCORE.INTRA.VDW.0>
-7.06424

>  <SCORE.INTRA.norm>
0.177079

>  <SCORE.RESTR>
13.1177

>  <SCORE.RESTR.CAVITY>
13.1177

>  <SCORE.RESTR.norm>
0.285167

>  <SCORE.SYSTEM>
0

>  <SCORE.SYSTEM.CONST>
0

>  <SCORE.SYSTEM.DIHEDRAL>
0

>  <SCORE.SYSTEM.SOLV>
0

>  <SCORE.SYSTEM.norm>
0

>  <SCORE.heavy>
46

>  <SCORE.norm>
0.784095

>  <RMSD>
28.474

$$$$
lig.pdb
 OpenBabel03061811583D
libRbt.so/2013.1/901 2013/11/27
 46 49  0  0  0  0  0  0  0  0999 V2000
   -9.9082   -3.0872   14.4898 C   0  0  1  0  0  0  0  0  0  0  0  0
   -9.5163   -0.7664   15.4215 C   0  0  1  0  0  0  0  0  0  0  0  0
   -9.5369    0.7022   14.8994 C   0  0  1  0  0  0  0  0  0  0  0  0
   -9.0958    1.6874   16.0984 C   0  0  2  0  0  0  0  0  0  0  0  0
   -8.7222    0.3340   12.5248 C   0  0  2  0  0  0  0  0  0  0  0  0
   -9.4824    1.3403   11.6147 C   0  0  1  0  0  0  0  0  0  0  0  0
   -8.9252    0.8830   10.2883 C   0  0  1  0  0  0  0  0  0  0  0  0
   -7.3899    0.7339   10.5329 C   0  0  1  0  0  0  0  0  0  0  0  0
   -6.5289    2.0430   10.4517 C   0  0  0  0  0  0  0  0  0  0  0  0
   -9.5584   -0.7752    8.5757 C   0  0  1  0  0  0  0  0  0  0  0  0
  -10.0845    0.3026    7.6754 C   0  0  1  0  0  0  0  0  0  0  0  0
   -9.7155   -3.7242   13.0932 C   0  0  1  0  0  0  0  0  0  0  0  0
  -10.0775   -0.2336    6.2000 C   0  0  0  0  0  0  0  0  0  0  0  0
  -10.8862   -1.3982    5.9803 C   0  0  0  0  0  0  0  0  0  0  0  0
  -10.3848   -2.4740    6.8087 C   0  0  2  0  0  0  0  0  0  0  0  0
  -11.2441   -3.7854    6.6164 C   0  0  0  0  0  0  0  0  0  0  0  0
  -10.7087    4.0366   20.8624 C   0  0  2  0  0  0  0  0  0  0  0  0
  -10.1759    2.0374   19.7345 C   0  0  0  0  0  0  0  0  0  0  0  0
  -10.3434    5.0667   21.7084 C   0  0  0  0  0  0  0  0  0  0  0  0
   -9.6809    3.1559   20.7772 C   0  0  1  0  0  0  0  0  0  0  0  0
  -10.9869   -3.4634   12.1641 C   0  0  0  0  0  0  0  0  0  0  0  0
  -12.2767   -4.0735   12.8965 C   0  0  0  0  0  0  0  0  0  0  0  0
  -12.4267   -3.3482   14.3134 C   0  0  1  0  0  0  0  0  0  0  0  0
  -13.6325   -3.8748   15.1008 C   0  0  0  0  0  0  0  0  0  0  0  0
  -10.1683    1.5545   17.2658 C   0  0  1  0  0  0  0  0  0  0  0  0
  -10.0841    0.0207   17.7818 C   0  0  0  0  0  0  0  0  0  0  0  0
  -10.4839   -0.9626   16.6150 C   0  0  2  0  0  0  0  0  0  0  0  0
  -11.0983    4.5797   19.5807 F   0  0  0  0  0  0  0  0  0  0  0  0
  -11.3067   -4.2628    5.1371 N   0  0  0  0  0  0  0  0  0  0  0  0
   -8.4471   -3.1670   12.4934 N   0  0  0  0  0  0  0  0  0  0  0  0
  -11.4097    0.6658    7.9312 N   0  0  0  0  0  0  0  0  0  0  0  0
   -9.5154    5.0869   22.8553 N   0  0  0  0  0  0  0  0  0  0  0  0
  -13.2440   -4.3325   16.3777 N   0  0  0  0  0  0  0  0  0  0  0  0
   -9.8083    2.4513   18.3787 N   0  0  0  0  0  0  0  0  0  0  0  0
  -10.3993   -2.3685   17.0683 N   0  0  0  0  0  0  0  0  0  0  0  0
   -9.9392   -1.6622   14.4018 O   0  0  0  0  0  0  0  0  0  0  0  0
   -8.5693    0.7669   13.7537 O   0  0  0  0  0  0  0  0  0  0  0  0
   -9.1224    2.9757   15.6130 O   0  0  0  0  0  0  0  0  0  0  0  0
  -10.8518    1.1188   11.7658 O   0  0  0  0  0  0  0  0  0  0  0  0
   -7.4781    0.0480   11.7929 O   0  0  0  0  0  0  0  0  0  0  0  0
   -5.4534    1.7935    9.5248 O   0  0  0  0  0  0  0  0  0  0  0  0
   -9.5593   -0.4442    9.9133 O   0  0  0  0  0  0  0  0  0  0  0  0
   -8.4583    3.7586   20.2995 O   0  0  0  0  0  0  0  0  0  0  0  0
  -10.7613    0.9882   20.0494 O   0  0  0  0  0  0  0  0  0  0  0  0
  -10.3695   -2.0559    8.2602 O   0  0  0  0  0  0  0  0  0  0  0  0
  -11.1718   -3.5718   15.1412 O   0  0  0  0  0  0  0  0  0  0  0  0
  1 36  1  6  0  0  0
  2 36  1  6  0  0  0
  2  3  1  0  0  0  0
  3 37  1  6  0  0  0
  3  4  1  0  0  0  0
  4 38  1  6  0  0  0
  5 37  1  1  0  0  0
  5  6  1  0  0  0  0
  6  7  1  0  0  0  0
  6 39  1  6  0  0  0
  7 42  1  1  0  0  0
  8  9  1  1  0  0  0
  8  7  1  0  0  0  0
 10 42  1  1  0  0  0
 10 11  1  0  0  0  0
 11 31  1  1  0  0  0
 11 13  1  0  0  0  0
 12 30  1  6  0  0  0
 12  1  1  0  0  0  0
 14 13  1  0  0  0  0
 15 16  1  1  0  0  0
 15 14  1  0  0  0  0
 17 19  1  1  0  0  0
 17 28  1  0  0  0  0
 18 34  1  0  0  0  0
 19 32  1  0  0  0  0
 20 18  1  6  0  0  0
 20 17  1  0  0  0  0
 20 43  1  0  0  0  0
 21 12  1  0  0  0  0
 22 21  1  0  0  0  0
 22 23  1  0  0  0  0
 23 24  1  1  0  0  0
 23 46  1  0  0  0  0
 24 33  1  0  0  0  0
 25 34  1  1  0  0  0
 25  4  1  0  0  0  0
 26 25  1  0  0  0  0
 27 35  1  1  0  0  0
 27 26  1  0  0  0  0
 27  2  1  0  0  0  0
 29 16  1  0  0  0  0
 40  8  1  0  0  0  0
 40  5  1  0  0  0  0
 41  9  1  0  0  0  0
 44 18  2  0  0  0  0
 45 15  1  0  0  0  0
 45 10  1  0  0  0  0
 46  1  1  0  0  0  0
M  END
>  <CHROM.1>
-150.47992912,173.12633151,76.40265275,83.15649668,157.30301389,-127.17126899
-50.53938479,56.72691531,-32.83010984,88.75975292,-177.78529667,124.86204547
-149.10947989,-9.96746208,-0.08188324,13.74059149,1.57204514,-1.06715600
-1.93308391

>  <Name>
lig.pdb

>  <RI>
0

>  <Rbt.Current_Directory>
/home/afrankz/demos/rdock_decoys_rna/rnas/3wru

>  <Rbt.Executable>
rbdock ($Id: //depot/dev/client3/rdock/2013.1/src/exe/rbdock.cxx#4 $)

>  <Rbt.Library>
libRbt.so (2013.1, Build901 2013/11/27)

>  <Rbt.Parameter_File>
/export/apps/rDock/src/rDock_2013.1_src/data/scripts/dock_solv.prm

>  <Rbt.Receptor>
prm/blind_docking_60.prm

>  <SCORE>
29.4882

>  <SCORE.INTER>
10.4449

>  <SCORE.INTER.CONST>
1

>  <SCORE.INTER.POLAR>
0

>  <SCORE.INTER.ROT>
13

>  <SCORE.INTER.SOLV>
38.9431

>  <SCORE.INTER.VDW>
-18.2844

>  <SCORE.INTER.norm>
0.227063

>  <SCORE.INTRA>
12.7455

>  <SCORE.INTRA.DIHEDRAL>
5.12078

>  <SCORE.INTRA.DIHEDRAL.0>
19.7146

>  <SCORE.INTRA.POLAR>
0

>  <SCORE.INTRA.POLAR.0>
0

>  <SCORE.INTRA.REPUL>
0

>  <SCORE.INTRA.REPUL.0>
0

>  <SCORE.INTRA.SOLV>
4.46162

>  <SCORE.INTRA.SOLV.lig_0>
-116.697

>  <SCORE.INTRA.VDW>
7.95431

>  <SCORE.INTRA.VDW.0>
-7.06424

>  <SCORE.INTRA.norm>
0.277076

>  <SCORE.RESTR>
6.29785

>  <SCORE.RESTR.CAVITY>
6.29785

>  <SCORE.RESTR.norm>
0.13691

>  <SCORE.SYSTEM>
0

>  <SCORE.SYSTEM.CONST>
0

>  <SCORE.SYSTEM.DIHEDRAL>
0

>  <SCORE.SYSTEM.SOLV>
0

>  <SCORE.SYSTEM.norm>
0

>  <SCORE.heavy>
46

>  <SCORE.norm>
0.641049

>  <RMSD>
28.474

$$$$
lig.pdb
 OpenBabel03061811583D
libRbt.so/2013.1/901 2013/11/27
 46 49  0  0  0  0  0  0  0  0999 V2000
   -8.0903    0.1901   13.5699 C   0  0  1  0  0  0  0  0  0  0  0  0
   -9.3851    0.5845   15.7090 C   0  0  1  0  0  0  0  0  0  0  0  0
   -9.4105   -0.7061   16.5827 C   0  0  1  0  0  0  0  0  0  0  0  0
  -10.7450   -0.6952   17.4893 C   0  0  2  0  0  0  0  0  0  0  0  0
   -9.5482   -1.8674   14.3310 C   0  0  2  0  0  0  0  0  0  0  0  0
   -9.2392   -3.2461   13.6810 C   0  0  1  0  0  0  0  0  0  0  0  0
  -10.0814   -3.0838   12.4388 C   0  0  1  0  0  0  0  0  0  0  0  0
  -11.4417   -2.5143   12.9531 C   0  0  1  0  0  0  0  0  0  0  0  0
  -12.4724   -3.5495   13.5256 C   0  0  0  0  0  0  0  0  0  0  0  0
  -10.0491   -1.8264   10.3171 C   0  0  1  0  0  0  0  0  0  0  0  0
  -10.1697   -2.9919    9.3811 C   0  0  1  0  0  0  0  0  0  0  0  0
   -6.6867    0.5018   12.9990 C   0  0  1  0  0  0  0  0  0  0  0  0
  -10.8801   -2.5050    8.0686 C   0  0  0  0  0  0  0  0  0  0  0  0
  -10.1881   -1.4662    7.3610 C   0  0  0  0  0  0  0  0  0  0  0  0
  -10.0834   -0.3082    8.2230 C   0  0  2  0  0  0  0  0  0  0  0  0
   -9.3197    0.8700    7.4995 C   0  0  0  0  0  0  0  0  0  0  0  0
  -13.6228   -0.6055   21.3500 C   0  0  2  0  0  0  0  0  0  0  0  0
  -11.6732    0.5822   20.7655 C   0  0  0  0  0  0  0  0  0  0  0  0
  -14.8720   -0.6392   21.9402 C   0  0  0  0  0  0  0  0  0  0  0  0
  -13.1057    0.6402   21.4920 C   0  0  1  0  0  0  0  0  0  0  0  0
   -6.4570    2.0761   12.8704 C   0  0  0  0  0  0  0  0  0  0  0  0
   -7.6042    2.6744   11.9227 C   0  0  0  0  0  0  0  0  0  0  0  0
   -9.0178    2.3403   12.5907 C   0  0  1  0  0  0  0  0  0  0  0  0
  -10.1869    2.8639   11.7478 C   0  0  0  0  0  0  0  0  0  0  0  0
  -10.6733    0.5652   18.4573 C   0  0  1  0  0  0  0  0  0  0  0  0
  -10.6738    1.8707   17.4973 C   0  0  0  0  0  0  0  0  0  0  0  0
   -9.3904    1.8651   16.5803 C   0  0  2  0  0  0  0  0  0  0  0  0
  -13.7295   -1.0216   19.9697 F   0  0  0  0  0  0  0  0  0  0  0  0
   -7.9105    0.4587    6.9843 N   0  0  0  0  0  0  0  0  0  0  0  0
   -5.6602   -0.1531   13.8915 N   0  0  0  0  0  0  0  0  0  0  0  0
   -8.9448   -3.5210    8.9649 N   0  0  0  0  0  0  0  0  0  0  0  0
  -15.3393   -0.1239   23.1720 N   0  0  0  0  0  0  0  0  0  0  0  0
  -10.4824    1.9818   10.6868 N   0  0  0  0  0  0  0  0  0  0  0  0
  -11.8715    0.6048   19.3147 N   0  0  0  0  0  0  0  0  0  0  0  0
   -9.3837    3.0458   15.6886 N   0  0  0  0  0  0  0  0  0  0  0  0
   -8.2006    0.6299   14.9240 O   0  0  0  0  0  0  0  0  0  0  0  0
   -9.4023   -1.8698   15.6347 O   0  0  0  0  0  0  0  0  0  0  0  0
  -10.7436   -1.8427   18.2504 O   0  0  0  0  0  0  0  0  0  0  0  0
   -7.8673   -3.3166   13.4356 O   0  0  0  0  0  0  0  0  0  0  0  0
  -10.8942   -1.5275   13.8432 O   0  0  0  0  0  0  0  0  0  0  0  0
  -12.2847   -3.5980   14.9541 O   0  0  0  0  0  0  0  0  0  0  0  0
   -9.3944   -2.1134   11.4951 O   0  0  0  0  0  0  0  0  0  0  0  0
  -13.9205    1.6634   20.8793 O   0  0  0  0  0  0  0  0  0  0  0  0
  -10.5822    0.5412   21.3576 O   0  0  0  0  0  0  0  0  0  0  0  0
   -9.3926   -0.6758    9.5151 O   0  0  0  0  0  0  0  0  0  0  0  0
   -9.1694    0.8362   12.7489 O   0  0  0  0  0  0  0  0  0  0  0  0
  1 36  1  1  0  0  0
  2 36  1  1  0  0  0
  2  3  1  0  0  0  0
  3 37  1  6  0  0  0
  3  4  1  0  0  0  0
  4 38  1  1  0  0  0
  5 37  1  1  0  0  0
  5  6  1  0  0  0  0
  6  7  1  0  0  0  0
  6 39  1  6  0  0  0
  7 42  1  6  0  0  0
  8  9  1  1  0  0  0
  8  7  1  0  0  0  0
 10 42  1  1  0  0  0
 10 11  1  0  0  0  0
 11 31  1  6  0  0  0
 11 13  1  0  0  0  0
 12 30  1  1  0  0  0
 12  1  1  0  0  0  0
 14 13  1  0  0  0  0
 15 16  1  6  0  0  0
 15 14  1  0  0  0  0
 17 19  1  6  0  0  0
 17 28  1  0  0  0  0
 18 34  1  0  0  0  0
 19 32  1  0  0  0  0
 20 18  1  6  0  0  0
 20 17  1  0  0  0  0
 20 43  1  0  0  0  0
 21 12  1  0  0  0  0
 22 21  1  0  0  0  0
 22 23  1  0  0  0  0
 23 24  1  6  0  0  0
 23 46  1  0  0  0  0
 24 33  1  0  0  0  0
 25 34  1  1  0  0  0
 25  4  1  0  0  0  0
 26 25  1  0  0  0  0
 27 35  1  6  0  0  0
 27 26  1  0  0  0  0
 27  2  1  0  0  0  0
 29 16  1  0  0  0  0
 40  8  1  0  0  0  0
 40  5  1  0  0  0  0
 41  9  1  0  0  0  0
 44 18  2  0  0  0  0
 45 15  1  0  0  0  0
 45 10  1  0  0  0  0
 46  1  1  0  0  0  0
M  END
>  <CHROM.1>
175.14615786,95.68708936,-9.51570950,170.19370833,-178.54354723,94.44285605
-66.14149691,-55.67441529,-43.72770810,75.67572007,-179.37696033,81.19817768
121.82138632,-10.24782222,-0.42157990,14.54380830,-1.04151688,0.90334220
1.06326421

>  <Name>
lig.pdb

>  <RI>
0

>  <Rbt.Current_Directory>
/home/afrankz/demos/rdock_decoys_rna/rnas/3wru

>  <Rbt.Executable>
rbdock ($Id: //depot/dev/client3/rdock/2013.1/src/exe/rbdock.cxx#4 $)

>  <Rbt.Library>
libRbt.so (2013.1, Build901 2013/11/27)

>  <Rbt.Parameter_File>
/export/apps/rDock/src/rDock_2013.1_src/data/scripts/dock_solv.prm

>  <Rbt.Receptor>
prm/blind_docking_40.prm

>  <SCORE>
16.6217

>  <SCORE.INTER>
6.91017

>  <SCORE.INTER.CONST>
1

>  <SCORE.INTER.POLAR>
0

>  <SCORE.INTER.ROT>
13

>  <SCORE.INTER.SOLV>
27.1788

>  <SCORE.INTER.VDW>
-16.7195

>  <SCORE.INTER.norm>
0.150221

>  <SCORE.INTRA>
6.74568

>  <SCORE.INTRA.DIHEDRAL>
0.549484

>  <SCORE.INTRA.DIHEDRAL.0>
19.7146

>  <SCORE.INTRA.POLAR>
0

>  <SCORE.INTRA.POLAR.0>
0

>  <SCORE.INTRA.REPUL>
0.0508694

>  <SCORE.INTRA.REPUL.0>
0

>  <SCORE.INTRA.SOLV>
5.86707

>  <SCORE.INTRA.SOLV.lig_0>
-116.697

>  <SCORE.INTRA.VDW>
3.28305

>  <SCORE.INTRA.VDW.0>
-7.06424

>  <SCORE.INTRA.norm>
0.146645

>  <SCORE.RESTR>
2.96582

>  <SCORE.RESTR.CAVITY>
2.96582

>  <SCORE.RESTR.norm>
0.0644744

>  <SCORE.SYSTEM>
0

>  <SCORE.SYSTEM.CONST>
0

>  <SCORE.SYSTEM.DIHEDRAL>
0

>  <SCORE.SYSTEM.SOLV>
0

>  <SCORE.SYSTEM.norm>
0

>  <SCORE.heavy>
46

>  <SCORE.norm>
0.361341

>  <RMSD>
28.582

$$$$
lig.pdb
 OpenBabel03061811583D
libRbt.so/2013.1/901 2013/11/27
 46 49  0  0  0  0  0  0  0  0999 V2000
   -8.2789    0.3718   14.0204 C   0  0  1  0  0  0  0  0  0  0  0  0
  -10.2331   -0.2412   15.5081 C   0  0  1  0  0  0  0  0  0  0  0  0
  -10.1195   -1.7796   15.2844 C   0  0  1  0  0  0  0  0  0  0  0  0
  -11.5435   -2.4608   15.6175 C   0  0  2  0  0  0  0  0  0  0  0  0
  -10.5214   -2.0816   12.7974 C   0  0  2  0  0  0  0  0  0  0  0  0
   -9.7642   -1.8894   11.4526 C   0  0  1  0  0  0  0  0  0  0  0  0
  -10.7077   -2.6695   10.5694 C   0  0  1  0  0  0  0  0  0  0  0  0
  -10.9991   -3.9830   11.3625 C   0  0  1  0  0  0  0  0  0  0  0  0
   -9.9341   -5.1297   11.2504 C   0  0  0  0  0  0  0  0  0  0  0  0
  -12.1019   -1.2236    9.1379 C   0  0  1  0  0  0  0  0  0  0  0  0
  -12.5057   -2.1281    8.0119 C   0  0  1  0  0  0  0  0  0  0  0  0
   -6.8955    1.0504   14.1581 C   0  0  1  0  0  0  0  0  0  0  0  0
  -12.5565   -1.2843    6.6891 C   0  0  0  0  0  0  0  0  0  0  0  0
  -11.3113   -0.6770    6.3159 C   0  0  0  0  0  0  0  0  0  0  0  0
  -10.9059    0.2329    7.3661 C   0  0  2  0  0  0  0  0  0  0  0  0
   -9.5315    0.9276    7.0150 C   0  0  0  0  0  0  0  0  0  0  0  0
  -14.5813   -5.9532   18.4581 C   0  0  2  0  0  0  0  0  0  0  0  0
  -13.2437   -4.2807   17.4750 C   0  0  0  0  0  0  0  0  0  0  0  0
  -15.4543   -6.0614   19.5241 C   0  0  0  0  0  0  0  0  0  0  0  0
  -14.7292   -4.7284   17.8947 C   0  0  1  0  0  0  0  0  0  0  0  0
   -7.0496    2.6131   14.4443 C   0  0  0  0  0  0  0  0  0  0  0  0
   -7.8867    3.2630   13.2405 C   0  0  0  0  0  0  0  0  0  0  0  0
   -9.3085    2.5344   13.1806 C   0  0  1  0  0  0  0  0  0  0  0  0
  -10.1840    3.0807   12.0463 C   0  0  0  0  0  0  0  0  0  0  0  0
  -11.8683   -2.1993   17.1527 C   0  0  1  0  0  0  0  0  0  0  0  0
  -11.9977   -0.5925   17.3179 C   0  0  0  0  0  0  0  0  0  0  0  0
  -10.6228    0.0971   16.9685 C   0  0  2  0  0  0  0  0  0  0  0  0
  -14.8157   -7.0366   17.5302 F   0  0  0  0  0  0  0  0  0  0  0  0
   -8.4135   -0.0865    6.6381 N   0  0  0  0  0  0  0  0  0  0  0  0
   -6.1317    0.3431   15.2516 N   0  0  0  0  0  0  0  0  0  0  0  0
  -11.6017   -3.1630    7.7567 N   0  0  0  0  0  0  0  0  0  0  0  0
  -15.5253   -5.3598   20.7505 N   0  0  0  0  0  0  0  0  0  0  0  0
  -11.5546    2.9401   12.3506 N   0  0  0  0  0  0  0  0  0  0  0  0
  -13.1591   -2.8190   17.5023 N   0  0  0  0  0  0  0  0  0  0  0  0
  -10.7295    1.5668   17.1028 N   0  0  0  0  0  0  0  0  0  0  0  0
   -8.9831    0.3903   15.2625 O   0  0  0  0  0  0  0  0  0  0  0  0
   -9.7398   -1.9802   13.8461 O   0  0  0  0  0  0  0  0  0  0  0  0
  -11.4171   -3.8167   15.4131 O   0  0  0  0  0  0  0  0  0  0  0  0
   -9.7148   -0.5238   11.1696 O   0  0  0  0  0  0  0  0  0  0  0  0
  -11.2150   -3.3703   12.6446 O   0  0  0  0  0  0  0  0  0  0  0  0
  -10.0727   -5.9611   12.4199 O   0  0  0  0  0  0  0  0  0  0  0  0
  -11.9727   -1.8586   10.3540 O   0  0  0  0  0  0  0  0  0  0  0  0
  -15.5807   -4.7421   16.7281 O   0  0  0  0  0  0  0  0  0  0  0  0
  -12.3233   -5.0650   17.1917 O   0  0  0  0  0  0  0  0  0  0  0  0
  -10.8118   -0.4963    8.6856 O   0  0  0  0  0  0  0  0  0  0  0  0
   -9.1133    1.0423   12.9668 O   0  0  0  0  0  0  0  0  0  0  0  0
  1 36  1  1  0  0  0
  2 36  1  1  0  0  0
  2  3  1  0  0  0  0
  3 37  1  6  0  0  0
  3  4  1  0  0  0  0
  4 38  1  1  0  0  0
  5 37  1  1  0  0  0
  5  6  1  0  0  0  0
  6  7  1  0  0  0  0
  6 39  1  6  0  0  0
  7 42  1  1  0  0  0
  8  9  1  1  0  0  0
  8  7  1  0  0  0  0
 10 42  1  1  0  0  0
 10 11  1  0  0  0  0
 11 31  1  6  0  0  0
 11 13  1  0  0  0  0
 12 30  1  1  0  0  0
 12  1  1  0  0  0  0
 14 13  1  0  0  0  0
 15 16  1  6  0  0  0
 15 14  1  0  0  0  0
 17 19  1  1  0  0  0
 17 28  1  0  0  0  0
 18 34  1  0  0  0  0
 19 32  1  0  0  0  0
 20 18  1  6  0  0  0
 20 17  1  0  0  0  0
 20 43  1  0  0  0  0
 21 12  1  0  0  0  0
 22 21  1  0  0  0  0
 22 23  1  0  0  0  0
 23 24  1  6  0  0  0
 23 46  1  0  0  0  0
 24 33  1  0  0  0  0
 25 34  1  6  0  0  0
 25  4  1  0  0  0  0
 26 25  1  0  0  0  0
 27 35  1  6  0  0  0
 27 26  1  0  0  0  0
 27  2  1  0  0  0  0
 29 16  1  0  0  0  0
 40  8  1  0  0  0  0
 40  5  1  0  0  0  0
 41  9  1  0  0  0  0
 44 18  2  0  0  0  0
 45 15  1  0  0  0  0
 45 10  1  0  0  0  0
 46  1  1  0  0  0  0
M  END
>  <CHROM.1>
-174.73883157,60.58013670,-87.50946240,164.05035577,102.97307196,156.37901182
77.55897113,-52.28556378,-64.43113238,-151.56428561,142.30331571,-152.37586329
66.80211862,-11.06077449,-1.69419100,13.40245526,-0.91591829,0.94202305,1.51282674

>  <Name>
lig.pdb

>  <RI>
0

>  <Rbt.Current_Directory>
/home/afrankz/demos/rdock_decoys_rna/rnas/3wru

>  <Rbt.Executable>
rbdock ($Id: //depot/dev/client3/rdock/2013.1/src/exe/rbdock.cxx#4 $)

>  <Rbt.Library>
libRbt.so (2013.1, Build901 2013/11/27)

>  <Rbt.Parameter_File>
/export/apps/rDock/src/rDock_2013.1_src/data/scripts/dock_solv.prm

>  <Rbt.Receptor>
prm/blind_docking_60.prm

>  <SCORE>
35.2108

>  <SCORE.INTER>
25.2247

>  <SCORE.INTER.CONST>
1

>  <SCORE.INTER.POLAR>
0

>  <SCORE.INTER.ROT>
13

>  <SCORE.INTER.SOLV>
33.7188

>  <SCORE.INTER.VDW>
-6.68984

>  <SCORE.INTER.norm>
0.548362

>  <SCORE.INTRA>
3.99034

>  <SCORE.INTRA.DIHEDRAL>
1.31228

>  <SCORE.INTRA.DIHEDRAL.0>
19.7146

>  <SCORE.INTRA.POLAR>
0

>  <SCORE.INTRA.POLAR.0>
0

>  <SCORE.INTRA.REPUL>
0

>  <SCORE.INTRA.REPUL.0>
0

>  <SCORE.INTRA.SOLV>
0.472763

>  <SCORE.INTRA.SOLV.lig_0>
-116.697

>  <SCORE.INTRA.VDW>
3.09782

>  <SCORE.INTRA.VDW.0>
-7.06424

>  <SCORE.INTRA.norm>
0.0867465

>  <SCORE.RESTR>
5.99583

>  <SCORE.RESTR.CAVITY>
5.99583

>  <SCORE.RESTR.norm>
0.130344

>  <SCORE.SYSTEM>
0

>  <SCORE.SYSTEM.CONST>
0

>  <SCORE.SYSTEM.DIHEDRAL>
0

>  <SCORE.SYSTEM.SOLV>
0

>  <SCORE.SYSTEM.norm>
0

>  <SCORE.heavy>
46

>  <SCORE.norm>
0.765453

>  <RMSD>
28.593

$$$$
lig.pdb
 OpenBabel03061811583D
libRbt.so/2013.1/901 2013/11/27
 46 49  0  0  0  0  0  0  0  0999 V2000
   -8.7696   -2.5684   13.8098 C   0  0  1  0  0  0  0  0  0  0  0  0
   -9.4318   -0.2827   14.6728 C   0  0  1  0  0  0  0  0  0  0  0  0
  -10.0845    1.0150   14.1072 C   0  0  1  0  0  0  0  0  0  0  0  0
  -10.1107    2.1338   15.2693 C   0  0  2  0  0  0  0  0  0  0  0  0
   -9.5878    1.6023   11.6893 C   0  0  2  0  0  0  0  0  0  0  0  0
  -10.6381    0.5563   11.2186 C   0  0  1  0  0  0  0  0  0  0  0  0
  -11.2445    1.3617   10.0950 C   0  0  1  0  0  0  0  0  0  0  0  0
  -11.4666    2.7839   10.7011 C   0  0  1  0  0  0  0  0  0  0  0  0
  -12.7622    2.9935   11.5607 C   0  0  0  0  0  0  0  0  0  0  0  0
   -9.9496    0.1916    8.3521 C   0  0  1  0  0  0  0  0  0  0  0  0
   -9.1856    0.3088    7.0671 C   0  0  1  0  0  0  0  0  0  0  0  0
   -7.5355   -2.6421   12.8798 C   0  0  1  0  0  0  0  0  0  0  0  0
   -8.9404   -1.1344    6.5001 C   0  0  0  0  0  0  0  0  0  0  0  0
  -10.1336   -1.8783    6.2145 C   0  0  0  0  0  0  0  0  0  0  0  0
  -10.8824   -2.0430    7.4422 C   0  0  2  0  0  0  0  0  0  0  0  0
  -12.2165   -2.8497    7.1886 C   0  0  0  0  0  0  0  0  0  0  0  0
   -9.9578    3.2370   20.7746 C   0  0  2  0  0  0  0  0  0  0  0  0
   -9.9780    2.6251   18.4991 C   0  0  0  0  0  0  0  0  0  0  0  0
   -9.6417    4.2468   21.6637 C   0  0  0  0  0  0  0  0  0  0  0  0
  -10.2525    3.7900   19.5719 C   0  0  1  0  0  0  0  0  0  0  0  0
   -7.9731   -2.6292   11.3448 C   0  0  0  0  0  0  0  0  0  0  0  0
   -8.9529   -3.8736   11.0924 C   0  0  0  0  0  0  0  0  0  0  0  0
  -10.2129   -3.7122   12.0631 C   0  0  1  0  0  0  0  0  0  0  0  0
  -11.2088   -4.8673   11.9047 C   0  0  0  0  0  0  0  0  0  0  0  0
  -11.0199    1.5907   16.4565 C   0  0  1  0  0  0  0  0  0  0  0  0
  -10.2816    0.2615   17.0168 C   0  0  0  0  0  0  0  0  0  0  0  0
  -10.2190   -0.8366   15.8862 C   0  0  2  0  0  0  0  0  0  0  0  0
  -11.0375    2.4404   21.3127 F   0  0  0  0  0  0  0  0  0  0  0  0
  -13.1297   -2.1963    6.1118 N   0  0  0  0  0  0  0  0  0  0  0  0
   -6.6201   -1.4911   13.2214 N   0  0  0  0  0  0  0  0  0  0  0  0
   -9.8668    0.9930    6.0565 N   0  0  0  0  0  0  0  0  0  0  0  0
   -8.5980    5.2018   21.6628 N   0  0  0  0  0  0  0  0  0  0  0  0
  -12.4072   -4.6033   12.6013 N   0  0  0  0  0  0  0  0  0  0  0  0
  -11.0811    2.5919   17.5364 N   0  0  0  0  0  0  0  0  0  0  0  0
   -9.5356   -2.0526   16.3801 N   0  0  0  0  0  0  0  0  0  0  0  0
   -9.4277   -1.3070   13.6869 O   0  0  0  0  0  0  0  0  0  0  0  0
   -9.2406    1.4521   12.9455 O   0  0  0  0  0  0  0  0  0  0  0  0
  -10.6910    3.2676   14.7460 O   0  0  0  0  0  0  0  0  0  0  0  0
   -9.9584   -0.5878   10.7987 O   0  0  0  0  0  0  0  0  0  0  0  0
  -10.1881    2.9015   11.3473 O   0  0  0  0  0  0  0  0  0  0  0  0
  -13.8905    2.8957   10.6688 O   0  0  0  0  0  0  0  0  0  0  0  0
  -10.2727    1.4003    8.9295 O   0  0  0  0  0  0  0  0  0  0  0  0
  -11.6250    4.2288   19.4727 O   0  0  0  0  0  0  0  0  0  0  0  0
   -8.9762    1.8910   18.4945 O   0  0  0  0  0  0  0  0  0  0  0  0
  -11.1833   -0.6971    8.0586 O   0  0  0  0  0  0  0  0  0  0  0  0
   -9.7463   -3.6691   13.5090 O   0  0  0  0  0  0  0  0  0  0  0  0
  1 36  1  6  0  0  0
  2 36  1  6  0  0  0
  2  3  1  0  0  0  0
  3 37  1  6  0  0  0
  3  4  1  0  0  0  0
  4 38  1  6  0  0  0
  5 37  1  1  0  0  0
  5  6  1  0  0  0  0
  6  7  1  0  0  0  0
  6 39  1  6  0  0  0
  7 42  1  6  0  0  0
  8  9  1  1  0  0  0
  8  7  1  0  0  0  0
 10 42  1  6  0  0  0
 10 11  1  0  0  0  0
 11 31  1  6  0  0  0
 11 13  1  0  0  0  0
 12 30  1  6  0  0  0
 12  1  1  0  0  0  0
 14 13  1  0  0  0  0
 15 16  1  6  0  0  0
 15 14  1  0  0  0  0
 17 19  1  1  0  0  0
 17 28  1  0  0  0  0
 18 34  1  0  0  0  0
 19 32  1  0  0  0  0
 20 18  1  6  0  0  0
 20 17  1  0  0  0  0
 20 43  1  0  0  0  0
 21 12  1  0  0  0  0
 22 21  1  0  0  0  0
 22 23  1  0  0  0  0
 23 24  1  1  0  0  0
 23 46  1  0  0  0  0
 24 33  1  0  0  0  0
 25 34  1  1  0  0  0
 25  4  1  0  0  0  0
 26 25  1  0  0  0  0
 27 35  1  1  0  0  0
 27 26  1  0  0  0  0
 27  2  1  0  0  0  0
 29 16  1  0  0  0  0
 40  8  1  0  0  0  0
 40  5  1  0  0  0  0
 41  9  1  0  0  0  0
 44 18  2  0  0  0  0
 45 15  1  0  0  0  0
 45 10  1  0  0  0  0
 46  1  1  0  0  0  0
M  END
>  <CHROM.1>
-108.88430691,172.23219312,119.98651635,-35.23845432,61.88581168,-67.53778593
169.77271680,-56.64360754,-62.41807579,135.64617613,156.17087164,-170.48001242
-82.72925220,-10.24017960,0.29489688,13.14207537,-1.70160790,-1.28971248
1.08283265

>  <Name>
lig.pdb

>  <RI>
0

>  <Rbt.Current_Directory>
/home/afrankz/demos/rdock_decoys_rna/rnas/3wru

>  <Rbt.Executable>
rbdock ($Id: //depot/dev/client3/rdock/2013.1/src/exe/rbdock.cxx#4 $)

>  <Rbt.Library>
libRbt.so (2013.1, Build901 2013/11/27)

>  <Rbt.Parameter_File>
/export/apps/rDock/src/rDock_2013.1_src/data/scripts/dock_solv.prm

>  <Rbt.Receptor>
prm/blind_docking_60.prm

>  <SCORE>
10.6254

>  <SCORE.INTER>
0.976952

>  <SCORE.INTER.CONST>
1

>  <SCORE.INTER.POLAR>
0

>  <SCORE.INTER.ROT>
13

>  <SCORE.INTER.SOLV>
31.9454

>  <SCORE.INTER.VDW>
-22.2638

>  <SCORE.INTER.norm>
0.0212381

>  <SCORE.INTRA>
7.74572

>  <SCORE.INTRA.DIHEDRAL>
2.48719

>  <SCORE.INTRA.DIHEDRAL.0>
19.7146

>  <SCORE.INTRA.POLAR>
0

>  <SCORE.INTRA.POLAR.0>
0

>  <SCORE.INTRA.REPUL>
0

>  <SCORE.INTRA.REPUL.0>
0

>  <SCORE.INTRA.SOLV>
1.35062

>  <SCORE.INTRA.SOLV.lig_0>
-116.697

>  <SCORE.INTRA.VDW>
5.82681

>  <SCORE.INTRA.VDW.0>
-7.06424

>  <SCORE.INTRA.norm>
0.168385

>  <SCORE.RESTR>
1.90272

>  <SCORE.RESTR.CAVITY>
1.90272

>  <SCORE.RESTR.norm>
0.0413634

>  <SCORE.SYSTEM>
0

>  <SCORE.SYSTEM.CONST>
0

>  <SCORE.SYSTEM.DIHEDRAL>
0

>  <SCORE.SYSTEM.SOLV>
0

>  <SCORE.SYSTEM.norm>
0

>  <SCORE.heavy>
46

>  <SCORE.norm>
0.230987

>  <RMSD>
28.604

$$$$
lig.pdb
 OpenBabel03061811583D
libRbt.so/2013.1/901 2013/11/27
 46 49  0  0  0  0  0  0  0  0999 V2000
   -8.2535    0.5402   11.5607 C   0  0  1  0  0  0  0  0  0  0  0  0
   -8.7784   -1.6490   12.7182 C   0  0  1  0  0  0  0  0  0  0  0  0
   -9.7868   -0.9090   13.6485 C   0  0  1  0  0  0  0  0  0  0  0  0
  -10.1093   -1.8492   14.9193 C   0  0  2  0  0  0  0  0  0  0  0  0
   -9.2984    1.0599   15.1725 C   0  0  2  0  0  0  0  0  0  0  0  0
   -8.9585    2.5687   15.0087 C   0  0  1  0  0  0  0  0  0  0  0  0
   -9.8297    3.1000   16.1212 C   0  0  1  0  0  0  0  0  0  0  0  0
  -11.1971    2.3678   15.9386 C   0  0  1  0  0  0  0  0  0  0  0  0
  -12.1827    2.9625   14.8725 C   0  0  0  0  0  0  0  0  0  0  0  0
  -10.0385    2.6694   18.5408 C   0  0  1  0  0  0  0  0  0  0  0  0
  -10.3984    3.9897   19.1541 C   0  0  1  0  0  0  0  0  0  0  0  0
   -7.8281    1.0241   10.1543 C   0  0  1  0  0  0  0  0  0  0  0  0
  -11.3124    3.7259   20.4029 C   0  0  0  0  0  0  0  0  0  0  0  0
  -10.7065    2.9334   21.4341 C   0  0  0  0  0  0  0  0  0  0  0  0
  -10.3764    1.6345   20.8873 C   0  0  2  0  0  0  0  0  0  0  0  0
   -9.6951    0.7169   21.9776 C   0  0  0  0  0  0  0  0  0  0  0  0
  -13.9361   -5.2632   17.4227 C   0  0  2  0  0  0  0  0  0  0  0  0
  -12.4796   -3.9948   16.0726 C   0  0  0  0  0  0  0  0  0  0  0  0
  -14.5142   -4.1527   18.0081 C   0  0  0  0  0  0  0  0  0  0  0  0
  -12.6051   -5.0418   17.2855 C   0  0  1  0  0  0  0  0  0  0  0  0
   -6.4066    0.4230    9.7470 C   0  0  0  0  0  0  0  0  0  0  0  0
   -5.3363    0.8733   10.8534 C   0  0  0  0  0  0  0  0  0  0  0  0
   -5.8266    0.3136   12.2684 C   0  0  1  0  0  0  0  0  0  0  0  0
   -4.8696    0.7046   13.4010 C   0  0  0  0  0  0  0  0  0  0  0  0
  -10.8008   -3.1790   14.3862 C   0  0  1  0  0  0  0  0  0  0  0  0
   -9.7016   -3.9132   13.4489 C   0  0  0  0  0  0  0  0  0  0  0  0
   -9.3494   -2.9975   12.2138 C   0  0  2  0  0  0  0  0  0  0  0  0
  -14.5964   -5.5466   16.1684 F   0  0  0  0  0  0  0  0  0  0  0  0
   -8.6208    1.4636   22.8192 N   0  0  0  0  0  0  0  0  0  0  0  0
   -8.9117    0.6379    9.1766 N   0  0  0  0  0  0  0  0  0  0  0  0
   -9.3052    4.7116   19.6411 N   0  0  0  0  0  0  0  0  0  0  0  0
  -15.8313   -3.9152   18.4664 N   0  0  0  0  0  0  0  0  0  0  0  0
   -5.0996   -0.0780   14.5524 N   0  0  0  0  0  0  0  0  0  0  0  0
  -11.1248   -4.0624   15.5207 N   0  0  0  0  0  0  0  0  0  0  0  0
   -8.3365   -3.6502   11.3550 N   0  0  0  0  0  0  0  0  0  0  0  0
   -8.5005   -0.8663   11.5643 O   0  0  0  0  0  0  0  0  0  0  0  0
   -9.1269    0.3719   14.0687 O   0  0  0  0  0  0  0  0  0  0  0  0
  -11.0005   -1.1747   15.7236 O   0  0  0  0  0  0  0  0  0  0  0  0
   -7.5902    2.7351   15.2261 O   0  0  0  0  0  0  0  0  0  0  0  0
  -10.6639    1.0510   15.7207 O   0  0  0  0  0  0  0  0  0  0  0  0
  -12.3768    4.3540   15.1953 O   0  0  0  0  0  0  0  0  0  0  0  0
   -9.1927    2.7619   17.4569 O   0  0  0  0  0  0  0  0  0  0  0  0
  -11.9994   -4.4853   18.4728 O   0  0  0  0  0  0  0  0  0  0  0  0
  -13.4010   -3.2648   15.6717 O   0  0  0  0  0  0  0  0  0  0  0  0
   -9.4786    1.7848   19.6818 O   0  0  0  0  0  0  0  0  0  0  0  0
   -7.2071    0.8629   12.5887 O   0  0  0  0  0  0  0  0  0  0  0  0
  1 36  1  6  0  0  0
  2 36  1  6  0  0  0
  2  3  1  0  0  0  0
  3 37  1  1  0  0  0
  3  4  1  0  0  0  0
  4 38  1  1  0  0  0
  5 37  1  6  0  0  0
  5  6  1  0  0  0  0
  6  7  1  0  0  0  0
  6 39  1  1  0  0  0
  7 42  1  1  0  0  0
  8  9  1  6  0  0  0
  8  7  1  0  0  0  0
 10 42  1  6  0  0  0
 10 11  1  0  0  0  0
 11 31  1  1  0  0  0
 11 13  1  0  0  0  0
 12 30  1  6  0  0  0
 12  1  1  0  0  0  0
 14 13  1  0  0  0  0
 15 16  1  1  0  0  0
 15 14  1  0  0  0  0
 17 19  1  6  0  0  0
 17 28  1  0  0  0  0
 18 34  1  0  0  0  0
 19 32  1  0  0  0  0
 20 18  1  6  0  0  0
 20 17  1  0  0  0  0
 20 43  1  0  0  0  0
 21 12  1  0  0  0  0
 22 21  1  0  0  0  0
 22 23  1  0  0  0  0
 23 24  1  1  0  0  0
 23 46  1  0  0  0  0
 24 33  1  0  0  0  0
 25 34  1  1  0  0  0
 25  4  1  0  0  0  0
 26 25  1  0  0  0  0
 27 35  1  6  0  0  0
 27 26  1  0  0  0  0
 27  2  1  0  0  0  0
 29 16  1  0  0  0  0
 40  8  1  0  0  0  0
 40  5  1  0  0  0  0
 41  9  1  0  0  0  0
 44 18  2  0  0  0  0
 45 15  1  0  0  0  0
 45 10  1  0  0  0  0
 46  1  1  0  0  0  0
M  END
>  <CHROM.1>
173.42369853,43.32344672,-151.34365725,-154.80854353,-154.69151566,-54.41037101
-81.44147637,-43.90921743,-173.94891195,-159.28245209,-73.82562365,-164.00310412
95.48341582,-9.96734653,-0.17920745,15.59457795,-0.68722807,0.87987348,0.85425881

>  <Name>
lig.pdb

>  <RI>
0

>  <Rbt.Current_Directory>
/home/afrankz/demos/rdock_decoys_rna/rnas/3wru

>  <Rbt.Executable>
rbdock ($Id: //depot/dev/client3/rdock/2013.1/src/exe/rbdock.cxx#4 $)

>  <Rbt.Library>
libRbt.so (2013.1, Build901 2013/11/27)

>  <Rbt.Parameter_File>
/export/apps/rDock/src/rDock_2013.1_src/data/scripts/dock_solv.prm

>  <Rbt.Receptor>
prm/blind_docking_80.prm

>  <SCORE>
74.1314

>  <SCORE.INTER>
54.2117

>  <SCORE.INTER.CONST>
1

>  <SCORE.INTER.POLAR>
0

>  <SCORE.INTER.ROT>
13

>  <SCORE.INTER.SOLV>
43.2164

>  <SCORE.INTER.VDW>
9.46898

>  <SCORE.INTER.norm>
1.17851

>  <SCORE.INTRA>
9.59912

>  <SCORE.INTRA.DIHEDRAL>
-2.66365

>  <SCORE.INTRA.DIHEDRAL.0>
19.7146

>  <SCORE.INTRA.POLAR>
0

>  <SCORE.INTRA.POLAR.0>
0

>  <SCORE.INTRA.REPUL>
0.0997611

>  <SCORE.INTRA.REPUL.0>
0

>  <SCORE.INTRA.SOLV>
-0.472525

>  <SCORE.INTRA.SOLV.lig_0>
-116.697

>  <SCORE.INTRA.VDW>
10.6684

>  <SCORE.INTRA.VDW.0>
-7.06424

>  <SCORE.INTRA.norm>
0.208677

>  <SCORE.RESTR>
10.3206

>  <SCORE.RESTR.CAVITY>
10.3206

>  <SCORE.RESTR.norm>
0.224361

>  <SCORE.SYSTEM>
0

>  <SCORE.SYSTEM.CONST>
0

>  <SCORE.SYSTEM.DIHEDRAL>
0

>  <SCORE.SYSTEM.SOLV>
0

>  <SCORE.SYSTEM.norm>
0

>  <SCORE.heavy>
46

>  <SCORE.norm>
1.61155

>  <RMSD>
28.624

$$$$
lig.pdb
 OpenBabel03061811583D
libRbt.so/2013.1/901 2013/11/27
 46 49  0  0  0  0  0  0  0  0999 V2000
   -9.8330   -2.4064   15.1644 C   0  0  1  0  0  0  0  0  0  0  0  0
   -9.8777   -0.0499   16.0879 C   0  0  1  0  0  0  0  0  0  0  0  0
  -10.1524    1.3915   15.5621 C   0  0  1  0  0  0  0  0  0  0  0  0
   -9.9794    2.4327   16.7823 C   0  0  2  0  0  0  0  0  0  0  0  0
   -9.1969    1.2902   13.2138 C   0  0  2  0  0  0  0  0  0  0  0  0
   -8.4390    2.2684   12.2717 C   0  0  1  0  0  0  0  0  0  0  0  0
   -8.1397    1.2943   11.1579 C   0  0  1  0  0  0  0  0  0  0  0  0
   -7.6175    0.0124   11.8814 C   0  0  1  0  0  0  0  0  0  0  0  0
   -6.1069    0.0035   12.3053 C   0  0  0  0  0  0  0  0  0  0  0  0
   -9.2702    0.5286    9.1039 C   0  0  1  0  0  0  0  0  0  0  0  0
  -10.4976    0.6619    8.2525 C   0  0  1  0  0  0  0  0  0  0  0  0
   -9.4679   -3.0243   13.7939 C   0  0  1  0  0  0  0  0  0  0  0  0
  -10.2037    0.0188    6.8509 C   0  0  0  0  0  0  0  0  0  0  0  0
   -9.8663   -1.3753    6.8886 C   0  0  0  0  0  0  0  0  0  0  0  0
   -8.6622   -1.5400    7.6748 C   0  0  2  0  0  0  0  0  0  0  0  0
   -8.2447   -3.0610    7.7604 C   0  0  0  0  0  0  0  0  0  0  0  0
   -8.7238    3.9421   21.6825 C   0  0  2  0  0  0  0  0  0  0  0  0
   -9.6472    3.1566   19.6618 C   0  0  0  0  0  0  0  0  0  0  0  0
   -8.5333    5.0062   22.5436 C   0  0  0  0  0  0  0  0  0  0  0  0
   -9.7559    4.2316   20.8517 C   0  0  1  0  0  0  0  0  0  0  0  0
  -10.7049   -2.9575   12.7873 C   0  0  0  0  0  0  0  0  0  0  0  0
  -11.9371   -3.7376   13.4549 C   0  0  0  0  0  0  0  0  0  0  0  0
  -12.2737   -3.0261   14.8464 C   0  0  1  0  0  0  0  0  0  0  0  0
  -13.4380   -3.7110   15.5722 C   0  0  0  0  0  0  0  0  0  0  0  0
  -11.0706    2.0845   17.8863 C   0  0  1  0  0  0  0  0  0  0  0  0
  -10.7206    0.5913   18.4098 C   0  0  0  0  0  0  0  0  0  0  0  0
  -10.8553   -0.4402   17.2241 C   0  0  2  0  0  0  0  0  0  0  0  0
   -8.9331    2.7335   22.4475 F   0  0  0  0  0  0  0  0  0  0  0  0
   -8.9319   -3.8176    8.9333 N   0  0  0  0  0  0  0  0  0  0  0  0
   -8.2574   -2.2981   13.2585 N   0  0  0  0  0  0  0  0  0  0  0  0
  -11.6134   -0.0197    8.7461 N   0  0  0  0  0  0  0  0  0  0  0  0
   -9.3991    5.6197   23.4792 N   0  0  0  0  0  0  0  0  0  0  0  0
  -13.2890   -3.6170   16.9722 N   0  0  0  0  0  0  0  0  0  0  0  0
  -10.9549    3.0239   19.0161 N   0  0  0  0  0  0  0  0  0  0  0  0
  -10.5261   -1.8073   17.6847 N   0  0  0  0  0  0  0  0  0  0  0  0
  -10.0605   -1.0015   15.0475 O   0  0  0  0  0  0  0  0  0  0  0  0
   -9.1521    1.6525   14.4739 O   0  0  0  0  0  0  0  0  0  0  0  0
  -10.2272    3.6958   16.2933 O   0  0  0  0  0  0  0  0  0  0  0  0
   -9.3129    3.2953   11.9126 O   0  0  0  0  0  0  0  0  0  0  0  0
   -8.6192   -0.0289   12.9113 O   0  0  0  0  0  0  0  0  0  0  0  0
   -5.9555   -0.9925   13.3364 O   0  0  0  0  0  0  0  0  0  0  0  0
   -9.4159    1.0148   10.3850 O   0  0  0  0  0  0  0  0  0  0  0  0
  -11.0457    4.1191   21.4921 O   0  0  0  0  0  0  0  0  0  0  0  0
   -8.6069    2.5564   19.3452 O   0  0  0  0  0  0  0  0  0  0  0  0
   -8.8543   -0.9622    9.0572 O   0  0  0  0  0  0  0  0  0  0  0  0
  -11.0521   -3.0595   15.7502 O   0  0  0  0  0  0  0  0  0  0  0  0
  1 36  1  6  0  0  0
  2 36  1  6  0  0  0
  2  3  1  0  0  0  0
  3 37  1  6  0  0  0
  3  4  1  0  0  0  0
  4 38  1  6  0  0  0
  5 37  1  1  0  0  0
  5  6  1  0  0  0  0
  6  7  1  0  0  0  0
  6 39  1  6  0  0  0
  7 42  1  1  0  0  0
  8  9  1  1  0  0  0
  8  7  1  0  0  0  0
 10 42  1  1  0  0  0
 10 11  1  0  0  0  0
 11 31  1  1  0  0  0
 11 13  1  0  0  0  0
 12 30  1  6  0  0  0
 12  1  1  0  0  0  0
 14 13  1  0  0  0  0
 15 16  1  1  0  0  0
 15 14  1  0  0  0  0
 17 19  1  1  0  0  0
 17 28  1  0  0  0  0
 18 34  1  0  0  0  0
 19 32  1  0  0  0  0
 20 18  1  6  0  0  0
 20 17  1  0  0  0  0
 20 43  1  0  0  0  0
 21 12  1  0  0  0  0
 22 21  1  0  0  0  0
 22 23  1  0  0  0  0
 23 24  1  1  0  0  0
 23 46  1  0  0  0  0
 24 33  1  0  0  0  0
 25 34  1  1  0  0  0
 25  4  1  0  0  0  0
 26 25  1  0  0  0  0
 27 35  1  1  0  0  0
 27 26  1  0  0  0  0
 27  2  1  0  0  0  0
 29 16  1  0  0  0  0
 40  8  1  0  0  0  0
 40  5  1  0  0  0  0
 41  9  1  0  0  0  0
 44 18  2  0  0  0  0
 45 15  1  0  0  0  0
 45 10  1  0  0  0  0
 46  1  1  0  0  0  0
M  END
>  <CHROM.1>
-152.90925318,176.98901934,81.88894018,151.07820288,158.87016263,159.72649419
-162.36843564,-87.09900243,58.93578980,157.87376467,165.04904234,148.33449725
-54.44912466,-9.70883048,0.32164772,14.61973136,1.49307972,-1.12037022,-2.01405651

>  <Name>
lig.pdb

>  <RI>
0

>  <Rbt.Current_Directory>
/home/afrankz/demos/rdock_decoys_rna/rnas/3wru

>  <Rbt.Executable>
rbdock ($Id: //depot/dev/client3/rdock/2013.1/src/exe/rbdock.cxx#4 $)

>  <Rbt.Library>
libRbt.so (2013.1, Build901 2013/11/27)

>  <Rbt.Parameter_File>
/export/apps/rDock/src/rDock_2013.1_src/data/scripts/dock_solv.prm

>  <Rbt.Receptor>
prm/blind_docking_40.prm

>  <SCORE>
20.9912

>  <SCORE.INTER>
7.78054

>  <SCORE.INTER.CONST>
1

>  <SCORE.INTER.POLAR>
0

>  <SCORE.INTER.ROT>
13

>  <SCORE.INTER.SOLV>
32.466

>  <SCORE.INTER.VDW>
-17.9016

>  <SCORE.INTER.norm>
0.169142

>  <SCORE.INTRA>
11.471

>  <SCORE.INTRA.DIHEDRAL>
0.977706

>  <SCORE.INTRA.DIHEDRAL.0>
19.7146

>  <SCORE.INTRA.POLAR>
0

>  <SCORE.INTRA.POLAR.0>
0

>  <SCORE.INTRA.REPUL>
0.250495

>  <SCORE.INTRA.REPUL.0>
0

>  <SCORE.INTRA.SOLV>
8.9352

>  <SCORE.INTRA.SOLV.lig_0>
-116.697

>  <SCORE.INTRA.VDW>
5.26205

>  <SCORE.INTRA.VDW.0>
-7.06424

>  <SCORE.INTRA.norm>
0.249369

>  <SCORE.RESTR>
1.73973

>  <SCORE.RESTR.CAVITY>
1.73973

>  <SCORE.RESTR.norm>
0.0378202

>  <SCORE.SYSTEM>
0

>  <SCORE.SYSTEM.CONST>
0

>  <SCORE.SYSTEM.DIHEDRAL>
0

>  <SCORE.SYSTEM.SOLV>
0

>  <SCORE.SYSTEM.norm>
0

>  <SCORE.heavy>
46

>  <SCORE.norm>
0.456332

>  <RMSD>
28.640

$$$$
lig.pdb
 OpenBabel03061811583D
libRbt.so/2013.1/901 2013/11/27
 46 49  0  0  0  0  0  0  0  0999 V2000
   -9.9754    2.8158   16.7526 C   0  0  1  0  0  0  0  0  0  0  0  0
   -9.5172    0.8729   15.1959 C   0  0  1  0  0  0  0  0  0  0  0  0
  -10.3183   -0.3533   14.6626 C   0  0  1  0  0  0  0  0  0  0  0  0
   -9.5163   -0.9992   13.4207 C   0  0  2  0  0  0  0  0  0  0  0  0
  -11.4314   -2.1206   16.1032 C   0  0  2  0  0  0  0  0  0  0  0  0
  -10.9643   -3.4951   16.6613 C   0  0  1  0  0  0  0  0  0  0  0  0
  -12.2053   -3.8308   17.4525 C   0  0  1  0  0  0  0  0  0  0  0  0
  -12.5534   -2.5167   18.2214 C   0  0  1  0  0  0  0  0  0  0  0  0
  -11.7687   -2.2455   19.5528 C   0  0  0  0  0  0  0  0  0  0  0  0
  -14.3126   -5.0297   16.9992 C   0  0  1  0  0  0  0  0  0  0  0  0
  -15.3296   -4.3027   17.8276 C   0  0  1  0  0  0  0  0  0  0  0  0
  -10.3807    2.9418   18.2402 C   0  0  1  0  0  0  0  0  0  0  0  0
  -16.3626   -5.3485   18.3786 C   0  0  0  0  0  0  0  0  0  0  0  0
  -15.7961   -6.3720   19.2094 C   0  0  0  0  0  0  0  0  0  0  0  0
  -14.8321   -7.1204   18.4311 C   0  0  2  0  0  0  0  0  0  0  0  0
  -14.1654   -8.2599   19.2983 C   0  0  0  0  0  0  0  0  0  0  0  0
   -8.7165   -0.3638    7.5013 C   0  0  2  0  0  0  0  0  0  0  0  0
   -9.3167   -0.2741    9.7783 C   0  0  0  0  0  0  0  0  0  0  0  0
   -7.8739   -0.8201    6.5053 C   0  0  0  0  0  0  0  0  0  0  0  0
   -8.3672   -0.9516    8.6725 C   0  0  1  0  0  0  0  0  0  0  0  0
  -11.9595    2.7893   18.4190 C   0  0  0  0  0  0  0  0  0  0  0  0
  -12.6756    3.9195   17.5347 C   0  0  0  0  0  0  0  0  0  0  0  0
  -12.2340    3.7066   16.0130 C   0  0  1  0  0  0  0  0  0  0  0  0
  -12.8610    4.7528   15.0836 C   0  0  0  0  0  0  0  0  0  0  0  0
   -9.4372    0.0905   12.2643 C   0  0  1  0  0  0  0  0  0  0  0  0
   -8.5769    1.3245   12.8668 C   0  0  0  0  0  0  0  0  0  0  0  0
   -9.3298    1.9533   14.1020 C   0  0  2  0  0  0  0  0  0  0  0  0
  -10.0893   -0.6178    7.1262 F   0  0  0  0  0  0  0  0  0  0  0  0
  -13.8684   -9.5519   18.4842 N   0  0  0  0  0  0  0  0  0  0  0  0
   -9.6151    1.9043   19.0255 N   0  0  0  0  0  0  0  0  0  0  0  0
  -14.8022   -3.6721   18.9579 N   0  0  0  0  0  0  0  0  0  0  0  0
   -7.5993   -0.3212    5.2103 N   0  0  0  0  0  0  0  0  0  0  0  0
  -12.6132    4.4422   13.7296 N   0  0  0  0  0  0  0  0  0  0  0  0
   -8.7212   -0.4660   11.1023 N   0  0  0  0  0  0  0  0  0  0  0  0
   -8.5493    3.0742   14.6708 N   0  0  0  0  0  0  0  0  0  0  0  0
  -10.2147    1.4941   16.2678 O   0  0  0  0  0  0  0  0  0  0  0  0
  -10.4345   -1.3225   15.8027 O   0  0  0  0  0  0  0  0  0  0  0  0
  -10.2431   -2.0776   12.9682 O   0  0  0  0  0  0  0  0  0  0  0  0
  -10.7270   -4.3476   15.5823 O   0  0  0  0  0  0  0  0  0  0  0  0
  -12.3671   -1.6132   17.1192 O   0  0  0  0  0  0  0  0  0  0  0  0
  -12.5149   -1.2637   20.2993 O   0  0  0  0  0  0  0  0  0  0  0  0
  -13.3151   -4.2242   16.4944 O   0  0  0  0  0  0  0  0  0  0  0  0
   -8.5686   -2.3819    8.6692 O   0  0  0  0  0  0  0  0  0  0  0  0
  -10.3749    0.3261    9.5283 O   0  0  0  0  0  0  0  0  0  0  0  0
  -13.7792   -6.1949   17.8684 O   0  0  0  0  0  0  0  0  0  0  0  0
  -10.7214    3.8004   15.8982 O   0  0  0  0  0  0  0  0  0  0  0  0
  1 36  1  6  0  0  0
  2 36  1  1  0  0  0
  2  3  1  0  0  0  0
  3 37  1  1  0  0  0
  3  4  1  0  0  0  0
  4 38  1  6  0  0  0
  5 37  1  1  0  0  0
  5  6  1  0  0  0  0
  6  7  1  0  0  0  0
  6 39  1  6  0  0  0
  7 42  1  6  0  0  0
  8  9  1  1  0  0  0
  8  7  1  0  0  0  0
 10 42  1  1  0  0  0
 10 11  1  0  0  0  0
 11 31  1  1  0  0  0
 11 13  1  0  0  0  0
 12 30  1  1  0  0  0
 12  1  1  0  0  0  0
 14 13  1  0  0  0  0
 15 16  1  1  0  0  0
 15 14  1  0  0  0  0
 17 19  1  6  0  0  0
 17 28  1  0  0  0  0
 18 34  1  0  0  0  0
 19 32  1  0  0  0  0
 20 18  1  1  0  0  0
 20 17  1  0  0  0  0
 20 43  1  0  0  0  0
 21 12  1  0  0  0  0
 22 21  1  0  0  0  0
 22 23  1  0  0  0  0
 23 24  1  6  0  0  0
 23 46  1  0  0  0  0
 24 33  1  0  0  0  0
 25 34  1  6  0  0  0
 25  4  1  0  0  0  0
 26 25  1  0  0  0  0
 27 35  1  1  0  0  0
 27 26  1  0  0  0  0
 27  2  1  0  0  0  0
 29 16  1  0  0  0  0
 40  8  1  0  0  0  0
 40  5  1  0  0  0  0
 41  9  1  0  0  0  0
 44 18  2  0  0  0  0
 45 15  1  0  0  0  0
 45 10  1  0  0  0  0
 46  1  1  0  0  0  0
M  END
>  <CHROM.1>
-153.56011355,-162.30114080,144.82317599,143.23274979,155.80898752,-161.73415743
78.47670459,144.28999067,-163.37699964,-159.98214955,175.57363072,-171.83868280
133.11512042,-11.30007171,-1.15169115,14.95435811,-0.04304435,1.13367892
0.59908591

>  <Name>
lig.pdb

>  <RI>
0

>  <Rbt.Current_Directory>
/home/afrankz/demos/rdock_decoys_rna/rnas/3wru

>  <Rbt.Executable>
rbdock ($Id: //depot/dev/client3/rdock/2013.1/src/exe/rbdock.cxx#4 $)

>  <Rbt.Library>
libRbt.so (2013.1, Build901 2013/11/27)

>  <Rbt.Parameter_File>
/export/apps/rDock/src/rDock_2013.1_src/data/scripts/dock_solv.prm

>  <Rbt.Receptor>
prm/blind_docking_40.prm

>  <SCORE>
22.9496

>  <SCORE.INTER>
10.0891

>  <SCORE.INTER.CONST>
1

>  <SCORE.INTER.POLAR>
0

>  <SCORE.INTER.ROT>
13

>  <SCORE.INTER.SOLV>
32.0668

>  <SCORE.INTER.VDW>
-16.2295

>  <SCORE.INTER.norm>
0.219328

>  <SCORE.INTRA>
9.42286

>  <SCORE.INTRA.DIHEDRAL>
6.28979

>  <SCORE.INTRA.DIHEDRAL.0>
19.7146

>  <SCORE.INTRA.POLAR>
0

>  <SCORE.INTRA.POLAR.0>
0

>  <SCORE.INTRA.REPUL>
0

>  <SCORE.INTRA.REPUL.0>
0

>  <SCORE.INTRA.SOLV>
1.29691

>  <SCORE.INTRA.SOLV.lig_0>
-116.697

>  <SCORE.INTRA.VDW>
5.62951

>  <SCORE.INTRA.VDW.0>
-7.06424

>  <SCORE.INTRA.norm>
0.204845

>  <SCORE.RESTR>
3.43764

>  <SCORE.RESTR.CAVITY>
3.43764

>  <SCORE.RESTR.norm>
0.0747314

>  <SCORE.SYSTEM>
0

>  <SCORE.SYSTEM.CONST>
0

>  <SCORE.SYSTEM.DIHEDRAL>
0

>  <SCORE.SYSTEM.SOLV>
0

>  <SCORE.SYSTEM.norm>
0

>  <SCORE.heavy>
46

>  <SCORE.norm>
0.498904

>  <RMSD>
28.686

$$$$
lig.pdb
 OpenBabel03061811583D
libRbt.so/2013.1/901 2013/11/27
 46 49  0  0  0  0  0  0  0  0999 V2000
  -11.0756   -3.4850   15.7636 C   0  0  1  0  0  0  0  0  0  0  0  0
  -10.6596   -2.3173   13.5565 C   0  0  1  0  0  0  0  0  0  0  0  0
  -10.2790   -0.8799   13.0886 C   0  0  1  0  0  0  0  0  0  0  0  0
  -10.3901   -0.8091   11.4807 C   0  0  2  0  0  0  0  0  0  0  0  0
  -10.9967    1.1369   14.4507 C   0  0  2  0  0  0  0  0  0  0  0  0
  -10.1408    0.8507   15.7173 C   0  0  1  0  0  0  0  0  0  0  0  0
   -9.5348    2.2245   15.8735 C   0  0  1  0  0  0  0  0  0  0  0  0
   -9.0729    2.6204   14.4351 C   0  0  1  0  0  0  0  0  0  0  0  0
   -7.6897    2.0568   13.9547 C   0  0  0  0  0  0  0  0  0  0  0  0
  -10.3834    3.7032   17.6559 C   0  0  1  0  0  0  0  0  0  0  0  0
  -10.1529    2.6738   18.7218 C   0  0  1  0  0  0  0  0  0  0  0  0
  -12.5804   -3.6865   15.4663 C   0  0  1  0  0  0  0  0  0  0  0  0
   -9.9890    3.4105   20.0984 C   0  0  0  0  0  0  0  0  0  0  0  0
  -11.1250    4.1883   20.5023 C   0  0  0  0  0  0  0  0  0  0  0  0
  -11.3576    5.2183   19.5124 C   0  0  2  0  0  0  0  0  0  0  0  0
  -12.6064    6.1048   19.8992 C   0  0  0  0  0  0  0  0  0  0  0  0
   -7.9635   -1.8381    6.7306 C   0  0  2  0  0  0  0  0  0  0  0  0
   -8.8055   -2.9049    8.6557 C   0  0  0  0  0  0  0  0  0  0  0  0
   -8.3069   -0.5312    7.0207 C   0  0  0  0  0  0  0  0  0  0  0  0
   -8.9934   -2.6484    7.0802 C   0  0  1  0  0  0  0  0  0  0  0  0
  -13.4326   -2.4235   15.9420 C   0  0  0  0  0  0  0  0  0  0  0  0
  -13.1843   -2.2141   17.5126 C   0  0  0  0  0  0  0  0  0  0  0  0
  -11.6183   -1.9832   17.7364 C   0  0  1  0  0  0  0  0  0  0  0  0
  -11.2754   -1.7840   19.2177 C   0  0  0  0  0  0  0  0  0  0  0  0
   -9.3369   -1.8319   10.8680 C   0  0  1  0  0  0  0  0  0  0  0  0
   -9.7962   -3.3037   11.3669 C   0  0  0  0  0  0  0  0  0  0  0  0
   -9.7229   -3.3860   12.9403 C   0  0  2  0  0  0  0  0  0  0  0  0
   -6.7264   -2.1721    7.3996 F   0  0  0  0  0  0  0  0  0  0  0  0
  -13.7268    5.3003   20.6189 N   0  0  0  0  0  0  0  0  0  0  0  0
  -12.7357   -3.9553   13.9888 N   0  0  0  0  0  0  0  0  0  0  0  0
  -11.2181    1.7868   18.9009 N   0  0  0  0  0  0  0  0  0  0  0  0
   -8.3379    0.1789    8.2439 N   0  0  0  0  0  0  0  0  0  0  0  0
  -12.1214   -0.8222   19.8094 N   0  0  0  0  0  0  0  0  0  0  0  0
   -9.3971   -1.7883    9.3959 N   0  0  0  0  0  0  0  0  0  0  0  0
  -10.1520   -4.7214   13.4115 N   0  0  0  0  0  0  0  0  0  0  0  0
  -10.5342   -2.4298   14.9682 O   0  0  0  0  0  0  0  0  0  0  0  0
  -11.2479    0.0591   13.7461 O   0  0  0  0  0  0  0  0  0  0  0  0
  -10.0493    0.4675   11.0932 O   0  0  0  0  0  0  0  0  0  0  0  0
  -11.0010    0.4849   16.7533 O   0  0  0  0  0  0  0  0  0  0  0  0
  -10.2619    2.1993   13.7461 O   0  0  0  0  0  0  0  0  0  0  0  0
   -7.4091    2.6447   12.6687 O   0  0  0  0  0  0  0  0  0  0  0  0
  -10.5925    3.1780   16.3993 O   0  0  0  0  0  0  0  0  0  0  0  0
  -10.2874   -2.0553    6.8351 O   0  0  0  0  0  0  0  0  0  0  0  0
   -8.2573   -3.9048    9.1480 O   0  0  0  0  0  0  0  0  0  0  0  0
  -11.5455    4.6013   18.1465 O   0  0  0  0  0  0  0  0  0  0  0  0
  -10.8420   -3.1818   17.2159 O   0  0  0  0  0  0  0  0  0  0  0  0
  1 36  1  6  0  0  0
  2 36  1  1  0  0  0
  2  3  1  0  0  0  0
  3 37  1  1  0  0  0
  3  4  1  0  0  0  0
  4 38  1  6  0  0  0
  5 37  1  6  0  0  0
  5  6  1  0  0  0  0
  6  7  1  0  0  0  0
  6 39  1  1  0  0  0
  7 42  1  6  0  0  0
  8  9  1  6  0  0  0
  8  7  1  0  0  0  0
 10 42  1  6  0  0  0
 10 11  1  0  0  0  0
 11 31  1  1  0  0  0
 11 13  1  0  0  0  0
 12 30  1  6  0  0  0
 12  1  1  0  0  0  0
 14 13  1  0  0  0  0
 15 16  1  1  0  0  0
 15 14  1  0  0  0  0
 17 19  1  1  0  0  0
 17 28  1  0  0  0  0
 18 34  1  0  0  0  0
 19 32  1  0  0  0  0
 20 18  1  1  0  0  0
 20 17  1  0  0  0  0
 20 43  1  0  0  0  0
 21 12  1  0  0  0  0
 22 21  1  0  0  0  0
 22 23  1  0  0  0  0
 23 24  1  1  0  0  0
 23 46  1  0  0  0  0
 24 33  1  0  0  0  0
 25 34  1  6  0  0  0
 25  4  1  0  0  0  0
 26 25  1  0  0  0  0
 27 35  1  1  0  0  0
 27 26  1  0  0  0  0
 27  2  1  0  0  0  0
 29 16  1  0  0  0  0
 40  8  1  0  0  0  0
 40  5  1  0  0  0  0
 41  9  1  0  0  0  0
 44 18  2  0  0  0  0
 45 15  1  0  0  0  0
 45 10  1  0  0  0  0
 46  1  1  0  0  0  0
M  END
>  <CHROM.1>
-51.60255005,165.18456623,128.29659105,-60.02097195,114.85781996,-174.64308244
-54.21880721,-34.25944292,77.56808405,83.51115459,-83.13342609,-49.31858723
-162.61657054,-10.34159635,-0.12265099,14.24663422,2.15785945,1.14963037
0.56746589

>  <Name>
lig.pdb

>  <RI>
0

>  <Rbt.Current_Directory>
/home/afrankz/demos/rdock_decoys_rna/rnas/3wru

>  <Rbt.Executable>
rbdock ($Id: //depot/dev/client3/rdock/2013.1/src/exe/rbdock.cxx#4 $)

>  <Rbt.Library>
libRbt.so (2013.1, Build901 2013/11/27)

>  <Rbt.Parameter_File>
/export/apps/rDock/src/rDock_2013.1_src/data/scripts/dock_solv.prm

>  <Rbt.Receptor>
prm/blind_docking_40.prm

>  <SCORE>
31.0758

>  <SCORE.INTER>
6.87701

>  <SCORE.INTER.CONST>
1

>  <SCORE.INTER.POLAR>
0

>  <SCORE.INTER.ROT>
13

>  <SCORE.INTER.SOLV>
23.8473

>  <SCORE.INTER.VDW>
-15.6311

>  <SCORE.INTER.norm>
0.1495

>  <SCORE.INTRA>
16.5117

>  <SCORE.INTRA.DIHEDRAL>
2.49981

>  <SCORE.INTRA.DIHEDRAL.0>
19.7146

>  <SCORE.INTRA.POLAR>
0

>  <SCORE.INTRA.POLAR.0>
0

>  <SCORE.INTRA.REPUL>
0

>  <SCORE.INTRA.REPUL.0>
0

>  <SCORE.INTRA.SOLV>
14.6682

>  <SCORE.INTRA.SOLV.lig_0>
-116.697

>  <SCORE.INTRA.VDW>
7.92772

>  <SCORE.INTRA.VDW.0>
-7.06424

>  <SCORE.INTRA.norm>
0.358951

>  <SCORE.RESTR>
7.68711

>  <SCORE.RESTR.CAVITY>
7.68711

>  <SCORE.RESTR.norm>
0.167111

>  <SCORE.SYSTEM>
0

>  <SCORE.SYSTEM.CONST>
0

>  <SCORE.SYSTEM.DIHEDRAL>
0

>  <SCORE.SYSTEM.SOLV>
0

>  <SCORE.SYSTEM.norm>
0

>  <SCORE.heavy>
46

>  <SCORE.norm>
0.675562

>  <RMSD>
28.710

$$$$
lig.pdb
 OpenBabel03061811583D
libRbt.so/2013.1/901 2013/11/27
 46 49  0  0  0  0  0  0  0  0999 V2000
  -12.0004   -3.6537   16.5183 C   0  0  1  0  0  0  0  0  0  0  0  0
  -11.3241   -1.6924   17.9689 C   0  0  1  0  0  0  0  0  0  0  0  0
  -10.8568   -0.4288   17.1850 C   0  0  1  0  0  0  0  0  0  0  0  0
   -9.8237    0.4019   18.1045 C   0  0  2  0  0  0  0  0  0  0  0  0
   -9.0256   -0.5973   15.4367 C   0  0  2  0  0  0  0  0  0  0  0  0
   -8.8138   -1.1072   13.9828 C   0  0  1  0  0  0  0  0  0  0  0  0
   -7.7883   -0.0866   13.5520 C   0  0  1  0  0  0  0  0  0  0  0  0
   -8.3562    1.2808   14.0487 C   0  0  1  0  0  0  0  0  0  0  0  0
   -9.4351    1.9713   13.1426 C   0  0  0  0  0  0  0  0  0  0  0  0
   -5.4816    0.5604   14.1385 C   0  0  1  0  0  0  0  0  0  0  0  0
   -5.2511    1.0996   12.7583 C   0  0  1  0  0  0  0  0  0  0  0  0
  -12.4472   -3.5690   15.0397 C   0  0  1  0  0  0  0  0  0  0  0  0
   -4.0802    2.1434   12.8205 C   0  0  0  0  0  0  0  0  0  0  0  0
   -2.8283    1.6149   13.2810 C   0  0  0  0  0  0  0  0  0  0  0  0
   -3.0030    1.1156   14.6283 C   0  0  2  0  0  0  0  0  0  0  0  0
   -1.6556    0.5104   15.1879 C   0  0  0  0  0  0  0  0  0  0  0  0
   -9.0166    4.0190   21.8088 C   0  0  2  0  0  0  0  0  0  0  0  0
  -10.1342    1.9515   21.6370 C   0  0  0  0  0  0  0  0  0  0  0  0
   -8.4561    3.9268   20.5489 C   0  0  0  0  0  0  0  0  0  0  0  0
   -8.9905    2.7936   22.3894 C   0  0  1  0  0  0  0  0  0  0  0  0
  -14.0350   -3.4510   14.9266 C   0  0  0  0  0  0  0  0  0  0  0  0
  -14.6852   -4.7280   15.6469 C   0  0  0  0  0  0  0  0  0  0  0  0
  -14.2040   -4.7306   17.1715 C   0  0  1  0  0  0  0  0  0  0  0  0
  -14.7665   -5.9280   17.9469 C   0  0  0  0  0  0  0  0  0  0  0  0
  -10.5984    0.8786   19.4097 C   0  0  1  0  0  0  0  0  0  0  0  0
  -11.0364   -0.4716   20.1913 C   0  0  0  0  0  0  0  0  0  0  0  0
  -12.0253   -1.3145   19.2972 C   0  0  2  0  0  0  0  0  0  0  0  0
  -10.3492    4.5695   21.7054 F   0  0  0  0  0  0  0  0  0  0  0  0
   -0.8135   -0.2147   14.0992 N   0  0  0  0  0  0  0  0  0  0  0  0
  -11.7415   -2.3967   14.4018 N   0  0  0  0  0  0  0  0  0  0  0  0
   -4.8418    0.1387   11.8294 N   0  0  0  0  0  0  0  0  0  0  0  0
   -7.2338    3.3682   20.1069 N   0  0  0  0  0  0  0  0  0  0  0  0
  -16.1772   -5.9033   17.9651 N   0  0  0  0  0  0  0  0  0  0  0  0
   -9.6907    1.6550   20.2732 N   0  0  0  0  0  0  0  0  0  0  0  0
  -12.4242   -2.5577   19.9936 N   0  0  0  0  0  0  0  0  0  0  0  0
  -12.2688   -2.4303   17.2042 O   0  0  0  0  0  0  0  0  0  0  0  0
  -10.1988   -0.9188   15.9281 O   0  0  0  0  0  0  0  0  0  0  0  0
   -9.4269    1.5110   17.3914 O   0  0  0  0  0  0  0  0  0  0  0  0
   -8.3282   -2.4140   14.0437 O   0  0  0  0  0  0  0  0  0  0  0  0
   -8.7416    0.8445   15.3628 O   0  0  0  0  0  0  0  0  0  0  0  0
   -9.7766    3.2275   13.7620 O   0  0  0  0  0  0  0  0  0  0  0  0
   -6.4591   -0.4081   14.2107 O   0  0  0  0  0  0  0  0  0  0  0  0
   -7.7184    2.1255   22.2422 O   0  0  0  0  0  0  0  0  0  0  0  0
  -11.2093    1.6034   22.1523 O   0  0  0  0  0  0  0  0  0  0  0  0
   -4.1063    0.0845   14.6674 O   0  0  0  0  0  0  0  0  0  0  0  0
  -12.6862   -4.7834   17.2320 O   0  0  0  0  0  0  0  0  0  0  0  0
  1 36  1  1  0  0  0
  2 36  1  6  0  0  0
  2  3  1  0  0  0  0
  3 37  1  6  0  0  0
  3  4  1  0  0  0  0
  4 38  1  6  0  0  0
  5 37  1  6  0  0  0
  5  6  1  0  0  0  0
  6  7  1  0  0  0  0
  6 39  1  1  0  0  0
  7 42  1  1  0  0  0
  8  9  1  6  0  0  0
  8  7  1  0  0  0  0
 10 42  1  6  0  0  0
 10 11  1  0  0  0  0
 11 31  1  6  0  0  0
 11 13  1  0  0  0  0
 12 30  1  1  0  0  0
 12  1  1  0  0  0  0
 14 13  1  0  0  0  0
 15 16  1  6  0  0  0
 15 14  1  0  0  0  0
 17 19  1  6  0  0  0
 17 28  1  0  0  0  0
 18 34  1  0  0  0  0
 19 32  1  0  0  0  0
 20 18  1  6  0  0  0
 20 17  1  0  0  0  0
 20 43  1  0  0  0  0
 21 12  1  0  0  0  0
 22 21  1  0  0  0  0
 22 23  1  0  0  0  0
 23 24  1  1  0  0  0
 23 46  1  0  0  0  0
 24 33  1  0  0  0  0
 25 34  1  1  0  0  0
 25  4  1  0  0  0  0
 26 25  1  0  0  0  0
 27 35  1  1  0  0  0
 27 26  1  0  0  0  0
 27  2  1  0  0  0  0
 29 16  1  0  0  0  0
 40  8  1  0  0  0  0
 40  5  1  0  0  0  0
 41  9  1  0  0  0  0
 44 18  2  0  0  0  0
 45 15  1  0  0  0  0
 45 10  1  0  0  0  0
 46  1  1  0  0  0  0
M  END
>  <CHROM.1>
-128.14663951,104.75095501,-129.47918999,-168.98880795,-167.74751309,-177.93644769
-49.85432579,-35.73769605,-50.37037518,71.16828283,-73.69554249,-60.77262732
-168.00534504,-9.22493799,-0.19129174,16.83549556,3.05616147,0.56401608,0.96881658

>  <Name>
lig.pdb

>  <RI>
0

>  <Rbt.Current_Directory>
/home/afrankz/demos/rdock_decoys_rna/rnas/3wru

>  <Rbt.Executable>
rbdock ($Id: //depot/dev/client3/rdock/2013.1/src/exe/rbdock.cxx#4 $)

>  <Rbt.Library>
libRbt.so (2013.1, Build901 2013/11/27)

>  <Rbt.Parameter_File>
/export/apps/rDock/src/rDock_2013.1_src/data/scripts/dock_solv.prm

>  <Rbt.Receptor>
prm/blind_docking_40.prm

>  <SCORE>
25.0312

>  <SCORE.INTER>
1.37784

>  <SCORE.INTER.CONST>
1

>  <SCORE.INTER.POLAR>
0

>  <SCORE.INTER.ROT>
13

>  <SCORE.INTER.SOLV>
38.3363

>  <SCORE.INTER.VDW>
-24.1269

>  <SCORE.INTER.norm>
0.029953

>  <SCORE.INTRA>
18.1786

>  <SCORE.INTRA.DIHEDRAL>
5.79469

>  <SCORE.INTRA.DIHEDRAL.0>
19.7146

>  <SCORE.INTRA.POLAR>
0

>  <SCORE.INTRA.POLAR.0>
0

>  <SCORE.INTRA.REPUL>
0

>  <SCORE.INTRA.REPUL.0>
0

>  <SCORE.INTRA.SOLV>
6.60488

>  <SCORE.INTRA.SOLV.lig_0>
-116.697

>  <SCORE.INTRA.VDW>
11.9788

>  <SCORE.INTRA.VDW.0>
-7.06424

>  <SCORE.INTRA.norm>
0.395186

>  <SCORE.RESTR>
5.47482

>  <SCORE.RESTR.CAVITY>
5.47482

>  <SCORE.RESTR.norm>
0.119018

>  <SCORE.SYSTEM>
0

>  <SCORE.SYSTEM.CONST>
0

>  <SCORE.SYSTEM.DIHEDRAL>
0

>  <SCORE.SYSTEM.SOLV>
0

>  <SCORE.SYSTEM.norm>
0

>  <SCORE.heavy>
46

>  <SCORE.norm>
0.544157

>  <RMSD>
28.786

$$$$
lig.pdb
 OpenBabel03061811583D
libRbt.so/2013.1/901 2013/11/27
 46 49  0  0  0  0  0  0  0  0999 V2000
  -12.3862    4.0280   12.8169 C   0  0  1  0  0  0  0  0  0  0  0  0
  -12.1548    2.5027   14.8238 C   0  0  1  0  0  0  0  0  0  0  0  0
  -10.6244    2.7579   14.6732 C   0  0  1  0  0  0  0  0  0  0  0  0
   -9.8740    2.2196   15.9961 C   0  0  2  0  0  0  0  0  0  0  0  0
   -9.1925    1.1566   13.3229 C   0  0  2  0  0  0  0  0  0  0  0  0
   -9.1085    0.5288   11.9025 C   0  0  1  0  0  0  0  0  0  0  0  0
   -7.6382    0.1871   11.9128 C   0  0  1  0  0  0  0  0  0  0  0  0
   -6.9375    1.4654   12.4732 C   0  0  1  0  0  0  0  0  0  0  0  0
   -6.6675    2.6292   11.4560 C   0  0  0  0  0  0  0  0  0  0  0  0
   -7.6521   -2.2534   12.2700 C   0  0  1  0  0  0  0  0  0  0  0  0
   -7.5024   -2.3082   10.7789 C   0  0  1  0  0  0  0  0  0  0  0  0
  -13.5681    4.8098   12.1962 C   0  0  1  0  0  0  0  0  0  0  0  0
   -7.8598   -3.7584   10.2955 C   0  0  0  0  0  0  0  0  0  0  0  0
   -9.1966   -4.1808   10.6006 C   0  0  0  0  0  0  0  0  0  0  0  0
   -9.3683   -4.1748   12.0378 C   0  0  2  0  0  0  0  0  0  0  0  0
  -10.8294   -4.6238   12.4361 C   0  0  0  0  0  0  0  0  0  0  0  0
   -8.2216    3.4339   21.1198 C   0  0  2  0  0  0  0  0  0  0  0  0
  -10.1162    3.2419   19.7318 C   0  0  0  0  0  0  0  0  0  0  0  0
   -7.7926    3.3237   22.4290 C   0  0  0  0  0  0  0  0  0  0  0  0
   -9.2658    2.5897   20.9296 C   0  0  1  0  0  0  0  0  0  0  0  0
  -14.4171    3.8809   11.2144 C   0  0  0  0  0  0  0  0  0  0  0  0
  -13.4354    3.3294   10.0723 C   0  0  0  0  0  0  0  0  0  0  0  0
  -12.2618    2.5110   10.7858 C   0  0  1  0  0  0  0  0  0  0  0  0
  -11.2575    1.9498    9.7719 C   0  0  0  0  0  0  0  0  0  0  0  0
  -10.4032    3.0592   17.2394 C   0  0  1  0  0  0  0  0  0  0  0  0
  -11.9866    2.7361   17.3595 C   0  0  0  0  0  0  0  0  0  0  0  0
  -12.7365    3.2286   16.0621 C   0  0  2  0  0  0  0  0  0  0  0  0
   -7.1148    3.1779   20.2259 F   0  0  0  0  0  0  0  0  0  0  0  0
  -11.9274   -4.0117   11.5197 N   0  0  0  0  0  0  0  0  0  0  0  0
  -14.4065    5.3660   13.3219 N   0  0  0  0  0  0  0  0  0  0  0  0
   -8.3714   -1.4617   10.0849 N   0  0  0  0  0  0  0  0  0  0  0  0
   -7.1014    2.2900   23.1035 N   0  0  0  0  0  0  0  0  0  0  0  0
  -11.8789    1.0356    8.8950 N   0  0  0  0  0  0  0  0  0  0  0  0
   -9.7305    2.6062   18.4701 N   0  0  0  0  0  0  0  0  0  0  0  0
  -14.1826    2.9286   16.1523 N   0  0  0  0  0  0  0  0  0  0  0  0
  -12.8555    3.0016   13.6917 O   0  0  0  0  0  0  0  0  0  0  0  0
  -10.1802    2.0107   13.4496 O   0  0  0  0  0  0  0  0  0  0  0  0
   -8.5267    2.4566   15.8389 O   0  0  0  0  0  0  0  0  0  0  0  0
   -9.9526   -0.5817   11.8644 O   0  0  0  0  0  0  0  0  0  0  0  0
   -7.8467    1.7022   13.5608 O   0  0  0  0  0  0  0  0  0  0  0  0
   -6.1484    2.0343   10.2499 O   0  0  0  0  0  0  0  0  0  0  0  0
   -7.4122   -1.0114   12.8166 O   0  0  0  0  0  0  0  0  0  0  0  0
   -8.8538    1.2549   20.5626 O   0  0  0  0  0  0  0  0  0  0  0  0
  -10.9712    4.1313   19.8754 O   0  0  0  0  0  0  0  0  0  0  0  0
   -9.0610   -2.8060   12.5979 O   0  0  0  0  0  0  0  0  0  0  0  0
  -11.5185    3.4162   11.7544 O   0  0  0  0  0  0  0  0  0  0  0  0
  1 36  1  1  0  0  0
  2 36  1  6  0  0  0
  2  3  1  0  0  0  0
  3 37  1  6  0  0  0
  3  4  1  0  0  0  0
  4 38  1  6  0  0  0
  5 37  1  6  0  0  0
  5  6  1  0  0  0  0
  6  7  1  0  0  0  0
  6 39  1  1  0  0  0
  7 42  1  1  0  0  0
  8  9  1  6  0  0  0
  8  7  1  0  0  0  0
 10 42  1  6  0  0  0
 10 11  1  0  0  0  0
 11 31  1  6  0  0  0
 11 13  1  0  0  0  0
 12 30  1  1  0  0  0
 12  1  1  0  0  0  0
 14 13  1  0  0  0  0
 15 16  1  6  0  0  0
 15 14  1  0  0  0  0
 17 19  1  1  0  0  0
 17 28  1  0  0  0  0
 18 34  1  0  0  0  0
 19 32  1  0  0  0  0
 20 18  1  6  0  0  0
 20 17  1  0  0  0  0
 20 43  1  0  0  0  0
 21 12  1  0  0  0  0
 22 21  1  0  0  0  0
 22 23  1  0  0  0  0
 23 24  1  6  0  0  0
 23 46  1  0  0  0  0
 24 33  1  0  0  0  0
 25 34  1  1  0  0  0
 25  4  1  0  0  0  0
 26 25  1  0  0  0  0
 27 35  1  1  0  0  0
 27 26  1  0  0  0  0
 27  2  1  0  0  0  0
 29 16  1  0  0  0  0
 40  8  1  0  0  0  0
 40  5  1  0  0  0  0
 41  9  1  0  0  0  0
 44 18  2  0  0  0  0
 45 15  1  0  0  0  0
 45 10  1  0  0  0  0
 46  1  1  0  0  0  0
M  END
>  <CHROM.1>
-150.99363728,-23.42196727,-128.17653106,176.49468610,82.12561295,-44.13891158
25.95554955,-41.75115720,71.52814330,96.51603122,153.60545034,-62.25099964
-178.39188781,-9.96959724,1.34984047,14.26219954,1.63243420,0.77369290,-2.01825232

>  <Name>
lig.pdb

>  <RI>
0

>  <Rbt.Current_Directory>
/home/afrankz/demos/rdock_decoys_rna/rnas/3wru

>  <Rbt.Executable>
rbdock ($Id: //depot/dev/client3/rdock/2013.1/src/exe/rbdock.cxx#4 $)

>  <Rbt.Library>
libRbt.so (2013.1, Build901 2013/11/27)

>  <Rbt.Parameter_File>
/export/apps/rDock/src/rDock_2013.1_src/data/scripts/dock_solv.prm

>  <Rbt.Receptor>
prm/blind_docking_60.prm

>  <SCORE>
22.2674

>  <SCORE.INTER>
0.481724

>  <SCORE.INTER.CONST>
1

>  <SCORE.INTER.POLAR>
0

>  <SCORE.INTER.ROT>
13

>  <SCORE.INTER.SOLV>
30.5025

>  <SCORE.INTER.VDW>
-22.113

>  <SCORE.INTER.norm>
0.0104723

>  <SCORE.INTRA>
13.4174

>  <SCORE.INTRA.DIHEDRAL>
8.29462

>  <SCORE.INTRA.DIHEDRAL.0>
19.7146

>  <SCORE.INTRA.POLAR>
0

>  <SCORE.INTRA.POLAR.0>
0

>  <SCORE.INTRA.REPUL>
0

>  <SCORE.INTRA.REPUL.0>
0

>  <SCORE.INTRA.SOLV>
5.38013

>  <SCORE.INTRA.SOLV.lig_0>
-116.697

>  <SCORE.INTRA.VDW>
6.57999

>  <SCORE.INTRA.VDW.0>
-7.06424

>  <SCORE.INTRA.norm>
0.291682

>  <SCORE.RESTR>
8.36832

>  <SCORE.RESTR.CAVITY>
8.36832

>  <SCORE.RESTR.norm>
0.18192

>  <SCORE.SYSTEM>
0

>  <SCORE.SYSTEM.CONST>
0

>  <SCORE.SYSTEM.DIHEDRAL>
0

>  <SCORE.SYSTEM.SOLV>
0

>  <SCORE.SYSTEM.norm>
0

>  <SCORE.heavy>
46

>  <SCORE.norm>
0.484074

>  <RMSD>
28.800

$$$$
lig.pdb
 OpenBabel03061811583D
libRbt.so/2013.1/901 2013/11/27
 46 49  0  0  0  0  0  0  0  0999 V2000
  -11.2957    1.0625    8.4987 C   0  0  1  0  0  0  0  0  0  0  0  0
  -11.1609    2.0641   10.8195 C   0  0  1  0  0  0  0  0  0  0  0  0
  -10.0818    2.8202   11.6524 C   0  0  1  0  0  0  0  0  0  0  0  0
  -10.5868    2.9313   13.1806 C   0  0  2  0  0  0  0  0  0  0  0  0
   -8.6583    0.7198   11.6520 C   0  0  2  0  0  0  0  0  0  0  0  0
   -7.1669    0.2965   11.7755 C   0  0  1  0  0  0  0  0  0  0  0  0
   -7.3819   -1.0166   12.4886 C   0  0  1  0  0  0  0  0  0  0  0  0
   -8.4154   -0.6926   13.6138 C   0  0  1  0  0  0  0  0  0  0  0  0
   -7.8510   -0.0595   14.9338 C   0  0  0  0  0  0  0  0  0  0  0  0
   -8.5427   -3.1462   12.0404 C   0  0  1  0  0  0  0  0  0  0  0  0
   -9.3948   -3.9074   11.0692 C   0  0  1  0  0  0  0  0  0  0  0  0
  -11.0720   -0.3992    8.9533 C   0  0  1  0  0  0  0  0  0  0  0  0
  -10.0663   -5.1059   11.8288 C   0  0  0  0  0  0  0  0  0  0  0  0
  -10.9124   -4.7250   12.9232 C   0  0  0  0  0  0  0  0  0  0  0  0
  -10.1147   -4.0164   13.9013 C   0  0  2  0  0  0  0  0  0  0  0  0
  -10.9967   -3.5617   15.1302 C   0  0  0  0  0  0  0  0  0  0  0  0
  -13.5641    6.4276   16.9201 C   0  0  2  0  0  0  0  0  0  0  0  0
  -12.9570    5.2250   14.9867 C   0  0  0  0  0  0  0  0  0  0  0  0
  -14.7088    6.9547   16.3527 C   0  0  0  0  0  0  0  0  0  0  0  0
  -13.4316    5.1386   16.5198 C   0  0  1  0  0  0  0  0  0  0  0  0
   -9.5183   -0.7648    8.9633 C   0  0  0  0  0  0  0  0  0  0  0  0
   -8.9390   -0.5317    7.4860 C   0  0  0  0  0  0  0  0  0  0  0  0
   -9.1787    1.0010    7.0999 C   0  0  1  0  0  0  0  0  0  0  0  0
   -8.6665    1.3229    5.6908 C   0  0  0  0  0  0  0  0  0  0  0  0
  -11.9259    3.7899   13.1964 C   0  0  1  0  0  0  0  0  0  0  0  0
  -13.0117    2.9460   12.3392 C   0  0  0  0  0  0  0  0  0  0  0  0
  -12.5234    2.8002   10.8464 C   0  0  2  0  0  0  0  0  0  0  0  0
  -13.6269    6.5720   18.3570 F   0  0  0  0  0  0  0  0  0  0  0  0
  -12.2205   -2.6950   14.7159 N   0  0  0  0  0  0  0  0  0  0  0  0
  -11.7069   -0.5711   10.3123 N   0  0  0  0  0  0  0  0  0  0  0  0
  -10.4535   -3.1679   10.5346 N   0  0  0  0  0  0  0  0  0  0  0  0
  -16.0516    6.5098   16.3688 N   0  0  0  0  0  0  0  0  0  0  0  0
   -7.3114    0.9566    5.5476 N   0  0  0  0  0  0  0  0  0  0  0  0
  -12.4147    3.9268   14.5801 N   0  0  0  0  0  0  0  0  0  0  0  0
  -13.4998    2.0203   10.0541 N   0  0  0  0  0  0  0  0  0  0  0  0
  -10.7682    1.9819    9.4555 O   0  0  0  0  0  0  0  0  0  0  0  0
   -8.8172    2.0181   11.5507 O   0  0  0  0  0  0  0  0  0  0  0  0
   -9.6186    3.6020   13.8938 O   0  0  0  0  0  0  0  0  0  0  0  0
   -6.6405    0.1683   10.4895 O   0  0  0  0  0  0  0  0  0  0  0  0
   -9.3138    0.0881   12.8081 O   0  0  0  0  0  0  0  0  0  0  0  0
   -8.8570   -0.2226   15.9532 O   0  0  0  0  0  0  0  0  0  0  0  0
   -7.9324   -2.0329   11.5047 O   0  0  0  0  0  0  0  0  0  0  0  0
  -12.4549    4.4051   17.2906 O   0  0  0  0  0  0  0  0  0  0  0  0
  -13.0572    6.2360   14.2723 O   0  0  0  0  0  0  0  0  0  0  0  0
   -9.4367   -2.8266   13.2637 O   0  0  0  0  0  0  0  0  0  0  0  0
  -10.6633    1.3210    7.1611 O   0  0  0  0  0  0  0  0  0  0  0  0
  1 36  1  1  0  0  0
  2 36  1  6  0  0  0
  2  3  1  0  0  0  0
  3 37  1  1  0  0  0
  3  4  1  0  0  0  0
  4 38  1  1  0  0  0
  5 37  1  1  0  0  0
  5  6  1  0  0  0  0
  6  7  1  0  0  0  0
  6 39  1  6  0  0  0
  7 42  1  6  0  0  0
  8  9  1  1  0  0  0
  8  7  1  0  0  0  0
 10 42  1  6  0  0  0
 10 11  1  0  0  0  0
 11 31  1  1  0  0  0
 11 13  1  0  0  0  0
 12 30  1  1  0  0  0
 12  1  1  0  0  0  0
 14 13  1  0  0  0  0
 15 16  1  1  0  0  0
 15 14  1  0  0  0  0
 17 19  1  6  0  0  0
 17 28  1  0  0  0  0
 18 34  1  0  0  0  0
 19 32  1  0  0  0  0
 20 18  1  6  0  0  0
 20 17  1  0  0  0  0
 20 43  1  0  0  0  0
 21 12  1  0  0  0  0
 22 21  1  0  0  0  0
 22 23  1  0  0  0  0
 23 24  1  6  0  0  0
 23 46  1  0  0  0  0
 24 33  1  0  0  0  0
 25 34  1  1  0  0  0
 25  4  1  0  0  0  0
 26 25  1  0  0  0  0
 27 35  1  6  0  0  0
 27 26  1  0  0  0  0
 27  2  1  0  0  0  0
 29 16  1  0  0  0  0
 40  8  1  0  0  0  0
 40  5  1  0  0  0  0
 41  9  1  0  0  0  0
 44 18  2  0  0  0  0
 45 15  1  0  0  0  0
 45 10  1  0  0  0  0
 46  1  1  0  0  0  0
M  END
>  <CHROM.1>
-58.83234918,161.26687620,-44.26097537,-168.34945044,-161.88409341,-162.72975016
163.56905861,-55.88220068,54.12832027,163.65684321,74.06279863,-54.52215499
139.71917617,-10.58339039,1.03949041,12.29187141,0.15690545,1.12825386,-1.03510452

>  <Name>
lig.pdb

>  <RI>
0

>  <Rbt.Current_Directory>
/home/afrankz/demos/rdock_decoys_rna/rnas/3wru

>  <Rbt.Executable>
rbdock ($Id: //depot/dev/client3/rdock/2013.1/src/exe/rbdock.cxx#4 $)

>  <Rbt.Library>
libRbt.so (2013.1, Build901 2013/11/27)

>  <Rbt.Parameter_File>
/export/apps/rDock/src/rDock_2013.1_src/data/scripts/dock_solv.prm

>  <Rbt.Receptor>
prm/blind_docking_60.prm

>  <SCORE>
20.9383

>  <SCORE.INTER>
7.61526

>  <SCORE.INTER.CONST>
1

>  <SCORE.INTER.POLAR>
0

>  <SCORE.INTER.ROT>
13

>  <SCORE.INTER.SOLV>
24.8391

>  <SCORE.INTER.VDW>
-15.4695

>  <SCORE.INTER.norm>
0.165549

>  <SCORE.INTRA>
5.99044

>  <SCORE.INTRA.DIHEDRAL>
-9.50011

>  <SCORE.INTRA.DIHEDRAL.0>
19.7146

>  <SCORE.INTRA.POLAR>
0

>  <SCORE.INTRA.POLAR.0>
0

>  <SCORE.INTRA.REPUL>
0

>  <SCORE.INTRA.REPUL.0>
0

>  <SCORE.INTRA.SOLV>
9.06061

>  <SCORE.INTRA.SOLV.lig_0>
-116.697

>  <SCORE.INTRA.VDW>
6.21019

>  <SCORE.INTRA.VDW.0>
-7.06424

>  <SCORE.INTRA.norm>
0.130227

>  <SCORE.RESTR>
7.33255

>  <SCORE.RESTR.CAVITY>
7.33255

>  <SCORE.RESTR.norm>
0.159403

>  <SCORE.SYSTEM>
0

>  <SCORE.SYSTEM.CONST>
0

>  <SCORE.SYSTEM.DIHEDRAL>
0

>  <SCORE.SYSTEM.SOLV>
0

>  <SCORE.SYSTEM.norm>
0

>  <SCORE.heavy>
46

>  <SCORE.norm>
0.455179

>  <RMSD>
28.855

$$$$
lig.pdb
 OpenBabel03061811583D
libRbt.so/2013.1/901 2013/11/27
 46 49  0  0  0  0  0  0  0  0999 V2000
  -11.4480   -2.4966   16.4054 C   0  0  1  0  0  0  0  0  0  0  0  0
  -10.4527   -2.2822   14.0877 C   0  0  1  0  0  0  0  0  0  0  0  0
   -9.0980   -1.5112   14.0832 C   0  0  1  0  0  0  0  0  0  0  0  0
   -8.9092   -0.7987   12.6480 C   0  0  2  0  0  0  0  0  0  0  0  0
   -9.8193    0.6402   15.2185 C   0  0  2  0  0  0  0  0  0  0  0  0
   -9.2032    1.6656   16.2122 C   0  0  1  0  0  0  0  0  0  0  0  0
   -9.7043    2.9254   15.5483 C   0  0  1  0  0  0  0  0  0  0  0  0
   -9.4079    2.7182   14.0290 C   0  0  1  0  0  0  0  0  0  0  0  0
   -7.9499    3.0326   13.5420 C   0  0  0  0  0  0  0  0  0  0  0  0
  -11.5693    3.3713   17.0997 C   0  0  1  0  0  0  0  0  0  0  0  0
  -12.5890    4.4662   17.2007 C   0  0  1  0  0  0  0  0  0  0  0  0
  -11.2681   -3.3911   17.6547 C   0  0  1  0  0  0  0  0  0  0  0  0
  -12.8756    4.7412   18.7194 C   0  0  0  0  0  0  0  0  0  0  0  0
  -11.7330    5.1581   19.4805 C   0  0  0  0  0  0  0  0  0  0  0  0
  -10.7377    4.1081   19.4357 C   0  0  2  0  0  0  0  0  0  0  0  0
   -9.4476    4.5146   20.2514 C   0  0  0  0  0  0  0  0  0  0  0  0
   -9.5479   -0.6926    7.5586 C   0  0  2  0  0  0  0  0  0  0  0  0
   -8.5597   -2.2218    9.0545 C   0  0  0  0  0  0  0  0  0  0  0  0
   -9.4309    0.1798    6.4931 C   0  0  0  0  0  0  0  0  0  0  0  0
   -8.3691   -1.3428    7.7225 C   0  0  1  0  0  0  0  0  0  0  0  0
  -11.8393   -4.8589   17.3956 C   0  0  0  0  0  0  0  0  0  0  0  0
  -13.3892   -4.7317   17.0032 C   0  0  0  0  0  0  0  0  0  0  0  0
  -13.4915   -3.8223   15.6923 C   0  0  1  0  0  0  0  0  0  0  0  0
  -14.9445   -3.6298   15.2416 C   0  0  0  0  0  0  0  0  0  0  0  0
   -8.8435   -1.9360   11.5376 C   0  0  1  0  0  0  0  0  0  0  0  0
  -10.2809   -2.6834   11.5734 C   0  0  0  0  0  0  0  0  0  0  0  0
  -10.4992   -3.3634   12.9797 C   0  0  2  0  0  0  0  0  0  0  0  0
  -10.6616   -1.5856    7.3314 F   0  0  0  0  0  0  0  0  0  0  0  0
   -9.6483    4.4325   21.7919 N   0  0  0  0  0  0  0  0  0  0  0  0
   -9.8022   -3.4052   18.0156 N   0  0  0  0  0  0  0  0  0  0  0  0
  -12.1676    5.6911   16.6756 N   0  0  0  0  0  0  0  0  0  0  0  0
  -10.3815    1.0112    5.8554 N   0  0  0  0  0  0  0  0  0  0  0  0
  -15.7455   -3.1535   16.3012 N   0  0  0  0  0  0  0  0  0  0  0  0
   -8.6575   -1.3259   10.2088 N   0  0  0  0  0  0  0  0  0  0  0  0
  -11.8142   -4.0397   13.0315 N   0  0  0  0  0  0  0  0  0  0  0  0
  -10.6357   -2.9578   15.3253 O   0  0  0  0  0  0  0  0  0  0  0  0
   -9.1722   -0.5006   15.1905 O   0  0  0  0  0  0  0  0  0  0  0  0
   -7.7077   -0.1263   12.6693 O   0  0  0  0  0  0  0  0  0  0  0  0
   -9.7467    1.4312   17.4759 O   0  0  0  0  0  0  0  0  0  0  0  0
   -9.8842    1.3651   13.9396 O   0  0  0  0  0  0  0  0  0  0  0  0
   -7.0632    2.1239   14.2249 O   0  0  0  0  0  0  0  0  0  0  0  0
  -11.1929    3.0672   15.8095 O   0  0  0  0  0  0  0  0  0  0  0  0
   -8.0412   -2.2069    6.6125 O   0  0  0  0  0  0  0  0  0  0  0  0
   -8.6269   -3.4617    9.0788 O   0  0  0  0  0  0  0  0  0  0  0  0
  -10.3816    3.7825   18.0043 O   0  0  0  0  0  0  0  0  0  0  0  0
  -12.8833   -2.4563   15.9649 O   0  0  0  0  0  0  0  0  0  0  0  0
  1 36  1  6  0  0  0
  2 36  1  1  0  0  0
  2  3  1  0  0  0  0
  3 37  1  1  0  0  0
  3  4  1  0  0  0  0
  4 38  1  1  0  0  0
  5 37  1  6  0  0  0
  5  6  1  0  0  0  0
  6  7  1  0  0  0  0
  6 39  1  1  0  0  0
  7 42  1  6  0  0  0
  8  9  1  1  0  0  0
  8  7  1  0  0  0  0
 10 42  1  6  0  0  0
 10 11  1  0  0  0  0
 11 31  1  1  0  0  0
 11 13  1  0  0  0  0
 12 30  1  6  0  0  0
 12  1  1  0  0  0  0
 14 13  1  0  0  0  0
 15 16  1  1  0  0  0
 15 14  1  0  0  0  0
 17 19  1  6  0  0  0
 17 28  1  0  0  0  0
 18 34  1  0  0  0  0
 19 32  1  0  0  0  0
 20 18  1  1  0  0  0
 20 17  1  0  0  0  0
 20 43  1  0  0  0  0
 21 12  1  0  0  0  0
 22 21  1  0  0  0  0
 22 23  1  0  0  0  0
 23 24  1  1  0  0  0
 23 46  1  0  0  0  0
 24 33  1  0  0  0  0
 25 34  1  6  0  0  0
 25  4  1  0  0  0  0
 26 25  1  0  0  0  0
 27 35  1  6  0  0  0
 27 26  1  0  0  0  0
 27  2  1  0  0  0  0
 29 16  1  0  0  0  0
 40  8  1  0  0  0  0
 40  5  1  0  0  0  0
 41  9  1  0  0  0  0
 44 18  2  0  0  0  0
 45 15  1  0  0  0  0
 45 10  1  0  0  0  0
 46  1  1  0  0  0  0
M  END
>  <CHROM.1>
-172.73661984,100.15768100,-76.15578811,-155.03357826,70.31450502,62.34947641
133.64565175,75.01798831,174.91896485,-68.07840745,174.88738483,52.95530615
179.38479241,-10.40922794,-0.10023993,14.24174945,1.93665621,1.13392876,0.78025919

>  <Name>
lig.pdb

>  <RI>
0

>  <Rbt.Current_Directory>
/home/afrankz/demos/rdock_decoys_rna/rnas/3wru

>  <Rbt.Executable>
rbdock ($Id: //depot/dev/client3/rdock/2013.1/src/exe/rbdock.cxx#4 $)

>  <Rbt.Library>
libRbt.so (2013.1, Build901 2013/11/27)

>  <Rbt.Parameter_File>
/export/apps/rDock/src/rDock_2013.1_src/data/scripts/dock_solv.prm

>  <Rbt.Receptor>
prm/blind_docking_60.prm

>  <SCORE>
24.7663

>  <SCORE.INTER>
14.2249

>  <SCORE.INTER.CONST>
1

>  <SCORE.INTER.POLAR>
0

>  <SCORE.INTER.ROT>
13

>  <SCORE.INTER.SOLV>
35.4062

>  <SCORE.INTER.VDW>
-14.5855

>  <SCORE.INTER.norm>
0.309236

>  <SCORE.INTRA>
3.53066

>  <SCORE.INTRA.DIHEDRAL>
-1.1209

>  <SCORE.INTRA.DIHEDRAL.0>
19.7146

>  <SCORE.INTRA.POLAR>
0

>  <SCORE.INTRA.POLAR.0>
0

>  <SCORE.INTRA.REPUL>
0

>  <SCORE.INTRA.REPUL.0>
0

>  <SCORE.INTRA.SOLV>
1.58809

>  <SCORE.INTRA.SOLV.lig_0>
-116.697

>  <SCORE.INTRA.VDW>
3.29706

>  <SCORE.INTRA.VDW.0>
-7.06424

>  <SCORE.INTRA.norm>
0.0767534

>  <SCORE.RESTR>
7.01073

>  <SCORE.RESTR.CAVITY>
7.01073

>  <SCORE.RESTR.norm>
0.152407

>  <SCORE.SYSTEM>
0

>  <SCORE.SYSTEM.CONST>
0

>  <SCORE.SYSTEM.DIHEDRAL>
0

>  <SCORE.SYSTEM.SOLV>
0

>  <SCORE.SYSTEM.norm>
0

>  <SCORE.heavy>
46

>  <SCORE.norm>
0.538397

>  <RMSD>
28.890

$$$$
lig.pdb
 OpenBabel03061811583D
libRbt.so/2013.1/901 2013/11/27
 46 49  0  0  0  0  0  0  0  0999 V2000
  -11.6162    3.5784   12.7757 C   0  0  1  0  0  0  0  0  0  0  0  0
  -11.7127    2.3085   14.9634 C   0  0  1  0  0  0  0  0  0  0  0  0
  -10.5061    3.2191   15.3436 C   0  0  1  0  0  0  0  0  0  0  0  0
  -10.1505    2.9893   16.9004 C   0  0  2  0  0  0  0  0  0  0  0  0
   -8.8879    1.6160   14.2257 C   0  0  2  0  0  0  0  0  0  0  0  0
   -8.7393    1.3004   12.7101 C   0  0  1  0  0  0  0  0  0  0  0  0
   -7.6520    0.2589   12.8202 C   0  0  1  0  0  0  0  0  0  0  0  0
   -6.6122    0.8738   13.8100 C   0  0  1  0  0  0  0  0  0  0  0  0
   -5.5829    1.8959   13.2120 C   0  0  0  0  0  0  0  0  0  0  0  0
   -8.2829   -2.1055   12.5120 C   0  0  1  0  0  0  0  0  0  0  0  0
   -8.4254   -1.7389   11.0649 C   0  0  1  0  0  0  0  0  0  0  0  0
  -12.7694    4.5447   12.4158 C   0  0  1  0  0  0  0  0  0  0  0  0
   -8.5095   -3.0607   10.2222 C   0  0  0  0  0  0  0  0  0  0  0  0
   -9.6152   -3.9137   10.5517 C   0  0  0  0  0  0  0  0  0  0  0  0
   -9.4925   -4.3183   11.9360 C   0  0  2  0  0  0  0  0  0  0  0  0
  -10.6911   -5.2551   12.3612 C   0  0  0  0  0  0  0  0  0  0  0  0
   -8.8924    2.0299   21.3701 C   0  0  2  0  0  0  0  0  0  0  0  0
  -10.4576    2.0140   19.6087 C   0  0  0  0  0  0  0  0  0  0  0  0
   -8.5267    3.1554   22.0839 C   0  0  0  0  0  0  0  0  0  0  0  0
  -10.2379    2.0379   21.2007 C   0  0  1  0  0  0  0  0  0  0  0  0
  -13.8487    3.8272   11.4840 C   0  0  0  0  0  0  0  0  0  0  0  0
  -13.1039    3.3098   10.1612 C   0  0  0  0  0  0  0  0  0  0  0  0
  -11.9506    2.2977   10.6100 C   0  0  1  0  0  0  0  0  0  0  0  0
  -11.1675    1.7538    9.4091 C   0  0  0  0  0  0  0  0  0  0  0  0
  -11.4089    3.4364   17.7649 C   0  0  1  0  0  0  0  0  0  0  0  0
  -12.6188    2.4435   17.3453 C   0  0  0  0  0  0  0  0  0  0  0  0
  -12.9639    2.6309   15.8176 C   0  0  2  0  0  0  0  0  0  0  0  0
   -8.4134    0.8488   22.0523 F   0  0  0  0  0  0  0  0  0  0  0  0
  -12.0482   -4.5015   12.4639 N   0  0  0  0  0  0  0  0  0  0  0  0
  -13.3749    5.0536   13.7018 N   0  0  0  0  0  0  0  0  0  0  0  0
   -9.5944   -1.0337   10.7654 N   0  0  0  0  0  0  0  0  0  0  0  0
   -7.2867    3.5496   22.6392 N   0  0  0  0  0  0  0  0  0  0  0  0
  -11.9728    0.9050    8.6204 N   0  0  0  0  0  0  0  0  0  0  0  0
  -11.1195    3.2543   19.1986 N   0  0  0  0  0  0  0  0  0  0  0  0
  -14.0595    1.7208   15.4168 N   0  0  0  0  0  0  0  0  0  0  0  0
  -12.0816    2.5137   13.6057 O   0  0  0  0  0  0  0  0  0  0  0  0
   -9.3645    2.8164   14.4562 O   0  0  0  0  0  0  0  0  0  0  0  0
   -9.0842    3.8034   17.2109 O   0  0  0  0  0  0  0  0  0  0  0  0
   -9.9584    0.8062   12.2444 O   0  0  0  0  0  0  0  0  0  0  0  0
   -7.5557    1.3429   14.7876 O   0  0  0  0  0  0  0  0  0  0  0  0
   -6.3299    3.0413   12.7558 O   0  0  0  0  0  0  0  0  0  0  0  0
   -8.2473   -1.0258   13.3674 O   0  0  0  0  0  0  0  0  0  0  0  0
  -10.8896    0.8960   21.7986 O   0  0  0  0  0  0  0  0  0  0  0  0
  -10.1013    1.0889   18.8604 O   0  0  0  0  0  0  0  0  0  0  0  0
   -9.4209   -3.1053   12.8334 O   0  0  0  0  0  0  0  0  0  0  0  0
  -10.9801    3.0043   11.5421 O   0  0  0  0  0  0  0  0  0  0  0  0
  1 36  1  1  0  0  0
  2 36  1  6  0  0  0
  2  3  1  0  0  0  0
  3 37  1  6  0  0  0
  3  4  1  0  0  0  0
  4 38  1  1  0  0  0
  5 37  1  6  0  0  0
  5  6  1  0  0  0  0
  6  7  1  0  0  0  0
  6 39  1  1  0  0  0
  7 42  1  1  0  0  0
  8  9  1  6  0  0  0
  8  7  1  0  0  0  0
 10 42  1  1  0  0  0
 10 11  1  0  0  0  0
 11 31  1  1  0  0  0
 11 13  1  0  0  0  0
 12 30  1  1  0  0  0
 12  1  1  0  0  0  0
 14 13  1  0  0  0  0
 15 16  1  1  0  0  0
 15 14  1  0  0  0  0
 17 19  1  1  0  0  0
 17 28  1  0  0  0  0
 18 34  1  0  0  0  0
 19 32  1  0  0  0  0
 20 18  1  6  0  0  0
 20 17  1  0  0  0  0
 20 43  1  0  0  0  0
 21 12  1  0  0  0  0
 22 21  1  0  0  0  0
 22 23  1  0  0  0  0
 23 24  1  6  0  0  0
 23 46  1  0  0  0  0
 24 33  1  0  0  0  0
 25 34  1  1  0  0  0
 25  4  1  0  0  0  0
 26 25  1  0  0  0  0
 27 35  1  6  0  0  0
 27 26  1  0  0  0  0
 27  2  1  0  0  0  0
 29 16  1  0  0  0  0
 40  8  1  0  0  0  0
 40  5  1  0  0  0  0
 41  9  1  0  0  0  0
 44 18  2  0  0  0  0
 45 15  1  0  0  0  0
 45 10  1  0  0  0  0
 46  1  1  0  0  0  0
M  END
>  <CHROM.1>
-113.08478322,-11.90446844,-50.39767877,129.67532676,112.96543482,64.43300826
-30.52818724,-70.46605770,172.52767561,-116.25488595,121.39430747,-68.16634263
-43.78522419,-10.10317718,1.21326140,14.67997803,1.67508025,0.97179537,-1.97758335

>  <Name>
lig.pdb

>  <RI>
0

>  <Rbt.Current_Directory>
/home/afrankz/demos/rdock_decoys_rna/rnas/3wru

>  <Rbt.Executable>
rbdock ($Id: //depot/dev/client3/rdock/2013.1/src/exe/rbdock.cxx#4 $)

>  <Rbt.Library>
libRbt.so (2013.1, Build901 2013/11/27)

>  <Rbt.Parameter_File>
/export/apps/rDock/src/rDock_2013.1_src/data/scripts/dock_solv.prm

>  <Rbt.Receptor>
prm/blind_docking_60.prm

>  <SCORE>
50.0345

>  <SCORE.INTER>
26.1859

>  <SCORE.INTER.CONST>
1

>  <SCORE.INTER.POLAR>
0

>  <SCORE.INTER.ROT>
13

>  <SCORE.INTER.SOLV>
28.73

>  <SCORE.INTER.VDW>
-4.38605

>  <SCORE.INTER.norm>
0.569259

>  <SCORE.INTRA>
16.7819

>  <SCORE.INTRA.DIHEDRAL>
19.5913

>  <SCORE.INTRA.DIHEDRAL.0>
19.7146

>  <SCORE.INTRA.POLAR>
0

>  <SCORE.INTRA.POLAR.0>
0

>  <SCORE.INTRA.REPUL>
0

>  <SCORE.INTRA.REPUL.0>
0

>  <SCORE.INTRA.SOLV>
5.83514

>  <SCORE.INTRA.SOLV.lig_0>
-116.697

>  <SCORE.INTRA.VDW>
4.06868

>  <SCORE.INTRA.VDW.0>
-7.06424

>  <SCORE.INTRA.norm>
0.364824

>  <SCORE.RESTR>
7.06668

>  <SCORE.RESTR.CAVITY>
7.06668

>  <SCORE.RESTR.norm>
0.153623

>  <SCORE.SYSTEM>
0

>  <SCORE.SYSTEM.CONST>
0

>  <SCORE.SYSTEM.DIHEDRAL>
0

>  <SCORE.SYSTEM.SOLV>
0

>  <SCORE.SYSTEM.norm>
0

>  <SCORE.heavy>
46

>  <SCORE.norm>
1.08771

>  <RMSD>
28.939

$$$$
lig.pdb
 OpenBabel03061811583D
libRbt.so/2013.1/901 2013/11/27
 46 49  0  0  0  0  0  0  0  0999 V2000
  -11.3122   -1.8829   15.1046 C   0  0  1  0  0  0  0  0  0  0  0  0
  -10.6107    0.3746   16.0099 C   0  0  1  0  0  0  0  0  0  0  0  0
  -10.4453    1.8308   15.4790 C   0  0  1  0  0  0  0  0  0  0  0  0
   -9.9241    2.7684   16.6842 C   0  0  2  0  0  0  0  0  0  0  0  0
   -9.5862    1.2575   13.1614 C   0  0  2  0  0  0  0  0  0  0  0  0
   -8.8536    2.0741   12.0591 C   0  0  1  0  0  0  0  0  0  0  0  0
   -8.6642    0.9556   11.0631 C   0  0  1  0  0  0  0  0  0  0  0  0
   -8.1462   -0.2485   11.9121 C   0  0  1  0  0  0  0  0  0  0  0  0
   -6.6128   -0.2741   12.2438 C   0  0  0  0  0  0  0  0  0  0  0  0
  -10.1022    0.9019    9.0598 C   0  0  1  0  0  0  0  0  0  0  0  0
  -11.4102    0.4889    8.4537 C   0  0  1  0  0  0  0  0  0  0  0  0
   -9.9877   -2.6075   15.4420 C   0  0  1  0  0  0  0  0  0  0  0  0
  -11.3634    0.7921    6.9141 C   0  0  0  0  0  0  0  0  0  0  0  0
  -10.3300    0.1016    6.1971 C   0  0  0  0  0  0  0  0  0  0  0  0
   -9.0465    0.5031    6.7323 C   0  0  2  0  0  0  0  0  0  0  0  0
   -7.8654   -0.2339    5.9860 C   0  0  0  0  0  0  0  0  0  0  0  0
  -10.4340    4.5674   21.4404 C   0  0  2  0  0  0  0  0  0  0  0  0
   -9.5273    3.1368   19.8021 C   0  0  0  0  0  0  0  0  0  0  0  0
  -10.2564    5.4865   22.4572 C   0  0  0  0  0  0  0  0  0  0  0  0
   -9.2200    4.2325   20.9371 C   0  0  1  0  0  0  0  0  0  0  0  0
   -8.9562   -2.5110   14.2277 C   0  0  0  0  0  0  0  0  0  0  0  0
   -9.6458   -3.1569   12.9317 C   0  0  0  0  0  0  0  0  0  0  0  0
  -10.9863   -2.3398   12.6293 C   0  0  1  0  0  0  0  0  0  0  0  0
  -11.7296   -2.8924   11.4072 C   0  0  0  0  0  0  0  0  0  0  0  0
  -11.0356    2.7720   17.8223 C   0  0  1  0  0  0  0  0  0  0  0  0
  -11.1453    1.2435   18.3491 C   0  0  0  0  0  0  0  0  0  0  0  0
  -11.6261    0.3034   17.1773 C   0  0  2  0  0  0  0  0  0  0  0  0
  -11.3293    5.1144   20.4460 F   0  0  0  0  0  0  0  0  0  0  0  0
   -6.5031    0.5053    6.1198 N   0  0  0  0  0  0  0  0  0  0  0  0
   -9.4328   -2.0058   16.7107 N   0  0  0  0  0  0  0  0  0  0  0  0
  -11.6812   -0.8786    8.5538 N   0  0  0  0  0  0  0  0  0  0  0  0
   -9.2762    5.5809   23.4729 N   0  0  0  0  0  0  0  0  0  0  0  0
  -10.8882   -2.9281   10.2750 N   0  0  0  0  0  0  0  0  0  0  0  0
  -10.6030    3.6304   18.9396 N   0  0  0  0  0  0  0  0  0  0  0  0
  -11.7188   -1.0988   17.6407 N   0  0  0  0  0  0  0  0  0  0  0  0
  -11.1081   -0.4747   14.9839 O   0  0  0  0  0  0  0  0  0  0  0  0
   -9.4465    1.7720   14.3601 O   0  0  0  0  0  0  0  0  0  0  0  0
   -9.7867    4.0466   16.1909 O   0  0  0  0  0  0  0  0  0  0  0  0
   -9.7087    3.0874   11.6240 O   0  0  0  0  0  0  0  0  0  0  0  0
   -9.0803   -0.1143   12.9962 O   0  0  0  0  0  0  0  0  0  0  0  0
   -6.3677   -1.4408   13.0542 O   0  0  0  0  0  0  0  0  0  0  0  0
   -9.9974    0.6410   10.4088 O   0  0  0  0  0  0  0  0  0  0  0  0
   -8.5211    5.3539   20.3538 O   0  0  0  0  0  0  0  0  0  0  0  0
   -8.9265    2.0564   19.6824 O   0  0  0  0  0  0  0  0  0  0  0  0
   -8.9886    0.2327    8.2173 O   0  0  0  0  0  0  0  0  0  0  0  0
  -11.9129   -2.4081   13.8322 O   0  0  0  0  0  0  0  0  0  0  0  0
  1 36  1  6  0  0  0
  2 36  1  6  0  0  0
  2  3  1  0  0  0  0
  3 37  1  6  0  0  0
  3  4  1  0  0  0  0
  4 38  1  6  0  0  0
  5 37  1  1  0  0  0
  5  6  1  0  0  0  0
  6  7  1  0  0  0  0
  6 39  1  6  0  0  0
  7 42  1  1  0  0  0
  8  9  1  1  0  0  0
  8  7  1  0  0  0  0
 10 42  1  1  0  0  0
 10 11  1  0  0  0  0
 11 31  1  6  0  0  0
 11 13  1  0  0  0  0
 12 30  1  1  0  0  0
 12  1  1  0  0  0  0
 14 13  1  0  0  0  0
 15 16  1  6  0  0  0
 15 14  1  0  0  0  0
 17 19  1  1  0  0  0
 17 28  1  0  0  0  0
 18 34  1  0  0  0  0
 19 32  1  0  0  0  0
 20 18  1  6  0  0  0
 20 17  1  0  0  0  0
 20 43  1  0  0  0  0
 21 12  1  0  0  0  0
 22 21  1  0  0  0  0
 22 23  1  0  0  0  0
 23 24  1  6  0  0  0
 23 46  1  0  0  0  0
 24 33  1  0  0  0  0
 25 34  1  1  0  0  0
 25  4  1  0  0  0  0
 26 25  1  0  0  0  0
 27 35  1  1  0  0  0
 27 26  1  0  0  0  0
 27  2  1  0  0  0  0
 29 16  1  0  0  0  0
 40  8  1  0  0  0  0
 40  5  1  0  0  0  0
 41  9  1  0  0  0  0
 44 18  2  0  0  0  0
 45 15  1  0  0  0  0
 45 10  1  0  0  0  0
 46  1  1  0  0  0  0
M  END
>  <CHROM.1>
-59.72656015,176.60015232,70.73004580,143.39553261,114.40619710,178.58186958
176.26050152,158.59783108,-39.15551195,48.33403686,178.35932851,-55.10557534
-72.50144490,-9.86402282,0.86661784,14.15051848,1.72901127,1.29167346,1.07563657

>  <Name>
lig.pdb

>  <RI>
0

>  <Rbt.Current_Directory>
/home/afrankz/demos/rdock_decoys_rna/rnas/3wru

>  <Rbt.Executable>
rbdock ($Id: //depot/dev/client3/rdock/2013.1/src/exe/rbdock.cxx#4 $)

>  <Rbt.Library>
libRbt.so (2013.1, Build901 2013/11/27)

>  <Rbt.Parameter_File>
/export/apps/rDock/src/rDock_2013.1_src/data/scripts/dock_solv.prm

>  <Rbt.Receptor>
prm/blind_docking_60.prm

>  <SCORE>
36.9615

>  <SCORE.INTER>
19.2371

>  <SCORE.INTER.CONST>
1

>  <SCORE.INTER.POLAR>
0

>  <SCORE.INTER.ROT>
13

>  <SCORE.INTER.SOLV>
31.6872

>  <SCORE.INTER.VDW>
-10.0043

>  <SCORE.INTER.norm>
0.418198

>  <SCORE.INTRA>
9.68928

>  <SCORE.INTRA.DIHEDRAL>
-2.94101

>  <SCORE.INTRA.DIHEDRAL.0>
19.7146

>  <SCORE.INTRA.POLAR>
0

>  <SCORE.INTRA.POLAR.0>
0

>  <SCORE.INTRA.REPUL>
0.00324739

>  <SCORE.INTRA.REPUL.0>
0

>  <SCORE.INTRA.SOLV>
8.25671

>  <SCORE.INTRA.SOLV.lig_0>
-116.697

>  <SCORE.INTRA.VDW>
7.01519

>  <SCORE.INTRA.VDW.0>
-7.06424

>  <SCORE.INTRA.norm>
0.210636

>  <SCORE.RESTR>
8.03511

>  <SCORE.RESTR.CAVITY>
8.03511

>  <SCORE.RESTR.norm>
0.174676

>  <SCORE.SYSTEM>
0

>  <SCORE.SYSTEM.CONST>
0

>  <SCORE.SYSTEM.DIHEDRAL>
0

>  <SCORE.SYSTEM.SOLV>
0

>  <SCORE.SYSTEM.norm>
0

>  <SCORE.heavy>
46

>  <SCORE.norm>
0.803511

>  <RMSD>
28.950

$$$$
lig.pdb
 OpenBabel03061811583D
libRbt.so/2013.1/901 2013/11/27
 46 49  0  0  0  0  0  0  0  0999 V2000
  -10.9179    3.2562   14.8458 C   0  0  1  0  0  0  0  0  0  0  0  0
  -11.1700    2.6680   17.2950 C   0  0  1  0  0  0  0  0  0  0  0  0
   -9.7731    2.1879   17.7929 C   0  0  1  0  0  0  0  0  0  0  0  0
   -9.6214    2.5592   19.3556 C   0  0  2  0  0  0  0  0  0  0  0  0
   -9.9169    0.0295   16.4669 C   0  0  2  0  0  0  0  0  0  0  0  0
   -8.8221   -1.0445   16.2084 C   0  0  1  0  0  0  0  0  0  0  0  0
   -9.6407   -1.9717   15.3429 C   0  0  1  0  0  0  0  0  0  0  0  0
  -11.0058   -2.1092   16.0890 C   0  0  1  0  0  0  0  0  0  0  0  0
  -11.0681   -3.1425   17.2680 C   0  0  0  0  0  0  0  0  0  0  0  0
  -10.0783   -2.2051   12.9268 C   0  0  1  0  0  0  0  0  0  0  0  0
   -9.1174   -3.3515   12.8199 C   0  0  1  0  0  0  0  0  0  0  0  0
  -11.5289    2.8019   13.4991 C   0  0  1  0  0  0  0  0  0  0  0  0
   -9.5008   -4.2068   11.5605 C   0  0  0  0  0  0  0  0  0  0  0  0
   -9.4505   -3.4972   10.3145 C   0  0  0  0  0  0  0  0  0  0  0  0
  -10.3939   -2.4007   10.3668 C   0  0  2  0  0  0  0  0  0  0  0  0
  -10.3772   -1.5737    9.0212 C   0  0  0  0  0  0  0  0  0  0  0  0
   -8.1309    3.8738   23.7098 C   0  0  2  0  0  0  0  0  0  0  0  0
   -8.1838    4.5828   21.4631 C   0  0  0  0  0  0  0  0  0  0  0  0
   -6.8871    3.3323   23.4457 C   0  0  0  0  0  0  0  0  0  0  0  0
   -8.2645    5.0255   23.0061 C   0  0  1  0  0  0  0  0  0  0  0  0
  -10.9333    1.3919   13.0462 C   0  0  0  0  0  0  0  0  0  0  0  0
   -9.3400    1.5345   12.9308 C   0  0  0  0  0  0  0  0  0  0  0  0
   -8.7807    1.9753   14.3622 C   0  0  1  0  0  0  0  0  0  0  0  0
   -7.2574    2.1511   14.3518 C   0  0  0  0  0  0  0  0  0  0  0  0
   -9.6873    4.1425   19.4950 C   0  0  1  0  0  0  0  0  0  0  0  0
  -11.1634    4.5779   18.9875 C   0  0  0  0  0  0  0  0  0  0  0  0
  -11.3441    4.1973   17.4675 C   0  0  2  0  0  0  0  0  0  0  0  0
   -8.2842    4.0588   25.1352 F   0  0  0  0  0  0  0  0  0  0  0  0
  -11.4240   -0.4231    8.9987 N   0  0  0  0  0  0  0  0  0  0  0  0
  -13.0303    2.7637   13.6532 N   0  0  0  0  0  0  0  0  0  0  0  0
   -7.7889   -2.9677   12.6166 N   0  0  0  0  0  0  0  0  0  0  0  0
   -6.3121    2.0901   23.8030 N   0  0  0  0  0  0  0  0  0  0  0  0
   -6.6324    1.1173   13.6226 N   0  0  0  0  0  0  0  0  0  0  0  0
   -9.5388    4.5254   20.9106 N   0  0  0  0  0  0  0  0  0  0  0  0
  -12.6931    4.5779   16.9933 N   0  0  0  0  0  0  0  0  0  0  0  0
  -11.3246    2.3934   15.9086 O   0  0  0  0  0  0  0  0  0  0  0  0
   -9.7236    0.7036   17.5756 O   0  0  0  0  0  0  0  0  0  0  0  0
   -8.3818    2.1262   19.7704 O   0  0  0  0  0  0  0  0  0  0  0  0
   -7.7581   -0.4336   15.5436 O   0  0  0  0  0  0  0  0  0  0  0  0
  -11.1838   -0.7148   16.3888 O   0  0  0  0  0  0  0  0  0  0  0  0
  -11.1396   -4.4582   16.6833 O   0  0  0  0  0  0  0  0  0  0  0  0
   -9.8179   -1.3453   13.9716 O   0  0  0  0  0  0  0  0  0  0  0  0
   -9.5190    5.6970   23.2543 O   0  0  0  0  0  0  0  0  0  0  0  0
   -7.1296    4.3469   20.8504 O   0  0  0  0  0  0  0  0  0  0  0  0
  -10.0937   -1.5051   11.5456 O   0  0  0  0  0  0  0  0  0  0  0  0
   -9.4178    3.2902   14.7808 O   0  0  0  0  0  0  0  0  0  0  0  0
  1 36  1  1  0  0  0
  2 36  1  6  0  0  0
  2  3  1  0  0  0  0
  3 37  1  1  0  0  0
  3  4  1  0  0  0  0
  4 38  1  6  0  0  0
  5 37  1  1  0  0  0
  5  6  1  0  0  0  0
  6  7  1  0  0  0  0
  6 39  1  6  0  0  0
  7 42  1  6  0  0  0
  8  9  1  1  0  0  0
  8  7  1  0  0  0  0
 10 42  1  1  0  0  0
 10 11  1  0  0  0  0
 11 31  1  6  0  0  0
 11 13  1  0  0  0  0
 12 30  1  1  0  0  0
 12  1  1  0  0  0  0
 14 13  1  0  0  0  0
 15 16  1  6  0  0  0
 15 14  1  0  0  0  0
 17 19  1  1  0  0  0
 17 28  1  0  0  0  0
 18 34  1  0  0  0  0
 19 32  1  0  0  0  0
 20 18  1  6  0  0  0
 20 17  1  0  0  0  0
 20 43  1  0  0  0  0
 21 12  1  0  0  0  0
 22 21  1  0  0  0  0
 22 23  1  0  0  0  0
 23 24  1  6  0  0  0
 23 46  1  0  0  0  0
 24 33  1  0  0  0  0
 25 34  1  1  0  0  0
 25  4  1  0  0  0  0
 26 25  1  0  0  0  0
 27 35  1  1  0  0  0
 27 26  1  0  0  0  0
 27  2  1  0  0  0  0
 29 16  1  0  0  0  0
 40  8  1  0  0  0  0
 40  5  1  0  0  0  0
 41  9  1  0  0  0  0
 44 18  2  0  0  0  0
 45 15  1  0  0  0  0
 45 10  1  0  0  0  0
 46  1  1  0  0  0  0
M  END
>  <CHROM.1>
-166.73842789,-87.48850426,55.44027749,132.52271173,156.36210898,-76.08174500
-51.23320659,177.22182282,-172.33220691,100.66802805,62.64734273,-41.95416530
81.43668009,-9.62818445,1.10475728,16.48776846,1.88231728,1.16472346,-2.37616605

>  <Name>
lig.pdb

>  <RI>
0

>  <Rbt.Current_Directory>
/home/afrankz/demos/rdock_decoys_rna/rnas/3wru

>  <Rbt.Executable>
rbdock ($Id: //depot/dev/client3/rdock/2013.1/src/exe/rbdock.cxx#4 $)

>  <Rbt.Library>
libRbt.so (2013.1, Build901 2013/11/27)

>  <Rbt.Parameter_File>
/export/apps/rDock/src/rDock_2013.1_src/data/scripts/dock_solv.prm

>  <Rbt.Receptor>
prm/blind_docking_60.prm

>  <SCORE>
13.997

>  <SCORE.INTER>
5.80032

>  <SCORE.INTER.CONST>
1

>  <SCORE.INTER.POLAR>
0

>  <SCORE.INTER.ROT>
13

>  <SCORE.INTER.SOLV>
30.2725

>  <SCORE.INTER.VDW>
-18.4906

>  <SCORE.INTER.norm>
0.126094

>  <SCORE.INTRA>
3.96449

>  <SCORE.INTRA.DIHEDRAL>
-1.57496

>  <SCORE.INTRA.DIHEDRAL.0>
19.7146

>  <SCORE.INTRA.POLAR>
0

>  <SCORE.INTRA.POLAR.0>
0

>  <SCORE.INTRA.REPUL>
0

>  <SCORE.INTRA.REPUL.0>
0

>  <SCORE.INTRA.SOLV>
3.08662

>  <SCORE.INTRA.SOLV.lig_0>
-116.697

>  <SCORE.INTRA.VDW>
3.20866

>  <SCORE.INTRA.VDW.0>
-7.06424

>  <SCORE.INTRA.norm>
0.0861846

>  <SCORE.RESTR>
4.23218

>  <SCORE.RESTR.CAVITY>
4.23218

>  <SCORE.RESTR.norm>
0.0920038

>  <SCORE.SYSTEM>
0

>  <SCORE.SYSTEM.CONST>
0

>  <SCORE.SYSTEM.DIHEDRAL>
0

>  <SCORE.SYSTEM.SOLV>
0

>  <SCORE.SYSTEM.norm>
0

>  <SCORE.heavy>
46

>  <SCORE.norm>
0.304282

>  <RMSD>
28.961

$$$$
lig.pdb
 OpenBabel03061811583D
libRbt.so/2013.1/901 2013/11/27
 46 49  0  0  0  0  0  0  0  0999 V2000
  -11.8508    4.0285   13.6447 C   0  0  1  0  0  0  0  0  0  0  0  0
  -12.3931    3.0433   15.9126 C   0  0  1  0  0  0  0  0  0  0  0  0
  -11.2172    2.0597   16.1944 C   0  0  1  0  0  0  0  0  0  0  0  0
  -10.9842    1.9698   17.7883 C   0  0  2  0  0  0  0  0  0  0  0  0
  -10.8549   -0.2701   15.2570 C   0  0  2  0  0  0  0  0  0  0  0  0
   -9.5586   -0.3904   16.1077 C   0  0  1  0  0  0  0  0  0  0  0  0
   -9.3090   -1.8645   15.8989 C   0  0  1  0  0  0  0  0  0  0  0  0
  -10.7015   -2.5375   16.1159 C   0  0  1  0  0  0  0  0  0  0  0  0
  -11.1322   -2.8129   17.5992 C   0  0  0  0  0  0  0  0  0  0  0  0
   -9.7262   -2.4825   13.5478 C   0  0  1  0  0  0  0  0  0  0  0  0
  -10.2095   -3.8921   13.7159 C   0  0  1  0  0  0  0  0  0  0  0  0
  -12.5968    4.2536   12.3082 C   0  0  1  0  0  0  0  0  0  0  0  0
  -11.2097   -4.2179   12.5506 C   0  0  0  0  0  0  0  0  0  0  0  0
  -10.6499   -4.1186   11.2333 C   0  0  0  0  0  0  0  0  0  0  0  0
  -10.2031   -2.7584   11.0204 C   0  0  2  0  0  0  0  0  0  0  0  0
   -9.5664   -2.5889    9.5848 C   0  0  0  0  0  0  0  0  0  0  0  0
   -7.9692    2.1068   22.1926 C   0  0  2  0  0  0  0  0  0  0  0  0
   -9.0494    2.8388   20.2304 C   0  0  0  0  0  0  0  0  0  0  0  0
   -7.3138    2.6890   23.2611 C   0  0  0  0  0  0  0  0  0  0  0  0
   -9.0119    2.8974   21.8362 C   0  0  1  0  0  0  0  0  0  0  0  0
  -12.6911    2.8988   11.4694 C   0  0  0  0  0  0  0  0  0  0  0  0
  -11.2011    2.3660   11.2085 C   0  0  0  0  0  0  0  0  0  0  0  0
  -10.5076    2.1293   12.6294 C   0  0  1  0  0  0  0  0  0  0  0  0
   -9.0657    1.6277   12.4858 C   0  0  0  0  0  0  0  0  0  0  0  0
  -10.5661    3.4142   18.3079 C   0  0  1  0  0  0  0  0  0  0  0  0
  -11.8309    4.3827   18.0108 C   0  0  0  0  0  0  0  0  0  0  0  0
  -12.0951    4.4621   16.4577 C   0  0  2  0  0  0  0  0  0  0  0  0
   -8.3704    0.7637   22.5460 F   0  0  0  0  0  0  0  0  0  0  0  0
   -8.2808   -3.4413    9.3827 N   0  0  0  0  0  0  0  0  0  0  0  0
  -13.9582    4.8267   12.6205 N   0  0  0  0  0  0  0  0  0  0  0  0
   -9.2032   -4.8574   13.6211 N   0  0  0  0  0  0  0  0  0  0  0  0
   -6.0922    2.3669   23.8978 N   0  0  0  0  0  0  0  0  0  0  0  0
   -9.0156    0.4369   11.7304 N   0  0  0  0  0  0  0  0  0  0  0  0
  -10.3302    3.3725   19.7622 N   0  0  0  0  0  0  0  0  0  0  0  0
  -13.2560    5.3338   16.1719 N   0  0  0  0  0  0  0  0  0  0  0  0
  -12.6022    3.1795   14.5129 O   0  0  0  0  0  0  0  0  0  0  0  0
  -11.6194    0.7307   15.6243 O   0  0  0  0  0  0  0  0  0  0  0  0
   -9.9424    1.0972   18.0106 O   0  0  0  0  0  0  0  0  0  0  0  0
   -8.5873    0.4385   15.5448 O   0  0  0  0  0  0  0  0  0  0  0  0
  -11.4711   -1.6037   15.3402 O   0  0  0  0  0  0  0  0  0  0  0  0
  -10.2609   -3.8383   18.1166 O   0  0  0  0  0  0  0  0  0  0  0  0
   -8.7983   -2.0877   14.4869 O   0  0  0  0  0  0  0  0  0  0  0  0
  -10.2747    2.4417   22.3689 O   0  0  0  0  0  0  0  0  0  0  0  0
   -8.1232    2.4191   19.5172 O   0  0  0  0  0  0  0  0  0  0  0  0
   -9.2164   -2.3560   12.0911 O   0  0  0  0  0  0  0  0  0  0  0  0
  -10.4927    3.4289   13.4175 O   0  0  0  0  0  0  0  0  0  0  0  0
  1 36  1  1  0  0  0
  2 36  1  6  0  0  0
  2  3  1  0  0  0  0
  3 37  1  1  0  0  0
  3  4  1  0  0  0  0
  4 38  1  6  0  0  0
  5 37  1  1  0  0  0
  5  6  1  0  0  0  0
  6  7  1  0  0  0  0
  6 39  1  6  0  0  0
  7 42  1  6  0  0  0
  8  9  1  1  0  0  0
  8  7  1  0  0  0  0
 10 42  1  1  0  0  0
 10 11  1  0  0  0  0
 11 31  1  6  0  0  0
 11 13  1  0  0  0  0
 12 30  1  1  0  0  0
 12  1  1  0  0  0  0
 14 13  1  0  0  0  0
 15 16  1  6  0  0  0
 15 14  1  0  0  0  0
 17 19  1  1  0  0  0
 17 28  1  0  0  0  0
 18 34  1  0  0  0  0
 19 32  1  0  0  0  0
 20 18  1  6  0  0  0
 20 17  1  0  0  0  0
 20 43  1  0  0  0  0
 21 12  1  0  0  0  0
 22 21  1  0  0  0  0
 22 23  1  0  0  0  0
 23 24  1  6  0  0  0
 23 46  1  0  0  0  0
 24 33  1  0  0  0  0
 25 34  1  1  0  0  0
 25  4  1  0  0  0  0
 26 25  1  0  0  0  0
 27 35  1  1  0  0  0
 27 26  1  0  0  0  0
 27  2  1  0  0  0  0
 29 16  1  0  0  0  0
 40  8  1  0  0  0  0
 40  5  1  0  0  0  0
 41  9  1  0  0  0  0
 44 18  2  0  0  0  0
 45 15  1  0  0  0  0
 45 10  1  0  0  0  0
 46  1  1  0  0  0  0
M  END
>  <CHROM.1>
-162.94875338,-81.43736720,157.51475922,32.16110511,-97.85650090,-68.12694988
-71.47470402,-63.61405649,-171.27865985,165.61325966,141.47096199,-57.15122016
79.31835353,-10.26680602,0.66878964,15.82157606,1.84644654,1.13550881,-2.24558557

>  <Name>
lig.pdb

>  <RI>
0

>  <Rbt.Current_Directory>
/home/afrankz/demos/rdock_decoys_rna/rnas/3wru

>  <Rbt.Executable>
rbdock ($Id: //depot/dev/client3/rdock/2013.1/src/exe/rbdock.cxx#4 $)

>  <Rbt.Library>
libRbt.so (2013.1, Build901 2013/11/27)

>  <Rbt.Parameter_File>
/export/apps/rDock/src/rDock_2013.1_src/data/scripts/dock_solv.prm

>  <Rbt.Receptor>
prm/blind_docking_60.prm

>  <SCORE>
17.5036

>  <SCORE.INTER>
2.73831

>  <SCORE.INTER.CONST>
1

>  <SCORE.INTER.POLAR>
0

>  <SCORE.INTER.ROT>
13

>  <SCORE.INTER.SOLV>
33.0803

>  <SCORE.INTER.VDW>
-21.4679

>  <SCORE.INTER.norm>
0.0595284

>  <SCORE.INTRA>
9.65877

>  <SCORE.INTRA.DIHEDRAL>
0.136945

>  <SCORE.INTRA.DIHEDRAL.0>
19.7146

>  <SCORE.INTRA.POLAR>
0

>  <SCORE.INTRA.POLAR.0>
0

>  <SCORE.INTRA.REPUL>
0

>  <SCORE.INTRA.REPUL.0>
0

>  <SCORE.INTRA.SOLV>
5.25731

>  <SCORE.INTRA.SOLV.lig_0>
-116.697

>  <SCORE.INTRA.VDW>
6.96165

>  <SCORE.INTRA.VDW.0>
-7.06424

>  <SCORE.INTRA.norm>
0.209973

>  <SCORE.RESTR>
5.10651

>  <SCORE.RESTR.CAVITY>
5.10651

>  <SCORE.RESTR.norm>
0.111011

>  <SCORE.SYSTEM>
0

>  <SCORE.SYSTEM.CONST>
0

>  <SCORE.SYSTEM.DIHEDRAL>
0

>  <SCORE.SYSTEM.SOLV>
0

>  <SCORE.SYSTEM.norm>
0

>  <SCORE.heavy>
46

>  <SCORE.norm>
0.380513

>  <RMSD>
28.981

$$$$
lig.pdb
 OpenBabel03061811583D
libRbt.so/2013.1/901 2013/11/27
 46 49  0  0  0  0  0  0  0  0999 V2000
  -11.2526    0.0971   19.8548 C   0  0  1  0  0  0  0  0  0  0  0  0
  -10.4066   -0.2300   17.4915 C   0  0  1  0  0  0  0  0  0  0  0  0
  -11.1259   -1.4459   16.8328 C   0  0  1  0  0  0  0  0  0  0  0  0
  -10.1527   -2.0839   15.7153 C   0  0  2  0  0  0  0  0  0  0  0  0
  -12.3452   -3.3472   17.9889 C   0  0  2  0  0  0  0  0  0  0  0  0
  -13.7840   -2.7571   18.0041 C   0  0  1  0  0  0  0  0  0  0  0  0
  -14.5055   -3.9536   17.4326 C   0  0  1  0  0  0  0  0  0  0  0  0
  -13.6318   -4.4011   16.2180 C   0  0  1  0  0  0  0  0  0  0  0  0
  -13.8391   -3.6235   14.8711 C   0  0  0  0  0  0  0  0  0  0  0  0
  -14.6606   -6.3393   18.0395 C   0  0  1  0  0  0  0  0  0  0  0  0
  -16.0450   -6.7802   17.6682 C   0  0  1  0  0  0  0  0  0  0  0  0
  -12.4318    0.8037   20.5643 C   0  0  1  0  0  0  0  0  0  0  0  0
  -15.9874   -8.2869   17.2314 C   0  0  0  0  0  0  0  0  0  0  0  0
  -15.5154   -9.1880   18.2432 C   0  0  0  0  0  0  0  0  0  0  0  0
  -14.1640   -8.8146   18.6030 C   0  0  2  0  0  0  0  0  0  0  0  0
  -13.5916   -9.7687   19.7241 C   0  0  0  0  0  0  0  0  0  0  0  0
   -8.2667   -1.8204   10.7407 C   0  0  2  0  0  0  0  0  0  0  0  0
   -9.6191   -2.4441   12.5668 C   0  0  0  0  0  0  0  0  0  0  0  0
   -9.3734   -1.6164    9.9384 C   0  0  0  0  0  0  0  0  0  0  0  0
   -8.4880   -2.9061   11.5227 C   0  0  1  0  0  0  0  0  0  0  0  0
  -12.2498    2.3892   20.5375 C   0  0  0  0  0  0  0  0  0  0  0  0
  -10.8583    2.7461   21.2508 C   0  0  0  0  0  0  0  0  0  0  0  0
   -9.6901    2.0076   20.4471 C   0  0  1  0  0  0  0  0  0  0  0  0
   -8.3122    2.2786   21.0630 C   0  0  0  0  0  0  0  0  0  0  0  0
   -9.8997   -0.9829   14.5951 C   0  0  1  0  0  0  0  0  0  0  0  0
   -9.1320    0.2398   15.3311 C   0  0  0  0  0  0  0  0  0  0  0  0
  -10.0557    0.8603   16.4490 C   0  0  2  0  0  0  0  0  0  0  0  0
   -7.9926   -0.6210   11.4995 F   0  0  0  0  0  0  0  0  0  0  0  0
  -13.2004  -11.1755   19.1873 N   0  0  0  0  0  0  0  0  0  0  0  0
  -13.7129    0.3656   19.8961 N   0  0  0  0  0  0  0  0  0  0  0  0
  -16.9621   -6.7349   18.7220 N   0  0  0  0  0  0  0  0  0  0  0  0
  -10.6149   -0.9898   10.1982 N   0  0  0  0  0  0  0  0  0  0  0  0
   -7.9584    3.6387   20.9363 N   0  0  0  0  0  0  0  0  0  0  0  0
   -9.0231   -1.5317   13.5450 N   0  0  0  0  0  0  0  0  0  0  0  0
   -9.3624    1.9708   17.1387 N   0  0  0  0  0  0  0  0  0  0  0  0
  -11.2515    0.3843   18.4560 O   0  0  0  0  0  0  0  0  0  0  0  0
  -11.4127   -2.4261   17.9328 O   0  0  0  0  0  0  0  0  0  0  0  0
  -10.8098   -3.1533   15.1491 O   0  0  0  0  0  0  0  0  0  0  0  0
  -14.1227   -2.4636   19.3256 O   0  0  0  0  0  0  0  0  0  0  0  0
  -12.3566   -4.3080   16.8745 O   0  0  0  0  0  0  0  0  0  0  0  0
  -13.2063   -2.3364   15.0159 O   0  0  0  0  0  0  0  0  0  0  0  0
  -14.5836   -5.0395   18.4905 O   0  0  0  0  0  0  0  0  0  0  0  0
   -8.9528   -4.0534   10.7784 O   0  0  0  0  0  0  0  0  0  0  0  0
  -10.8077   -2.8022   12.5247 O   0  0  0  0  0  0  0  0  0  0  0  0
  -14.1201   -7.3744   19.0565 O   0  0  0  0  0  0  0  0  0  0  0  0
   -9.9345    0.5075   20.4467 O   0  0  0  0  0  0  0  0  0  0  0  0
  1 36  1  6  0  0  0
  2 36  1  1  0  0  0
  2  3  1  0  0  0  0
  3 37  1  1  0  0  0
  3  4  1  0  0  0  0
  4 38  1  6  0  0  0
  5 37  1  6  0  0  0
  5  6  1  0  0  0  0
  6  7  1  0  0  0  0
  6 39  1  1  0  0  0
  7 42  1  1  0  0  0
  8  9  1  6  0  0  0
  8  7  1  0  0  0  0
 10 42  1  1  0  0  0
 10 11  1  0  0  0  0
 11 31  1  1  0  0  0
 11 13  1  0  0  0  0
 12 30  1  6  0  0  0
 12  1  1  0  0  0  0
 14 13  1  0  0  0  0
 15 16  1  1  0  0  0
 15 14  1  0  0  0  0
 17 19  1  1  0  0  0
 17 28  1  0  0  0  0
 18 34  1  0  0  0  0
 19 32  1  0  0  0  0
 20 18  1  1  0  0  0
 20 17  1  0  0  0  0
 20 43  1  0  0  0  0
 21 12  1  0  0  0  0
 22 21  1  0  0  0  0
 22 23  1  0  0  0  0
 23 24  1  1  0  0  0
 23 46  1  0  0  0  0
 24 33  1  0  0  0  0
 25 34  1  6  0  0  0
 25  4  1  0  0  0  0
 26 25  1  0  0  0  0
 27 35  1  1  0  0  0
 27 26  1  0  0  0  0
 27  2  1  0  0  0  0
 29 16  1  0  0  0  0
 40  8  1  0  0  0  0
 40  5  1  0  0  0  0
 41  9  1  0  0  0  0
 44 18  2  0  0  0  0
 45 15  1  0  0  0  0
 45 10  1  0  0  0  0
 46  1  1  0  0  0  0
M  END
>  <CHROM.1>
-172.00154929,94.10717292,155.07557978,-64.51390931,-152.85009917,74.81184934
-83.01783613,74.79460136,81.27977228,-73.14457017,-70.01336113,-66.07870916
77.28541223,-11.71748817,-2.55736356,16.79431600,0.30401718,0.97771433,0.94272866

>  <Name>
lig.pdb

>  <RI>
0

>  <Rbt.Current_Directory>
/home/afrankz/demos/rdock_decoys_rna/rnas/3wru

>  <Rbt.Executable>
rbdock ($Id: //depot/dev/client3/rdock/2013.1/src/exe/rbdock.cxx#4 $)

>  <Rbt.Library>
libRbt.so (2013.1, Build901 2013/11/27)

>  <Rbt.Parameter_File>
/export/apps/rDock/src/rDock_2013.1_src/data/scripts/dock_solv.prm

>  <Rbt.Receptor>
prm/blind_docking_100.prm

>  <SCORE>
14.508

>  <SCORE.INTER>
2.87454

>  <SCORE.INTER.CONST>
1

>  <SCORE.INTER.POLAR>
0

>  <SCORE.INTER.ROT>
13

>  <SCORE.INTER.SOLV>
25.5902

>  <SCORE.INTER.VDW>
-18.8804

>  <SCORE.INTER.norm>
0.06249

>  <SCORE.INTRA>
6.21903

>  <SCORE.INTRA.DIHEDRAL>
-2.12063

>  <SCORE.INTRA.DIHEDRAL.0>
19.7146

>  <SCORE.INTRA.POLAR>
0

>  <SCORE.INTRA.POLAR.0>
0

>  <SCORE.INTRA.REPUL>
0

>  <SCORE.INTRA.REPUL.0>
0

>  <SCORE.INTRA.SOLV>
6.20501

>  <SCORE.INTRA.SOLV.lig_0>
-116.697

>  <SCORE.INTRA.VDW>
4.17684

>  <SCORE.INTRA.VDW.0>
-7.06424

>  <SCORE.INTRA.norm>
0.135196

>  <SCORE.RESTR>
5.41441

>  <SCORE.RESTR.CAVITY>
5.41441

>  <SCORE.RESTR.norm>
0.117704

>  <SCORE.SYSTEM>
0

>  <SCORE.SYSTEM.CONST>
0

>  <SCORE.SYSTEM.DIHEDRAL>
0

>  <SCORE.SYSTEM.SOLV>
0

>  <SCORE.SYSTEM.norm>
0

>  <SCORE.heavy>
46

>  <SCORE.norm>
0.315391

>  <RMSD>
29.014

$$$$
lig.pdb
 OpenBabel03061811583D
libRbt.so/2013.1/901 2013/11/27
 46 49  0  0  0  0  0  0  0  0999 V2000
   -8.7748   -1.8328   14.3042 C   0  0  1  0  0  0  0  0  0  0  0  0
   -9.4145    0.5376   14.9203 C   0  0  1  0  0  0  0  0  0  0  0  0
  -10.5250    1.5497   14.5054 C   0  0  1  0  0  0  0  0  0  0  0  0
  -10.5295    2.7764   15.5533 C   0  0  2  0  0  0  0  0  0  0  0  0
  -10.2535    1.3490   11.9907 C   0  0  2  0  0  0  0  0  0  0  0  0
  -11.5086    0.4357   11.8940 C   0  0  1  0  0  0  0  0  0  0  0  0
  -11.6084    0.3780   10.3888 C   0  0  1  0  0  0  0  0  0  0  0  0
  -11.4216    1.8566    9.9218 C   0  0  1  0  0  0  0  0  0  0  0  0
  -12.6869    2.7827    9.9777 C   0  0  0  0  0  0  0  0  0  0  0  0
  -10.7782   -1.2014    8.6859 C   0  0  1  0  0  0  0  0  0  0  0  0
   -9.7296   -2.2025    8.3023 C   0  0  1  0  0  0  0  0  0  0  0  0
   -8.6264   -2.6615   13.0062 C   0  0  1  0  0  0  0  0  0  0  0  0
  -10.1420   -2.8569    6.9363 C   0  0  0  0  0  0  0  0  0  0  0  0
  -10.2660   -1.9365    5.8426 C   0  0  0  0  0  0  0  0  0  0  0  0
  -11.2976   -0.9727    6.1622 C   0  0  2  0  0  0  0  0  0  0  0  0
  -11.4744    0.0766    4.9949 C   0  0  0  0  0  0  0  0  0  0  0  0
   -9.8687    4.0757   21.3034 C   0  0  2  0  0  0  0  0  0  0  0  0
  -10.6282    2.9568   19.3736 C   0  0  0  0  0  0  0  0  0  0  0  0
   -9.8397    5.2069   22.0969 C   0  0  0  0  0  0  0  0  0  0  0  0
  -10.7072    4.2950   20.2603 C   0  0  1  0  0  0  0  0  0  0  0  0
  -10.0526   -3.1057   12.4437 C   0  0  0  0  0  0  0  0  0  0  0  0
  -10.7976   -3.9559   13.5815 C   0  0  0  0  0  0  0  0  0  0  0  0
  -10.9403   -3.0274   14.8751 C   0  0  1  0  0  0  0  0  0  0  0  0
  -11.6338   -3.7590   16.0306 C   0  0  0  0  0  0  0  0  0  0  0  0
  -10.8901    2.1965   16.9901 C   0  0  1  0  0  0  0  0  0  0  0  0
   -9.6936    1.1740   17.3759 C   0  0  0  0  0  0  0  0  0  0  0  0
   -9.6524   -0.0198   16.3457 C   0  0  2  0  0  0  0  0  0  0  0  0
  -10.2465    2.9334   22.1047 F   0  0  0  0  0  0  0  0  0  0  0  0
  -12.0059   -0.5588    3.6781 N   0  0  0  0  0  0  0  0  0  0  0  0
   -7.8516   -1.8359   12.0075 N   0  0  0  0  0  0  0  0  0  0  0  0
   -8.4647   -1.6504    8.0817 N   0  0  0  0  0  0  0  0  0  0  0  0
   -9.0598    5.5350   23.2307 N   0  0  0  0  0  0  0  0  0  0  0  0
  -12.1548   -2.8443   16.9703 N   0  0  0  0  0  0  0  0  0  0  0  0
  -10.9177    3.2905   17.9774 N   0  0  0  0  0  0  0  0  0  0  0  0
   -8.5557   -0.9557   16.6783 N   0  0  0  0  0  0  0  0  0  0  0  0
   -9.4070   -0.5797   14.0411 O   0  0  0  0  0  0  0  0  0  0  0  0
  -10.1888    2.0156   13.1187 O   0  0  0  0  0  0  0  0  0  0  0  0
  -11.5172    3.6543   15.1661 O   0  0  0  0  0  0  0  0  0  0  0  0
  -11.2066   -0.7877   12.4935 O   0  0  0  0  0  0  0  0  0  0  0  0
  -10.3045    2.1695   10.7702 O   0  0  0  0  0  0  0  0  0  0  0  0
  -12.2204    4.1459   10.0231 O   0  0  0  0  0  0  0  0  0  0  0  0
  -10.5070   -0.5175    9.8511 O   0  0  0  0  0  0  0  0  0  0  0  0
  -12.0725    4.5258   20.6715 O   0  0  0  0  0  0  0  0  0  0  0  0
  -10.3488    1.8310   19.8175 O   0  0  0  0  0  0  0  0  0  0  0  0
  -10.9784   -0.2734    7.4625 O   0  0  0  0  0  0  0  0  0  0  0  0
   -9.5647   -2.5792   15.3410 O   0  0  0  0  0  0  0  0  0  0  0  0
  1 36  1  6  0  0  0
  2 36  1  6  0  0  0
  2  3  1  0  0  0  0
  3 37  1  6  0  0  0
  3  4  1  0  0  0  0
  4 38  1  6  0  0  0
  5 37  1  1  0  0  0
  5  6  1  0  0  0  0
  6  7  1  0  0  0  0
  6 39  1  6  0  0  0
  7 42  1  6  0  0  0
  8  9  1  1  0  0  0
  8  7  1  0  0  0  0
 10 42  1  1  0  0  0
 10 11  1  0  0  0  0
 11 31  1  6  0  0  0
 11 13  1  0  0  0  0
 12 30  1  6  0  0  0
 12  1  1  0  0  0  0
 14 13  1  0  0  0  0
 15 16  1  6  0  0  0
 15 14  1  0  0  0  0
 17 19  1  1  0  0  0
 17 28  1  0  0  0  0
 18 34  1  0  0  0  0
 19 32  1  0  0  0  0
 20 18  1  6  0  0  0
 20 17  1  0  0  0  0
 20 43  1  0  0  0  0
 21 12  1  0  0  0  0
 22 21  1  0  0  0  0
 22 23  1  0  0  0  0
 23 24  1  1  0  0  0
 23 46  1  0  0  0  0
 24 33  1  0  0  0  0
 25 34  1  1  0  0  0
 25  4  1  0  0  0  0
 26 25  1  0  0  0  0
 27 35  1  1  0  0  0
 27 26  1  0  0  0  0
 27  2  1  0  0  0  0
 29 16  1  0  0  0  0
 40  8  1  0  0  0  0
 40  5  1  0  0  0  0
 41  9  1  0  0  0  0
 44 18  2  0  0  0  0
 45 15  1  0  0  0  0
 45 10  1  0  0  0  0
 46  1  1  0  0  0  0
M  END
>  <CHROM.1>
-164.25270147,-163.27795856,70.77489982,39.90024501,149.57623461,158.04659252
-172.35442262,65.48120158,-174.46244624,-152.23116349,177.83862801,-160.11421324
-152.96110396,-10.47312645,0.50765206,13.68892142,-1.70664602,-1.33824402
1.12397663

>  <Name>
lig.pdb

>  <RI>
0

>  <Rbt.Current_Directory>
/home/afrankz/demos/rdock_decoys_rna/rnas/3wru

>  <Rbt.Executable>
rbdock ($Id: //depot/dev/client3/rdock/2013.1/src/exe/rbdock.cxx#4 $)

>  <Rbt.Library>
libRbt.so (2013.1, Build901 2013/11/27)

>  <Rbt.Parameter_File>
/export/apps/rDock/src/rDock_2013.1_src/data/scripts/dock_solv.prm

>  <Rbt.Receptor>
prm/blind_docking_60.prm

>  <SCORE>
27.9617

>  <SCORE.INTER>
12.3705

>  <SCORE.INTER.CONST>
1

>  <SCORE.INTER.POLAR>
0

>  <SCORE.INTER.ROT>
13

>  <SCORE.INTER.SOLV>
29.6031

>  <SCORE.INTER.VDW>
-13.8874

>  <SCORE.INTER.norm>
0.268923

>  <SCORE.INTRA>
10.1841

>  <SCORE.INTRA.DIHEDRAL>
-5.64416

>  <SCORE.INTRA.DIHEDRAL.0>
19.7146

>  <SCORE.INTRA.POLAR>
0

>  <SCORE.INTRA.POLAR.0>
0

>  <SCORE.INTRA.REPUL>
0.0237318

>  <SCORE.INTRA.REPUL.0>
0

>  <SCORE.INTRA.SOLV>
3.32422

>  <SCORE.INTRA.SOLV.lig_0>
-116.697

>  <SCORE.INTRA.VDW>
11.2254

>  <SCORE.INTRA.VDW.0>
-7.06424

>  <SCORE.INTRA.norm>
0.221394

>  <SCORE.RESTR>
5.40711

>  <SCORE.RESTR.CAVITY>
5.40711

>  <SCORE.RESTR.norm>
0.117546

>  <SCORE.SYSTEM>
0

>  <SCORE.SYSTEM.CONST>
0

>  <SCORE.SYSTEM.DIHEDRAL>
0

>  <SCORE.SYSTEM.SOLV>
0

>  <SCORE.SYSTEM.norm>
0

>  <SCORE.heavy>
46

>  <SCORE.norm>
0.607863

>  <RMSD>
29.067

$$$$
lig.pdb
 OpenBabel03061811583D
libRbt.so/2013.1/901 2013/11/27
 46 49  0  0  0  0  0  0  0  0999 V2000
   -9.0168    0.7047   12.0579 C   0  0  1  0  0  0  0  0  0  0  0  0
   -9.6718    1.5493   14.3526 C   0  0  1  0  0  0  0  0  0  0  0  0
  -10.9967    2.3571   14.5001 C   0  0  1  0  0  0  0  0  0  0  0  0
  -10.8628    3.3507   15.7642 C   0  0  2  0  0  0  0  0  0  0  0  0
  -11.1398    2.6770   11.9872 C   0  0  2  0  0  0  0  0  0  0  0  0
  -12.2452    1.6274   11.6790 C   0  0  1  0  0  0  0  0  0  0  0  0
  -12.3253    1.8418   10.1868 C   0  0  1  0  0  0  0  0  0  0  0  0
  -12.3561    3.3932   10.0098 C   0  0  1  0  0  0  0  0  0  0  0  0
  -13.7448    4.0999   10.1933 C   0  0  0  0  0  0  0  0  0  0  0  0
  -11.1296    1.1080    8.1581 C   0  0  1  0  0  0  0  0  0  0  0  0
  -11.8175   -0.1309    7.6676 C   0  0  1  0  0  0  0  0  0  0  0  0
   -8.1384   -0.5553   11.8736 C   0  0  1  0  0  0  0  0  0  0  0  0
  -11.7236   -0.1656    6.1010 C   0  0  0  0  0  0  0  0  0  0  0  0
  -10.3871   -0.1914    5.5798 C   0  0  0  0  0  0  0  0  0  0  0  0
   -9.7005    1.0102    6.0042 C   0  0  2  0  0  0  0  0  0  0  0  0
   -8.2155    1.0345    5.4666 C   0  0  0  0  0  0  0  0  0  0  0  0
   -8.5684    4.1527   20.8310 C   0  0  2  0  0  0  0  0  0  0  0  0
   -9.8975    2.7891   19.4428 C   0  0  0  0  0  0  0  0  0  0  0  0
   -8.4629    5.2168   21.7066 C   0  0  0  0  0  0  0  0  0  0  0  0
   -9.8816    3.9096   20.5949 C   0  0  1  0  0  0  0  0  0  0  0  0
   -6.9938   -0.6235   12.9840 C   0  0  0  0  0  0  0  0  0  0  0  0
   -6.1092    0.7098   12.8746 C   0  0  0  0  0  0  0  0  0  0  0  0
   -7.0762    1.9619   13.1048 C   0  0  1  0  0  0  0  0  0  0  0  0
   -6.3216    3.2931   13.0067 C   0  0  0  0  0  0  0  0  0  0  0  0
  -10.6675    2.4637   17.0702 C   0  0  1  0  0  0  0  0  0  0  0  0
   -9.2693    1.6694   16.8698 C   0  0  0  0  0  0  0  0  0  0  0  0
   -9.3682    0.7122   15.6200 C   0  0  2  0  0  0  0  0  0  0  0  0
   -7.8684    3.0101   21.3732 F   0  0  0  0  0  0  0  0  0  0  0  0
   -7.3997   -0.2275    5.8693 N   0  0  0  0  0  0  0  0  0  0  0  0
   -9.0398   -1.7659   11.9088 N   0  0  0  0  0  0  0  0  0  0  0  0
  -11.2284   -1.3222    8.1005 N   0  0  0  0  0  0  0  0  0  0  0  0
   -8.8454    5.3554   23.0615 N   0  0  0  0  0  0  0  0  0  0  0  0
   -7.2162    4.3733   12.8522 N   0  0  0  0  0  0  0  0  0  0  0  0
  -10.5540    3.3355   18.2532 N   0  0  0  0  0  0  0  0  0  0  0  0
   -8.0934   -0.0109   15.4170 N   0  0  0  0  0  0  0  0  0  0  0  0
   -9.7671    0.6318   13.2707 O   0  0  0  0  0  0  0  0  0  0  0  0
  -11.1820    3.1204   13.2211 O   0  0  0  0  0  0  0  0  0  0  0  0
  -12.0434    4.0510   15.8732 O   0  0  0  0  0  0  0  0  0  0  0  0
  -11.7697    0.3692   12.0504 O   0  0  0  0  0  0  0  0  0  0  0  0
  -11.3033    3.6975   10.9397 O   0  0  0  0  0  0  0  0  0  0  0  0
  -14.0854    4.0220   11.5919 O   0  0  0  0  0  0  0  0  0  0  0  0
  -11.0999    1.2322    9.5301 O   0  0  0  0  0  0  0  0  0  0  0  0
  -10.5839    3.4205   21.7585 O   0  0  0  0  0  0  0  0  0  0  0  0
   -9.4110    1.6520   19.5568 O   0  0  0  0  0  0  0  0  0  0  0  0
   -9.7233    1.1240    7.5102 O   0  0  0  0  0  0  0  0  0  0  0  0
   -8.1839    1.9546   12.0641 O   0  0  0  0  0  0  0  0  0  0  0  0
  1 36  1  1  0  0  0
  2 36  1  6  0  0  0
  2  3  1  0  0  0  0
  3 37  1  6  0  0  0
  3  4  1  0  0  0  0
  4 38  1  1  0  0  0
  5 37  1  1  0  0  0
  5  6  1  0  0  0  0
  6  7  1  0  0  0  0
  6 39  1  6  0  0  0
  7 42  1  6  0  0  0
  8  9  1  1  0  0  0
  8  7  1  0  0  0  0
 10 42  1  1  0  0  0
 10 11  1  0  0  0  0
 11 31  1  1  0  0  0
 11 13  1  0  0  0  0
 12 30  1  1  0  0  0
 12  1  1  0  0  0  0
 14 13  1  0  0  0  0
 15 16  1  1  0  0  0
 15 14  1  0  0  0  0
 17 19  1  1  0  0  0
 17 28  1  0  0  0  0
 18 34  1  0  0  0  0
 19 32  1  0  0  0  0
 20 18  1  6  0  0  0
 20 17  1  0  0  0  0
 20 43  1  0  0  0  0
 21 12  1  0  0  0  0
 22 21  1  0  0  0  0
 22 23  1  0  0  0  0
 23 24  1  6  0  0  0
 23 46  1  0  0  0  0
 24 33  1  0  0  0  0
 25 34  1  1  0  0  0
 25  4  1  0  0  0  0
 26 25  1  0  0  0  0
 27 35  1  6  0  0  0
 27 26  1  0  0  0  0
 27  2  1  0  0  0  0
 29 16  1  0  0  0  0
 40  8  1  0  0  0  0
 40  5  1  0  0  0  0
 41  9  1  0  0  0  0
 44 18  2  0  0  0  0
 45 15  1  0  0  0  0
 45 10  1  0  0  0  0
 46  1  1  0  0  0  0
M  END
>  <CHROM.1>
119.16440391,112.98300442,50.85461203,62.48230809,167.91164028,69.82137875
-84.27283472,-55.22472816,65.83106579,-117.67248866,173.33983824,164.22520253
-158.04631454,-9.90730299,1.93194075,13.31177266,-1.66412944,-0.45492117
1.30749261

>  <Name>
lig.pdb

>  <RI>
0

>  <Rbt.Current_Directory>
/home/afrankz/demos/rdock_decoys_rna/rnas/3wru

>  <Rbt.Executable>
rbdock ($Id: //depot/dev/client3/rdock/2013.1/src/exe/rbdock.cxx#4 $)

>  <Rbt.Library>
libRbt.so (2013.1, Build901 2013/11/27)

>  <Rbt.Parameter_File>
/export/apps/rDock/src/rDock_2013.1_src/data/scripts/dock_solv.prm

>  <Rbt.Receptor>
prm/blind_docking_60.prm

>  <SCORE>
14.8544

>  <SCORE.INTER>
1.39864

>  <SCORE.INTER.CONST>
1

>  <SCORE.INTER.POLAR>
0

>  <SCORE.INTER.ROT>
13

>  <SCORE.INTER.SOLV>
32.2269

>  <SCORE.INTER.VDW>
-22.0765

>  <SCORE.INTER.norm>
0.0304052

>  <SCORE.INTRA>
9.75655

>  <SCORE.INTRA.DIHEDRAL>
2.57678

>  <SCORE.INTRA.DIHEDRAL.0>
19.7146

>  <SCORE.INTRA.POLAR>
0

>  <SCORE.INTRA.POLAR.0>
0

>  <SCORE.INTRA.REPUL>
0

>  <SCORE.INTRA.REPUL.0>
0

>  <SCORE.INTRA.SOLV>
5.77691

>  <SCORE.INTRA.SOLV.lig_0>
-116.697

>  <SCORE.INTRA.VDW>
5.5797

>  <SCORE.INTRA.VDW.0>
-7.06424

>  <SCORE.INTRA.norm>
0.212099

>  <SCORE.RESTR>
3.69918

>  <SCORE.RESTR.CAVITY>
3.69918

>  <SCORE.RESTR.norm>
0.080417

>  <SCORE.SYSTEM>
0

>  <SCORE.SYSTEM.CONST>
0

>  <SCORE.SYSTEM.DIHEDRAL>
0

>  <SCORE.SYSTEM.SOLV>
0

>  <SCORE.SYSTEM.norm>
0

>  <SCORE.heavy>
46

>  <SCORE.norm>
0.322921

>  <RMSD>
29.096

$$$$
lig.pdb
 OpenBabel03061811583D
libRbt.so/2013.1/901 2013/11/27
 46 49  0  0  0  0  0  0  0  0999 V2000
  -10.2971    2.3299   18.1582 C   0  0  1  0  0  0  0  0  0  0  0  0
  -10.1564    0.6263   16.2912 C   0  0  1  0  0  0  0  0  0  0  0  0
  -11.2909   -0.3248   15.8033 C   0  0  1  0  0  0  0  0  0  0  0  0
  -10.6238   -1.6004   15.0748 C   0  0  2  0  0  0  0  0  0  0  0  0
  -12.9513   -1.6934   17.1477 C   0  0  2  0  0  0  0  0  0  0  0  0
  -12.4548   -2.8673   18.0389 C   0  0  1  0  0  0  0  0  0  0  0  0
  -13.8049   -3.3800   18.4787 C   0  0  1  0  0  0  0  0  0  0  0  0
  -14.6033   -2.0998   18.8821 C   0  0  1  0  0  0  0  0  0  0  0  0
  -14.3444   -1.5267   20.3196 C   0  0  0  0  0  0  0  0  0  0  0  0
  -15.2533   -5.1885   17.6331 C   0  0  1  0  0  0  0  0  0  0  0  0
  -14.6421   -6.1232   18.6339 C   0  0  1  0  0  0  0  0  0  0  0  0
  -10.8265    1.4754   19.3341 C   0  0  1  0  0  0  0  0  0  0  0  0
  -15.6208   -7.3317   18.8489 C   0  0  0  0  0  0  0  0  0  0  0  0
  -15.8957   -8.0994   17.6684 C   0  0  0  0  0  0  0  0  0  0  0  0
  -16.5208   -7.2362   16.6890 C   0  0  2  0  0  0  0  0  0  0  0  0
  -16.8401   -8.0260   15.3588 C   0  0  0  0  0  0  0  0  0  0  0  0
   -8.3524   -3.3395    9.8243 C   0  0  2  0  0  0  0  0  0  0  0  0
   -9.4415   -2.3374   11.6580 C   0  0  0  0  0  0  0  0  0  0  0  0
   -7.6464   -4.3979    9.2845 C   0  0  0  0  0  0  0  0  0  0  0  0
   -8.6743   -3.6380   11.1075 C   0  0  1  0  0  0  0  0  0  0  0  0
  -12.4179    1.5538   19.4286 C   0  0  0  0  0  0  0  0  0  0  0  0
  -12.8342    3.0922   19.6085 C   0  0  0  0  0  0  0  0  0  0  0  0
  -12.2807    3.9023   18.3463 C   0  0  1  0  0  0  0  0  0  0  0  0
  -12.6193    5.3954   18.4315 C   0  0  0  0  0  0  0  0  0  0  0  0
   -9.8237   -1.0791   13.8024 C   0  0  1  0  0  0  0  0  0  0  0  0
   -8.6488   -0.1192   14.3718 C   0  0  0  0  0  0  0  0  0  0  0  0
   -9.2795    1.1213   15.1143 C   0  0  2  0  0  0  0  0  0  0  0  0
   -9.5065   -3.0586    9.0004 F   0  0  0  0  0  0  0  0  0  0  0  0
  -17.9156   -9.1337   15.5497 N   0  0  0  0  0  0  0  0  0  0  0  0
  -10.3356    0.0602   19.1450 N   0  0  0  0  0  0  0  0  0  0  0  0
  -13.4345   -6.6934   18.2216 N   0  0  0  0  0  0  0  0  0  0  0  0
   -8.0800   -5.6100    8.6978 N   0  0  0  0  0  0  0  0  0  0  0  0
  -12.1441    5.9555   19.6363 N   0  0  0  0  0  0  0  0  0  0  0  0
   -9.2079   -2.2185   13.0988 N   0  0  0  0  0  0  0  0  0  0  0  0
   -8.2175    2.0008   15.6509 N   0  0  0  0  0  0  0  0  0  0  0  0
  -10.7082    1.7844   16.9042 O   0  0  0  0  0  0  0  0  0  0  0  0
  -12.0658   -0.7337   17.0220 O   0  0  0  0  0  0  0  0  0  0  0  0
  -11.6444   -2.4231   14.6535 O   0  0  0  0  0  0  0  0  0  0  0  0
  -11.7410   -3.7561   17.2341 O   0  0  0  0  0  0  0  0  0  0  0  0
  -14.2355   -1.2979   17.7474 O   0  0  0  0  0  0  0  0  0  0  0  0
  -14.4126   -2.6323   21.2420 O   0  0  0  0  0  0  0  0  0  0  0  0
  -14.4645   -4.1033   17.3185 O   0  0  0  0  0  0  0  0  0  0  0  0
   -9.5335   -4.7935   11.2204 O   0  0  0  0  0  0  0  0  0  0  0  0
  -10.1083   -1.5604   10.9550 O   0  0  0  0  0  0  0  0  0  0  0  0
  -15.6395   -6.0436   16.4013 O   0  0  0  0  0  0  0  0  0  0  0  0
  -10.7707    3.7516   18.2601 O   0  0  0  0  0  0  0  0  0  0  0  0
  1 36  1  6  0  0  0
  2 36  1  6  0  0  0
  2  3  1  0  0  0  0
  3 37  1  1  0  0  0
  3  4  1  0  0  0  0
  4 38  1  6  0  0  0
  5 37  1  1  0  0  0
  5  6  1  0  0  0  0
  6  7  1  0  0  0  0
  6 39  1  6  0  0  0
  7 42  1  6  0  0  0
  8  9  1  1  0  0  0
  8  7  1  0  0  0  0
 10 42  1  6  0  0  0
 10 11  1  0  0  0  0
 11 31  1  6  0  0  0
 11 13  1  0  0  0  0
 12 30  1  6  0  0  0
 12  1  1  0  0  0  0
 14 13  1  0  0  0  0
 15 16  1  6  0  0  0
 15 14  1  0  0  0  0
 17 19  1  6  0  0  0
 17 28  1  0  0  0  0
 18 34  1  0  0  0  0
 19 32  1  0  0  0  0
 20 18  1  6  0  0  0
 20 17  1  0  0  0  0
 20 43  1  0  0  0  0
 21 12  1  0  0  0  0
 22 21  1  0  0  0  0
 22 23  1  0  0  0  0
 23 24  1  1  0  0  0
 23 46  1  0  0  0  0
 24 33  1  0  0  0  0
 25 34  1  1  0  0  0
 25  4  1  0  0  0  0
 26 25  1  0  0  0  0
 27 35  1  1  0  0  0
 27 26  1  0  0  0  0
 27  2  1  0  0  0  0
 29 16  1  0  0  0  0
 40  8  1  0  0  0  0
 40  5  1  0  0  0  0
 41  9  1  0  0  0  0
 44 18  2  0  0  0  0
 45 15  1  0  0  0  0
 45 10  1  0  0  0  0
 46  1  1  0  0  0  0
M  END
>  <CHROM.1>
-75.06796854,132.39546724,-166.86784006,111.32864030,145.86472021,-47.62721266
-45.16682451,65.94851730,83.35929325,-149.98924576,178.12457128,55.48719289
128.85391024,-12.00912089,-2.00141943,16.07313617,-1.29563614,-0.84432682
-2.49801107

>  <Name>
lig.pdb

>  <RI>
0

>  <Rbt.Current_Directory>
/home/afrankz/demos/rdock_decoys_rna/rnas/3wru

>  <Rbt.Executable>
rbdock ($Id: //depot/dev/client3/rdock/2013.1/src/exe/rbdock.cxx#4 $)

>  <Rbt.Library>
libRbt.so (2013.1, Build901 2013/11/27)

>  <Rbt.Parameter_File>
/export/apps/rDock/src/rDock_2013.1_src/data/scripts/dock_solv.prm

>  <Rbt.Receptor>
prm/blind_docking_100.prm

>  <SCORE>
29.1187

>  <SCORE.INTER>
16.6125

>  <SCORE.INTER.CONST>
1

>  <SCORE.INTER.POLAR>
0

>  <SCORE.INTER.ROT>
13

>  <SCORE.INTER.SOLV>
41.0963

>  <SCORE.INTER.VDW>
-14.8905

>  <SCORE.INTER.norm>
0.36114

>  <SCORE.INTRA>
7.27373

>  <SCORE.INTRA.DIHEDRAL>
6.19029

>  <SCORE.INTRA.DIHEDRAL.0>
19.7146

>  <SCORE.INTRA.POLAR>
0

>  <SCORE.INTRA.POLAR.0>
0

>  <SCORE.INTRA.REPUL>
0.0114481

>  <SCORE.INTRA.REPUL.0>
0

>  <SCORE.INTRA.SOLV>
3.84639

>  <SCORE.INTRA.SOLV.lig_0>
-116.697

>  <SCORE.INTRA.VDW>
2.19815

>  <SCORE.INTRA.VDW.0>
-7.06424

>  <SCORE.INTRA.norm>
0.158125

>  <SCORE.RESTR>
5.23248

>  <SCORE.RESTR.CAVITY>
5.23248

>  <SCORE.RESTR.norm>
0.11375

>  <SCORE.SYSTEM>
0

>  <SCORE.SYSTEM.CONST>
0

>  <SCORE.SYSTEM.DIHEDRAL>
0

>  <SCORE.SYSTEM.SOLV>
0

>  <SCORE.SYSTEM.norm>
0

>  <SCORE.heavy>
46

>  <SCORE.norm>
0.633015

>  <RMSD>
29.153

$$$$
lig.pdb
 OpenBabel03061811583D
libRbt.so/2013.1/901 2013/11/27
 46 49  0  0  0  0  0  0  0  0999 V2000
  -10.9230    1.0501   19.6048 C   0  0  1  0  0  0  0  0  0  0  0  0
  -10.6043   -0.4949   17.6250 C   0  0  1  0  0  0  0  0  0  0  0  0
   -9.4876   -0.5783   16.5407 C   0  0  1  0  0  0  0  0  0  0  0  0
  -10.0479   -1.4138   15.2794 C   0  0  2  0  0  0  0  0  0  0  0  0
   -9.6571    1.5634   15.1907 C   0  0  2  0  0  0  0  0  0  0  0  0
   -9.0170    2.9777   15.0977 C   0  0  1  0  0  0  0  0  0  0  0  0
   -9.2994    3.2381   13.6378 C   0  0  1  0  0  0  0  0  0  0  0  0
   -8.8904    1.9167   12.9126 C   0  0  1  0  0  0  0  0  0  0  0  0
   -7.3664    1.7268   12.5918 C   0  0  0  0  0  0  0  0  0  0  0  0
  -11.2531    3.5681   12.1689 C   0  0  1  0  0  0  0  0  0  0  0  0
  -12.6778    4.0207   12.0495 C   0  0  1  0  0  0  0  0  0  0  0  0
  -10.6927    2.5395   19.2555 C   0  0  1  0  0  0  0  0  0  0  0  0
  -13.0961    3.9549   10.5378 C   0  0  0  0  0  0  0  0  0  0  0  0
  -13.0183    2.6486    9.9494 C   0  0  0  0  0  0  0  0  0  0  0  0
  -11.6464    2.1917   10.0143 C   0  0  2  0  0  0  0  0  0  0  0  0
  -11.4989    0.7494    9.3875 C   0  0  0  0  0  0  0  0  0  0  0  0
  -10.2078   -4.4949   11.2930 C   0  0  2  0  0  0  0  0  0  0  0  0
   -9.9334   -4.0623   13.5931 C   0  0  0  0  0  0  0  0  0  0  0  0
  -10.6879   -3.2204   11.0580 C   0  0  0  0  0  0  0  0  0  0  0  0
  -10.6967   -4.9342   12.4793 C   0  0  1  0  0  0  0  0  0  0  0  0
   -9.2045    2.9894   19.6170 C   0  0  0  0  0  0  0  0  0  0  0  0
   -8.9675    2.7269   21.1814 C   0  0  0  0  0  0  0  0  0  0  0  0
   -9.1931    1.1686   21.4582 C   0  0  1  0  0  0  0  0  0  0  0  0
   -9.0000    0.8167   22.9382 C   0  0  0  0  0  0  0  0  0  0  0  0
  -10.3795   -2.8892   15.7732 C   0  0  1  0  0  0  0  0  0  0  0  0
  -11.5574   -2.7406   16.8760 C   0  0  0  0  0  0  0  0  0  0  0  0
  -11.0397   -1.9010   18.1069 C   0  0  2  0  0  0  0  0  0  0  0  0
   -8.7631   -4.4832   11.2440 F   0  0  0  0  0  0  0  0  0  0  0  0
  -10.0290    0.2401    9.3667 N   0  0  0  0  0  0  0  0  0  0  0  0
  -11.0070    2.7330   17.7916 N   0  0  0  0  0  0  0  0  0  0  0  0
  -13.5947    3.2090   12.7232 N   0  0  0  0  0  0  0  0  0  0  0  0
  -12.0075   -2.7147   10.9923 N   0  0  0  0  0  0  0  0  0  0  0  0
   -8.0695    1.6842   23.5488 N   0  0  0  0  0  0  0  0  0  0  0  0
  -10.8833   -3.6919   14.6443 N   0  0  0  0  0  0  0  0  0  0  0  0
  -12.1095   -1.7462   19.1173 N   0  0  0  0  0  0  0  0  0  0  0  0
  -10.1327    0.2015   18.7713 O   0  0  0  0  0  0  0  0  0  0  0  0
   -9.1520    0.8334   16.1566 O   0  0  0  0  0  0  0  0  0  0  0  0
   -9.0448   -1.4735   14.3379 O   0  0  0  0  0  0  0  0  0  0  0  0
   -9.6995    3.8253   15.9713 O   0  0  0  0  0  0  0  0  0  0  0  0
   -9.5155    1.0089   13.8351 O   0  0  0  0  0  0  0  0  0  0  0  0
   -6.9906    2.7618   11.6614 O   0  0  0  0  0  0  0  0  0  0  0  0
  -10.7779    3.5335   13.4619 O   0  0  0  0  0  0  0  0  0  0  0  0
  -12.1229   -4.7455   12.6075 O   0  0  0  0  0  0  0  0  0  0  0  0
   -8.7260   -3.7729   13.5582 O   0  0  0  0  0  0  0  0  0  0  0  0
  -11.1557    2.2038   11.4429 O   0  0  0  0  0  0  0  0  0  0  0  0
  -10.6006    0.7710   21.0449 O   0  0  0  0  0  0  0  0  0  0  0  0
  1 36  1  6  0  0  0
  2 36  1  1  0  0  0
  2  3  1  0  0  0  0
  3 37  1  6  0  0  0
  3  4  1  0  0  0  0
  4 38  1  6  0  0  0
  5 37  1  1  0  0  0
  5  6  1  0  0  0  0
  6  7  1  0  0  0  0
  6 39  1  1  0  0  0
  7 42  1  1  0  0  0
  8  9  1  1  0  0  0
  8  7  1  0  0  0  0
 10 42  1  1  0  0  0
 10 11  1  0  0  0  0
 11 31  1  1  0  0  0
 11 13  1  0  0  0  0
 12 30  1  6  0  0  0
 12  1  1  0  0  0  0
 14 13  1  0  0  0  0
 15 16  1  1  0  0  0
 15 14  1  0  0  0  0
 17 19  1  1  0  0  0
 17 28  1  0  0  0  0
 18 34  1  0  0  0  0
 19 32  1  0  0  0  0
 20 18  1  1  0  0  0
 20 17  1  0  0  0  0
 20 43  1  0  0  0  0
 21 12  1  0  0  0  0
 22 21  1  0  0  0  0
 22 23  1  0  0  0  0
 23 24  1  1  0  0  0
 23 46  1  0  0  0  0
 24 33  1  0  0  0  0
 25 34  1  6  0  0  0
 25  4  1  0  0  0  0
 26 25  1  0  0  0  0
 27 35  1  1  0  0  0
 27 26  1  0  0  0  0
 27  2  1  0  0  0  0
 29 16  1  0  0  0  0
 40  8  1  0  0  0  0
 40  5  1  0  0  0  0
 41  9  1  0  0  0  0
 44 18  2  0  0  0  0
 45 15  1  0  0  0  0
 45 10  1  0  0  0  0
 46  1  1  0  0  0  0
M  END
>  <CHROM.1>
-99.97508440,145.78498216,-92.03065238,-178.70672468,-169.18274441,-63.92480937
-173.19701331,177.08260801,-56.38133453,139.59181161,-70.78434374,-29.77194515
70.26810251,-10.28549298,0.27241485,14.93140525,0.44795852,-1.44110300,0.27222851

>  <Name>
lig.pdb

>  <RI>
0

>  <Rbt.Current_Directory>
/home/afrankz/demos/rdock_decoys_rna/rnas/3wru

>  <Rbt.Executable>
rbdock ($Id: //depot/dev/client3/rdock/2013.1/src/exe/rbdock.cxx#4 $)

>  <Rbt.Library>
libRbt.so (2013.1, Build901 2013/11/27)

>  <Rbt.Parameter_File>
/export/apps/rDock/src/rDock_2013.1_src/data/scripts/dock_solv.prm

>  <Rbt.Receptor>
prm/blind_docking_60.prm

>  <SCORE>
10.1789

>  <SCORE.INTER>
-5.05093

>  <SCORE.INTER.CONST>
1

>  <SCORE.INTER.POLAR>
0

>  <SCORE.INTER.ROT>
13

>  <SCORE.INTER.SOLV>
28.346

>  <SCORE.INTER.VDW>
-25.0826

>  <SCORE.INTER.norm>
-0.109803

>  <SCORE.INTRA>
11.8407

>  <SCORE.INTRA.DIHEDRAL>
0.381139

>  <SCORE.INTRA.DIHEDRAL.0>
19.7146

>  <SCORE.INTRA.POLAR>
0

>  <SCORE.INTRA.POLAR.0>
0

>  <SCORE.INTRA.REPUL>
0.0261966

>  <SCORE.INTRA.REPUL.0>
0

>  <SCORE.INTRA.SOLV>
7.73943

>  <SCORE.INTRA.SOLV.lig_0>
-116.697

>  <SCORE.INTRA.VDW>
7.64938

>  <SCORE.INTRA.VDW.0>
-7.06424

>  <SCORE.INTRA.norm>
0.257405

>  <SCORE.RESTR>
3.38917

>  <SCORE.RESTR.CAVITY>
3.38917

>  <SCORE.RESTR.norm>
0.0736777

>  <SCORE.SYSTEM>
0

>  <SCORE.SYSTEM.CONST>
0

>  <SCORE.SYSTEM.DIHEDRAL>
0

>  <SCORE.SYSTEM.SOLV>
0

>  <SCORE.SYSTEM.norm>
0

>  <SCORE.heavy>
46

>  <SCORE.norm>
0.22128

>  <RMSD>
29.208

$$$$
lig.pdb
 OpenBabel03061811583D
libRbt.so/2013.1/901 2013/11/27
 46 49  0  0  0  0  0  0  0  0999 V2000
   -9.0636    0.8124   11.9716 C   0  0  1  0  0  0  0  0  0  0  0  0
   -9.7177    1.6244   14.2783 C   0  0  1  0  0  0  0  0  0  0  0  0
  -11.0272    2.4562   14.4303 C   0  0  1  0  0  0  0  0  0  0  0  0
  -10.8840    3.4230   15.7139 C   0  0  2  0  0  0  0  0  0  0  0  0
  -11.3016    2.8103   11.9328 C   0  0  2  0  0  0  0  0  0  0  0  0
  -12.4554    1.7825   11.7567 C   0  0  1  0  0  0  0  0  0  0  0  0
  -12.7112    2.0071   10.2860 C   0  0  1  0  0  0  0  0  0  0  0  0
  -12.7345    3.5598   10.1198 C   0  0  1  0  0  0  0  0  0  0  0  0
  -14.0776    4.2903   10.4726 C   0  0  0  0  0  0  0  0  0  0  0  0
  -11.9154    0.8732    8.2452 C   0  0  1  0  0  0  0  0  0  0  0  0
  -12.4043   -0.5442    8.2708 C   0  0  1  0  0  0  0  0  0  0  0  0
   -8.1733   -0.4396   11.7902 C   0  0  1  0  0  0  0  0  0  0  0  0
  -12.6841   -1.0011    6.7952 C   0  0  0  0  0  0  0  0  0  0  0  0
  -11.5414   -0.9651    5.9283 C   0  0  0  0  0  0  0  0  0  0  0  0
  -11.0613    0.3982    5.8502 C   0  0  2  0  0  0  0  0  0  0  0  0
   -9.7935    0.5000    4.9136 C   0  0  0  0  0  0  0  0  0  0  0  0
   -9.2196    3.3151   21.5378 C   0  0  2  0  0  0  0  0  0  0  0  0
  -10.1058    2.7292   19.4344 C   0  0  0  0  0  0  0  0  0  0  0  0
   -8.7793    4.3367   22.3579 C   0  0  0  0  0  0  0  0  0  0  0  0
  -10.0496    3.8348   20.5996 C   0  0  1  0  0  0  0  0  0  0  0  0
   -7.0366   -0.5016   12.9091 C   0  0  0  0  0  0  0  0  0  0  0  0
   -6.1624    0.8395   12.8103 C   0  0  0  0  0  0  0  0  0  0  0  0
   -7.1417    2.0827   13.0368 C   0  0  1  0  0  0  0  0  0  0  0  0
   -6.3975    3.4206   12.9484 C   0  0  0  0  0  0  0  0  0  0  0  0
  -10.7178    2.5079   17.0045 C   0  0  1  0  0  0  0  0  0  0  0  0
   -9.3343    1.6891   16.8005 C   0  0  0  0  0  0  0  0  0  0  0  0
   -9.4420    0.7578   15.5320 C   0  0  2  0  0  0  0  0  0  0  0  0
   -9.8431    2.2867   22.3399 F   0  0  0  0  0  0  0  0  0  0  0  0
   -8.5152   -0.1209    5.5467 N   0  0  0  0  0  0  0  0  0  0  0  0
   -9.0647   -1.6579   11.8150 N   0  0  0  0  0  0  0  0  0  0  0  0
  -11.4762   -1.4609    8.7727 N   0  0  0  0  0  0  0  0  0  0  0  0
   -8.0404    5.5099   22.0770 N   0  0  0  0  0  0  0  0  0  0  0  0
   -5.1620    3.3598   13.6273 N   0  0  0  0  0  0  0  0  0  0  0  0
  -10.5967    3.3548   18.2047 N   0  0  0  0  0  0  0  0  0  0  0  0
   -8.1804    0.0127   15.3257 N   0  0  0  0  0  0  0  0  0  0  0  0
   -9.8225    0.7295   13.1785 O   0  0  0  0  0  0  0  0  0  0  0  0
  -11.1861    3.2471   13.1645 O   0  0  0  0  0  0  0  0  0  0  0  0
  -12.0510    4.1451   15.8266 O   0  0  0  0  0  0  0  0  0  0  0  0
  -11.9618    0.5138   12.0633 O   0  0  0  0  0  0  0  0  0  0  0  0
  -11.5716    3.8397   10.9167 O   0  0  0  0  0  0  0  0  0  0  0  0
  -15.1224    3.6658    9.7002 O   0  0  0  0  0  0  0  0  0  0  0  0
  -11.5857    1.3795    9.4837 O   0  0  0  0  0  0  0  0  0  0  0  0
  -11.3820    4.0831   21.0989 O   0  0  0  0  0  0  0  0  0  0  0  0
   -9.7674    1.5420   19.5705 O   0  0  0  0  0  0  0  0  0  0  0  0
  -10.7465    0.9242    7.2308 O   0  0  0  0  0  0  0  0  0  0  0  0
   -8.2414    2.0692   11.9878 O   0  0  0  0  0  0  0  0  0  0  0  0
  1 36  1  1  0  0  0
  2 36  1  6  0  0  0
  2  3  1  0  0  0  0
  3 37  1  6  0  0  0
  3  4  1  0  0  0  0
  4 38  1  1  0  0  0
  5 37  1  1  0  0  0
  5  6  1  0  0  0  0
  6  7  1  0  0  0  0
  6 39  1  6  0  0  0
  7 42  1  6  0  0  0
  8  9  1  1  0  0  0
  8  7  1  0  0  0  0
 10 42  1  1  0  0  0
 10 11  1  0  0  0  0
 11 31  1  6  0  0  0
 11 13  1  0  0  0  0
 12 30  1  1  0  0  0
 12  1  1  0  0  0  0
 14 13  1  0  0  0  0
 15 16  1  6  0  0  0
 15 14  1  0  0  0  0
 17 19  1  1  0  0  0
 17 28  1  0  0  0  0
 18 34  1  0  0  0  0
 19 32  1  0  0  0  0
 20 18  1  6  0  0  0
 20 17  1  0  0  0  0
 20 43  1  0  0  0  0
 21 12  1  0  0  0  0
 22 21  1  0  0  0  0
 22 23  1  0  0  0  0
 23 24  1  6  0  0  0
 23 46  1  0  0  0  0
 24 33  1  0  0  0  0
 25 34  1  1  0  0  0
 25  4  1  0  0  0  0
 26 25  1  0  0  0  0
 27 35  1  6  0  0  0
 27 26  1  0  0  0  0
 27  2  1  0  0  0  0
 29 16  1  0  0  0  0
 40  8  1  0  0  0  0
 40  5  1  0  0  0  0
 41  9  1  0  0  0  0
 44 18  2  0  0  0  0
 45 15  1  0  0  0  0
 45 10  1  0  0  0  0
 46  1  1  0  0  0  0
M  END
>  <CHROM.1>
117.41615681,112.76553162,59.83551638,54.27088387,147.80469646,-54.25031402
-86.88639005,-71.93897847,-60.58190329,-161.38862224,161.34711846,-42.74300774
-165.01223577,-10.24420088,1.84536404,13.30328876,-1.71125839,-0.38515932
1.29949543

>  <Name>
lig.pdb

>  <RI>
0

>  <Rbt.Current_Directory>
/home/afrankz/demos/rdock_decoys_rna/rnas/3wru

>  <Rbt.Executable>
rbdock ($Id: //depot/dev/client3/rdock/2013.1/src/exe/rbdock.cxx#4 $)

>  <Rbt.Library>
libRbt.so (2013.1, Build901 2013/11/27)

>  <Rbt.Parameter_File>
/export/apps/rDock/src/rDock_2013.1_src/data/scripts/dock_solv.prm

>  <Rbt.Receptor>
prm/blind_docking_60.prm

>  <SCORE>
13.4103

>  <SCORE.INTER>
-0.000500956

>  <SCORE.INTER.CONST>
1

>  <SCORE.INTER.POLAR>
0

>  <SCORE.INTER.ROT>
13

>  <SCORE.INTER.SOLV>
31.6683

>  <SCORE.INTER.VDW>
-22.8231

>  <SCORE.INTER.norm>
-1.08903e-05

>  <SCORE.INTRA>
9.60518

>  <SCORE.INTRA.DIHEDRAL>
5.64861

>  <SCORE.INTRA.DIHEDRAL.0>
19.7146

>  <SCORE.INTRA.POLAR>
0

>  <SCORE.INTRA.POLAR.0>
0

>  <SCORE.INTRA.REPUL>
0

>  <SCORE.INTRA.REPUL.0>
0

>  <SCORE.INTRA.SOLV>
4.15403

>  <SCORE.INTRA.SOLV.lig_0>
-116.697

>  <SCORE.INTRA.VDW>
4.70386

>  <SCORE.INTRA.VDW.0>
-7.06424

>  <SCORE.INTRA.norm>
0.208808

>  <SCORE.RESTR>
3.80565

>  <SCORE.RESTR.CAVITY>
3.80565

>  <SCORE.RESTR.norm>
0.0827315

>  <SCORE.SYSTEM>
0

>  <SCORE.SYSTEM.CONST>
0

>  <SCORE.SYSTEM.DIHEDRAL>
0

>  <SCORE.SYSTEM.SOLV>
0

>  <SCORE.SYSTEM.norm>
0

>  <SCORE.heavy>
46

>  <SCORE.norm>
0.291529

>  <RMSD>
29.278

$$$$
lig.pdb
 OpenBabel03061811583D
libRbt.so/2013.1/901 2013/11/27
 46 49  0  0  0  0  0  0  0  0999 V2000
   -9.0853   -0.5391   12.7967 C   0  0  1  0  0  0  0  0  0  0  0  0
   -9.4542    0.1817   15.1951 C   0  0  1  0  0  0  0  0  0  0  0  0
   -9.7740   -0.9124   16.2582 C   0  0  1  0  0  0  0  0  0  0  0  0
  -10.6358   -0.2460   17.4482 C   0  0  2  0  0  0  0  0  0  0  0  0
  -11.5432   -2.7140   16.0090 C   0  0  2  0  0  0  0  0  0  0  0  0
  -12.8826   -1.9294   16.1039 C   0  0  1  0  0  0  0  0  0  0  0  0
  -13.8213   -3.1074   16.0030 C   0  0  1  0  0  0  0  0  0  0  0  0
  -13.2573   -3.9645   14.8255 C   0  0  1  0  0  0  0  0  0  0  0  0
  -13.6489   -3.5185   13.3731 C   0  0  0  0  0  0  0  0  0  0  0  0
  -14.7710   -4.8357   17.4844 C   0  0  1  0  0  0  0  0  0  0  0  0
  -15.9483   -4.3774   18.2923 C   0  0  1  0  0  0  0  0  0  0  0  0
   -7.8828   -0.8473   11.8735 C   0  0  1  0  0  0  0  0  0  0  0  0
  -16.9409   -5.5828   18.4540 C   0  0  0  0  0  0  0  0  0  0  0  0
  -16.3916   -6.7278   19.1217 C   0  0  0  0  0  0  0  0  0  0  0  0
  -15.2710   -7.2215   18.3500 C   0  0  2  0  0  0  0  0  0  0  0  0
  -14.6166   -8.4812   19.0427 C   0  0  0  0  0  0  0  0  0  0  0  0
  -10.7572    4.5125   21.0473 C   0  0  2  0  0  0  0  0  0  0  0  0
   -9.8710    2.6396   19.9250 C   0  0  0  0  0  0  0  0  0  0  0  0
  -11.9884    5.0469   20.7179 C   0  0  0  0  0  0  0  0  0  0  0  0
  -10.8617    3.1607   21.0783 C   0  0  1  0  0  0  0  0  0  0  0  0
   -6.9069    0.4110   11.7642 C   0  0  0  0  0  0  0  0  0  0  0  0
   -7.7521    1.6538   11.2045 C   0  0  0  0  0  0  0  0  0  0  0  0
   -8.9537    1.9297   12.2224 C   0  0  1  0  0  0  0  0  0  0  0  0
   -9.8332    3.0998   11.7656 C   0  0  0  0  0  0  0  0  0  0  0  0
   -9.7420    0.8761   18.1358 C   0  0  1  0  0  0  0  0  0  0  0  0
   -9.4634    1.9918   16.9940 C   0  0  0  0  0  0  0  0  0  0  0  0
   -8.6460    1.3535   15.8056 C   0  0  2  0  0  0  0  0  0  0  0  0
  -10.3060    5.0756   22.2999 F   0  0  0  0  0  0  0  0  0  0  0  0
  -13.8687   -9.4084   18.0421 N   0  0  0  0  0  0  0  0  0  0  0  0
   -7.1787   -2.0699   12.4111 N   0  0  0  0  0  0  0  0  0  0  0  0
  -15.6299   -3.9826   19.5947 N   0  0  0  0  0  0  0  0  0  0  0  0
  -12.4068    6.3845   20.5249 N   0  0  0  0  0  0  0  0  0  0  0  0
  -11.1195    2.6534   11.3953 N   0  0  0  0  0  0  0  0  0  0  0  0
  -10.4900    1.5026   19.2405 N   0  0  0  0  0  0  0  0  0  0  0  0
   -8.3949    2.3582   14.7489 N   0  0  0  0  0  0  0  0  0  0  0  0
   -8.6596   -0.3602   14.1480 O   0  0  0  0  0  0  0  0  0  0  0  0
  -10.5520   -1.9852   15.5535 O   0  0  0  0  0  0  0  0  0  0  0  0
  -10.9045   -1.2306   18.3726 O   0  0  0  0  0  0  0  0  0  0  0  0
  -12.9195   -1.2738   17.3352 O   0  0  0  0  0  0  0  0  0  0  0  0
  -11.8741   -3.9056   15.2117 O   0  0  0  0  0  0  0  0  0  0  0  0
  -12.8492   -2.3641   13.0475 O   0  0  0  0  0  0  0  0  0  0  0  0
  -13.7968   -3.8766   17.3113 O   0  0  0  0  0  0  0  0  0  0  0  0
  -10.4715    2.5927   22.3477 O   0  0  0  0  0  0  0  0  0  0  0  0
   -8.7672    3.1441   19.6611 O   0  0  0  0  0  0  0  0  0  0  0  0
  -14.2460   -6.1293   18.1544 O   0  0  0  0  0  0  0  0  0  0  0  0
   -9.8221    0.6881   12.3419 O   0  0  0  0  0  0  0  0  0  0  0  0
  1 36  1  1  0  0  0
  2 36  1  6  0  0  0
  2  3  1  0  0  0  0
  3 37  1  6  0  0  0
  3  4  1  0  0  0  0
  4 38  1  1  0  0  0
  5 37  1  6  0  0  0
  5  6  1  0  0  0  0
  6  7  1  0  0  0  0
  6 39  1  1  0  0  0
  7 42  1  1  0  0  0
  8  9  1  6  0  0  0
  8  7  1  0  0  0  0
 10 42  1  1  0  0  0
 10 11  1  0  0  0  0
 11 31  1  1  0  0  0
 11 13  1  0  0  0  0
 12 30  1  1  0  0  0
 12  1  1  0  0  0  0
 14 13  1  0  0  0  0
 15 16  1  1  0  0  0
 15 14  1  0  0  0  0
 17 19  1  1  0  0  0
 17 28  1  0  0  0  0
 18 34  1  0  0  0  0
 19 32  1  0  0  0  0
 20 18  1  6  0  0  0
 20 17  1  0  0  0  0
 20 43  1  0  0  0  0
 21 12  1  0  0  0  0
 22 21  1  0  0  0  0
 22 23  1  0  0  0  0
 23 24  1  6  0  0  0
 23 46  1  0  0  0  0
 24 33  1  0  0  0  0
 25 34  1  1  0  0  0
 25  4  1  0  0  0  0
 26 25  1  0  0  0  0
 27 35  1  6  0  0  0
 27 26  1  0  0  0  0
 27  2  1  0  0  0  0
 29 16  1  0  0  0  0
 40  8  1  0  0  0  0
 40  5  1  0  0  0  0
 41  9  1  0  0  0  0
 44 18  2  0  0  0  0
 45 15  1  0  0  0  0
 45 10  1  0  0  0  0
 46  1  1  0  0  0  0
M  END
>  <CHROM.1>
167.17470277,112.63835329,-143.64930609,74.82982683,168.49270700,76.16719293
-97.94005590,154.92143454,-178.30931175,-141.16989135,117.34110992,112.35285813
-175.00652105,-11.40755393,-0.85192987,16.62872083,-0.47237949,-0.95350378
-2.25545137

>  <Name>
lig.pdb

>  <RI>
0

>  <Rbt.Current_Directory>
/home/afrankz/demos/rdock_decoys_rna/rnas/3wru

>  <Rbt.Executable>
rbdock ($Id: //depot/dev/client3/rdock/2013.1/src/exe/rbdock.cxx#4 $)

>  <Rbt.Library>
libRbt.so (2013.1, Build901 2013/11/27)

>  <Rbt.Parameter_File>
/export/apps/rDock/src/rDock_2013.1_src/data/scripts/dock_solv.prm

>  <Rbt.Receptor>
prm/blind_docking_40.prm

>  <SCORE>
46.6554

>  <SCORE.INTER>
23.2075

>  <SCORE.INTER.CONST>
1

>  <SCORE.INTER.POLAR>
0

>  <SCORE.INTER.ROT>
13

>  <SCORE.INTER.SOLV>
36.0684

>  <SCORE.INTER.VDW>
-8.81779

>  <SCORE.INTER.norm>
0.504511

>  <SCORE.INTRA>
15.7146

>  <SCORE.INTRA.DIHEDRAL>
14.193

>  <SCORE.INTRA.DIHEDRAL.0>
19.7146

>  <SCORE.INTRA.POLAR>
0

>  <SCORE.INTRA.POLAR.0>
0

>  <SCORE.INTRA.REPUL>
0.0680439

>  <SCORE.INTRA.REPUL.0>
0

>  <SCORE.INTRA.SOLV>
1.2106

>  <SCORE.INTRA.SOLV.lig_0>
-116.697

>  <SCORE.INTRA.VDW>
7.67254

>  <SCORE.INTRA.VDW.0>
-7.06424

>  <SCORE.INTRA.norm>
0.341621

>  <SCORE.RESTR>
7.73333

>  <SCORE.RESTR.CAVITY>
7.73333

>  <SCORE.RESTR.norm>
0.168116

>  <SCORE.SYSTEM>
0

>  <SCORE.SYSTEM.CONST>
0

>  <SCORE.SYSTEM.DIHEDRAL>
0

>  <SCORE.SYSTEM.SOLV>
0

>  <SCORE.SYSTEM.norm>
0

>  <SCORE.heavy>
46

>  <SCORE.norm>
1.01425

>  <RMSD>
29.291

$$$$
lig.pdb
 OpenBabel03061811583D
libRbt.so/2013.1/901 2013/11/27
 46 49  0  0  0  0  0  0  0  0999 V2000
   -9.9157   -3.0621   10.2197 C   0  0  1  0  0  0  0  0  0  0  0  0
  -10.6008   -0.6396   10.4847 C   0  0  1  0  0  0  0  0  0  0  0  0
   -9.8846    0.6934   10.8587 C   0  0  1  0  0  0  0  0  0  0  0  0
  -11.0000    1.8330   11.1035 C   0  0  2  0  0  0  0  0  0  0  0  0
   -9.4205    0.6683   13.3531 C   0  0  2  0  0  0  0  0  0  0  0  0
   -8.2215    0.5318   14.3341 C   0  0  1  0  0  0  0  0  0  0  0  0
   -8.7341    1.4490   15.4180 C   0  0  1  0  0  0  0  0  0  0  0  0
   -9.2525    2.7109   14.6577 C   0  0  1  0  0  0  0  0  0  0  0  0
   -8.1811    3.7814   14.2481 C   0  0  0  0  0  0  0  0  0  0  0  0
  -10.2239    1.3022   17.3783 C   0  0  1  0  0  0  0  0  0  0  0  0
  -11.1866    2.4465   17.2662 C   0  0  1  0  0  0  0  0  0  0  0  0
   -8.6400   -3.8718   10.5517 C   0  0  1  0  0  0  0  0  0  0  0  0
  -11.4687    3.0028   18.7069 C   0  0  0  0  0  0  0  0  0  0  0  0
  -10.3112    3.4921   19.3991 C   0  0  0  0  0  0  0  0  0  0  0  0
   -9.3710    2.4031   19.5581 C   0  0  2  0  0  0  0  0  0  0  0  0
   -8.0671    2.8848   20.3083 C   0  0  0  0  0  0  0  0  0  0  0  0
  -14.3698    4.9100   11.7855 C   0  0  2  0  0  0  0  0  0  0  0  0
  -13.9353    2.8092   10.8104 C   0  0  0  0  0  0  0  0  0  0  0  0
  -14.9630    4.6545   13.0074 C   0  0  0  0  0  0  0  0  0  0  0  0
  -14.9119    4.0850   10.8556 C   0  0  1  0  0  0  0  0  0  0  0  0
   -7.5520   -3.7279    9.3927 C   0  0  0  0  0  0  0  0  0  0  0  0
   -8.2101   -4.2368    8.0215 C   0  0  0  0  0  0  0  0  0  0  0  0
   -9.4993   -3.3371    7.7311 C   0  0  1  0  0  0  0  0  0  0  0  0
  -10.2103   -3.7565    6.4387 C   0  0  0  0  0  0  0  0  0  0  0  0
  -11.7887    2.0523    9.7394 C   0  0  1  0  0  0  0  0  0  0  0  0
  -12.5284    0.6472    9.4163 C   0  0  0  0  0  0  0  0  0  0  0  0
  -11.4556   -0.4891    9.2018 C   0  0  2  0  0  0  0  0  0  0  0  0
  -12.9364    4.7662   11.9052 F   0  0  0  0  0  0  0  0  0  0  0  0
   -8.3454    3.3896   21.7533 N   0  0  0  0  0  0  0  0  0  0  0  0
   -8.1171   -3.3984   11.8866 N   0  0  0  0  0  0  0  0  0  0  0  0
  -10.6993    3.5353   16.5377 N   0  0  0  0  0  0  0  0  0  0  0  0
  -14.7804    5.2477   14.2787 N   0  0  0  0  0  0  0  0  0  0  0  0
  -11.3622   -2.9726    6.2160 N   0  0  0  0  0  0  0  0  0  0  0  0
  -12.8116    3.0986    9.9170 N   0  0  0  0  0  0  0  0  0  0  0  0
  -12.1173   -1.7817    8.9181 N   0  0  0  0  0  0  0  0  0  0  0  0
   -9.6461   -1.6598   10.2216 O   0  0  0  0  0  0  0  0  0  0  0  0
   -9.0944    0.4240   12.1061 O   0  0  0  0  0  0  0  0  0  0  0  0
  -10.3434    2.9981   11.4313 O   0  0  0  0  0  0  0  0  0  0  0  0
   -8.1207   -0.8059   14.7185 O   0  0  0  0  0  0  0  0  0  0  0  0
   -9.9570    2.0127   13.6174 O   0  0  0  0  0  0  0  0  0  0  0  0
   -7.2557    3.1409   13.3474 O   0  0  0  0  0  0  0  0  0  0  0  0
   -9.8552    0.7538   16.1691 O   0  0  0  0  0  0  0  0  0  0  0  0
  -16.2515    3.6602   11.1891 O   0  0  0  0  0  0  0  0  0  0  0  0
  -14.1138    1.7601   11.4508 O   0  0  0  0  0  0  0  0  0  0  0  0
   -9.0227    1.8094   18.2135 O   0  0  0  0  0  0  0  0  0  0  0  0
  -10.4809   -3.4569    8.8853 O   0  0  0  0  0  0  0  0  0  0  0  0
  1 36  1  6  0  0  0
  2 36  1  6  0  0  0
  2  3  1  0  0  0  0
  3 37  1  1  0  0  0
  3  4  1  0  0  0  0
  4 38  1  6  0  0  0
  5 37  1  6  0  0  0
  5  6  1  0  0  0  0
  6  7  1  0  0  0  0
  6 39  1  1  0  0  0
  7 42  1  6  0  0  0
  8  9  1  6  0  0  0
  8  7  1  0  0  0  0
 10 42  1  6  0  0  0
 10 11  1  0  0  0  0
 11 31  1  6  0  0  0
 11 13  1  0  0  0  0
 12 30  1  1  0  0  0
 12  1  1  0  0  0  0
 14 13  1  0  0  0  0
 15 16  1  6  0  0  0
 15 14  1  0  0  0  0
 17 19  1  1  0  0  0
 17 28  1  0  0  0  0
 18 34  1  0  0  0  0
 19 32  1  0  0  0  0
 20 18  1  1  0  0  0
 20 17  1  0  0  0  0
 20 43  1  0  0  0  0
 21 12  1  0  0  0  0
 22 21  1  0  0  0  0
 22 23  1  0  0  0  0
 23 24  1  6  0  0  0
 23 46  1  0  0  0  0
 24 33  1  0  0  0  0
 25 34  1  1  0  0  0
 25  4  1  0  0  0  0
 26 25  1  0  0  0  0
 27 35  1  1  0  0  0
 27 26  1  0  0  0  0
 27  2  1  0  0  0  0
 29 16  1  0  0  0  0
 40  8  1  0  0  0  0
 40  5  1  0  0  0  0
 41  9  1  0  0  0  0
 44 18  2  0  0  0  0
 45 15  1  0  0  0  0
 45 10  1  0  0  0  0
 46  1  1  0  0  0  0
M  END
>  <CHROM.1>
-153.62894815,161.45565342,-97.15487036,-167.52251470,165.05509349,61.78007476
83.18541171,62.29274480,-178.58447460,-84.13789064,-93.47132462,178.61372722
-66.82487303,-10.63730280,1.02190676,12.76729745,-1.60598759,-0.73147857
1.01985560

>  <Name>
lig.pdb

>  <RI>
0

>  <Rbt.Current_Directory>
/home/afrankz/demos/rdock_decoys_rna/rnas/3wru

>  <Rbt.Executable>
rbdock ($Id: //depot/dev/client3/rdock/2013.1/src/exe/rbdock.cxx#4 $)

>  <Rbt.Library>
libRbt.so (2013.1, Build901 2013/11/27)

>  <Rbt.Parameter_File>
/export/apps/rDock/src/rDock_2013.1_src/data/scripts/dock_solv.prm

>  <Rbt.Receptor>
prm/blind_docking_60.prm

>  <SCORE>
24.4836

>  <SCORE.INTER>
5.05116

>  <SCORE.INTER.CONST>
1

>  <SCORE.INTER.POLAR>
0

>  <SCORE.INTER.ROT>
13

>  <SCORE.INTER.SOLV>
29.1525

>  <SCORE.INTER.VDW>
-18.6167

>  <SCORE.INTER.norm>
0.109808

>  <SCORE.INTRA>
15.2121

>  <SCORE.INTRA.DIHEDRAL>
-1.75671

>  <SCORE.INTRA.DIHEDRAL.0>
19.7146

>  <SCORE.INTRA.POLAR>
0

>  <SCORE.INTRA.POLAR.0>
0

>  <SCORE.INTRA.REPUL>
0

>  <SCORE.INTRA.REPUL.0>
0

>  <SCORE.INTRA.SOLV>
7.44856

>  <SCORE.INTRA.SOLV.lig_0>
-116.697

>  <SCORE.INTRA.VDW>
12.3662

>  <SCORE.INTRA.VDW.0>
-7.06424

>  <SCORE.INTRA.norm>
0.330697

>  <SCORE.RESTR>
4.22035

>  <SCORE.RESTR.CAVITY>
4.22035

>  <SCORE.RESTR.norm>
0.0917467

>  <SCORE.SYSTEM>
0

>  <SCORE.SYSTEM.CONST>
0

>  <SCORE.SYSTEM.DIHEDRAL>
0

>  <SCORE.SYSTEM.SOLV>
0

>  <SCORE.SYSTEM.norm>
0

>  <SCORE.heavy>
46

>  <SCORE.norm>
0.532252

>  <RMSD>
29.295

$$$$
lig.pdb
 OpenBabel03061811583D
libRbt.so/2013.1/901 2013/11/27
 46 49  0  0  0  0  0  0  0  0999 V2000
   -8.5077   -0.4670   12.4639 C   0  0  1  0  0  0  0  0  0  0  0  0
   -9.6434    1.1263   14.0700 C   0  0  1  0  0  0  0  0  0  0  0  0
  -10.7284    1.8527   13.2187 C   0  0  1  0  0  0  0  0  0  0  0  0
  -11.0195    3.2994   13.8708 C   0  0  2  0  0  0  0  0  0  0  0  0
  -10.7816    1.7888   10.6828 C   0  0  2  0  0  0  0  0  0  0  0  0
  -11.8796    0.6894   10.7510 C   0  0  1  0  0  0  0  0  0  0  0  0
  -12.7298    1.1730    9.6012 C   0  0  1  0  0  0  0  0  0  0  0  0
  -12.8566    2.7139    9.8220 C   0  0  1  0  0  0  0  0  0  0  0  0
  -13.9475    3.1964   10.8413 C   0  0  0  0  0  0  0  0  0  0  0  0
  -10.6896    0.5300    8.3732 C   0  0  1  0  0  0  0  0  0  0  0  0
   -9.8553    1.0828    7.2564 C   0  0  1  0  0  0  0  0  0  0  0  0
   -7.3347   -1.3607   12.9315 C   0  0  1  0  0  0  0  0  0  0  0  0
   -8.3780    0.5866    7.4458 C   0  0  0  0  0  0  0  0  0  0  0  0
   -8.2162   -0.8390    7.4270 C   0  0  0  0  0  0  0  0  0  0  0  0
   -8.9813   -1.4070    8.5165 C   0  0  2  0  0  0  0  0  0  0  0  0
   -8.8493   -2.9808    8.5418 C   0  0  0  0  0  0  0  0  0  0  0  0
  -12.3258    5.8875   19.2151 C   0  0  2  0  0  0  0  0  0  0  0  0
  -12.1628    4.3915   17.4017 C   0  0  0  0  0  0  0  0  0  0  0  0
  -13.4179    5.2310   19.7504 C   0  0  0  0  0  0  0  0  0  0  0  0
  -12.4453    5.9046   17.8642 C   0  0  1  0  0  0  0  0  0  0  0  0
   -6.3840   -0.5748   13.9446 C   0  0  0  0  0  0  0  0  0  0  0  0
   -5.8399    0.7397   13.2042 C   0  0  0  0  0  0  0  0  0  0  0  0
   -7.1028    1.6232   12.7795 C   0  0  1  0  0  0  0  0  0  0  0  0
   -6.6846    2.9047   12.0486 C   0  0  0  0  0  0  0  0  0  0  0  0
  -11.5987    3.0729   15.3350 C   0  0  1  0  0  0  0  0  0  0  0  0
  -10.4232    2.3395   16.1754 C   0  0  0  0  0  0  0  0  0  0  0  0
  -10.1018    0.9334   15.5369 C   0  0  2  0  0  0  0  0  0  0  0  0
  -11.1098    5.2514   19.6691 F   0  0  0  0  0  0  0  0  0  0  0  0
   -9.3571   -3.6572    7.2361 N   0  0  0  0  0  0  0  0  0  0  0  0
   -7.9134   -2.6119   13.5468 N   0  0  0  0  0  0  0  0  0  0  0  0
  -10.2344    0.6409    5.9858 N   0  0  0  0  0  0  0  0  0  0  0  0
  -13.8998    5.1447   21.0777 N   0  0  0  0  0  0  0  0  0  0  0  0
   -5.8463    3.7001   12.8583 N   0  0  0  0  0  0  0  0  0  0  0  0
  -11.8914    4.3740   15.9627 N   0  0  0  0  0  0  0  0  0  0  0  0
   -9.0205    0.2569   16.2869 N   0  0  0  0  0  0  0  0  0  0  0  0
   -9.3889   -0.1715   13.5480 O   0  0  0  0  0  0  0  0  0  0  0  0
  -10.1741    1.9799   11.8297 O   0  0  0  0  0  0  0  0  0  0  0  0
  -11.9794    3.9194   13.1025 O   0  0  0  0  0  0  0  0  0  0  0  0
  -11.2736   -0.5484   10.5320 O   0  0  0  0  0  0  0  0  0  0  0  0
  -11.4744    2.9623   10.1278 O   0  0  0  0  0  0  0  0  0  0  0  0
  -14.3352    4.5305   10.4568 O   0  0  0  0  0  0  0  0  0  0  0  0
  -12.0263    0.8554    8.2941 O   0  0  0  0  0  0  0  0  0  0  0  0
  -13.7570    6.3125   17.4180 O   0  0  0  0  0  0  0  0  0  0  0  0
  -12.1633    3.4090   18.1615 O   0  0  0  0  0  0  0  0  0  0  0  0
  -10.4311   -0.9962    8.4104 O   0  0  0  0  0  0  0  0  0  0  0  0
   -8.0102    0.8173   11.8645 O   0  0  0  0  0  0  0  0  0  0  0  0
  1 36  1  1  0  0  0
  2 36  1  6  0  0  0
  2  3  1  0  0  0  0
  3 37  1  6  0  0  0
  3  4  1  0  0  0  0
  4 38  1  6  0  0  0
  5 37  1  1  0  0  0
  5  6  1  0  0  0  0
  6  7  1  0  0  0  0
  6 39  1  6  0  0  0
  7 42  1  6  0  0  0
  8  9  1  1  0  0  0
  8  7  1  0  0  0  0
 10 42  1  6  0  0  0
 10 11  1  0  0  0  0
 11 31  1  6  0  0  0
 11 13  1  0  0  0  0
 12 30  1  1  0  0  0
 12  1  1  0  0  0  0
 14 13  1  0  0  0  0
 15 16  1  6  0  0  0
 15 14  1  0  0  0  0
 17 19  1  1  0  0  0
 17 28  1  0  0  0  0
 18 34  1  0  0  0  0
 19 32  1  0  0  0  0
 20 18  1  1  0  0  0
 20 17  1  0  0  0  0
 20 43  1  0  0  0  0
 21 12  1  0  0  0  0
 22 21  1  0  0  0  0
 22 23  1  0  0  0  0
 23 24  1  6  0  0  0
 23 46  1  0  0  0  0
 24 33  1  0  0  0  0
 25 34  1  1  0  0  0
 25  4  1  0  0  0  0
 26 25  1  0  0  0  0
 27 35  1  1  0  0  0
 27 26  1  0  0  0  0
 27  2  1  0  0  0  0
 29 16  1  0  0  0  0
 40  8  1  0  0  0  0
 40  5  1  0  0  0  0
 41  9  1  0  0  0  0
 44 18  2  0  0  0  0
 45 15  1  0  0  0  0
 45 10  1  0  0  0  0
 46  1  1  0  0  0  0
M  END
>  <CHROM.1>
116.93231170,83.19005433,137.61659366,-32.37373216,-15.54256970,-153.55835234
-141.50197359,-59.98541478,-167.13782193,-164.01655986,-72.14092789,-59.11392215
-167.37069513,-10.40303186,1.76301678,12.75262304,-1.26558540,-0.60038092
1.24432986

>  <Name>
lig.pdb

>  <RI>
0

>  <Rbt.Current_Directory>
/home/afrankz/demos/rdock_decoys_rna/rnas/3wru

>  <Rbt.Executable>
rbdock ($Id: //depot/dev/client3/rdock/2013.1/src/exe/rbdock.cxx#4 $)

>  <Rbt.Library>
libRbt.so (2013.1, Build901 2013/11/27)

>  <Rbt.Parameter_File>
/export/apps/rDock/src/rDock_2013.1_src/data/scripts/dock_solv.prm

>  <Rbt.Receptor>
prm/blind_docking_60.prm

>  <SCORE>
33.1319

>  <SCORE.INTER>
7.06813

>  <SCORE.INTER.CONST>
1

>  <SCORE.INTER.POLAR>
0

>  <SCORE.INTER.ROT>
13

>  <SCORE.INTER.SOLV>
36.8903

>  <SCORE.INTER.VDW>
-19.8514

>  <SCORE.INTER.norm>
0.153655

>  <SCORE.INTRA>
23.4421

>  <SCORE.INTRA.DIHEDRAL>
14.2757

>  <SCORE.INTRA.DIHEDRAL.0>
19.7146

>  <SCORE.INTRA.POLAR>
0

>  <SCORE.INTRA.POLAR.0>
0

>  <SCORE.INTRA.REPUL>
0

>  <SCORE.INTRA.REPUL.0>
0

>  <SCORE.INTRA.SOLV>
1.83111

>  <SCORE.INTRA.SOLV.lig_0>
-116.697

>  <SCORE.INTRA.VDW>
15.3887

>  <SCORE.INTRA.VDW.0>
-7.06424

>  <SCORE.INTRA.norm>
0.509611

>  <SCORE.RESTR>
2.62172

>  <SCORE.RESTR.CAVITY>
2.62172

>  <SCORE.RESTR.norm>
0.0569939

>  <SCORE.SYSTEM>
0

>  <SCORE.SYSTEM.CONST>
0

>  <SCORE.SYSTEM.DIHEDRAL>
0

>  <SCORE.SYSTEM.SOLV>
0

>  <SCORE.SYSTEM.norm>
0

>  <SCORE.heavy>
46

>  <SCORE.norm>
0.72026

>  <RMSD>
29.395

$$$$
lig.pdb
 OpenBabel03061811583D
libRbt.so/2013.1/901 2013/11/27
 46 49  0  0  0  0  0  0  0  0999 V2000
  -11.9010    1.7676   19.7892 C   0  0  1  0  0  0  0  0  0  0  0  0
  -10.7666    1.6186   17.5311 C   0  0  1  0  0  0  0  0  0  0  0  0
  -10.6959    0.5823   16.3688 C   0  0  1  0  0  0  0  0  0  0  0  0
   -9.5745    1.0606   15.3122 C   0  0  2  0  0  0  0  0  0  0  0  0
  -11.0797   -1.8110   17.1188 C   0  0  2  0  0  0  0  0  0  0  0  0
  -12.3223   -1.8104   16.1836 C   0  0  1  0  0  0  0  0  0  0  0  0
  -12.5232   -3.3044   16.1037 C   0  0  1  0  0  0  0  0  0  0  0  0
  -11.0949   -3.8840   15.8520 C   0  0  1  0  0  0  0  0  0  0  0  0
  -10.5740   -3.8674   14.3721 C   0  0  0  0  0  0  0  0  0  0  0  0
  -14.2115   -4.6106   17.3395 C   0  0  1  0  0  0  0  0  0  0  0  0
  -15.4278   -4.0532   18.0167 C   0  0  1  0  0  0  0  0  0  0  0  0
  -10.5904    1.5713   20.5874 C   0  0  1  0  0  0  0  0  0  0  0  0
  -16.5893   -5.1025   17.8970 C   0  0  0  0  0  0  0  0  0  0  0  0
  -16.3150   -6.3738   18.5029 C   0  0  0  0  0  0  0  0  0  0  0  0
  -15.1647   -6.9607   17.8492 C   0  0  2  0  0  0  0  0  0  0  0  0
  -14.8073   -8.3632   18.4818 C   0  0  0  0  0  0  0  0  0  0  0  0
   -7.3301    2.9308   11.7614 C   0  0  2  0  0  0  0  0  0  0  0  0
   -7.6214    2.8529   14.0985 C   0  0  0  0  0  0  0  0  0  0  0  0
   -7.3417    1.5497   11.8121 C   0  0  0  0  0  0  0  0  0  0  0  0
   -6.7287    3.4042   12.8810 C   0  0  1  0  0  0  0  0  0  0  0  0
  -10.3038    0.0226   20.8466 C   0  0  0  0  0  0  0  0  0  0  0  0
  -11.5536   -0.5924   21.6415 C   0  0  0  0  0  0  0  0  0  0  0  0
  -12.8599   -0.3794   20.7447 C   0  0  1  0  0  0  0  0  0  0  0  0
  -14.1186   -0.9268   21.4283 C   0  0  0  0  0  0  0  0  0  0  0  0
  -10.0298    2.4607   14.7096 C   0  0  1  0  0  0  0  0  0  0  0  0
  -10.0617    3.4975   15.9546 C   0  0  0  0  0  0  0  0  0  0  0  0
  -11.1325    3.0324   17.0153 C   0  0  2  0  0  0  0  0  0  0  0  0
   -8.6803    3.4191   11.5930 F   0  0  0  0  0  0  0  0  0  0  0  0
  -15.8111   -9.4844   18.0874 N   0  0  0  0  0  0  0  0  0  0  0  0
   -9.4712    2.2384   19.8248 N   0  0  0  0  0  0  0  0  0  0  0  0
  -15.2687   -3.8315   19.3875 N   0  0  0  0  0  0  0  0  0  0  0  0
   -8.0055    0.5894   11.0130 N   0  0  0  0  0  0  0  0  0  0  0  0
  -14.1009   -2.3371   21.4697 N   0  0  0  0  0  0  0  0  0  0  0  0
   -9.0359    2.9280   13.7267 N   0  0  0  0  0  0  0  0  0  0  0  0
  -11.1639    3.9636   18.1648 N   0  0  0  0  0  0  0  0  0  0  0  0
  -11.7746    1.2510   18.4639 O   0  0  0  0  0  0  0  0  0  0  0  0
  -10.3375   -0.7373   16.9877 O   0  0  0  0  0  0  0  0  0  0  0  0
   -9.5319    0.1310   14.2973 O   0  0  0  0  0  0  0  0  0  0  0  0
  -13.3552   -1.1290   16.8287 O   0  0  0  0  0  0  0  0  0  0  0  0
  -10.4067   -3.0874   16.8305 O   0  0  0  0  0  0  0  0  0  0  0  0
  -10.4680   -2.4874   13.9691 O   0  0  0  0  0  0  0  0  0  0  0  0
  -13.1000   -3.7999   17.4175 O   0  0  0  0  0  0  0  0  0  0  0  0
   -5.3675    2.9440   13.0289 O   0  0  0  0  0  0  0  0  0  0  0  0
   -7.1650    2.4213   15.1700 O   0  0  0  0  0  0  0  0  0  0  0  0
  -13.9817   -6.0246   17.9274 O   0  0  0  0  0  0  0  0  0  0  0  0
  -13.0612    1.1023   20.4726 O   0  0  0  0  0  0  0  0  0  0  0  0
  1 36  1  6  0  0  0
  2 36  1  1  0  0  0
  2  3  1  0  0  0  0
  3 37  1  1  0  0  0
  3  4  1  0  0  0  0
  4 38  1  6  0  0  0
  5 37  1  6  0  0  0
  5  6  1  0  0  0  0
  6  7  1  0  0  0  0
  6 39  1  1  0  0  0
  7 42  1  1  0  0  0
  8  9  1  6  0  0  0
  8  7  1  0  0  0  0
 10 42  1  1  0  0  0
 10 11  1  0  0  0  0
 11 31  1  1  0  0  0
 11 13  1  0  0  0  0
 12 30  1  6  0  0  0
 12  1  1  0  0  0  0
 14 13  1  0  0  0  0
 15 16  1  1  0  0  0
 15 14  1  0  0  0  0
 17 19  1  1  0  0  0
 17 28  1  0  0  0  0
 18 34  1  0  0  0  0
 19 32  1  0  0  0  0
 20 18  1  1  0  0  0
 20 17  1  0  0  0  0
 20 43  1  0  0  0  0
 21 12  1  0  0  0  0
 22 21  1  0  0  0  0
 22 23  1  0  0  0  0
 23 24  1  1  0  0  0
 23 46  1  0  0  0  0
 24 33  1  0  0  0  0
 25 34  1  6  0  0  0
 25  4  1  0  0  0  0
 26 25  1  0  0  0  0
 27 35  1  1  0  0  0
 27 26  1  0  0  0  0
 27  2  1  0  0  0  0
 29 16  1  0  0  0  0
 40  8  1  0  0  0  0
 40  5  1  0  0  0  0
 41  9  1  0  0  0  0
 44 18  2  0  0  0  0
 45 15  1  0  0  0  0
 45 10  1  0  0  0  0
 46  1  1  0  0  0  0
M  END
>  <CHROM.1>
-55.07325198,163.88997023,110.68301998,17.60858598,130.25133338,63.66923730
-118.87724516,73.28367885,169.55477478,-39.46436798,-59.88841097,-70.14896676
-46.27613370,-11.33646743,-0.80665998,16.80321502,0.16669180,0.94197478,0.81045991

>  <Name>
lig.pdb

>  <RI>
0

>  <Rbt.Current_Directory>
/home/afrankz/demos/rdock_decoys_rna/rnas/3wru

>  <Rbt.Executable>
rbdock ($Id: //depot/dev/client3/rdock/2013.1/src/exe/rbdock.cxx#4 $)

>  <Rbt.Library>
libRbt.so (2013.1, Build901 2013/11/27)

>  <Rbt.Parameter_File>
/export/apps/rDock/src/rDock_2013.1_src/data/scripts/dock_solv.prm

>  <Rbt.Receptor>
prm/blind_docking_40.prm

>  <SCORE>
37.2584

>  <SCORE.INTER>
12.9848

>  <SCORE.INTER.CONST>
1

>  <SCORE.INTER.POLAR>
0

>  <SCORE.INTER.ROT>
13

>  <SCORE.INTER.SOLV>
30.8211

>  <SCORE.INTER.VDW>
-13.8838

>  <SCORE.INTER.norm>
0.282278

>  <SCORE.INTRA>
21.0809

>  <SCORE.INTRA.DIHEDRAL>
10.8449

>  <SCORE.INTRA.DIHEDRAL.0>
19.7146

>  <SCORE.INTRA.POLAR>
0

>  <SCORE.INTRA.POLAR.0>
0

>  <SCORE.INTRA.REPUL>
0.508133

>  <SCORE.INTRA.REPUL.0>
0

>  <SCORE.INTRA.SOLV>
8.01205

>  <SCORE.INTRA.SOLV.lig_0>
-116.697

>  <SCORE.INTRA.VDW>
9.11177

>  <SCORE.INTRA.VDW.0>
-7.06424

>  <SCORE.INTRA.norm>
0.45828

>  <SCORE.RESTR>
3.19269

>  <SCORE.RESTR.CAVITY>
3.19269

>  <SCORE.RESTR.norm>
0.0694062

>  <SCORE.SYSTEM>
0

>  <SCORE.SYSTEM.CONST>
0

>  <SCORE.SYSTEM.DIHEDRAL>
0

>  <SCORE.SYSTEM.SOLV>
0

>  <SCORE.SYSTEM.norm>
0

>  <SCORE.heavy>
46

>  <SCORE.norm>
0.809965

>  <RMSD>
29.439

$$$$
lig.pdb
 OpenBabel03061811583D
libRbt.so/2013.1/901 2013/11/27
 46 49  0  0  0  0  0  0  0  0999 V2000
   -9.5011    2.0333   18.8086 C   0  0  1  0  0  0  0  0  0  0  0  0
  -11.0921    0.0650   18.8590 C   0  0  1  0  0  0  0  0  0  0  0  0
  -10.2328   -0.6675   17.7843 C   0  0  1  0  0  0  0  0  0  0  0  0
  -11.1135   -1.8514   17.1318 C   0  0  2  0  0  0  0  0  0  0  0  0
   -8.9272    0.2947   15.8331 C   0  0  2  0  0  0  0  0  0  0  0  0
   -9.5082    0.1078   14.4026 C   0  0  1  0  0  0  0  0  0  0  0  0
   -8.3561    0.7042   13.6307 C   0  0  1  0  0  0  0  0  0  0  0  0
   -8.0071    2.0217   14.3931 C   0  0  1  0  0  0  0  0  0  0  0  0
   -8.8852    3.2812   14.0702 C   0  0  0  0  0  0  0  0  0  0  0  0
   -6.0301    0.1458   13.0293 C   0  0  1  0  0  0  0  0  0  0  0  0
   -4.8905   -0.8214   13.1511 C   0  0  1  0  0  0  0  0  0  0  0  0
   -8.7616    2.9441   19.8170 C   0  0  1  0  0  0  0  0  0  0  0  0
   -3.6285   -0.1935   12.4602 C   0  0  0  0  0  0  0  0  0  0  0  0
   -3.1890    1.0491   13.0272 C   0  0  0  0  0  0  0  0  0  0  0  0
   -4.2534    2.0211   12.8956 C   0  0  2  0  0  0  0  0  0  0  0  0
   -3.8304    3.4122   13.5128 C   0  0  0  0  0  0  0  0  0  0  0  0
  -15.6958   -4.9550   17.0847 C   0  0  2  0  0  0  0  0  0  0  0  0
  -13.7035   -3.7799   17.5349 C   0  0  0  0  0  0  0  0  0  0  0  0
  -16.3481   -6.0059   16.4680 C   0  0  0  0  0  0  0  0  0  0  0  0
  -14.3594   -5.1086   16.9123 C   0  0  1  0  0  0  0  0  0  0  0  0
   -9.7868    3.8876   20.5959 C   0  0  0  0  0  0  0  0  0  0  0  0
  -10.5835    4.7633   19.5138 C   0  0  0  0  0  0  0  0  0  0  0  0
  -11.3428    3.7575   18.5300 C   0  0  1  0  0  0  0  0  0  0  0  0
  -12.1288    4.5031   17.4448 C   0  0  0  0  0  0  0  0  0  0  0  0
  -11.4721   -2.8906   18.2817 C   0  0  1  0  0  0  0  0  0  0  0  0
  -12.3812   -2.0816   19.3518 C   0  0  0  0  0  0  0  0  0  0  0  0
  -11.5478   -0.8998   19.9817 C   0  0  2  0  0  0  0  0  0  0  0  0
  -16.0852   -4.8944   18.4755 F   0  0  0  0  0  0  0  0  0  0  0  0
   -2.4168    3.8770   13.0587 N   0  0  0  0  0  0  0  0  0  0  0  0
   -7.9723    2.0630   20.7551 N   0  0  0  0  0  0  0  0  0  0  0  0
   -4.5002   -1.0833   14.4674 N   0  0  0  0  0  0  0  0  0  0  0  0
  -16.5016   -7.3614   16.8428 N   0  0  0  0  0  0  0  0  0  0  0  0
  -12.8878    5.5549   18.0003 N   0  0  0  0  0  0  0  0  0  0  0  0
  -12.2677   -3.9984   17.7229 N   0  0  0  0  0  0  0  0  0  0  0  0
  -12.3698   -0.1438   20.9523 N   0  0  0  0  0  0  0  0  0  0  0  0
  -10.3341    1.0917   19.4858 O   0  0  0  0  0  0  0  0  0  0  0  0
   -9.8538    0.3614   16.7593 O   0  0  0  0  0  0  0  0  0  0  0  0
  -10.3337   -2.4820   16.1882 O   0  0  0  0  0  0  0  0  0  0  0  0
   -9.6976   -1.2570   14.1821 O   0  0  0  0  0  0  0  0  0  0  0  0
   -8.0549    1.4745   15.7213 O   0  0  0  0  0  0  0  0  0  0  0  0
  -10.1665    3.0854   14.7012 O   0  0  0  0  0  0  0  0  0  0  0  0
   -7.1917   -0.2697   13.6431 O   0  0  0  0  0  0  0  0  0  0  0  0
  -13.8327   -6.2725   17.5861 O   0  0  0  0  0  0  0  0  0  0  0  0
  -14.3285   -2.7383   17.7936 O   0  0  0  0  0  0  0  0  0  0  0  0
   -5.5153    1.5102   13.5501 O   0  0  0  0  0  0  0  0  0  0  0  0
  -10.3365    2.8395   17.8557 O   0  0  0  0  0  0  0  0  0  0  0  0
  1 36  1  1  0  0  0
  2 36  1  1  0  0  0
  2  3  1  0  0  0  0
  3 37  1  6  0  0  0
  3  4  1  0  0  0  0
  4 38  1  6  0  0  0
  5 37  1  1  0  0  0
  5  6  1  0  0  0  0
  6  7  1  0  0  0  0
  6 39  1  6  0  0  0
  7 42  1  1  0  0  0
  8  9  1  1  0  0  0
  8  7  1  0  0  0  0
 10 42  1  1  0  0  0
 10 11  1  0  0  0  0
 11 31  1  1  0  0  0
 11 13  1  0  0  0  0
 12 30  1  1  0  0  0
 12  1  1  0  0  0  0
 14 13  1  0  0  0  0
 15 16  1  1  0  0  0
 15 14  1  0  0  0  0
 17 19  1  1  0  0  0
 17 28  1  0  0  0  0
 18 34  1  0  0  0  0
 19 32  1  0  0  0  0
 20 18  1  1  0  0  0
 20 17  1  0  0  0  0
 20 43  1  0  0  0  0
 21 12  1  0  0  0  0
 22 21  1  0  0  0  0
 22 23  1  0  0  0  0
 23 24  1  6  0  0  0
 23 46  1  0  0  0  0
 24 33  1  0  0  0  0
 25 34  1  6  0  0  0
 25  4  1  0  0  0  0
 26 25  1  0  0  0  0
 27 35  1  1  0  0  0
 27 26  1  0  0  0  0
 27  2  1  0  0  0  0
 29 16  1  0  0  0  0
 40  8  1  0  0  0  0
 40  5  1  0  0  0  0
 41  9  1  0  0  0  0
 44 18  2  0  0  0  0
 45 15  1  0  0  0  0
 45 10  1  0  0  0  0
 46  1  1  0  0  0  0
M  END
>  <CHROM.1>
-176.39912560,45.00077118,164.49943791,106.70884070,-177.22437728,74.03513982
176.25815454,47.33647473,75.22377908,165.06637081,174.77577291,-47.05561793
-81.22966621,-9.91685945,-0.09128649,16.56922492,0.30694886,0.62055554,0.51405800

>  <Name>
lig.pdb

>  <RI>
0

>  <Rbt.Current_Directory>
/home/afrankz/demos/rdock_decoys_rna/rnas/3wru

>  <Rbt.Executable>
rbdock ($Id: //depot/dev/client3/rdock/2013.1/src/exe/rbdock.cxx#4 $)

>  <Rbt.Library>
libRbt.so (2013.1, Build901 2013/11/27)

>  <Rbt.Parameter_File>
/export/apps/rDock/src/rDock_2013.1_src/data/scripts/dock_solv.prm

>  <Rbt.Receptor>
prm/blind_docking_40.prm

>  <SCORE>
18.6012

>  <SCORE.INTER>
11.0407

>  <SCORE.INTER.CONST>
1

>  <SCORE.INTER.POLAR>
0

>  <SCORE.INTER.ROT>
13

>  <SCORE.INTER.SOLV>
42.4345

>  <SCORE.INTER.VDW>
-19.051

>  <SCORE.INTER.norm>
0.240015

>  <SCORE.INTRA>
3.47915

>  <SCORE.INTRA.DIHEDRAL>
-6.66324

>  <SCORE.INTRA.DIHEDRAL.0>
19.7146

>  <SCORE.INTRA.POLAR>
0

>  <SCORE.INTRA.POLAR.0>
0

>  <SCORE.INTRA.REPUL>
0

>  <SCORE.INTRA.REPUL.0>
0

>  <SCORE.INTRA.SOLV>
-0.258466

>  <SCORE.INTRA.SOLV.lig_0>
-116.697

>  <SCORE.INTRA.VDW>
6.94001

>  <SCORE.INTRA.VDW.0>
-7.06424

>  <SCORE.INTRA.norm>
0.0756338

>  <SCORE.RESTR>
4.08142

>  <SCORE.RESTR.CAVITY>
4.08142

>  <SCORE.RESTR.norm>
0.0887264

>  <SCORE.SYSTEM>
0

>  <SCORE.SYSTEM.CONST>
0

>  <SCORE.SYSTEM.DIHEDRAL>
0

>  <SCORE.SYSTEM.SOLV>
0

>  <SCORE.SYSTEM.norm>
0

>  <SCORE.heavy>
46

>  <SCORE.norm>
0.404375

>  <RMSD>
29.455

$$$$
lig.pdb
 OpenBabel03061811583D
libRbt.so/2013.1/901 2013/11/27
 46 49  0  0  0  0  0  0  0  0999 V2000
   -8.7401   -0.3295   12.8579 C   0  0  1  0  0  0  0  0  0  0  0  0
   -9.3501    0.5649   15.1461 C   0  0  1  0  0  0  0  0  0  0  0  0
  -10.2900    1.7482   14.7641 C   0  0  1  0  0  0  0  0  0  0  0  0
  -10.2711    2.8343   15.9570 C   0  0  2  0  0  0  0  0  0  0  0  0
  -10.1527    2.1067   12.2560 C   0  0  2  0  0  0  0  0  0  0  0  0
  -11.4800    1.2998   12.1795 C   0  0  1  0  0  0  0  0  0  0  0  0
  -11.9382    1.7812   10.8241 C   0  0  1  0  0  0  0  0  0  0  0  0
  -11.7201    3.3273   10.8575 C   0  0  1  0  0  0  0  0  0  0  0  0
  -12.8369    4.1859   11.5483 C   0  0  0  0  0  0  0  0  0  0  0  0
  -11.7491    0.6935    8.6185 C   0  0  1  0  0  0  0  0  0  0  0  0
  -12.6375   -0.4944    8.8385 C   0  0  1  0  0  0  0  0  0  0  0  0
   -8.5522   -1.7252   12.2175 C   0  0  1  0  0  0  0  0  0  0  0  0
  -13.2710   -0.9042    7.4619 C   0  0  0  0  0  0  0  0  0  0  0  0
  -12.3226   -1.2692    6.4491 C   0  0  0  0  0  0  0  0  0  0  0  0
  -11.4672   -0.1322    6.1833 C   0  0  2  0  0  0  0  0  0  0  0  0
  -10.3921   -0.4774    5.0788 C   0  0  0  0  0  0  0  0  0  0  0  0
  -12.4698    4.5972   20.5111 C   0  0  2  0  0  0  0  0  0  0  0  0
  -11.7766    4.2413   18.2872 C   0  0  0  0  0  0  0  0  0  0  0  0
  -13.7658    4.9438   20.1786 C   0  0  0  0  0  0  0  0  0  0  0  0
  -11.6241    5.1482   19.6053 C   0  0  1  0  0  0  0  0  0  0  0  0
   -7.5087   -2.6014   13.0488 C   0  0  0  0  0  0  0  0  0  0  0  0
   -6.1170   -1.8062   13.1025 C   0  0  0  0  0  0  0  0  0  0  0  0
   -6.3845   -0.3932   13.8009 C   0  0  1  0  0  0  0  0  0  0  0  0
   -5.1082    0.4522   13.8889 C   0  0  0  0  0  0  0  0  0  0  0  0
  -10.8466    2.1385   17.2667 C   0  0  1  0  0  0  0  0  0  0  0  0
   -9.8197    0.9378   17.6266 C   0  0  0  0  0  0  0  0  0  0  0  0
   -9.8006   -0.1225   16.4589 C   0  0  2  0  0  0  0  0  0  0  0  0
  -12.3596    3.1579   20.5881 F   0  0  0  0  0  0  0  0  0  0  0  0
   -9.4290   -1.6237    5.5014 N   0  0  0  0  0  0  0  0  0  0  0  0
   -9.9064   -2.3864   12.1258 N   0  0  0  0  0  0  0  0  0  0  0  0
  -11.9674   -1.6342    9.2918 N   0  0  0  0  0  0  0  0  0  0  0  0
  -14.8628    5.3413   20.9786 N   0  0  0  0  0  0  0  0  0  0  0  0
   -4.9768    1.2913   12.7621 N   0  0  0  0  0  0  0  0  0  0  0  0
  -10.8588    3.1039   18.3804 N   0  0  0  0  0  0  0  0  0  0  0  0
   -8.8569   -1.2194   16.7683 N   0  0  0  0  0  0  0  0  0  0  0  0
   -9.3720   -0.4336   14.1342 O   0  0  0  0  0  0  0  0  0  0  0  0
   -9.7567    2.3287   13.4868 O   0  0  0  0  0  0  0  0  0  0  0  0
  -11.1076    3.8670   15.5963 O   0  0  0  0  0  0  0  0  0  0  0  0
  -11.1690   -0.0597   12.2274 O   0  0  0  0  0  0  0  0  0  0  0  0
  -10.4084    3.3075   11.4448 O   0  0  0  0  0  0  0  0  0  0  0  0
  -12.6699    4.0426   12.9730 O   0  0  0  0  0  0  0  0  0  0  0  0
  -11.0907    1.1239    9.7499 O   0  0  0  0  0  0  0  0  0  0  0  0
  -11.9479    6.5204   19.2915 O   0  0  0  0  0  0  0  0  0  0  0  0
  -12.5645    4.4755   17.3561 O   0  0  0  0  0  0  0  0  0  0  0  0
  -10.7946    0.3279    7.4552 O   0  0  0  0  0  0  0  0  0  0  0  0
   -7.4263    0.3820   13.0112 O   0  0  0  0  0  0  0  0  0  0  0  0
  1 36  1  1  0  0  0
  2 36  1  6  0  0  0
  2  3  1  0  0  0  0
  3 37  1  6  0  0  0
  3  4  1  0  0  0  0
  4 38  1  6  0  0  0
  5 37  1  1  0  0  0
  5  6  1  0  0  0  0
  6  7  1  0  0  0  0
  6 39  1  6  0  0  0
  7 42  1  6  0  0  0
  8  9  1  1  0  0  0
  8  7  1  0  0  0  0
 10 42  1  1  0  0  0
 10 11  1  0  0  0  0
 11 31  1  6  0  0  0
 11 13  1  0  0  0  0
 12 30  1  1  0  0  0
 12  1  1  0  0  0  0
 14 13  1  0  0  0  0
 15 16  1  6  0  0  0
 15 14  1  0  0  0  0
 17 19  1  6  0  0  0
 17 28  1  0  0  0  0
 18 34  1  0  0  0  0
 19 32  1  0  0  0  0
 20 18  1  6  0  0  0
 20 17  1  0  0  0  0
 20 43  1  0  0  0  0
 21 12  1  0  0  0  0
 22 21  1  0  0  0  0
 22 23  1  0  0  0  0
 23 24  1  6  0  0  0
 23 46  1  0  0  0  0
 24 33  1  0  0  0  0
 25 34  1  1  0  0  0
 25  4  1  0  0  0  0
 26 25  1  0  0  0  0
 27 35  1  1  0  0  0
 27 26  1  0  0  0  0
 27  2  1  0  0  0  0
 29 16  1  0  0  0  0
 40  8  1  0  0  0  0
 40  5  1  0  0  0  0
 41  9  1  0  0  0  0
 44 18  2  0  0  0  0
 45 15  1  0  0  0  0
 45 10  1  0  0  0  0
 46  1  1  0  0  0  0
M  END
>  <CHROM.1>
160.77263331,74.09257688,97.95682325,9.90775826,138.83265995,76.70636483
-70.21027543,-61.94895614,-138.76983653,-86.74368084,-75.53993377,91.78390801
67.17110777,-10.53701475,1.40025081,13.47404640,-1.41955156,-0.60905160,1.25235215

>  <Name>
lig.pdb

>  <RI>
0

>  <Rbt.Current_Directory>
/home/afrankz/demos/rdock_decoys_rna/rnas/3wru

>  <Rbt.Executable>
rbdock ($Id: //depot/dev/client3/rdock/2013.1/src/exe/rbdock.cxx#4 $)

>  <Rbt.Library>
libRbt.so (2013.1, Build901 2013/11/27)

>  <Rbt.Parameter_File>
/export/apps/rDock/src/rDock_2013.1_src/data/scripts/dock_solv.prm

>  <Rbt.Receptor>
prm/blind_docking_60.prm

>  <SCORE>
29.3167

>  <SCORE.INTER>
8.06993

>  <SCORE.INTER.CONST>
1

>  <SCORE.INTER.POLAR>
0

>  <SCORE.INTER.ROT>
13

>  <SCORE.INTER.SOLV>
25.3908

>  <SCORE.INTER.VDW>
-15.3503

>  <SCORE.INTER.norm>
0.175433

>  <SCORE.INTRA>
16.752

>  <SCORE.INTRA.DIHEDRAL>
11.0524

>  <SCORE.INTRA.DIHEDRAL.0>
19.7146

>  <SCORE.INTRA.POLAR>
0

>  <SCORE.INTRA.POLAR.0>
0

>  <SCORE.INTRA.REPUL>
0.177088

>  <SCORE.INTRA.REPUL.0>
0

>  <SCORE.INTRA.SOLV>
5.01901

>  <SCORE.INTRA.SOLV.lig_0>
-116.697

>  <SCORE.INTRA.VDW>
7.83084

>  <SCORE.INTRA.VDW.0>
-7.06424

>  <SCORE.INTRA.norm>
0.364173

>  <SCORE.RESTR>
4.4948

>  <SCORE.RESTR.CAVITY>
4.4948

>  <SCORE.RESTR.norm>
0.0977131

>  <SCORE.SYSTEM>
0

>  <SCORE.SYSTEM.CONST>
0

>  <SCORE.SYSTEM.DIHEDRAL>
0

>  <SCORE.SYSTEM.SOLV>
0

>  <SCORE.SYSTEM.norm>
0

>  <SCORE.heavy>
46

>  <SCORE.norm>
0.637319

>  <RMSD>
29.494

$$$$
lig.pdb
 OpenBabel03061811583D
libRbt.so/2013.1/901 2013/11/27
 46 49  0  0  0  0  0  0  0  0999 V2000
  -11.7895   -2.8952   17.5590 C   0  0  1  0  0  0  0  0  0  0  0  0
  -11.4576   -1.8101   15.2962 C   0  0  1  0  0  0  0  0  0  0  0  0
   -9.8998   -1.8042   15.3498 C   0  0  1  0  0  0  0  0  0  0  0  0
   -9.3268   -1.8063   13.8416 C   0  0  2  0  0  0  0  0  0  0  0  0
  -10.0909    0.6099   16.1068 C   0  0  2  0  0  0  0  0  0  0  0  0
   -9.1684    1.7519   16.6203 C   0  0  1  0  0  0  0  0  0  0  0  0
   -9.8593    2.9033   15.9305 C   0  0  1  0  0  0  0  0  0  0  0  0
  -10.0984    2.4051   14.4698 C   0  0  1  0  0  0  0  0  0  0  0  0
   -8.8915    2.5230   13.4742 C   0  0  0  0  0  0  0  0  0  0  0  0
  -11.1116    4.0398   17.7260 C   0  0  1  0  0  0  0  0  0  0  0  0
  -10.9932    3.3377   19.0458 C   0  0  1  0  0  0  0  0  0  0  0  0
  -13.1085   -3.6473   17.8555 C   0  0  1  0  0  0  0  0  0  0  0  0
  -10.9962    4.4168   20.1860 C   0  0  0  0  0  0  0  0  0  0  0  0
  -12.1795    5.2262   20.2438 C   0  0  0  0  0  0  0  0  0  0  0  0
  -12.3086    5.9489   18.9964 C   0  0  2  0  0  0  0  0  0  0  0  0
  -13.6032    6.8539   18.9968 C   0  0  0  0  0  0  0  0  0  0  0  0
   -9.3669   -1.3226    8.6544 C   0  0  2  0  0  0  0  0  0  0  0  0
   -9.5517   -2.0500   10.8882 C   0  0  0  0  0  0  0  0  0  0  0  0
   -8.6432   -1.3088    7.4771 C   0  0  0  0  0  0  0  0  0  0  0  0
   -8.8950   -2.3177    9.4459 C   0  0  1  0  0  0  0  0  0  0  0  0
  -14.1505   -2.7017   18.6092 C   0  0  0  0  0  0  0  0  0  0  0  0
  -13.4693   -2.1873   19.9670 C   0  0  0  0  0  0  0  0  0  0  0  0
  -12.1344   -1.3977   19.5791 C   0  0  1  0  0  0  0  0  0  0  0  0
  -11.3993   -0.8733   20.8185 C   0  0  0  0  0  0  0  0  0  0  0  0
   -9.8000   -3.1514   13.1361 C   0  0  1  0  0  0  0  0  0  0  0  0
  -11.4185   -3.0892   13.0883 C   0  0  0  0  0  0  0  0  0  0  0  0
  -11.9996   -3.0570   14.5543 C   0  0  2  0  0  0  0  0  0  0  0  0
  -10.7747   -1.4556    8.3543 F   0  0  0  0  0  0  0  0  0  0  0  0
  -13.3061    8.3444   19.3289 N   0  0  0  0  0  0  0  0  0  0  0  0
  -13.6550   -4.1706   16.5490 N   0  0  0  0  0  0  0  0  0  0  0  0
  -12.0621    2.4862   19.3390 N   0  0  0  0  0  0  0  0  0  0  0  0
   -8.7085   -2.1324    6.3287 N   0  0  0  0  0  0  0  0  0  0  0  0
  -10.3545    0.0030   20.4558 N   0  0  0  0  0  0  0  0  0  0  0  0
   -9.2847   -3.1990   11.7560 N   0  0  0  0  0  0  0  0  0  0  0  0
  -13.4774   -2.9874   14.5262 N   0  0  0  0  0  0  0  0  0  0  0  0
  -11.9998   -1.8491   16.6099 O   0  0  0  0  0  0  0  0  0  0  0  0
   -9.4975   -0.5599   16.0864 O   0  0  0  0  0  0  0  0  0  0  0  0
   -7.9519   -1.8016   13.9160 O   0  0  0  0  0  0  0  0  0  0  0  0
   -9.2508    1.7882   18.0129 O   0  0  0  0  0  0  0  0  0  0  0  0
  -10.5833    1.0949   14.8078 O   0  0  0  0  0  0  0  0  0  0  0  0
   -8.2757    3.8076   13.6953 O   0  0  0  0  0  0  0  0  0  0  0  0
  -11.1696    3.1943   16.6395 O   0  0  0  0  0  0  0  0  0  0  0  0
   -9.2649   -3.6339    8.9800 O   0  0  0  0  0  0  0  0  0  0  0  0
  -10.1697   -1.0194   11.2025 O   0  0  0  0  0  0  0  0  0  0  0  0
  -12.3321    4.9869   17.8320 O   0  0  0  0  0  0  0  0  0  0  0  0
  -11.1975   -2.3166   18.8123 O   0  0  0  0  0  0  0  0  0  0  0  0
  1 36  1  6  0  0  0
  2 36  1  1  0  0  0
  2  3  1  0  0  0  0
  3 37  1  6  0  0  0
  3  4  1  0  0  0  0
  4 38  1  1  0  0  0
  5 37  1  6  0  0  0
  5  6  1  0  0  0  0
  6  7  1  0  0  0  0
  6 39  1  1  0  0  0
  7 42  1  1  0  0  0
  8  9  1  6  0  0  0
  8  7  1  0  0  0  0
 10 42  1  6  0  0  0
 10 11  1  0  0  0  0
 11 31  1  1  0  0  0
 11 13  1  0  0  0  0
 12 30  1  6  0  0  0
 12  1  1  0  0  0  0
 14 13  1  0  0  0  0
 15 16  1  1  0  0  0
 15 14  1  0  0  0  0
 17 19  1  6  0  0  0
 17 28  1  0  0  0  0
 18 34  1  0  0  0  0
 19 32  1  0  0  0  0
 20 18  1  1  0  0  0
 20 17  1  0  0  0  0
 20 43  1  0  0  0  0
 21 12  1  0  0  0  0
 22 21  1  0  0  0  0
 22 23  1  0  0  0  0
 23 24  1  1  0  0  0
 23 46  1  0  0  0  0
 24 33  1  0  0  0  0
 25 34  1  6  0  0  0
 25  4  1  0  0  0  0
 26 25  1  0  0  0  0
 27 35  1  6  0  0  0
 27 26  1  0  0  0  0
 27  2  1  0  0  0  0
 29 16  1  0  0  0  0
 40  8  1  0  0  0  0
 40  5  1  0  0  0  0
 41  9  1  0  0  0  0
 44 18  2  0  0  0  0
 45 15  1  0  0  0  0
 45 10  1  0  0  0  0
 46  1  1  0  0  0  0
M  END
>  <CHROM.1>
-113.89407432,-61.12022439,-32.75711990,-162.55107202,85.99851272,-42.50094561
-94.85209006,99.14959762,77.75730639,170.47637737,167.67521897,-170.23593115
-52.73733820,-10.83327392,0.12114735,15.40719902,2.22657046,1.22064409,0.38581508

>  <Name>
lig.pdb

>  <RI>
0

>  <Rbt.Current_Directory>
/home/afrankz/demos/rdock_decoys_rna/rnas/3wru

>  <Rbt.Executable>
rbdock ($Id: //depot/dev/client3/rdock/2013.1/src/exe/rbdock.cxx#4 $)

>  <Rbt.Library>
libRbt.so (2013.1, Build901 2013/11/27)

>  <Rbt.Parameter_File>
/export/apps/rDock/src/rDock_2013.1_src/data/scripts/dock_solv.prm

>  <Rbt.Receptor>
prm/blind_docking_40.prm

>  <SCORE>
25.1643

>  <SCORE.INTER>
5.39577

>  <SCORE.INTER.CONST>
1

>  <SCORE.INTER.POLAR>
0

>  <SCORE.INTER.ROT>
13

>  <SCORE.INTER.SOLV>
29.3618

>  <SCORE.INTER.VDW>
-18.4568

>  <SCORE.INTER.norm>
0.117299

>  <SCORE.INTRA>
15.6491

>  <SCORE.INTRA.DIHEDRAL>
6.89988

>  <SCORE.INTRA.DIHEDRAL.0>
19.7146

>  <SCORE.INTRA.POLAR>
0

>  <SCORE.INTRA.POLAR.0>
0

>  <SCORE.INTRA.REPUL>
0.545622

>  <SCORE.INTRA.REPUL.0>
0

>  <SCORE.INTRA.SOLV>
8.41635

>  <SCORE.INTRA.SOLV.lig_0>
-116.697

>  <SCORE.INTRA.VDW>
5.26288

>  <SCORE.INTRA.VDW.0>
-7.06424

>  <SCORE.INTRA.norm>
0.340198

>  <SCORE.RESTR>
4.11946

>  <SCORE.RESTR.CAVITY>
4.11946

>  <SCORE.RESTR.norm>
0.0895535

>  <SCORE.SYSTEM>
0

>  <SCORE.SYSTEM.CONST>
0

>  <SCORE.SYSTEM.DIHEDRAL>
0

>  <SCORE.SYSTEM.SOLV>
0

>  <SCORE.SYSTEM.norm>
0

>  <SCORE.heavy>
46

>  <SCORE.norm>
0.547051

>  <RMSD>
29.563

$$$$
lig.pdb
 OpenBabel03061811583D
libRbt.so/2013.1/901 2013/11/27
 46 49  0  0  0  0  0  0  0  0999 V2000
   -9.8375   -1.6199    9.7067 C   0  0  1  0  0  0  0  0  0  0  0  0
  -11.2071    0.4276   10.2898 C   0  0  1  0  0  0  0  0  0  0  0  0
  -10.5163    1.4442   11.2484 C   0  0  1  0  0  0  0  0  0  0  0  0
  -11.6534    2.2358   12.0750 C   0  0  2  0  0  0  0  0  0  0  0  0
   -9.0883    1.0054   13.2994 C   0  0  2  0  0  0  0  0  0  0  0  0
   -9.2413   -0.0680   14.4143 C   0  0  1  0  0  0  0  0  0  0  0  0
   -8.0481    0.3286   15.2498 C   0  0  1  0  0  0  0  0  0  0  0  0
   -6.8912    0.5283   14.2199 C   0  0  1  0  0  0  0  0  0  0  0  0
   -6.1371   -0.7619   13.7419 C   0  0  0  0  0  0  0  0  0  0  0  0
   -9.4210    1.5826   16.8704 C   0  0  1  0  0  0  0  0  0  0  0  0
  -10.5258    2.5427   16.5442 C   0  0  1  0  0  0  0  0  0  0  0  0
   -8.5109   -1.9180    8.9687 C   0  0  1  0  0  0  0  0  0  0  0  0
  -11.6258    2.4334   17.6589 C   0  0  0  0  0  0  0  0  0  0  0  0
  -11.1720    2.7473   18.9833 C   0  0  0  0  0  0  0  0  0  0  0  0
  -10.1261    1.8157   19.3483 C   0  0  2  0  0  0  0  0  0  0  0  0
   -9.5782    2.1180   20.7985 C   0  0  0  0  0  0  0  0  0  0  0  0
  -14.5305    5.0223   14.5802 C   0  0  2  0  0  0  0  0  0  0  0  0
  -13.1604    4.8594   12.6698 C   0  0  0  0  0  0  0  0  0  0  0  0
  -13.9419    5.9084   15.4624 C   0  0  0  0  0  0  0  0  0  0  0  0
  -14.4592    5.5395   13.3285 C   0  0  1  0  0  0  0  0  0  0  0  0
   -8.7046   -1.8368    7.3864 C   0  0  0  0  0  0  0  0  0  0  0  0
   -9.8403   -2.8883    6.9659 C   0  0  0  0  0  0  0  0  0  0  0  0
  -11.1826   -2.4991    7.7421 C   0  0  1  0  0  0  0  0  0  0  0  0
  -12.3322   -3.4594    7.4140 C   0  0  0  0  0  0  0  0  0  0  0  0
  -12.5419    3.0494   11.0361 C   0  0  1  0  0  0  0  0  0  0  0  0
  -13.2499    1.9435   10.0865 C   0  0  0  0  0  0  0  0  0  0  0  0
  -12.1535    1.1369    9.2897 C   0  0  2  0  0  0  0  0  0  0  0  0
  -15.8848    4.7468   15.0040 F   0  0  0  0  0  0  0  0  0  0  0  0
  -10.6440    1.9022   21.9111 N   0  0  0  0  0  0  0  0  0  0  0  0
   -7.4678   -0.9463    9.4660 N   0  0  0  0  0  0  0  0  0  0  0  0
  -10.1351    3.8847   16.5397 N   0  0  0  0  0  0  0  0  0  0  0  0
  -12.5847    6.2264   15.7037 N   0  0  0  0  0  0  0  0  0  0  0  0
  -12.5634   -3.5175    6.0232 N   0  0  0  0  0  0  0  0  0  0  0  0
  -13.5879    3.7997   11.7541 N   0  0  0  0  0  0  0  0  0  0  0  0
  -12.7852    0.1140    8.4271 N   0  0  0  0  0  0  0  0  0  0  0  0
  -10.2360   -0.2623    9.5136 O   0  0  0  0  0  0  0  0  0  0  0  0
   -9.6324    0.6452   12.1613 O   0  0  0  0  0  0  0  0  0  0  0  0
  -11.0190    3.1260   12.9123 O   0  0  0  0  0  0  0  0  0  0  0  0
  -10.4705    0.1282   15.0449 O   0  0  0  0  0  0  0  0  0  0  0  0
   -7.6436    1.2807   13.2536 O   0  0  0  0  0  0  0  0  0  0  0  0
   -7.0967   -1.5921   13.0577 O   0  0  0  0  0  0  0  0  0  0  0  0
   -8.3635    1.6171   15.9876 O   0  0  0  0  0  0  0  0  0  0  0  0
  -15.6232    5.2419   12.5269 O   0  0  0  0  0  0  0  0  0  0  0  0
  -11.9894    5.2027   12.9012 O   0  0  0  0  0  0  0  0  0  0  0  0
   -9.0058    1.8609   18.3360 O   0  0  0  0  0  0  0  0  0  0  0  0
  -10.9374   -2.5309    9.2418 O   0  0  0  0  0  0  0  0  0  0  0  0
  1 36  1  6  0  0  0
  2 36  1  6  0  0  0
  2  3  1  0  0  0  0
  3 37  1  1  0  0  0
  3  4  1  0  0  0  0
  4 38  1  1  0  0  0
  5 37  1  6  0  0  0
  5  6  1  0  0  0  0
  6  7  1  0  0  0  0
  6 39  1  1  0  0  0
  7 42  1  6  0  0  0
  8  9  1  6  0  0  0
  8  7  1  0  0  0  0
 10 42  1  6  0  0  0
 10 11  1  0  0  0  0
 11 31  1  1  0  0  0
 11 13  1  0  0  0  0
 12 30  1  1  0  0  0
 12  1  1  0  0  0  0
 14 13  1  0  0  0  0
 15 16  1  1  0  0  0
 15 14  1  0  0  0  0
 17 19  1  1  0  0  0
 17 28  1  0  0  0  0
 18 34  1  0  0  0  0
 19 32  1  0  0  0  0
 20 18  1  6  0  0  0
 20 17  1  0  0  0  0
 20 43  1  0  0  0  0
 21 12  1  0  0  0  0
 22 21  1  0  0  0  0
 22 23  1  0  0  0  0
 23 24  1  1  0  0  0
 23 46  1  0  0  0  0
 24 33  1  0  0  0  0
 25 34  1  1  0  0  0
 25  4  1  0  0  0  0
 26 25  1  0  0  0  0
 27 35  1  6  0  0  0
 27 26  1  0  0  0  0
 27  2  1  0  0  0  0
 29 16  1  0  0  0  0
 40  8  1  0  0  0  0
 40  5  1  0  0  0  0
 41  9  1  0  0  0  0
 44 18  2  0  0  0  0
 45 15  1  0  0  0  0
 45 10  1  0  0  0  0
 46  1  1  0  0  0  0
M  END
>  <CHROM.1>
-164.08462878,106.03611995,-163.50173581,134.20357800,61.24855691,62.85535214
-119.93104885,64.74346950,-74.31298352,102.72604783,96.60947598,-55.91527869
64.45354411,-10.82823564,1.37783770,13.05108880,-1.45761771,-0.68120090,1.13254152

>  <Name>
lig.pdb

>  <RI>
0

>  <Rbt.Current_Directory>
/home/afrankz/demos/rdock_decoys_rna/rnas/3wru

>  <Rbt.Executable>
rbdock ($Id: //depot/dev/client3/rdock/2013.1/src/exe/rbdock.cxx#4 $)

>  <Rbt.Library>
libRbt.so (2013.1, Build901 2013/11/27)

>  <Rbt.Parameter_File>
/export/apps/rDock/src/rDock_2013.1_src/data/scripts/dock_solv.prm

>  <Rbt.Receptor>
prm/blind_docking_60.prm

>  <SCORE>
34.4147

>  <SCORE.INTER>
15.3848

>  <SCORE.INTER.CONST>
1

>  <SCORE.INTER.POLAR>
0

>  <SCORE.INTER.ROT>
13

>  <SCORE.INTER.SOLV>
29.5219

>  <SCORE.INTER.VDW>
-11.8508

>  <SCORE.INTER.norm>
0.334451

>  <SCORE.INTRA>
11.3058

>  <SCORE.INTRA.DIHEDRAL>
8.72001

>  <SCORE.INTRA.DIHEDRAL.0>
19.7146

>  <SCORE.INTRA.POLAR>
0

>  <SCORE.INTRA.POLAR.0>
0

>  <SCORE.INTRA.REPUL>
0

>  <SCORE.INTRA.REPUL.0>
0

>  <SCORE.INTRA.SOLV>
5.06351

>  <SCORE.INTRA.SOLV.lig_0>
-116.697

>  <SCORE.INTRA.VDW>
4.41404

>  <SCORE.INTRA.VDW.0>
-7.06424

>  <SCORE.INTRA.norm>
0.245778

>  <SCORE.RESTR>
7.72418

>  <SCORE.RESTR.CAVITY>
7.72418

>  <SCORE.RESTR.norm>
0.167917

>  <SCORE.SYSTEM>
0

>  <SCORE.SYSTEM.CONST>
0

>  <SCORE.SYSTEM.DIHEDRAL>
0

>  <SCORE.SYSTEM.SOLV>
0

>  <SCORE.SYSTEM.norm>
0

>  <SCORE.heavy>
46

>  <SCORE.norm>
0.748146

>  <RMSD>
29.567

$$$$
lig.pdb
 OpenBabel03061811583D
libRbt.so/2013.1/901 2013/11/27
 46 49  0  0  0  0  0  0  0  0999 V2000
  -10.7546    2.0502   17.8971 C   0  0  1  0  0  0  0  0  0  0  0  0
   -9.2316    1.5050   15.9500 C   0  0  1  0  0  0  0  0  0  0  0  0
  -10.0439    0.1748   15.9322 C   0  0  1  0  0  0  0  0  0  0  0  0
   -9.5260   -0.7353   14.7049 C   0  0  2  0  0  0  0  0  0  0  0  0
  -10.6538   -1.1405   18.0144 C   0  0  2  0  0  0  0  0  0  0  0  0
  -12.1373   -0.8257   17.6698 C   0  0  1  0  0  0  0  0  0  0  0  0
  -12.7483   -2.1019   18.1960 C   0  0  1  0  0  0  0  0  0  0  0  0
  -11.8251   -3.2379   17.6517 C   0  0  1  0  0  0  0  0  0  0  0  0
  -12.0806   -3.7141   16.1787 C   0  0  0  0  0  0  0  0  0  0  0  0
  -13.1076   -0.8734   20.3044 C   0  0  1  0  0  0  0  0  0  0  0  0
  -11.9532   -0.0781   20.8372 C   0  0  1  0  0  0  0  0  0  0  0  0
  -11.8518    3.1394   17.8418 C   0  0  1  0  0  0  0  0  0  0  0  0
  -12.5157    1.2149   21.5274 C   0  0  0  0  0  0  0  0  0  0  0  0
  -13.4029    0.9706   22.6282 C   0  0  0  0  0  0  0  0  0  0  0  0
  -14.5505    0.2332   22.1441 C   0  0  2  0  0  0  0  0  0  0  0  0
  -15.5626   -0.0746   23.3172 C   0  0  0  0  0  0  0  0  0  0  0  0
  -10.0827   -1.8460    9.2771 C   0  0  2  0  0  0  0  0  0  0  0  0
   -9.5423   -0.1887   10.8628 C   0  0  0  0  0  0  0  0  0  0  0  0
   -9.8174   -2.2568    7.9845 C   0  0  0  0  0  0  0  0  0  0  0  0
   -8.9815   -1.2303    9.7747 C   0  0  1  0  0  0  0  0  0  0  0  0
  -11.3075    4.5302   18.4052 C   0  0  0  0  0  0  0  0  0  0  0  0
  -10.8077    4.2996   19.9116 C   0  0  0  0  0  0  0  0  0  0  0  0
   -9.6591    3.1879   19.8840 C   0  0  1  0  0  0  0  0  0  0  0  0
   -9.1211    2.8861   21.2878 C   0  0  0  0  0  0  0  0  0  0  0  0
   -9.8173    0.0492   13.3519 C   0  0  1  0  0  0  0  0  0  0  0  0
   -8.9313    1.4044   13.4177 C   0  0  0  0  0  0  0  0  0  0  0  0
   -9.4022    2.2970   14.6299 C   0  0  2  0  0  0  0  0  0  0  0  0
  -10.5042   -2.9806   10.0674 F   0  0  0  0  0  0  0  0  0  0  0  0
  -14.8888   -0.7594   24.5408 N   0  0  0  0  0  0  0  0  0  0  0  0
  -12.3318    3.2510   16.4148 N   0  0  0  0  0  0  0  0  0  0  0  0
  -11.2140   -0.7338   21.8256 N   0  0  0  0  0  0  0  0  0  0  0  0
  -10.6595   -2.7893    6.9802 N   0  0  0  0  0  0  0  0  0  0  0  0
   -8.0273    1.9965   21.2317 N   0  0  0  0  0  0  0  0  0  0  0  0
   -9.3696   -0.7564   12.2016 N   0  0  0  0  0  0  0  0  0  0  0  0
   -8.5929    3.5332   14.7102 N   0  0  0  0  0  0  0  0  0  0  0  0
   -9.6885    2.3523   16.9963 O   0  0  0  0  0  0  0  0  0  0  0  0
   -9.8016   -0.4972   17.2523 O   0  0  0  0  0  0  0  0  0  0  0  0
  -10.2579   -1.9017   14.7105 O   0  0  0  0  0  0  0  0  0  0  0  0
  -12.5158    0.3200   18.3708 O   0  0  0  0  0  0  0  0  0  0  0  0
  -10.5705   -2.6087   17.9613 O   0  0  0  0  0  0  0  0  0  0  0  0
  -13.4856   -4.0149   16.0617 O   0  0  0  0  0  0  0  0  0  0  0  0
  -12.7477   -2.0651   19.7136 O   0  0  0  0  0  0  0  0  0  0  0  0
   -8.0598   -2.1450   10.4072 O   0  0  0  0  0  0  0  0  0  0  0  0
  -10.0267    0.9226   10.5925 O   0  0  0  0  0  0  0  0  0  0  0  0
  -14.1082   -1.0460   21.4735 O   0  0  0  0  0  0  0  0  0  0  0  0
  -10.2032    1.9007   19.2862 O   0  0  0  0  0  0  0  0  0  0  0  0
  1 36  1  6  0  0  0
  2 36  1  1  0  0  0
  2  3  1  0  0  0  0
  3 37  1  1  0  0  0
  3  4  1  0  0  0  0
  4 38  1  6  0  0  0
  5 37  1  6  0  0  0
  5  6  1  0  0  0  0
  6  7  1  0  0  0  0
  6 39  1  1  0  0  0
  7 42  1  1  0  0  0
  8  9  1  6  0  0  0
  8  7  1  0  0  0  0
 10 42  1  1  0  0  0
 10 11  1  0  0  0  0
 11 31  1  1  0  0  0
 11 13  1  0  0  0  0
 12 30  1  6  0  0  0
 12  1  1  0  0  0  0
 14 13  1  0  0  0  0
 15 16  1  1  0  0  0
 15 14  1  0  0  0  0
 17 19  1  6  0  0  0
 17 28  1  0  0  0  0
 18 34  1  0  0  0  0
 19 32  1  0  0  0  0
 20 18  1  1  0  0  0
 20 17  1  0  0  0  0
 20 43  1  0  0  0  0
 21 12  1  0  0  0  0
 22 21  1  0  0  0  0
 22 23  1  0  0  0  0
 23 24  1  1  0  0  0
 23 46  1  0  0  0  0
 24 33  1  0  0  0  0
 25 34  1  6  0  0  0
 25  4  1  0  0  0  0
 26 25  1  0  0  0  0
 27 35  1  1  0  0  0
 27 26  1  0  0  0  0
 27  2  1  0  0  0  0
 29 16  1  0  0  0  0
 40  8  1  0  0  0  0
 40  5  1  0  0  0  0
 41  9  1  0  0  0  0
 44 18  2  0  0  0  0
 45 15  1  0  0  0  0
 45 10  1  0  0  0  0
 46  1  1  0  0  0  0
M  END
>  <CHROM.1>
-122.94252942,-0.96506288,139.76515925,-17.51215532,42.39023302,-51.44334007
-103.05687272,-52.46556431,-171.19359122,100.76394318,152.26549134,-174.58158830
-179.31689341,-11.01331791,-0.01489367,16.71144704,-2.04805265,-1.00106871
-2.15884330

>  <Name>
lig.pdb

>  <RI>
0

>  <Rbt.Current_Directory>
/home/afrankz/demos/rdock_decoys_rna/rnas/3wru

>  <Rbt.Executable>
rbdock ($Id: //depot/dev/client3/rdock/2013.1/src/exe/rbdock.cxx#4 $)

>  <Rbt.Library>
libRbt.so (2013.1, Build901 2013/11/27)

>  <Rbt.Parameter_File>
/export/apps/rDock/src/rDock_2013.1_src/data/scripts/dock_solv.prm

>  <Rbt.Receptor>
prm/blind_docking_40.prm

>  <SCORE>
33.9447

>  <SCORE.INTER>
9.3541

>  <SCORE.INTER.CONST>
1

>  <SCORE.INTER.POLAR>
0

>  <SCORE.INTER.ROT>
13

>  <SCORE.INTER.SOLV>
37.9683

>  <SCORE.INTER.VDW>
-18.6867

>  <SCORE.INTER.norm>
0.20335

>  <SCORE.INTRA>
20.6056

>  <SCORE.INTRA.DIHEDRAL>
18.2135

>  <SCORE.INTRA.DIHEDRAL.0>
19.7146

>  <SCORE.INTRA.POLAR>
0

>  <SCORE.INTRA.POLAR.0>
0

>  <SCORE.INTRA.REPUL>
0

>  <SCORE.INTRA.REPUL.0>
0

>  <SCORE.INTRA.SOLV>
3.11616

>  <SCORE.INTRA.SOLV.lig_0>
-116.697

>  <SCORE.INTRA.VDW>
9.94072

>  <SCORE.INTRA.VDW.0>
-7.06424

>  <SCORE.INTRA.norm>
0.447947

>  <SCORE.RESTR>
3.98505

>  <SCORE.RESTR.CAVITY>
3.98505

>  <SCORE.RESTR.norm>
0.0866314

>  <SCORE.SYSTEM>
0

>  <SCORE.SYSTEM.CONST>
0

>  <SCORE.SYSTEM.DIHEDRAL>
0

>  <SCORE.SYSTEM.SOLV>
0

>  <SCORE.SYSTEM.norm>
0

>  <SCORE.heavy>
46

>  <SCORE.norm>
0.737928

>  <RMSD>
29.585

$$$$
lig.pdb
 OpenBabel03061811583D
libRbt.so/2013.1/901 2013/11/27
 46 49  0  0  0  0  0  0  0  0999 V2000
  -13.4398   -1.0685   18.4239 C   0  0  1  0  0  0  0  0  0  0  0  0
  -11.2763   -0.1741   19.3869 C   0  0  1  0  0  0  0  0  0  0  0  0
  -11.6908    1.1625   18.7003 C   0  0  1  0  0  0  0  0  0  0  0  0
  -10.7269    2.3419   19.2321 C   0  0  2  0  0  0  0  0  0  0  0  0
  -10.5472    0.3906   16.5709 C   0  0  2  0  0  0  0  0  0  0  0  0
  -10.8350    0.2220   15.0518 C   0  0  1  0  0  0  0  0  0  0  0  0
   -9.4043    0.1973   14.5707 C   0  0  1  0  0  0  0  0  0  0  0  0
   -8.7124    1.3788   15.3221 C   0  0  1  0  0  0  0  0  0  0  0  0
   -8.9002    2.8127   14.7136 C   0  0  0  0  0  0  0  0  0  0  0  0
   -8.3492   -1.9268   13.8938 C   0  0  1  0  0  0  0  0  0  0  0  0
   -7.0298   -1.5139   13.3127 C   0  0  1  0  0  0  0  0  0  0  0  0
  -14.5224   -1.5333   19.4264 C   0  0  1  0  0  0  0  0  0  0  0  0
   -6.6988   -2.4617   12.1058 C   0  0  0  0  0  0  0  0  0  0  0  0
   -7.6573   -2.4321   11.0385 C   0  0  0  0  0  0  0  0  0  0  0  0
   -8.9399   -2.8603   11.5548 C   0  0  2  0  0  0  0  0  0  0  0  0
  -10.0420   -2.8395   10.4236 C   0  0  0  0  0  0  0  0  0  0  0  0
   -6.6111    4.5082   21.6209 C   0  0  2  0  0  0  0  0  0  0  0  0
   -8.6630    3.5143   21.0252 C   0  0  0  0  0  0  0  0  0  0  0  0
   -5.9047    5.5840   22.1247 C   0  0  0  0  0  0  0  0  0  0  0  0
   -7.9368    4.7868   21.6861 C   0  0  1  0  0  0  0  0  0  0  0  0
  -14.4427   -3.1094   19.6661 C   0  0  0  0  0  0  0  0  0  0  0  0
  -14.6236   -3.8415   18.2506 C   0  0  0  0  0  0  0  0  0  0  0  0
  -13.4565   -3.3354   17.2824 C   0  0  1  0  0  0  0  0  0  0  0  0
  -13.5505   -3.9731   15.8910 C   0  0  0  0  0  0  0  0  0  0  0  0
  -10.9505    2.4924   20.7999 C   0  0  1  0  0  0  0  0  0  0  0  0
  -10.4822    1.0876   21.4582 C   0  0  0  0  0  0  0  0  0  0  0  0
  -11.3941   -0.0855   20.9287 C   0  0  2  0  0  0  0  0  0  0  0  0
   -6.2468    3.3104   22.3433 F   0  0  0  0  0  0  0  0  0  0  0  0
  -10.0692   -1.5064    9.6220 N   0  0  0  0  0  0  0  0  0  0  0  0
  -14.3444   -0.7523   20.7061 N   0  0  0  0  0  0  0  0  0  0  0  0
   -7.0175   -0.2208   12.7824 N   0  0  0  0  0  0  0  0  0  0  0  0
   -6.0787    6.9782   21.9591 N   0  0  0  0  0  0  0  0  0  0  0  0
  -12.4166   -3.6603   15.1117 N   0  0  0  0  0  0  0  0  0  0  0  0
  -10.0953    3.5721   21.3247 N   0  0  0  0  0  0  0  0  0  0  0  0
  -10.9698   -1.3774   21.5121 N   0  0  0  0  0  0  0  0  0  0  0  0
  -12.1314   -1.2316   18.9723 O   0  0  0  0  0  0  0  0  0  0  0  0
  -11.5368    0.9546   17.2218 O   0  0  0  0  0  0  0  0  0  0  0  0
  -11.1128    3.5095   18.6125 O   0  0  0  0  0  0  0  0  0  0  0  0
  -11.5204   -0.9793   14.8670 O   0  0  0  0  0  0  0  0  0  0  0  0
   -9.2633    1.1076   16.6217 O   0  0  0  0  0  0  0  0  0  0  0  0
  -10.2173    3.2675   15.0830 O   0  0  0  0  0  0  0  0  0  0  0  0
   -8.7790   -1.1363   14.9375 O   0  0  0  0  0  0  0  0  0  0  0  0
   -8.4102    4.9686   23.0385 O   0  0  0  0  0  0  0  0  0  0  0  0
   -8.0865    2.6404   20.3569 O   0  0  0  0  0  0  0  0  0  0  0  0
   -9.3547   -1.9904   12.7180 O   0  0  0  0  0  0  0  0  0  0  0  0
  -13.5332   -1.8251   17.1298 O   0  0  0  0  0  0  0  0  0  0  0  0
  1 36  1  1  0  0  0
  2 36  1  6  0  0  0
  2  3  1  0  0  0  0
  3 37  1  6  0  0  0
  3  4  1  0  0  0  0
  4 38  1  6  0  0  0
  5 37  1  6  0  0  0
  5  6  1  0  0  0  0
  6  7  1  0  0  0  0
  6 39  1  1  0  0  0
  7 42  1  1  0  0  0
  8  9  1  6  0  0  0
  8  7  1  0  0  0  0
 10 42  1  1  0  0  0
 10 11  1  0  0  0  0
 11 31  1  6  0  0  0
 11 13  1  0  0  0  0
 12 30  1  1  0  0  0
 12  1  1  0  0  0  0
 14 13  1  0  0  0  0
 15 16  1  6  0  0  0
 15 14  1  0  0  0  0
 17 19  1  1  0  0  0
 17 28  1  0  0  0  0
 18 34  1  0  0  0  0
 19 32  1  0  0  0  0
 20 18  1  1  0  0  0
 20 17  1  0  0  0  0
 20 43  1  0  0  0  0
 21 12  1  0  0  0  0
 22 21  1  0  0  0  0
 22 23  1  0  0  0  0
 23 24  1  6  0  0  0
 23 46  1  0  0  0  0
 24 33  1  0  0  0  0
 25 34  1  1  0  0  0
 25  4  1  0  0  0  0
 26 25  1  0  0  0  0
 27 35  1  1  0  0  0
 27 26  1  0  0  0  0
 27  2  1  0  0  0  0
 29 16  1  0  0  0  0
 40  8  1  0  0  0  0
 40  5  1  0  0  0  0
 41  9  1  0  0  0  0
 44 18  2  0  0  0  0
 45 15  1  0  0  0  0
 45 10  1  0  0  0  0
 46  1  1  0  0  0  0
M  END
>  <CHROM.1>
-109.03871522,-21.20973833,-44.72701238,173.46557540,118.21740127,77.96465291
78.86168265,-49.04951658,-41.68739900,166.96638128,177.64551788,-171.95430096
-53.05293257,-10.14979166,0.35603239,17.39593077,1.75473137,-0.64592694,-2.07052268

>  <Name>
lig.pdb

>  <RI>
0

>  <Rbt.Current_Directory>
/home/afrankz/demos/rdock_decoys_rna/rnas/3wru

>  <Rbt.Executable>
rbdock ($Id: //depot/dev/client3/rdock/2013.1/src/exe/rbdock.cxx#4 $)

>  <Rbt.Library>
libRbt.so (2013.1, Build901 2013/11/27)

>  <Rbt.Parameter_File>
/export/apps/rDock/src/rDock_2013.1_src/data/scripts/dock_solv.prm

>  <Rbt.Receptor>
prm/blind_docking_100.prm

>  <SCORE>
19.331

>  <SCORE.INTER>
3.00411

>  <SCORE.INTER.CONST>
1

>  <SCORE.INTER.POLAR>
0

>  <SCORE.INTER.ROT>
13

>  <SCORE.INTER.SOLV>
29.4145

>  <SCORE.INTER.VDW>
-20.0688

>  <SCORE.INTER.norm>
0.0653068

>  <SCORE.INTRA>
8.94072

>  <SCORE.INTRA.DIHEDRAL>
6.1117

>  <SCORE.INTRA.DIHEDRAL.0>
19.7146

>  <SCORE.INTRA.POLAR>
0

>  <SCORE.INTRA.POLAR.0>
0

>  <SCORE.INTRA.REPUL>
0.0791529

>  <SCORE.INTRA.REPUL.0>
0

>  <SCORE.INTRA.SOLV>
6.40511

>  <SCORE.INTRA.SOLV.lig_0>
-116.697

>  <SCORE.INTRA.VDW>
2.28655

>  <SCORE.INTRA.VDW.0>
-7.06424

>  <SCORE.INTRA.norm>
0.194364

>  <SCORE.RESTR>
7.3862

>  <SCORE.RESTR.CAVITY>
7.3862

>  <SCORE.RESTR.norm>
0.16057

>  <SCORE.SYSTEM>
0

>  <SCORE.SYSTEM.CONST>
0

>  <SCORE.SYSTEM.DIHEDRAL>
0

>  <SCORE.SYSTEM.SOLV>
0

>  <SCORE.SYSTEM.norm>
0

>  <SCORE.heavy>
46

>  <SCORE.norm>
0.42024

>  <RMSD>
29.586

$$$$
lig.pdb
 OpenBabel03061811583D
libRbt.so/2013.1/901 2013/11/27
 46 49  0  0  0  0  0  0  0  0999 V2000
   -9.5701    1.8510   18.9554 C   0  0  1  0  0  0  0  0  0  0  0  0
  -11.2867   -0.0093   18.9358 C   0  0  1  0  0  0  0  0  0  0  0  0
  -10.4858   -0.7888   17.8493 C   0  0  1  0  0  0  0  0  0  0  0  0
  -11.4646   -1.8663   17.1537 C   0  0  2  0  0  0  0  0  0  0  0  0
   -9.3954    0.0322   15.7104 C   0  0  2  0  0  0  0  0  0  0  0  0
  -10.3615    0.1062   14.4938 C   0  0  1  0  0  0  0  0  0  0  0  0
   -9.3456    0.4887   13.4446 C   0  0  1  0  0  0  0  0  0  0  0  0
   -8.4987    1.6217   14.1066 C   0  0  1  0  0  0  0  0  0  0  0  0
   -9.0983    3.0710   14.0652 C   0  0  0  0  0  0  0  0  0  0  0  0
   -8.8761   -1.4723   12.0241 C   0  0  1  0  0  0  0  0  0  0  0  0
   -7.9498   -2.6065   11.7009 C   0  0  1  0  0  0  0  0  0  0  0  0
   -8.8388    2.7355   19.9928 C   0  0  1  0  0  0  0  0  0  0  0  0
   -8.4795   -3.3303   10.4125 C   0  0  0  0  0  0  0  0  0  0  0  0
   -8.5529   -2.5002    9.2445 C   0  0  0  0  0  0  0  0  0  0  0  0
   -9.4685   -1.4103    9.5069 C   0  0  2  0  0  0  0  0  0  0  0  0
   -9.5842   -0.4534    8.2555 C   0  0  0  0  0  0  0  0  0  0  0  0
  -14.9685   -5.8743   17.8592 C   0  0  2  0  0  0  0  0  0  0  0  0
  -14.2600   -3.6358   17.6591 C   0  0  0  0  0  0  0  0  0  0  0  0
  -15.8400   -6.8717   17.4645 C   0  0  0  0  0  0  0  0  0  0  0  0
  -15.0240   -4.8632   16.9570 C   0  0  1  0  0  0  0  0  0  0  0  0
   -9.8635    3.6967   20.7503 C   0  0  0  0  0  0  0  0  0  0  0  0
  -10.6074    4.6001   19.6536 C   0  0  0  0  0  0  0  0  0  0  0  0
  -11.3615    3.6210   18.6394 C   0  0  1  0  0  0  0  0  0  0  0  0
  -12.0979    4.3942   17.5388 C   0  0  0  0  0  0  0  0  0  0  0  0
  -11.9335   -2.8990   18.2693 C   0  0  1  0  0  0  0  0  0  0  0  0
  -12.7768   -2.0386   19.3531 C   0  0  0  0  0  0  0  0  0  0  0  0
  -11.8450   -0.9581   20.0254 C   0  0  2  0  0  0  0  0  0  0  0  0
  -13.6411   -6.4258   18.0125 F   0  0  0  0  0  0  0  0  0  0  0  0
  -10.2269   -1.1422    7.0176 N   0  0  0  0  0  0  0  0  0  0  0  0
   -8.0980    1.8279   20.9452 N   0  0  0  0  0  0  0  0  0  0  0  0
   -6.6453   -2.2102   11.3933 N   0  0  0  0  0  0  0  0  0  0  0  0
  -17.1704   -6.8169   16.9864 N   0  0  0  0  0  0  0  0  0  0  0  0
  -12.6321    5.6013   18.0372 N   0  0  0  0  0  0  0  0  0  0  0  0
  -12.8217   -3.9114   17.6706 N   0  0  0  0  0  0  0  0  0  0  0  0
  -12.6053   -0.1558   21.0090 N   0  0  0  0  0  0  0  0  0  0  0  0
  -10.4444    0.9240   19.5999 O   0  0  0  0  0  0  0  0  0  0  0  0
   -9.9992    0.2282   16.8585 O   0  0  0  0  0  0  0  0  0  0  0  0
  -10.7350   -2.5407   16.2003 O   0  0  0  0  0  0  0  0  0  0  0  0
  -10.9276   -1.1556   14.3073 O   0  0  0  0  0  0  0  0  0  0  0  0
   -8.3247    0.9876   15.3847 O   0  0  0  0  0  0  0  0  0  0  0  0
   -8.1973    3.9300   14.7921 O   0  0  0  0  0  0  0  0  0  0  0  0
   -8.4917   -0.7220   13.1141 O   0  0  0  0  0  0  0  0  0  0  0  0
  -14.3784   -5.1861   15.7059 O   0  0  0  0  0  0  0  0  0  0  0  0
  -14.8167   -2.6173   18.1010 O   0  0  0  0  0  0  0  0  0  0  0  0
   -9.0295   -0.6380   10.7286 O   0  0  0  0  0  0  0  0  0  0  0  0
  -10.3582    2.6848   17.9861 O   0  0  0  0  0  0  0  0  0  0  0  0
  1 36  1  1  0  0  0
  2 36  1  1  0  0  0
  2  3  1  0  0  0  0
  3 37  1  6  0  0  0
  3  4  1  0  0  0  0
  4 38  1  6  0  0  0
  5 37  1  1  0  0  0
  5  6  1  0  0  0  0
  6  7  1  0  0  0  0
  6 39  1  6  0  0  0
  7 42  1  1  0  0  0
  8  9  1  1  0  0  0
  8  7  1  0  0  0  0
 10 42  1  1  0  0  0
 10 11  1  0  0  0  0
 11 31  1  6  0  0  0
 11 13  1  0  0  0  0
 12 30  1  1  0  0  0
 12  1  1  0  0  0  0
 14 13  1  0  0  0  0
 15 16  1  6  0  0  0
 15 14  1  0  0  0  0
 17 19  1  6  0  0  0
 17 28  1  0  0  0  0
 18 34  1  0  0  0  0
 19 32  1  0  0  0  0
 20 18  1  1  0  0  0
 20 17  1  0  0  0  0
 20 43  1  0  0  0  0
 21 12  1  0  0  0  0
 22 21  1  0  0  0  0
 22 23  1  0  0  0  0
 23 24  1  6  0  0  0
 23 46  1  0  0  0  0
 24 33  1  0  0  0  0
 25 34  1  6  0  0  0
 25  4  1  0  0  0  0
 26 25  1  0  0  0  0
 27 35  1  1  0  0  0
 27 26  1  0  0  0  0
 27  2  1  0  0  0  0
 29 16  1  0  0  0  0
 40  8  1  0  0  0  0
 40  5  1  0  0  0  0
 41  9  1  0  0  0  0
 44 18  2  0  0  0  0
 45 15  1  0  0  0  0
 45 10  1  0  0  0  0
 46  1  1  0  0  0  0
M  END
>  <CHROM.1>
178.39330280,48.50643432,-172.75869934,98.18608082,95.21492963,176.78923949
176.62775747,65.41393221,-44.62178574,72.77480944,167.34780980,-35.63914635
-90.28270716,-10.90437363,-0.73372369,15.94909982,-2.30190148,-0.93372026
-2.20709412

>  <Name>
lig.pdb

>  <RI>
0

>  <Rbt.Current_Directory>
/home/afrankz/demos/rdock_decoys_rna/rnas/3wru

>  <Rbt.Executable>
rbdock ($Id: //depot/dev/client3/rdock/2013.1/src/exe/rbdock.cxx#4 $)

>  <Rbt.Library>
libRbt.so (2013.1, Build901 2013/11/27)

>  <Rbt.Parameter_File>
/export/apps/rDock/src/rDock_2013.1_src/data/scripts/dock_solv.prm

>  <Rbt.Receptor>
prm/blind_docking_40.prm

>  <SCORE>
14.5917

>  <SCORE.INTER>
3.44892

>  <SCORE.INTER.CONST>
1

>  <SCORE.INTER.POLAR>
0

>  <SCORE.INTER.ROT>
13

>  <SCORE.INTER.SOLV>
29.7975

>  <SCORE.INTER.VDW>
-19.8999

>  <SCORE.INTER.norm>
0.0749766

>  <SCORE.INTRA>
6.72509

>  <SCORE.INTRA.DIHEDRAL>
-4.02449

>  <SCORE.INTRA.DIHEDRAL.0>
19.7146

>  <SCORE.INTRA.POLAR>
0

>  <SCORE.INTRA.POLAR.0>
0

>  <SCORE.INTRA.REPUL>
0

>  <SCORE.INTRA.REPUL.0>
0

>  <SCORE.INTRA.SOLV>
-1.97355

>  <SCORE.INTRA.SOLV.lig_0>
-116.697

>  <SCORE.INTRA.VDW>
9.72411

>  <SCORE.INTRA.VDW.0>
-7.06424

>  <SCORE.INTRA.norm>
0.146198

>  <SCORE.RESTR>
4.41772

>  <SCORE.RESTR.CAVITY>
4.41772

>  <SCORE.RESTR.norm>
0.0960374

>  <SCORE.SYSTEM>
0

>  <SCORE.SYSTEM.CONST>
0

>  <SCORE.SYSTEM.DIHEDRAL>
0

>  <SCORE.SYSTEM.SOLV>
0

>  <SCORE.SYSTEM.norm>
0

>  <SCORE.heavy>
46

>  <SCORE.norm>
0.317212

>  <RMSD>
29.617

$$$$
lig.pdb
 OpenBabel03061811583D
libRbt.so/2013.1/901 2013/11/27
 46 49  0  0  0  0  0  0  0  0999 V2000
  -10.3615    2.1966   20.4625 C   0  0  1  0  0  0  0  0  0  0  0  0
  -10.9307    0.3026   18.8824 C   0  0  1  0  0  0  0  0  0  0  0  0
  -10.3071   -0.3500   17.6116 C   0  0  1  0  0  0  0  0  0  0  0  0
  -11.3383   -1.4458   17.0296 C   0  0  2  0  0  0  0  0  0  0  0  0
   -9.8766    0.6787   15.3325 C   0  0  2  0  0  0  0  0  0  0  0  0
   -9.1402    1.9189   14.7507 C   0  0  1  0  0  0  0  0  0  0  0  0
   -8.5385    1.2529   13.5369 C   0  0  1  0  0  0  0  0  0  0  0  0
   -7.9459   -0.0889   14.0733 C   0  0  1  0  0  0  0  0  0  0  0  0
   -6.5303   -0.0196   14.7463 C   0  0  0  0  0  0  0  0  0  0  0  0
   -9.2314    0.5179   11.2867 C   0  0  1  0  0  0  0  0  0  0  0  0
  -10.0112    1.0581   10.1253 C   0  0  1  0  0  0  0  0  0  0  0  0
   -9.6756    3.5567   20.1927 C   0  0  1  0  0  0  0  0  0  0  0  0
   -9.4882    0.3736    8.8129 C   0  0  0  0  0  0  0  0  0  0  0  0
   -9.6250   -1.0543    8.7846 C   0  0  0  0  0  0  0  0  0  0  0  0
   -8.8544   -1.6157    9.8737 C   0  0  2  0  0  0  0  0  0  0  0  0
   -8.9739   -3.1905    9.9000 C   0  0  0  0  0  0  0  0  0  0  0  0
  -14.6204   -5.4857   17.9833 C   0  0  2  0  0  0  0  0  0  0  0  0
  -13.8852   -3.2806   17.5957 C   0  0  0  0  0  0  0  0  0  0  0  0
  -15.7310   -6.3036   17.8964 C   0  0  0  0  0  0  0  0  0  0  0  0
  -14.6972   -4.5399   17.0143 C   0  0  1  0  0  0  0  0  0  0  0  0
   -8.0902    3.4372   20.3346 C   0  0  0  0  0  0  0  0  0  0  0  0
   -7.7574    2.9137   21.8136 C   0  0  0  0  0  0  0  0  0  0  0  0
   -8.4723    1.4968   22.0062 C   0  0  1  0  0  0  0  0  0  0  0  0
   -8.2223    0.9151   23.4029 C   0  0  0  0  0  0  0  0  0  0  0  0
  -11.5305   -2.5766   18.1319 C   0  0  1  0  0  0  0  0  0  0  0  0
  -12.2007   -1.8462   19.4138 C   0  0  0  0  0  0  0  0  0  0  0  0
  -11.2201   -0.7492   19.9820 C   0  0  2  0  0  0  0  0  0  0  0  0
  -13.4214   -6.2888   17.8985 F   0  0  0  0  0  0  0  0  0  0  0  0
   -8.5644   -3.8111   11.2665 N   0  0  0  0  0  0  0  0  0  0  0  0
  -10.0912    4.0286   18.8201 N   0  0  0  0  0  0  0  0  0  0  0  0
  -11.3787    0.7733   10.1718 N   0  0  0  0  0  0  0  0  0  0  0  0
  -17.1145   -6.0108   17.9375 N   0  0  0  0  0  0  0  0  0  0  0  0
   -8.4904    1.8706   24.4059 N   0  0  0  0  0  0  0  0  0  0  0  0
  -12.4582   -3.6075   17.6329 N   0  0  0  0  0  0  0  0  0  0  0  0
  -11.8246   -0.0646   21.1461 N   0  0  0  0  0  0  0  0  0  0  0  0
  -10.0314    1.2474   19.4480 O   0  0  0  0  0  0  0  0  0  0  0  0
  -10.0732    0.7586   16.6272 O   0  0  0  0  0  0  0  0  0  0  0  0
  -10.7653   -2.0070   15.9103 O   0  0  0  0  0  0  0  0  0  0  0  0
  -10.0931    2.8940   14.4534 O   0  0  0  0  0  0  0  0  0  0  0  0
   -9.0721   -0.4680   14.8819 O   0  0  0  0  0  0  0  0  0  0  0  0
   -5.6051    0.4650   13.7527 O   0  0  0  0  0  0  0  0  0  0  0  0
   -9.6305    1.0071   12.5116 O   0  0  0  0  0  0  0  0  0  0  0  0
  -14.1094   -4.9624   15.7644 O   0  0  0  0  0  0  0  0  0  0  0  0
  -14.4018   -2.2045   17.9386 O   0  0  0  0  0  0  0  0  0  0  0  0
   -9.3000   -1.0261   11.1911 O   0  0  0  0  0  0  0  0  0  0  0  0
   -9.9714    1.6451   21.8039 O   0  0  0  0  0  0  0  0  0  0  0  0
  1 36  1  6  0  0  0
  2 36  1  1  0  0  0
  2  3  1  0  0  0  0
  3 37  1  6  0  0  0
  3  4  1  0  0  0  0
  4 38  1  6  0  0  0
  5 37  1  1  0  0  0
  5  6  1  0  0  0  0
  6  7  1  0  0  0  0
  6 39  1  6  0  0  0
  7 42  1  6  0  0  0
  8  9  1  1  0  0  0
  8  7  1  0  0  0  0
 10 42  1  1  0  0  0
 10 11  1  0  0  0  0
 11 31  1  1  0  0  0
 11 13  1  0  0  0  0
 12 30  1  6  0  0  0
 12  1  1  0  0  0  0
 14 13  1  0  0  0  0
 15 16  1  1  0  0  0
 15 14  1  0  0  0  0
 17 19  1  6  0  0  0
 17 28  1  0  0  0  0
 18 34  1  0  0  0  0
 19 32  1  0  0  0  0
 20 18  1  1  0  0  0
 20 17  1  0  0  0  0
 20 43  1  0  0  0  0
 21 12  1  0  0  0  0
 22 21  1  0  0  0  0
 22 23  1  0  0  0  0
 23 24  1  1  0  0  0
 23 46  1  0  0  0  0
 24 33  1  0  0  0  0
 25 34  1  6  0  0  0
 25  4  1  0  0  0  0
 26 25  1  0  0  0  0
 27 35  1  1  0  0  0
 27 26  1  0  0  0  0
 27  2  1  0  0  0  0
 29 16  1  0  0  0  0
 40  8  1  0  0  0  0
 40  5  1  0  0  0  0
 41  9  1  0  0  0  0
 44 18  2  0  0  0  0
 45 15  1  0  0  0  0
 45 10  1  0  0  0  0
 46  1  1  0  0  0  0
M  END
>  <CHROM.1>
-140.56215584,168.05168768,-161.84008529,-157.49342284,174.07364158,-60.70197459
-143.45918658,-161.66833201,-56.46681647,69.90271354,152.21902733,49.37492435
-74.94727062,-10.52093142,-0.63471826,16.39281871,-1.74130033,-0.85588439
-1.81272474

>  <Name>
lig.pdb

>  <RI>
0

>  <Rbt.Current_Directory>
/home/afrankz/demos/rdock_decoys_rna/rnas/3wru

>  <Rbt.Executable>
rbdock ($Id: //depot/dev/client3/rdock/2013.1/src/exe/rbdock.cxx#4 $)

>  <Rbt.Library>
libRbt.so (2013.1, Build901 2013/11/27)

>  <Rbt.Parameter_File>
/export/apps/rDock/src/rDock_2013.1_src/data/scripts/dock_solv.prm

>  <Rbt.Receptor>
prm/blind_docking_40.prm

>  <SCORE>
6.97703

>  <SCORE.INTER>
-0.369683

>  <SCORE.INTER.CONST>
1

>  <SCORE.INTER.POLAR>
0

>  <SCORE.INTER.ROT>
13

>  <SCORE.INTER.SOLV>
31.8523

>  <SCORE.INTER.VDW>
-23.1305

>  <SCORE.INTER.norm>
-0.00803659

>  <SCORE.INTRA>
4.88593

>  <SCORE.INTRA.DIHEDRAL>
-0.146723

>  <SCORE.INTRA.DIHEDRAL.0>
19.7146

>  <SCORE.INTRA.POLAR>
0

>  <SCORE.INTRA.POLAR.0>
0

>  <SCORE.INTRA.REPUL>
0

>  <SCORE.INTRA.REPUL.0>
0

>  <SCORE.INTRA.SOLV>
0.645769

>  <SCORE.INTRA.SOLV.lig_0>
-116.697

>  <SCORE.INTRA.VDW>
4.6364

>  <SCORE.INTRA.VDW.0>
-7.06424

>  <SCORE.INTRA.norm>
0.106216

>  <SCORE.RESTR>
2.46078

>  <SCORE.RESTR.CAVITY>
2.46078

>  <SCORE.RESTR.norm>
0.0534953

>  <SCORE.SYSTEM>
0

>  <SCORE.SYSTEM.CONST>
0

>  <SCORE.SYSTEM.DIHEDRAL>
0

>  <SCORE.SYSTEM.SOLV>
0

>  <SCORE.SYSTEM.norm>
0

>  <SCORE.heavy>
46

>  <SCORE.norm>
0.151675

>  <RMSD>
29.640

$$$$
lig.pdb
 OpenBabel03061811583D
libRbt.so/2013.1/901 2013/11/27
 46 49  0  0  0  0  0  0  0  0999 V2000
  -12.1143   -0.5506   18.9520 C   0  0  1  0  0  0  0  0  0  0  0  0
  -11.3583   -1.3482   16.6716 C   0  0  1  0  0  0  0  0  0  0  0  0
  -10.5364   -0.2041   16.0042 C   0  0  1  0  0  0  0  0  0  0  0  0
  -10.6555   -0.3441   14.4013 C   0  0  2  0  0  0  0  0  0  0  0  0
  -11.1451    1.5801   17.7024 C   0  0  2  0  0  0  0  0  0  0  0  0
   -9.9990    2.5977   17.9663 C   0  0  1  0  0  0  0  0  0  0  0  0
  -10.6648    3.3781   19.0739 C   0  0  1  0  0  0  0  0  0  0  0  0
  -12.1176    3.6342   18.5611 C   0  0  1  0  0  0  0  0  0  0  0  0
  -12.3201    4.8410   17.5790 C   0  0  0  0  0  0  0  0  0  0  0  0
   -9.8601    2.9835   21.3718 C   0  0  1  0  0  0  0  0  0  0  0  0
   -8.6600    3.7643   20.9258 C   0  0  1  0  0  0  0  0  0  0  0  0
  -11.6086   -0.5955   20.4133 C   0  0  1  0  0  0  0  0  0  0  0  0
   -7.8160    4.1472   22.1928 C   0  0  0  0  0  0  0  0  0  0  0  0
   -7.3333    3.0301   22.9530 C   0  0  0  0  0  0  0  0  0  0  0  0
   -8.4681    2.2700   23.4320 C   0  0  2  0  0  0  0  0  0  0  0  0
   -7.9978    1.0173   24.2714 C   0  0  0  0  0  0  0  0  0  0  0  0
   -8.9870   -2.7147    9.9869 C   0  0  2  0  0  0  0  0  0  0  0  0
   -9.1785   -1.1000   11.6926 C   0  0  0  0  0  0  0  0  0  0  0  0
   -9.0185   -3.0356    8.6430 C   0  0  0  0  0  0  0  0  0  0  0  0
   -9.4336   -1.4437   10.1434 C   0  0  1  0  0  0  0  0  0  0  0  0
  -11.6967   -2.0753   21.0051 C   0  0  0  0  0  0  0  0  0  0  0  0
  -13.2223   -2.5615   20.9141 C   0  0  0  0  0  0  0  0  0  0  0  0
  -13.6619   -2.5168   19.3777 C   0  0  1  0  0  0  0  0  0  0  0  0
  -15.1188   -2.9553   19.1865 C   0  0  0  0  0  0  0  0  0  0  0  0
  -10.0126   -1.7366   13.9788 C   0  0  1  0  0  0  0  0  0  0  0  0
  -10.9193   -2.8821   14.6799 C   0  0  0  0  0  0  0  0  0  0  0  0
  -10.8406   -2.7455   16.2493 C   0  0  2  0  0  0  0  0  0  0  0  0
   -7.6500   -2.9134   10.4995 F   0  0  0  0  0  0  0  0  0  0  0  0
   -7.9109    1.3032   25.7982 N   0  0  0  0  0  0  0  0  0  0  0  0
  -10.1996   -0.0538   20.4398 N   0  0  0  0  0  0  0  0  0  0  0  0
   -7.7866    3.0499   20.1009 N   0  0  0  0  0  0  0  0  0  0  0  0
   -8.5980   -4.1932    7.9471 N   0  0  0  0  0  0  0  0  0  0  0  0
  -15.3075   -3.5513   17.9215 N   0  0  0  0  0  0  0  0  0  0  0  0
  -10.0894   -1.8983   12.5158 N   0  0  0  0  0  0  0  0  0  0  0  0
  -11.6745   -3.7781   16.9033 N   0  0  0  0  0  0  0  0  0  0  0  0
  -11.2441   -1.2813   18.0872 O   0  0  0  0  0  0  0  0  0  0  0  0
  -11.1263    1.0893   16.4859 O   0  0  0  0  0  0  0  0  0  0  0  0
   -9.9223    0.6753   13.8364 O   0  0  0  0  0  0  0  0  0  0  0  0
   -8.8673    1.8875   18.3687 O   0  0  0  0  0  0  0  0  0  0  0  0
  -12.3699    2.3051   18.0758 O   0  0  0  0  0  0  0  0  0  0  0  0
  -11.8763    4.4138   16.2757 O   0  0  0  0  0  0  0  0  0  0  0  0
  -10.6625    2.5432   20.3417 O   0  0  0  0  0  0  0  0  0  0  0  0
   -8.7331   -0.4922    9.3125 O   0  0  0  0  0  0  0  0  0  0  0  0
   -8.3286   -0.2945   12.1066 O   0  0  0  0  0  0  0  0  0  0  0  0
   -9.3379    1.8389   22.2747 O   0  0  0  0  0  0  0  0  0  0  0  0
  -13.5059   -1.1042   18.8388 O   0  0  0  0  0  0  0  0  0  0  0  0
  1 36  1  6  0  0  0
  2 36  1  1  0  0  0
  2  3  1  0  0  0  0
  3 37  1  1  0  0  0
  3  4  1  0  0  0  0
  4 38  1  6  0  0  0
  5 37  1  6  0  0  0
  5  6  1  0  0  0  0
  6  7  1  0  0  0  0
  6 39  1  1  0  0  0
  7 42  1  1  0  0  0
  8  9  1  6  0  0  0
  8  7  1  0  0  0  0
 10 42  1  6  0  0  0
 10 11  1  0  0  0  0
 11 31  1  6  0  0  0
 11 13  1  0  0  0  0
 12 30  1  6  0  0  0
 12  1  1  0  0  0  0
 14 13  1  0  0  0  0
 15 16  1  6  0  0  0
 15 14  1  0  0  0  0
 17 19  1  6  0  0  0
 17 28  1  0  0  0  0
 18 34  1  0  0  0  0
 19 32  1  0  0  0  0
 20 18  1  1  0  0  0
 20 17  1  0  0  0  0
 20 43  1  0  0  0  0
 21 12  1  0  0  0  0
 22 21  1  0  0  0  0
 22 23  1  0  0  0  0
 23 24  1  1  0  0  0
 23 46  1  0  0  0  0
 24 33  1  0  0  0  0
 25 34  1  6  0  0  0
 25  4  1  0  0  0  0
 26 25  1  0  0  0  0
 27 35  1  1  0  0  0
 27 26  1  0  0  0  0
 27  2  1  0  0  0  0
 29 16  1  0  0  0  0
 40  8  1  0  0  0  0
 40  5  1  0  0  0  0
 41  9  1  0  0  0  0
 44 18  2  0  0  0  0
 45 15  1  0  0  0  0
 45 10  1  0  0  0  0
 46  1  1  0  0  0  0
M  END
>  <CHROM.1>
-174.55109284,90.22657249,65.47832846,96.69634849,111.51617032,78.28835835
-28.23243731,92.91098683,176.21600637,-69.08700727,-172.76972764,-150.34676756
73.66712796,-10.41549266,0.09275462,17.21594428,1.62706332,0.87610207,1.17038990

>  <Name>
lig.pdb

>  <RI>
0

>  <Rbt.Current_Directory>
/home/afrankz/demos/rdock_decoys_rna/rnas/3wru

>  <Rbt.Executable>
rbdock ($Id: //depot/dev/client3/rdock/2013.1/src/exe/rbdock.cxx#4 $)

>  <Rbt.Library>
libRbt.so (2013.1, Build901 2013/11/27)

>  <Rbt.Parameter_File>
/export/apps/rDock/src/rDock_2013.1_src/data/scripts/dock_solv.prm

>  <Rbt.Receptor>
prm/blind_docking_100.prm

>  <SCORE>
25.4057

>  <SCORE.INTER>
6.79763

>  <SCORE.INTER.CONST>
1

>  <SCORE.INTER.POLAR>
0

>  <SCORE.INTER.ROT>
13

>  <SCORE.INTER.SOLV>
33.878

>  <SCORE.INTER.VDW>
-19.0276

>  <SCORE.INTER.norm>
0.147774

>  <SCORE.INTRA>
15.0116

>  <SCORE.INTRA.DIHEDRAL>
7.85289

>  <SCORE.INTRA.DIHEDRAL.0>
19.7146

>  <SCORE.INTRA.POLAR>
0

>  <SCORE.INTRA.POLAR.0>
0

>  <SCORE.INTRA.REPUL>
0.089731

>  <SCORE.INTRA.REPUL.0>
0

>  <SCORE.INTRA.SOLV>
8.69501

>  <SCORE.INTRA.SOLV.lig_0>
-116.697

>  <SCORE.INTRA.VDW>
6.28903

>  <SCORE.INTRA.VDW.0>
-7.06424

>  <SCORE.INTRA.norm>
0.32634

>  <SCORE.RESTR>
3.59646

>  <SCORE.RESTR.CAVITY>
3.59646

>  <SCORE.RESTR.norm>
0.0781839

>  <SCORE.SYSTEM>
0

>  <SCORE.SYSTEM.CONST>
0

>  <SCORE.SYSTEM.DIHEDRAL>
0

>  <SCORE.SYSTEM.SOLV>
0

>  <SCORE.SYSTEM.norm>
0

>  <SCORE.heavy>
46

>  <SCORE.norm>
0.552298

>  <RMSD>
29.725

$$$$
lig.pdb
 OpenBabel03061811583D
libRbt.so/2013.1/901 2013/11/27
 46 49  0  0  0  0  0  0  0  0999 V2000
  -10.9433    2.1986   18.4828 C   0  0  1  0  0  0  0  0  0  0  0  0
   -9.5930    1.4676   16.4703 C   0  0  1  0  0  0  0  0  0  0  0  0
  -10.3595    0.1144   16.5756 C   0  0  1  0  0  0  0  0  0  0  0  0
   -9.6496   -0.9630   15.6071 C   0  0  2  0  0  0  0  0  0  0  0  0
  -11.1552   -1.0122   18.7053 C   0  0  2  0  0  0  0  0  0  0  0  0
  -12.6242   -0.5504   18.4878 C   0  0  1  0  0  0  0  0  0  0  0  0
  -13.3050   -1.8521   18.8358 C   0  0  1  0  0  0  0  0  0  0  0  0
  -12.4873   -2.9435   18.0746 C   0  0  1  0  0  0  0  0  0  0  0  0
  -12.8324   -3.1594   16.5593 C   0  0  0  0  0  0  0  0  0  0  0  0
  -14.2775   -1.5291   21.0793 C   0  0  1  0  0  0  0  0  0  0  0  0
  -14.1273   -0.0690   21.3869 C   0  0  1  0  0  0  0  0  0  0  0  0
  -11.8056    3.4201   18.8798 C   0  0  1  0  0  0  0  0  0  0  0  0
  -15.3393    0.3793   22.2782 C   0  0  0  0  0  0  0  0  0  0  0  0
  -15.4478   -0.3068   23.5336 C   0  0  0  0  0  0  0  0  0  0  0  0
  -15.6302   -1.7194   23.2759 C   0  0  2  0  0  0  0  0  0  0  0  0
  -15.7473   -2.5314   24.6257 C   0  0  0  0  0  0  0  0  0  0  0  0
   -9.3757   -2.9766   10.4335 C   0  0  2  0  0  0  0  0  0  0  0  0
   -9.0960   -1.0543   11.7676 C   0  0  0  0  0  0  0  0  0  0  0  0
   -8.9789   -3.4517    9.1979 C   0  0  0  0  0  0  0  0  0  0  0  0
   -8.3676   -2.2396   10.9627 C   0  0  1  0  0  0  0  0  0  0  0  0
  -10.8883    4.6601   19.2906 C   0  0  0  0  0  0  0  0  0  0  0  0
   -9.9475    4.2061   20.5076 C   0  0  0  0  0  0  0  0  0  0  0  0
   -9.0694    2.9647   20.0138 C   0  0  1  0  0  0  0  0  0  0  0  0
   -8.1396    2.4466   21.1176 C   0  0  0  0  0  0  0  0  0  0  0  0
   -9.7674   -0.4343   14.1112 C   0  0  1  0  0  0  0  0  0  0  0  0
   -8.9355    0.9553   14.0583 C   0  0  0  0  0  0  0  0  0  0  0  0
   -9.5961    2.0153   15.0215 C   0  0  2  0  0  0  0  0  0  0  0  0
   -9.7694   -4.0852   11.2735 F   0  0  0  0  0  0  0  0  0  0  0  0
  -15.5198   -4.0593   24.4406 N   0  0  0  0  0  0  0  0  0  0  0  0
  -12.7199    3.7458   17.7233 N   0  0  0  0  0  0  0  0  0  0  0  0
  -12.9854    0.2450   22.1292 N   0  0  0  0  0  0  0  0  0  0  0  0
   -8.5998   -2.7772    8.0135 N   0  0  0  0  0  0  0  0  0  0  0  0
   -7.2704    3.4631   21.5673 N   0  0  0  0  0  0  0  0  0  0  0  0
   -9.1407   -1.3993   13.1901 N   0  0  0  0  0  0  0  0  0  0  0  0
   -8.8391    3.2863   14.9931 N   0  0  0  0  0  0  0  0  0  0  0  0
  -10.2153    2.4556   17.2815 O   0  0  0  0  0  0  0  0  0  0  0  0
  -10.2886   -0.3115   18.0132 O   0  0  0  0  0  0  0  0  0  0  0  0
  -10.3441   -2.1469   15.7176 O   0  0  0  0  0  0  0  0  0  0  0  0
  -12.8923    0.4900   19.3783 O   0  0  0  0  0  0  0  0  0  0  0  0
  -11.1798   -2.4550   18.4175 O   0  0  0  0  0  0  0  0  0  0  0  0
  -13.7602   -4.2600   16.4822 O   0  0  0  0  0  0  0  0  0  0  0  0
  -13.2439   -2.0595   20.3383 O   0  0  0  0  0  0  0  0  0  0  0  0
   -7.5281   -2.9946   11.8634 O   0  0  0  0  0  0  0  0  0  0  0  0
   -9.5307   -0.0123   11.2500 O   0  0  0  0  0  0  0  0  0  0  0  0
  -14.4953   -2.2502   22.4322 O   0  0  0  0  0  0  0  0  0  0  0  0
   -9.9819    1.8306   19.5765 O   0  0  0  0  0  0  0  0  0  0  0  0
  1 36  1  6  0  0  0
  2 36  1  1  0  0  0
  2  3  1  0  0  0  0
  3 37  1  1  0  0  0
  3  4  1  0  0  0  0
  4 38  1  6  0  0  0
  5 37  1  6  0  0  0
  5  6  1  0  0  0  0
  6  7  1  0  0  0  0
  6 39  1  1  0  0  0
  7 42  1  1  0  0  0
  8  9  1  6  0  0  0
  8  7  1  0  0  0  0
 10 42  1  1  0  0  0
 10 11  1  0  0  0  0
 11 31  1  1  0  0  0
 11 13  1  0  0  0  0
 12 30  1  6  0  0  0
 12  1  1  0  0  0  0
 14 13  1  0  0  0  0
 15 16  1  1  0  0  0
 15 14  1  0  0  0  0
 17 19  1  6  0  0  0
 17 28  1  0  0  0  0
 18 34  1  0  0  0  0
 19 32  1  0  0  0  0
 20 18  1  1  0  0  0
 20 17  1  0  0  0  0
 20 43  1  0  0  0  0
 21 12  1  0  0  0  0
 22 21  1  0  0  0  0
 22 23  1  0  0  0  0
 23 24  1  1  0  0  0
 23 46  1  0  0  0  0
 24 33  1  0  0  0  0
 25 34  1  6  0  0  0
 25  4  1  0  0  0  0
 26 25  1  0  0  0  0
 27 35  1  1  0  0  0
 27 26  1  0  0  0  0
 27  2  1  0  0  0  0
 29 16  1  0  0  0  0
 40  8  1  0  0  0  0
 40  5  1  0  0  0  0
 41  9  1  0  0  0  0
 44 18  2  0  0  0  0
 45 15  1  0  0  0  0
 45 10  1  0  0  0  0
 46  1  1  0  0  0  0
M  END
>  <CHROM.1>
-163.92955513,29.44591809,149.55287203,-44.96467385,88.84081382,-95.92349842
-82.22170468,-162.84917730,-60.94125252,99.05017288,144.88081858,-58.39832018
-177.24470176,-11.20652036,-0.38497349,17.43276819,-2.26859804,-0.90226138
-2.29037457

>  <Name>
lig.pdb

>  <RI>
0

>  <Rbt.Current_Directory>
/home/afrankz/demos/rdock_decoys_rna/rnas/3wru

>  <Rbt.Executable>
rbdock ($Id: //depot/dev/client3/rdock/2013.1/src/exe/rbdock.cxx#4 $)

>  <Rbt.Library>
libRbt.so (2013.1, Build901 2013/11/27)

>  <Rbt.Parameter_File>
/export/apps/rDock/src/rDock_2013.1_src/data/scripts/dock_solv.prm

>  <Rbt.Receptor>
prm/blind_docking_100.prm

>  <SCORE>
16.9617

>  <SCORE.INTER>
5.76112

>  <SCORE.INTER.CONST>
1

>  <SCORE.INTER.POLAR>
0

>  <SCORE.INTER.ROT>
13

>  <SCORE.INTER.SOLV>
32.4473

>  <SCORE.INTER.VDW>
-19.2417

>  <SCORE.INTER.norm>
0.125242

>  <SCORE.INTRA>
9.14178

>  <SCORE.INTRA.DIHEDRAL>
4.97583

>  <SCORE.INTRA.DIHEDRAL.0>
19.7146

>  <SCORE.INTRA.POLAR>
0

>  <SCORE.INTRA.POLAR.0>
0

>  <SCORE.INTRA.REPUL>
0

>  <SCORE.INTRA.REPUL.0>
0

>  <SCORE.INTRA.SOLV>
0.598897

>  <SCORE.INTRA.SOLV.lig_0>
-116.697

>  <SCORE.INTRA.VDW>
6.35442

>  <SCORE.INTRA.VDW.0>
-7.06424

>  <SCORE.INTRA.norm>
0.198734

>  <SCORE.RESTR>
2.05882

>  <SCORE.RESTR.CAVITY>
2.05882

>  <SCORE.RESTR.norm>
0.0447569

>  <SCORE.SYSTEM>
0

>  <SCORE.SYSTEM.CONST>
0

>  <SCORE.SYSTEM.DIHEDRAL>
0

>  <SCORE.SYSTEM.SOLV>
0

>  <SCORE.SYSTEM.norm>
0

>  <SCORE.heavy>
46

>  <SCORE.norm>
0.368733

>  <RMSD>
29.730

$$$$
lig.pdb
 OpenBabel03061811583D
libRbt.so/2013.1/901 2013/11/27
 46 49  0  0  0  0  0  0  0  0999 V2000
   -8.5538   -1.6858   14.2242 C   0  0  1  0  0  0  0  0  0  0  0  0
   -9.1829    0.6315   15.0259 C   0  0  1  0  0  0  0  0  0  0  0  0
  -10.1788    1.7400   14.5689 C   0  0  1  0  0  0  0  0  0  0  0  0
  -10.3366    2.8202   15.7568 C   0  0  2  0  0  0  0  0  0  0  0  0
   -9.9493    2.1972   12.0837 C   0  0  2  0  0  0  0  0  0  0  0  0
  -11.0950    1.1602   11.9089 C   0  0  1  0  0  0  0  0  0  0  0  0
  -11.6488    1.6801   10.6043 C   0  0  1  0  0  0  0  0  0  0  0  0
  -11.7351    3.2274   10.7983 C   0  0  1  0  0  0  0  0  0  0  0  0
  -12.9920    3.7773   11.5597 C   0  0  0  0  0  0  0  0  0  0  0  0
  -11.2701    0.9307    8.2851 C   0  0  1  0  0  0  0  0  0  0  0  0
  -11.8801   -0.4391    8.3070 C   0  0  1  0  0  0  0  0  0  0  0  0
   -8.3356   -2.4118   12.8757 C   0  0  1  0  0  0  0  0  0  0  0  0
  -12.4366   -0.7593    6.8745 C   0  0  0  0  0  0  0  0  0  0  0  0
  -11.4507   -0.7537    5.8321 C   0  0  0  0  0  0  0  0  0  0  0  0
  -10.8630    0.5669    5.7567 C   0  0  2  0  0  0  0  0  0  0  0  0
   -9.7594    0.6328    4.6286 C   0  0  0  0  0  0  0  0  0  0  0  0
  -12.8324    6.1174   18.9353 C   0  0  2  0  0  0  0  0  0  0  0  0
  -12.1455    4.0793   17.9725 C   0  0  0  0  0  0  0  0  0  0  0  0
  -13.3284    6.7227   20.0745 C   0  0  0  0  0  0  0  0  0  0  0  0
  -12.1620    4.9943   19.2937 C   0  0  1  0  0  0  0  0  0  0  0  0
   -9.7249   -2.6745   12.1349 C   0  0  0  0  0  0  0  0  0  0  0  0
  -10.6550   -3.5461   13.1083 C   0  0  0  0  0  0  0  0  0  0  0  0
  -10.8588   -2.7212   14.4625 C   0  0  1  0  0  0  0  0  0  0  0  0
  -11.7301   -3.4812   15.4698 C   0  0  0  0  0  0  0  0  0  0  0  0
  -10.9569    2.0776   17.0195 C   0  0  1  0  0  0  0  0  0  0  0  0
   -9.8714    0.9584   17.4614 C   0  0  0  0  0  0  0  0  0  0  0  0
   -9.6797   -0.0932   16.3014 C   0  0  2  0  0  0  0  0  0  0  0  0
  -12.0131    7.0589   18.2060 F   0  0  0  0  0  0  0  0  0  0  0  0
   -8.4463   -0.1066    5.0152 N   0  0  0  0  0  0  0  0  0  0  0  0
   -7.3928   -1.5791   12.0407 N   0  0  0  0  0  0  0  0  0  0  0  0
  -10.9739   -1.4648    8.5902 N   0  0  0  0  0  0  0  0  0  0  0  0
  -14.3241    6.3150   20.9930 N   0  0  0  0  0  0  0  0  0  0  0  0
  -10.9440   -4.3154   16.2927 N   0  0  0  0  0  0  0  0  0  0  0  0
  -11.1301    3.0353   18.1264 N   0  0  0  0  0  0  0  0  0  0  0  0
   -8.6811   -1.1150   16.6861 N   0  0  0  0  0  0  0  0  0  0  0  0
   -9.0489   -0.3623   14.0180 O   0  0  0  0  0  0  0  0  0  0  0  0
   -9.5941    2.3643   13.3355 O   0  0  0  0  0  0  0  0  0  0  0  0
  -11.2198    3.7865   15.3295 O   0  0  0  0  0  0  0  0  0  0  0  0
  -10.5254   -0.1107   11.8213 O   0  0  0  0  0  0  0  0  0  0  0  0
  -10.4399    3.4023   11.3965 O   0  0  0  0  0  0  0  0  0  0  0  0
  -14.1527    3.4369   10.7755 O   0  0  0  0  0  0  0  0  0  0  0  0
  -10.6983    1.3136    9.4790 O   0  0  0  0  0  0  0  0  0  0  0  0
  -10.8073    5.2567   19.7204 O   0  0  0  0  0  0  0  0  0  0  0  0
  -12.8935    4.2385   16.9938 O   0  0  0  0  0  0  0  0  0  0  0  0
  -10.2810    0.9600    7.0941 O   0  0  0  0  0  0  0  0  0  0  0  0
   -9.5090   -2.4416   15.1029 O   0  0  0  0  0  0  0  0  0  0  0  0
  1 36  1  6  0  0  0
  2 36  1  6  0  0  0
  2  3  1  0  0  0  0
  3 37  1  6  0  0  0
  3  4  1  0  0  0  0
  4 38  1  6  0  0  0
  5 37  1  1  0  0  0
  5  6  1  0  0  0  0
  6  7  1  0  0  0  0
  6 39  1  6  0  0  0
  7 42  1  6  0  0  0
  8  9  1  1  0  0  0
  8  7  1  0  0  0  0
 10 42  1  1  0  0  0
 10 11  1  0  0  0  0
 11 31  1  6  0  0  0
 11 13  1  0  0  0  0
 12 30  1  6  0  0  0
 12  1  1  0  0  0  0
 14 13  1  0  0  0  0
 15 16  1  6  0  0  0
 15 14  1  0  0  0  0
 17 19  1  1  0  0  0
 17 28  1  0  0  0  0
 18 34  1  0  0  0  0
 19 32  1  0  0  0  0
 20 18  1  6  0  0  0
 20 17  1  0  0  0  0
 20 43  1  0  0  0  0
 21 12  1  0  0  0  0
 22 21  1  0  0  0  0
 22 23  1  0  0  0  0
 23 24  1  1  0  0  0
 23 46  1  0  0  0  0
 24 33  1  0  0  0  0
 25 34  1  1  0  0  0
 25  4  1  0  0  0  0
 26 25  1  0  0  0  0
 27 35  1  1  0  0  0
 27 26  1  0  0  0  0
 27  2  1  0  0  0  0
 29 16  1  0  0  0  0
 40  8  1  0  0  0  0
 40  5  1  0  0  0  0
 41  9  1  0  0  0  0
 44 18  2  0  0  0  0
 45 15  1  0  0  0  0
 45 10  1  0  0  0  0
 46  1  1  0  0  0  0
M  END
>  <CHROM.1>
-170.91920766,-160.56752834,104.10549355,-2.69702752,141.21918599,-62.60772860
-73.65438729,-73.43771047,-67.16588099,163.71347370,157.89470381,88.92611959
68.61019877,-10.85011101,1.26623146,13.33052496,-1.21648407,-1.20670508,1.47991358

>  <Name>
lig.pdb

>  <RI>
0

>  <Rbt.Current_Directory>
/home/afrankz/demos/rdock_decoys_rna/rnas/3wru

>  <Rbt.Executable>
rbdock ($Id: //depot/dev/client3/rdock/2013.1/src/exe/rbdock.cxx#4 $)

>  <Rbt.Library>
libRbt.so (2013.1, Build901 2013/11/27)

>  <Rbt.Parameter_File>
/export/apps/rDock/src/rDock_2013.1_src/data/scripts/dock_solv.prm

>  <Rbt.Receptor>
prm/blind_docking_60.prm

>  <SCORE>
25.4757

>  <SCORE.INTER>
4.86623

>  <SCORE.INTER.CONST>
1

>  <SCORE.INTER.POLAR>
0

>  <SCORE.INTER.ROT>
13

>  <SCORE.INTER.SOLV>
29.771

>  <SCORE.INTER.VDW>
-18.9462

>  <SCORE.INTER.norm>
0.105788

>  <SCORE.INTRA>
16.5273

>  <SCORE.INTRA.DIHEDRAL>
7.68431

>  <SCORE.INTRA.DIHEDRAL.0>
19.7146

>  <SCORE.INTRA.POLAR>
0

>  <SCORE.INTRA.POLAR.0>
0

>  <SCORE.INTRA.REPUL>
0

>  <SCORE.INTRA.REPUL.0>
0

>  <SCORE.INTRA.SOLV>
5.1788

>  <SCORE.INTRA.SOLV.lig_0>
-116.697

>  <SCORE.INTRA.VDW>
10.0957

>  <SCORE.INTRA.VDW.0>
-7.06424

>  <SCORE.INTRA.norm>
0.359289

>  <SCORE.RESTR>
4.08215

>  <SCORE.RESTR.CAVITY>
4.08215

>  <SCORE.RESTR.norm>
0.0887424

>  <SCORE.SYSTEM>
0

>  <SCORE.SYSTEM.CONST>
0

>  <SCORE.SYSTEM.DIHEDRAL>
0

>  <SCORE.SYSTEM.SOLV>
0

>  <SCORE.SYSTEM.norm>
0

>  <SCORE.heavy>
46

>  <SCORE.norm>
0.553819

>  <RMSD>
29.772

$$$$
lig.pdb
 OpenBabel03061811583D
libRbt.so/2013.1/901 2013/11/27
 46 49  0  0  0  0  0  0  0  0999 V2000
   -9.4080   -1.6779   15.7874 C   0  0  1  0  0  0  0  0  0  0  0  0
   -9.9553    0.6557   16.6015 C   0  0  1  0  0  0  0  0  0  0  0  0
  -10.2340    2.0358   15.9327 C   0  0  1  0  0  0  0  0  0  0  0  0
  -10.2333    3.1768   17.0733 C   0  0  2  0  0  0  0  0  0  0  0  0
   -8.9325    1.6525   13.7887 C   0  0  2  0  0  0  0  0  0  0  0  0
   -9.2595    2.5446   12.5575 C   0  0  1  0  0  0  0  0  0  0  0  0
   -8.3566    1.8608   11.5595 C   0  0  1  0  0  0  0  0  0  0  0  0
   -7.0021    1.6724   12.3137 C   0  0  1  0  0  0  0  0  0  0  0  0
   -6.0352    2.9074   12.3534 C   0  0  0  0  0  0  0  0  0  0  0  0
   -9.5978    0.4667    9.9471 C   0  0  1  0  0  0  0  0  0  0  0  0
  -10.9582   -0.1629    9.9880 C   0  0  1  0  0  0  0  0  0  0  0  0
   -8.9863   -2.2650   14.4196 C   0  0  1  0  0  0  0  0  0  0  0  0
  -11.5274   -0.2139    8.5259 C   0  0  0  0  0  0  0  0  0  0  0  0
  -10.7384   -0.9750    7.6003 C   0  0  0  0  0  0  0  0  0  0  0  0
   -9.4248   -0.3743    7.5070 C   0  0  2  0  0  0  0  0  0  0  0  0
   -8.5041   -1.1770    6.5057 C   0  0  0  0  0  0  0  0  0  0  0  0
  -13.0049    6.2778   20.4301 C   0  0  2  0  0  0  0  0  0  0  0  0
  -12.6805    3.9949   19.9444 C   0  0  0  0  0  0  0  0  0  0  0  0
  -14.3236    6.4273   20.8157 C   0  0  0  0  0  0  0  0  0  0  0  0
  -12.4983    5.1698   21.0259 C   0  0  1  0  0  0  0  0  0  0  0  0
  -10.2612   -2.5659   13.5075 C   0  0  0  0  0  0  0  0  0  0  0  0
  -11.2132   -3.5866   14.2975 C   0  0  0  0  0  0  0  0  0  0  0  0
  -11.6296   -2.9007   15.6803 C   0  0  1  0  0  0  0  0  0  0  0  0
  -12.5364   -3.8092   16.5193 C   0  0  0  0  0  0  0  0  0  0  0  0
  -11.4182    2.8616   18.0870 C   0  0  1  0  0  0  0  0  0  0  0  0
  -11.0622    1.4336   18.7653 C   0  0  0  0  0  0  0  0  0  0  0  0
  -11.0289    0.3069   17.6620 C   0  0  2  0  0  0  0  0  0  0  0  0
  -12.2691    7.4804   20.7495 F   0  0  0  0  0  0  0  0  0  0  0  0
   -8.9039   -0.9780    5.0155 N   0  0  0  0  0  0  0  0  0  0  0  0
   -8.0334   -1.2941   13.7651 N   0  0  0  0  0  0  0  0  0  0  0  0
  -10.9627   -1.4877   10.4335 N   0  0  0  0  0  0  0  0  0  0  0  0
  -15.3958    5.5055   20.8607 N   0  0  0  0  0  0  0  0  0  0  0  0
  -12.8726   -3.1975   17.7456 N   0  0  0  0  0  0  0  0  0  0  0  0
  -11.4607    3.8914   19.1407 N   0  0  0  0  0  0  0  0  0  0  0  0
  -10.6923   -1.0016   18.2655 N   0  0  0  0  0  0  0  0  0  0  0  0
   -9.9882   -0.3826   15.6307 O   0  0  0  0  0  0  0  0  0  0  0  0
   -9.1374    2.2607   14.9328 O   0  0  0  0  0  0  0  0  0  0  0  0
  -10.4816    4.3836   16.4585 O   0  0  0  0  0  0  0  0  0  0  0  0
  -10.6205    2.4196   12.2756 O   0  0  0  0  0  0  0  0  0  0  0  0
   -7.5546    1.1937   13.5512 O   0  0  0  0  0  0  0  0  0  0  0  0
   -6.7810    4.0203   12.8859 O   0  0  0  0  0  0  0  0  0  0  0  0
   -8.9658    0.5260   11.1702 O   0  0  0  0  0  0  0  0  0  0  0  0
  -11.1017    5.3016   21.3700 O   0  0  0  0  0  0  0  0  0  0  0  0
  -13.6956    3.2878   19.8341 O   0  0  0  0  0  0  0  0  0  0  0  0
   -8.7846   -0.2966    8.8730 O   0  0  0  0  0  0  0  0  0  0  0  0
  -10.3845   -2.5774   16.4898 O   0  0  0  0  0  0  0  0  0  0  0  0
  1 36  1  6  0  0  0
  2 36  1  6  0  0  0
  2  3  1  0  0  0  0
  3 37  1  6  0  0  0
  3  4  1  0  0  0  0
  4 38  1  6  0  0  0
  5 37  1  1  0  0  0
  5  6  1  0  0  0  0
  6  7  1  0  0  0  0
  6 39  1  6  0  0  0
  7 42  1  1  0  0  0
  8  9  1  1  0  0  0
  8  7  1  0  0  0  0
 10 42  1  1  0  0  0
 10 11  1  0  0  0  0
 11 31  1  6  0  0  0
 11 13  1  0  0  0  0
 12 30  1  6  0  0  0
 12  1  1  0  0  0  0
 14 13  1  0  0  0  0
 15 16  1  6  0  0  0
 15 14  1  0  0  0  0
 17 19  1  1  0  0  0
 17 28  1  0  0  0  0
 18 34  1  0  0  0  0
 19 32  1  0  0  0  0
 20 18  1  6  0  0  0
 20 17  1  0  0  0  0
 20 43  1  0  0  0  0
 21 12  1  0  0  0  0
 22 21  1  0  0  0  0
 22 23  1  0  0  0  0
 23 24  1  1  0  0  0
 23 46  1  0  0  0  0
 24 33  1  0  0  0  0
 25 34  1  1  0  0  0
 25  4  1  0  0  0  0
 26 25  1  0  0  0  0
 27 35  1  1  0  0  0
 27 26  1  0  0  0  0
 27  2  1  0  0  0  0
 29 16  1  0  0  0  0
 40  8  1  0  0  0  0
 40  5  1  0  0  0  0
 41  9  1  0  0  0  0
 44 18  2  0  0  0  0
 45 15  1  0  0  0  0
 45 10  1  0  0  0  0
 46  1  1  0  0  0  0
M  END
>  <CHROM.1>
-151.18447198,160.54838163,70.91009584,107.40133710,102.63857897,54.19592909
-131.70034326,72.42044306,-47.84858557,92.70323905,94.71280524,178.90042243
163.50791687,-10.40434384,1.20722941,14.78698294,0.78699970,-1.18677069,-2.75860150

>  <Name>
lig.pdb

>  <RI>
0

>  <Rbt.Current_Directory>
/home/afrankz/demos/rdock_decoys_rna/rnas/3wru

>  <Rbt.Executable>
rbdock ($Id: //depot/dev/client3/rdock/2013.1/src/exe/rbdock.cxx#4 $)

>  <Rbt.Library>
libRbt.so (2013.1, Build901 2013/11/27)

>  <Rbt.Parameter_File>
/export/apps/rDock/src/rDock_2013.1_src/data/scripts/dock_solv.prm

>  <Rbt.Receptor>
prm/blind_docking_60.prm

>  <SCORE>
29.3491

>  <SCORE.INTER>
11.9763

>  <SCORE.INTER.CONST>
1

>  <SCORE.INTER.POLAR>
0

>  <SCORE.INTER.ROT>
13

>  <SCORE.INTER.SOLV>
24.488

>  <SCORE.INTER.VDW>
-12.4451

>  <SCORE.INTER.norm>
0.260354

>  <SCORE.INTRA>
11.5045

>  <SCORE.INTRA.DIHEDRAL>
10.7859

>  <SCORE.INTRA.DIHEDRAL.0>
19.7146

>  <SCORE.INTRA.POLAR>
0

>  <SCORE.INTRA.POLAR.0>
0

>  <SCORE.INTRA.REPUL>
0.0832239

>  <SCORE.INTRA.REPUL.0>
0

>  <SCORE.INTRA.SOLV>
8.46712

>  <SCORE.INTRA.SOLV.lig_0>
-116.697

>  <SCORE.INTRA.VDW>
1.46183

>  <SCORE.INTRA.VDW.0>
-7.06424

>  <SCORE.INTRA.norm>
0.250097

>  <SCORE.RESTR>
5.86831

>  <SCORE.RESTR.CAVITY>
5.86831

>  <SCORE.RESTR.norm>
0.127572

>  <SCORE.SYSTEM>
0

>  <SCORE.SYSTEM.CONST>
0

>  <SCORE.SYSTEM.DIHEDRAL>
0

>  <SCORE.SYSTEM.SOLV>
0

>  <SCORE.SYSTEM.norm>
0

>  <SCORE.heavy>
46

>  <SCORE.norm>
0.638024

>  <RMSD>
29.837

$$$$
lig.pdb
 OpenBabel03061811583D
libRbt.so/2013.1/901 2013/11/27
 46 49  0  0  0  0  0  0  0  0999 V2000
  -10.1947   -1.6696   13.7774 C   0  0  1  0  0  0  0  0  0  0  0  0
  -11.0070   -2.3801   16.0672 C   0  0  1  0  0  0  0  0  0  0  0  0
  -12.3961   -1.8765   15.5706 C   0  0  1  0  0  0  0  0  0  0  0  0
  -13.5279   -2.3561   16.6156 C   0  0  2  0  0  0  0  0  0  0  0  0
  -11.8560    0.4595   16.4008 C   0  0  2  0  0  0  0  0  0  0  0  0
  -10.3374    0.2797   16.6843 C   0  0  1  0  0  0  0  0  0  0  0  0
  -10.0494    1.6797   17.1701 C   0  0  1  0  0  0  0  0  0  0  0  0
  -10.7603    2.6119   16.1383 C   0  0  1  0  0  0  0  0  0  0  0  0
   -9.9909    2.9087   14.8035 C   0  0  0  0  0  0  0  0  0  0  0  0
   -9.7280    1.8711   19.6081 C   0  0  1  0  0  0  0  0  0  0  0  0
  -10.1267    1.0218   20.7780 C   0  0  1  0  0  0  0  0  0  0  0  0
   -9.8708   -2.8678   12.8540 C   0  0  1  0  0  0  0  0  0  0  0  0
   -9.0461    1.1872   21.9046 C   0  0  0  0  0  0  0  0  0  0  0  0
   -8.8863    2.5273   22.3916 C   0  0  0  0  0  0  0  0  0  0  0  0
   -8.4658    3.3725   21.2944 C   0  0  2  0  0  0  0  0  0  0  0  0
   -8.2817    4.8678   21.7690 C   0  0  0  0  0  0  0  0  0  0  0  0
  -15.7072   -5.9753   19.4342 C   0  0  2  0  0  0  0  0  0  0  0  0
  -15.4185   -5.5477   17.1349 C   0  0  0  0  0  0  0  0  0  0  0  0
  -16.5179   -6.3575   20.4862 C   0  0  0  0  0  0  0  0  0  0  0  0
  -16.4588   -5.9020   18.3076 C   0  0  1  0  0  0  0  0  0  0  0  0
   -8.3133   -3.2152   12.8911 C   0  0  0  0  0  0  0  0  0  0  0  0
   -7.4977   -1.9101   12.4398 C   0  0  0  0  0  0  0  0  0  0  0  0
   -7.8597   -0.7287   13.4543 C   0  0  1  0  0  0  0  0  0  0  0  0
   -7.1341    0.5742   13.0974 C   0  0  0  0  0  0  0  0  0  0  0  0
  -13.5455   -3.9469   16.6279 C   0  0  1  0  0  0  0  0  0  0  0  0
  -12.0909   -4.4088   17.1728 C   0  0  0  0  0  0  0  0  0  0  0  0
  -10.9653   -3.9243   16.1797 C   0  0  2  0  0  0  0  0  0  0  0  0
  -14.5997   -6.8969   19.3184 F   0  0  0  0  0  0  0  0  0  0  0  0
   -7.3460    5.0054   23.0042 N   0  0  0  0  0  0  0  0  0  0  0  0
  -10.7259   -4.0360   13.2823 N   0  0  0  0  0  0  0  0  0  0  0  0
  -11.3376    1.3935   21.3689 N   0  0  0  0  0  0  0  0  0  0  0  0
  -16.8501   -7.6349   20.9956 N   0  0  0  0  0  0  0  0  0  0  0  0
   -5.7606    0.4922   13.4102 N   0  0  0  0  0  0  0  0  0  0  0  0
  -14.5784   -4.4273   17.5632 N   0  0  0  0  0  0  0  0  0  0  0  0
   -9.6295   -4.3284   16.6712 N   0  0  0  0  0  0  0  0  0  0  0  0
   -9.9869   -2.0101   15.1485 O   0  0  0  0  0  0  0  0  0  0  0  0
  -12.3136   -0.3794   15.5020 O   0  0  0  0  0  0  0  0  0  0  0  0
  -14.7429   -1.9003   16.1553 O   0  0  0  0  0  0  0  0  0  0  0  0
  -10.1882   -0.7056   17.6611 O   0  0  0  0  0  0  0  0  0  0  0  0
  -11.9989    1.8859   16.0692 O   0  0  0  0  0  0  0  0  0  0  0  0
   -8.6454    3.2862   15.1576 O   0  0  0  0  0  0  0  0  0  0  0  0
  -10.6265    1.8514   18.5635 O   0  0  0  0  0  0  0  0  0  0  0  0
  -17.1365   -7.1397   17.9989 O   0  0  0  0  0  0  0  0  0  0  0  0
  -15.3437   -6.1502   16.0513 O   0  0  0  0  0  0  0  0  0  0  0  0
   -9.4594    3.2929   20.1594 O   0  0  0  0  0  0  0  0  0  0  0  0
   -9.3575   -0.4716   13.4312 O   0  0  0  0  0  0  0  0  0  0  0  0
  1 36  1  1  0  0  0
  2 36  1  6  0  0  0
  2  3  1  0  0  0  0
  3 37  1  1  0  0  0
  3  4  1  0  0  0  0
  4 38  1  6  0  0  0
  5 37  1  6  0  0  0
  5  6  1  0  0  0  0
  6  7  1  0  0  0  0
  6 39  1  1  0  0  0
  7 42  1  1  0  0  0
  8  9  1  6  0  0  0
  8  7  1  0  0  0  0
 10 42  1  6  0  0  0
 10 11  1  0  0  0  0
 11 31  1  1  0  0  0
 11 13  1  0  0  0  0
 12 30  1  1  0  0  0
 12  1  1  0  0  0  0
 14 13  1  0  0  0  0
 15 16  1  1  0  0  0
 15 14  1  0  0  0  0
 17 19  1  1  0  0  0
 17 28  1  0  0  0  0
 18 34  1  0  0  0  0
 19 32  1  0  0  0  0
 20 18  1  6  0  0  0
 20 17  1  0  0  0  0
 20 43  1  0  0  0  0
 21 12  1  0  0  0  0
 22 21  1  0  0  0  0
 22 23  1  0  0  0  0
 23 24  1  6  0  0  0
 23 46  1  0  0  0  0
 24 33  1  0  0  0  0
 25 34  1  1  0  0  0
 25  4  1  0  0  0  0
 26 25  1  0  0  0  0
 27 35  1  1  0  0  0
 27 26  1  0  0  0  0
 27  2  1  0  0  0  0
 29 16  1  0  0  0  0
 40  8  1  0  0  0  0
 40  5  1  0  0  0  0
 41  9  1  0  0  0  0
 44 18  2  0  0  0  0
 45 15  1  0  0  0  0
 45 10  1  0  0  0  0
 46  1  1  0  0  0  0
M  END
>  <CHROM.1>
-99.62985156,-20.81937968,-47.71378667,63.96952200,106.11016357,-48.37887609
-134.28219275,53.02383979,90.36423739,-48.55516758,-176.44670911,-72.73793458
137.24769240,-11.26049907,-1.28813259,17.14585824,-0.43847739,-0.82725774
-2.10694634

>  <Name>
lig.pdb

>  <RI>
0

>  <Rbt.Current_Directory>
/home/afrankz/demos/rdock_decoys_rna/rnas/3wru

>  <Rbt.Executable>
rbdock ($Id: //depot/dev/client3/rdock/2013.1/src/exe/rbdock.cxx#4 $)

>  <Rbt.Library>
libRbt.so (2013.1, Build901 2013/11/27)

>  <Rbt.Parameter_File>
/export/apps/rDock/src/rDock_2013.1_src/data/scripts/dock_solv.prm

>  <Rbt.Receptor>
prm/blind_docking_40.prm

>  <SCORE>
82.9405

>  <SCORE.INTER>
61.9138

>  <SCORE.INTER.CONST>
1

>  <SCORE.INTER.POLAR>
0

>  <SCORE.INTER.ROT>
13

>  <SCORE.INTER.SOLV>
30.1489

>  <SCORE.INTER.VDW>
18.9596

>  <SCORE.INTER.norm>
1.34595

>  <SCORE.INTRA>
12.8088

>  <SCORE.INTRA.DIHEDRAL>
10.037

>  <SCORE.INTRA.DIHEDRAL.0>
19.7146

>  <SCORE.INTRA.POLAR>
0

>  <SCORE.INTRA.POLAR.0>
0

>  <SCORE.INTRA.REPUL>
0

>  <SCORE.INTRA.REPUL.0>
0

>  <SCORE.INTRA.SOLV>
2.77255

>  <SCORE.INTRA.SOLV.lig_0>
-116.697

>  <SCORE.INTRA.VDW>
6.40402

>  <SCORE.INTRA.VDW.0>
-7.06424

>  <SCORE.INTRA.norm>
0.278452

>  <SCORE.RESTR>
8.21786

>  <SCORE.RESTR.CAVITY>
8.21786

>  <SCORE.RESTR.norm>
0.178649

>  <SCORE.SYSTEM>
0

>  <SCORE.SYSTEM.CONST>
0

>  <SCORE.SYSTEM.DIHEDRAL>
0

>  <SCORE.SYSTEM.SOLV>
0

>  <SCORE.SYSTEM.norm>
0

>  <SCORE.heavy>
46

>  <SCORE.norm>
1.80305

>  <RMSD>
29.929

$$$$
lig.pdb
 OpenBabel03061811583D
libRbt.so/2013.1/901 2013/11/27
 46 49  0  0  0  0  0  0  0  0999 V2000
  -12.3099    3.7018   17.0765 C   0  0  1  0  0  0  0  0  0  0  0  0
  -10.1940    2.4660   16.4411 C   0  0  1  0  0  0  0  0  0  0  0  0
  -11.1288    1.2199   16.4950 C   0  0  1  0  0  0  0  0  0  0  0  0
  -10.2910   -0.0799   16.0351 C   0  0  2  0  0  0  0  0  0  0  0  0
  -10.8847    0.9779   19.0089 C   0  0  2  0  0  0  0  0  0  0  0  0
  -11.6190    1.5051   20.2745 C   0  0  1  0  0  0  0  0  0  0  0  0
  -10.8859    0.6757   21.3009 C   0  0  1  0  0  0  0  0  0  0  0  0
  -10.8589   -0.7658   20.7005 C   0  0  1  0  0  0  0  0  0  0  0  0
  -12.1455   -1.6412   20.9009 C   0  0  0  0  0  0  0  0  0  0  0  0
   -9.2323    1.9152   22.6473 C   0  0  1  0  0  0  0  0  0  0  0  0
   -8.1496    2.9466   22.5340 C   0  0  1  0  0  0  0  0  0  0  0  0
  -13.0086    4.7349   16.1612 C   0  0  1  0  0  0  0  0  0  0  0  0
   -7.9354    3.6008   23.9448 C   0  0  0  0  0  0  0  0  0  0  0  0
   -7.5398    2.6862   24.9772 C   0  0  0  0  0  0  0  0  0  0  0  0
   -8.5800    1.6931   25.1406 C   0  0  2  0  0  0  0  0  0  0  0  0
   -8.1958    0.6488   26.2616 C   0  0  0  0  0  0  0  0  0  0  0  0
   -8.9052   -3.3759   11.4563 C   0  0  2  0  0  0  0  0  0  0  0  0
   -9.0958   -1.3422   12.6314 C   0  0  0  0  0  0  0  0  0  0  0  0
   -8.1036   -3.6211   10.3574 C   0  0  0  0  0  0  0  0  0  0  0  0
   -8.2001   -2.6485   12.3579 C   0  0  1  0  0  0  0  0  0  0  0  0
  -12.5253    6.2184   16.4981 C   0  0  0  0  0  0  0  0  0  0  0  0
  -12.8483    6.5126   18.0412 C   0  0  0  0  0  0  0  0  0  0  0  0
  -12.0711    5.4280   18.9218 C   0  0  1  0  0  0  0  0  0  0  0  0
  -12.3276    5.6186   20.4216 C   0  0  0  0  0  0  0  0  0  0  0  0
   -9.8309    0.1378   14.5279 C   0  0  1  0  0  0  0  0  0  0  0  0
   -8.8475    1.4258   14.5392 C   0  0  0  0  0  0  0  0  0  0  0  0
   -9.6400    2.7041   15.0145 C   0  0  2  0  0  0  0  0  0  0  0  0
   -9.3877   -4.6291   11.9912 F   0  0  0  0  0  0  0  0  0  0  0  0
   -6.8052   -0.0099   26.0317 N   0  0  0  0  0  0  0  0  0  0  0  0
  -12.7296    4.3564   14.7265 N   0  0  0  0  0  0  0  0  0  0  0  0
   -6.9024    2.4298   22.1721 N   0  0  0  0  0  0  0  0  0  0  0  0
   -8.4031   -3.6861    8.9763 N   0  0  0  0  0  0  0  0  0  0  0  0
  -13.7004    5.4908   20.7218 N   0  0  0  0  0  0  0  0  0  0  0  0
   -9.0712   -1.0367   14.0633 N   0  0  0  0  0  0  0  0  0  0  0  0
   -8.7508    3.8864   15.0419 N   0  0  0  0  0  0  0  0  0  0  0  0
  -10.9099    3.6401   16.8022 O   0  0  0  0  0  0  0  0  0  0  0  0
  -11.5992    1.0937   17.9148 O   0  0  0  0  0  0  0  0  0  0  0  0
  -11.1372   -1.1648   16.0906 O   0  0  0  0  0  0  0  0  0  0  0  0
  -11.3851    2.8771   20.3763 O   0  0  0  0  0  0  0  0  0  0  0  0
  -10.4844   -0.3929   19.3639 O   0  0  0  0  0  0  0  0  0  0  0  0
  -12.1962   -2.5863   19.8135 O   0  0  0  0  0  0  0  0  0  0  0  0
   -9.4838    1.2295   21.4788 O   0  0  0  0  0  0  0  0  0  0  0  0
   -7.9746   -3.3519   13.5991 O   0  0  0  0  0  0  0  0  0  0  0  0
   -9.6930   -0.6989   11.7527 O   0  0  0  0  0  0  0  0  0  0  0  0
   -8.8476    0.9921   23.8295 O   0  0  0  0  0  0  0  0  0  0  0  0
  -12.5174    4.0296   18.5275 O   0  0  0  0  0  0  0  0  0  0  0  0
  1 36  1  6  0  0  0
  2 36  1  6  0  0  0
  2  3  1  0  0  0  0
  3 37  1  1  0  0  0
  3  4  1  0  0  0  0
  4 38  1  6  0  0  0
  5 37  1  6  0  0  0
  5  6  1  0  0  0  0
  6  7  1  0  0  0  0
  6 39  1  1  0  0  0
  7 42  1  6  0  0  0
  8  9  1  6  0  0  0
  8  7  1  0  0  0  0
 10 42  1  6  0  0  0
 10 11  1  0  0  0  0
 11 31  1  1  0  0  0
 11 13  1  0  0  0  0
 12 30  1  6  0  0  0
 12  1  1  0  0  0  0
 14 13  1  0  0  0  0
 15 16  1  1  0  0  0
 15 14  1  0  0  0  0
 17 19  1  6  0  0  0
 17 28  1  0  0  0  0
 18 34  1  0  0  0  0
 19 32  1  0  0  0  0
 20 18  1  1  0  0  0
 20 17  1  0  0  0  0
 20 43  1  0  0  0  0
 21 12  1  0  0  0  0
 22 21  1  0  0  0  0
 22 23  1  0  0  0  0
 23 24  1  1  0  0  0
 23 46  1  0  0  0  0
 24 33  1  0  0  0  0
 25 34  1  1  0  0  0
 25  4  1  0  0  0  0
 26 25  1  0  0  0  0
 27 35  1  1  0  0  0
 27 26  1  0  0  0  0
 27  2  1  0  0  0  0
 29 16  1  0  0  0  0
 40  8  1  0  0  0  0
 40  5  1  0  0  0  0
 41  9  1  0  0  0  0
 44 18  2  0  0  0  0
 45 15  1  0  0  0  0
 45 10  1  0  0  0  0
 46  1  1  0  0  0  0
M  END
>  <CHROM.1>
-123.61163122,-4.52777430,-56.95877763,153.81663252,106.83402846,153.14758668
-152.79805578,-53.60549874,-143.49125670,138.72810044,124.59661083,60.33636656
152.01910949,-10.16573360,1.14934730,17.97421230,1.64119598,-1.07175120,1.23991056

>  <Name>
lig.pdb

>  <RI>
0

>  <Rbt.Current_Directory>
/home/afrankz/demos/rdock_decoys_rna/rnas/3wru

>  <Rbt.Executable>
rbdock ($Id: //depot/dev/client3/rdock/2013.1/src/exe/rbdock.cxx#4 $)

>  <Rbt.Library>
libRbt.so (2013.1, Build901 2013/11/27)

>  <Rbt.Parameter_File>
/export/apps/rDock/src/rDock_2013.1_src/data/scripts/dock_solv.prm

>  <Rbt.Receptor>
prm/blind_docking_100.prm

>  <SCORE>
22.4127

>  <SCORE.INTER>
8.38551

>  <SCORE.INTER.CONST>
1

>  <SCORE.INTER.POLAR>
0

>  <SCORE.INTER.ROT>
13

>  <SCORE.INTER.SOLV>
36.7505

>  <SCORE.INTER.VDW>
-18.9265

>  <SCORE.INTER.norm>
0.182294

>  <SCORE.INTRA>
13.2833

>  <SCORE.INTRA.DIHEDRAL>
19.9639

>  <SCORE.INTRA.DIHEDRAL.0>
19.7146

>  <SCORE.INTRA.POLAR>
0

>  <SCORE.INTRA.POLAR.0>
0

>  <SCORE.INTRA.REPUL>
0

>  <SCORE.INTRA.REPUL.0>
0

>  <SCORE.INTRA.SOLV>
0.731046

>  <SCORE.INTRA.SOLV.lig_0>
-116.697

>  <SCORE.INTRA.VDW>
2.93586

>  <SCORE.INTRA.VDW.0>
-7.06424

>  <SCORE.INTRA.norm>
0.288768

>  <SCORE.RESTR>
0.743879

>  <SCORE.RESTR.CAVITY>
0.743879

>  <SCORE.RESTR.norm>
0.0161713

>  <SCORE.SYSTEM>
0

>  <SCORE.SYSTEM.CONST>
0

>  <SCORE.SYSTEM.DIHEDRAL>
0

>  <SCORE.SYSTEM.SOLV>
0

>  <SCORE.SYSTEM.norm>
0

>  <SCORE.heavy>
46

>  <SCORE.norm>
0.487233

>  <RMSD>
29.945

$$$$
lig.pdb
 OpenBabel03061811583D
libRbt.so/2013.1/901 2013/11/27
 46 49  0  0  0  0  0  0  0  0999 V2000
  -12.6767    0.7315   19.8530 C   0  0  1  0  0  0  0  0  0  0  0  0
  -12.9819   -1.2134   18.2617 C   0  0  1  0  0  0  0  0  0  0  0  0
  -11.7437   -0.6622   17.4918 C   0  0  1  0  0  0  0  0  0  0  0  0
  -11.6376   -1.4150   16.0689 C   0  0  2  0  0  0  0  0  0  0  0  0
  -11.1100    1.7309   16.9354 C   0  0  2  0  0  0  0  0  0  0  0  0
  -11.7975    3.0346   16.4390 C   0  0  1  0  0  0  0  0  0  0  0  0
  -10.6606    3.9880   16.7170 C   0  0  1  0  0  0  0  0  0  0  0  0
  -10.1691    3.6122   18.1510 C   0  0  1  0  0  0  0  0  0  0  0  0
  -10.9758    4.2109   19.3563 C   0  0  0  0  0  0  0  0  0  0  0  0
   -9.2873    2.4727   15.3382 C   0  0  1  0  0  0  0  0  0  0  0  0
   -7.8307    2.1217   15.4019 C   0  0  1  0  0  0  0  0  0  0  0  0
  -11.2270    0.7542   20.3926 C   0  0  1  0  0  0  0  0  0  0  0  0
   -7.6558    0.6344   14.9308 C   0  0  0  0  0  0  0  0  0  0  0  0
   -8.0939    0.3737   13.5897 C   0  0  0  0  0  0  0  0  0  0  0  0
   -9.5081    0.6680   13.4982 C   0  0  2  0  0  0  0  0  0  0  0  0
  -10.0479    0.4079   12.0367 C   0  0  0  0  0  0  0  0  0  0  0  0
   -9.4788   -3.6475   11.9837 C   0  0  2  0  0  0  0  0  0  0  0  0
  -10.1075   -3.4339   14.2447 C   0  0  0  0  0  0  0  0  0  0  0  0
   -9.2732   -4.4667   10.8897 C   0  0  0  0  0  0  0  0  0  0  0  0
  -10.1909   -4.3311   12.9138 C   0  0  1  0  0  0  0  0  0  0  0  0
  -11.1309    0.0228   21.8081 C   0  0  0  0  0  0  0  0  0  0  0  0
  -12.1292    0.7616   22.8229 C   0  0  0  0  0  0  0  0  0  0  0  0
  -13.6049    0.6709   22.2145 C   0  0  1  0  0  0  0  0  0  0  0  0
  -14.6372    1.3641   23.1118 C   0  0  0  0  0  0  0  0  0  0  0  0
  -11.4072   -2.9644   16.3466 C   0  0  1  0  0  0  0  0  0  0  0  0
  -12.7308   -3.4839   17.1239 C   0  0  0  0  0  0  0  0  0  0  0  0
  -12.8701   -2.7386   18.5071 C   0  0  2  0  0  0  0  0  0  0  0  0
  -10.1257   -2.4269   11.5581 F   0  0  0  0  0  0  0  0  0  0  0  0
   -9.1665    1.0627   10.9347 N   0  0  0  0  0  0  0  0  0  0  0  0
  -10.3306    0.1158   19.3590 N   0  0  0  0  0  0  0  0  0  0  0  0
   -7.0218    2.8779   14.5489 N   0  0  0  0  0  0  0  0  0  0  0  0
   -8.6700   -4.2179    9.6344 N   0  0  0  0  0  0  0  0  0  0  0  0
  -14.7286    0.7256   24.3669 N   0  0  0  0  0  0  0  0  0  0  0  0
  -11.2913   -3.6888   15.0682 N   0  0  0  0  0  0  0  0  0  0  0  0
  -14.0823   -3.1941   19.2231 N   0  0  0  0  0  0  0  0  0  0  0  0
  -13.0850   -0.6008   19.5405 O   0  0  0  0  0  0  0  0  0  0  0  0
  -11.9654    0.8119   17.3160 O   0  0  0  0  0  0  0  0  0  0  0  0
  -10.5383   -0.9118   15.4098 O   0  0  0  0  0  0  0  0  0  0  0  0
  -12.0972    2.8829   15.0846 O   0  0  0  0  0  0  0  0  0  0  0  0
  -10.1661    2.1866   17.9682 O   0  0  0  0  0  0  0  0  0  0  0  0
  -11.4905    5.4902   18.9361 O   0  0  0  0  0  0  0  0  0  0  0  0
   -9.5697    3.7766   15.6829 O   0  0  0  0  0  0  0  0  0  0  0  0
  -11.5734   -4.5199   12.5405 O   0  0  0  0  0  0  0  0  0  0  0  0
   -9.1720   -2.6649   14.5205 O   0  0  0  0  0  0  0  0  0  0  0  0
   -9.7761    2.0939   13.9185 O   0  0  0  0  0  0  0  0  0  0  0  0
  -13.6371    1.3255   20.8431 O   0  0  0  0  0  0  0  0  0  0  0  0
  1 36  1  1  0  0  0
  2 36  1  1  0  0  0
  2  3  1  0  0  0  0
  3 37  1  6  0  0  0
  3  4  1  0  0  0  0
  4 38  1  6  0  0  0
  5 37  1  1  0  0  0
  5  6  1  0  0  0  0
  6  7  1  0  0  0  0
  6 39  1  6  0  0  0
  7 42  1  6  0  0  0
  8  9  1  1  0  0  0
  8  7  1  0  0  0  0
 10 42  1  6  0  0  0
 10 11  1  0  0  0  0
 11 31  1  6  0  0  0
 11 13  1  0  0  0  0
 12 30  1  6  0  0  0
 12  1  1  0  0  0  0
 14 13  1  0  0  0  0
 15 16  1  6  0  0  0
 15 14  1  0  0  0  0
 17 19  1  6  0  0  0
 17 28  1  0  0  0  0
 18 34  1  0  0  0  0
 19 32  1  0  0  0  0
 20 18  1  1  0  0  0
 20 17  1  0  0  0  0
 20 43  1  0  0  0  0
 21 12  1  0  0  0  0
 22 21  1  0  0  0  0
 22 23  1  0  0  0  0
 23 24  1  1  0  0  0
 23 46  1  0  0  0  0
 24 33  1  0  0  0  0
 25 34  1  6  0  0  0
 25  4  1  0  0  0  0
 26 25  1  0  0  0  0
 27 35  1  6  0  0  0
 27 26  1  0  0  0  0
 27  2  1  0  0  0  0
 29 16  1  0  0  0  0
 40  8  1  0  0  0  0
 40  5  1  0  0  0  0
 41  9  1  0  0  0  0
 44 18  2  0  0  0  0
 45 15  1  0  0  0  0
 45 10  1  0  0  0  0
 46  1  1  0  0  0  0
M  END
>  <CHROM.1>
-93.40246618,31.62063202,167.31477103,161.55421329,-41.02168148,-31.21984741
-129.42423827,-48.92310851,175.60612267,152.96746512,168.22930593,-63.43303037
68.26730755,-10.94582512,0.02486210,16.54435751,2.26163911,1.04041777,0.56661874

>  <Name>
lig.pdb

>  <RI>
0

>  <Rbt.Current_Directory>
/home/afrankz/demos/rdock_decoys_rna/rnas/3wru

>  <Rbt.Executable>
rbdock ($Id: //depot/dev/client3/rdock/2013.1/src/exe/rbdock.cxx#4 $)

>  <Rbt.Library>
libRbt.so (2013.1, Build901 2013/11/27)

>  <Rbt.Parameter_File>
/export/apps/rDock/src/rDock_2013.1_src/data/scripts/dock_solv.prm

>  <Rbt.Receptor>
prm/blind_docking_100.prm

>  <SCORE>
34.6018

>  <SCORE.INTER>
15.5087

>  <SCORE.INTER.CONST>
1

>  <SCORE.INTER.POLAR>
0

>  <SCORE.INTER.ROT>
13

>  <SCORE.INTER.SOLV>
39.9679

>  <SCORE.INTER.VDW>
-15.2501

>  <SCORE.INTER.norm>
0.337146

>  <SCORE.INTRA>
16.7306

>  <SCORE.INTRA.DIHEDRAL>
3.61887

>  <SCORE.INTRA.DIHEDRAL.0>
19.7146

>  <SCORE.INTRA.POLAR>
0

>  <SCORE.INTRA.POLAR.0>
0

>  <SCORE.INTRA.REPUL>
0

>  <SCORE.INTRA.REPUL.0>
0

>  <SCORE.INTRA.SOLV>
6.2259

>  <SCORE.INTRA.SOLV.lig_0>
-116.697

>  <SCORE.INTRA.VDW>
11.8082

>  <SCORE.INTRA.VDW.0>
-7.06424

>  <SCORE.INTRA.norm>
0.363708

>  <SCORE.RESTR>
2.3625

>  <SCORE.RESTR.CAVITY>
2.3625

>  <SCORE.RESTR.norm>
0.0513586

>  <SCORE.SYSTEM>
0

>  <SCORE.SYSTEM.CONST>
0

>  <SCORE.SYSTEM.DIHEDRAL>
0

>  <SCORE.SYSTEM.SOLV>
0

>  <SCORE.SYSTEM.norm>
0

>  <SCORE.heavy>
46

>  <SCORE.norm>
0.752213

>  <RMSD>
29.947

$$$$
lig.pdb
 OpenBabel03061811583D
libRbt.so/2013.1/901 2013/11/27
 46 49  0  0  0  0  0  0  0  0999 V2000
   -9.6858    2.6676   19.1122 C   0  0  1  0  0  0  0  0  0  0  0  0
  -10.8742    0.4333   19.0509 C   0  0  1  0  0  0  0  0  0  0  0  0
  -10.2163   -0.2446   17.8110 C   0  0  1  0  0  0  0  0  0  0  0  0
  -11.2427   -1.3328   17.2067 C   0  0  2  0  0  0  0  0  0  0  0  0
   -9.8002    0.7616   15.5192 C   0  0  2  0  0  0  0  0  0  0  0  0
   -9.0992    2.0015   14.8945 C   0  0  1  0  0  0  0  0  0  0  0  0
   -8.5567    1.3312   13.6554 C   0  0  1  0  0  0  0  0  0  0  0  0
   -7.9322   -0.0053   14.1682 C   0  0  1  0  0  0  0  0  0  0  0  0
   -6.4848    0.0732   14.7686 C   0  0  0  0  0  0  0  0  0  0  0  0
   -9.3900    0.3868   11.5348 C   0  0  1  0  0  0  0  0  0  0  0  0
   -7.9410    0.4441   11.1528 C   0  0  1  0  0  0  0  0  0  0  0  0
   -8.8277    3.4846   20.1070 C   0  0  1  0  0  0  0  0  0  0  0  0
   -7.7516   -0.3298    9.8002 C   0  0  0  0  0  0  0  0  0  0  0  0
   -8.4997    0.1989    8.6959 C   0  0  0  0  0  0  0  0  0  0  0  0
   -9.9099    0.1270    9.0142 C   0  0  2  0  0  0  0  0  0  0  0  0
  -10.7874    0.7056    7.8351 C   0  0  0  0  0  0  0  0  0  0  0  0
  -14.6484   -5.2467   18.0425 C   0  0  2  0  0  0  0  0  0  0  0  0
  -13.8148   -3.0876   17.5997 C   0  0  0  0  0  0  0  0  0  0  0  0
  -15.5868   -4.8433   18.9735 C   0  0  0  0  0  0  0  0  0  0  0  0
  -14.6279   -4.3495   17.0256 C   0  0  1  0  0  0  0  0  0  0  0  0
   -9.6534    3.8270   21.4293 C   0  0  0  0  0  0  0  0  0  0  0  0
  -10.9661    4.6440   21.0032 C   0  0  0  0  0  0  0  0  0  0  0  0
  -11.8127    3.7277   20.0034 C   0  0  1  0  0  0  0  0  0  0  0  0
  -13.0897    4.4300   19.5264 C   0  0  0  0  0  0  0  0  0  0  0  0
  -11.4901   -2.4464   18.3156 C   0  0  1  0  0  0  0  0  0  0  0  0
  -12.1938   -1.6899   19.5639 C   0  0  0  0  0  0  0  0  0  0  0  0
  -11.2174   -0.5998   20.1526 C   0  0  2  0  0  0  0  0  0  0  0  0
  -14.9483   -6.5919   17.6063 F   0  0  0  0  0  0  0  0  0  0  0  0
  -12.3035    0.3943    7.9929 N   0  0  0  0  0  0  0  0  0  0  0  0
   -7.5752    2.6961   20.4051 N   0  0  0  0  0  0  0  0  0  0  0  0
   -7.4634    1.7352   10.9109 N   0  0  0  0  0  0  0  0  0  0  0  0
  -15.9624   -5.3922   20.2220 N   0  0  0  0  0  0  0  0  0  0  0  0
  -12.7871    5.6402   18.8669 N   0  0  0  0  0  0  0  0  0  0  0  0
  -12.4151   -3.4702   17.7971 N   0  0  0  0  0  0  0  0  0  0  0  0
  -11.8520    0.1084   21.2862 N   0  0  0  0  0  0  0  0  0  0  0  0
   -9.9812    1.3723   19.6359 O   0  0  0  0  0  0  0  0  0  0  0  0
   -9.9316    0.8477   16.8216 O   0  0  0  0  0  0  0  0  0  0  0  0
  -10.6393   -1.9167   16.1153 O   0  0  0  0  0  0  0  0  0  0  0  0
  -10.0700    2.9712   14.6406 O   0  0  0  0  0  0  0  0  0  0  0  0
   -9.0146   -0.3844   15.0345 O   0  0  0  0  0  0  0  0  0  0  0  0
   -5.6427    0.6996   13.7804 O   0  0  0  0  0  0  0  0  0  0  0  0
   -9.6980    1.0757   12.6877 O   0  0  0  0  0  0  0  0  0  0  0  0
  -13.9719   -4.8526   15.8412 O   0  0  0  0  0  0  0  0  0  0  0  0
  -14.3091   -1.9695   17.8192 O   0  0  0  0  0  0  0  0  0  0  0  0
  -10.1960    0.8635   10.3016 O   0  0  0  0  0  0  0  0  0  0  0  0
  -10.9697    3.3766   18.7885 O   0  0  0  0  0  0  0  0  0  0  0  0
  1 36  1  1  0  0  0
  2 36  1  1  0  0  0
  2  3  1  0  0  0  0
  3 37  1  6  0  0  0
  3  4  1  0  0  0  0
  4 38  1  6  0  0  0
  5 37  1  1  0  0  0
  5  6  1  0  0  0  0
  6  7  1  0  0  0  0
  6 39  1  6  0  0  0
  7 42  1  6  0  0  0
  8  9  1  1  0  0  0
  8  7  1  0  0  0  0
 10 42  1  1  0  0  0
 10 11  1  0  0  0  0
 11 31  1  6  0  0  0
 11 13  1  0  0  0  0
 12 30  1  1  0  0  0
 12  1  1  0  0  0  0
 14 13  1  0  0  0  0
 15 16  1  6  0  0  0
 15 14  1  0  0  0  0
 17 19  1  1  0  0  0
 17 28  1  0  0  0  0
 18 34  1  0  0  0  0
 19 32  1  0  0  0  0
 20 18  1  1  0  0  0
 20 17  1  0  0  0  0
 20 43  1  0  0  0  0
 21 12  1  0  0  0  0
 22 21  1  0  0  0  0
 22 23  1  0  0  0  0
 23 24  1  6  0  0  0
 23 46  1  0  0  0  0
 24 33  1  0  0  0  0
 25 34  1  6  0  0  0
 25  4  1  0  0  0  0
 26 25  1  0  0  0  0
 27 35  1  1  0  0  0
 27 26  1  0  0  0  0
 27  2  1  0  0  0  0
 29 16  1  0  0  0  0
 40  8  1  0  0  0  0
 40  5  1  0  0  0  0
 41  9  1  0  0  0  0
 44 18  2  0  0  0  0
 45 15  1  0  0  0  0
 45 10  1  0  0  0  0
 46  1  1  0  0  0  0
M  END
>  <CHROM.1>
172.17493512,75.88044262,-155.61418780,-162.70954821,-175.86780274,-54.20280233
-22.11128717,168.35335762,-177.55685076,67.85282060,76.72994057,58.91221389
-69.91706158,-10.79787138,0.01263124,16.12611661,-2.31501840,-0.94317917
-2.00441362

>  <Name>
lig.pdb

>  <RI>
0

>  <Rbt.Current_Directory>
/home/afrankz/demos/rdock_decoys_rna/rnas/3wru

>  <Rbt.Executable>
rbdock ($Id: //depot/dev/client3/rdock/2013.1/src/exe/rbdock.cxx#4 $)

>  <Rbt.Library>
libRbt.so (2013.1, Build901 2013/11/27)

>  <Rbt.Parameter_File>
/export/apps/rDock/src/rDock_2013.1_src/data/scripts/dock_solv.prm

>  <Rbt.Receptor>
prm/blind_docking_40.prm

>  <SCORE>
8.64313

>  <SCORE.INTER>
2.72618

>  <SCORE.INTER.CONST>
1

>  <SCORE.INTER.POLAR>
0

>  <SCORE.INTER.ROT>
13

>  <SCORE.INTER.SOLV>
39.0139

>  <SCORE.INTER.VDW>
-23.4539

>  <SCORE.INTER.norm>
0.0592647

>  <SCORE.INTRA>
2.63814

>  <SCORE.INTRA.DIHEDRAL>
-6.57493

>  <SCORE.INTRA.DIHEDRAL.0>
19.7146

>  <SCORE.INTRA.POLAR>
0

>  <SCORE.INTRA.POLAR.0>
0

>  <SCORE.INTRA.REPUL>
0

>  <SCORE.INTRA.REPUL.0>
0

>  <SCORE.INTRA.SOLV>
0.0997342

>  <SCORE.INTRA.SOLV.lig_0>
-116.697

>  <SCORE.INTRA.VDW>
5.87574

>  <SCORE.INTRA.VDW.0>
-7.06424

>  <SCORE.INTRA.norm>
0.0573509

>  <SCORE.RESTR>
3.27881

>  <SCORE.RESTR.CAVITY>
3.27881

>  <SCORE.RESTR.norm>
0.0712785

>  <SCORE.SYSTEM>
0

>  <SCORE.SYSTEM.CONST>
0

>  <SCORE.SYSTEM.DIHEDRAL>
0

>  <SCORE.SYSTEM.SOLV>
0

>  <SCORE.SYSTEM.norm>
0

>  <SCORE.heavy>
46

>  <SCORE.norm>
0.187894

>  <RMSD>
29.974

$$$$
lig.pdb
 OpenBabel03061811583D
libRbt.so/2013.1/901 2013/11/27
 46 49  0  0  0  0  0  0  0  0999 V2000
  -12.3243    3.2244   18.0297 C   0  0  1  0  0  0  0  0  0  0  0  0
  -12.4652    0.7168   17.7136 C   0  0  1  0  0  0  0  0  0  0  0  0
  -11.4506   -0.1527   16.9109 C   0  0  1  0  0  0  0  0  0  0  0  0
  -12.1934   -1.4969   16.4168 C   0  0  2  0  0  0  0  0  0  0  0  0
  -10.4205    0.2889   14.6346 C   0  0  2  0  0  0  0  0  0  0  0  0
   -9.6920    1.4423   13.8879 C   0  0  1  0  0  0  0  0  0  0  0  0
   -8.6910    0.6016   13.1328 C   0  0  1  0  0  0  0  0  0  0  0  0
   -8.1326   -0.3991   14.1939 C   0  0  1  0  0  0  0  0  0  0  0  0
   -6.9922    0.1278   15.1338 C   0  0  0  0  0  0  0  0  0  0  0  0
   -8.9286   -1.3772   11.6797 C   0  0  1  0  0  0  0  0  0  0  0  0
   -8.9309   -1.6730   10.2095 C   0  0  1  0  0  0  0  0  0  0  0  0
  -11.2241    4.2648   18.3467 C   0  0  1  0  0  0  0  0  0  0  0  0
   -8.4252   -3.1438    9.9967 C   0  0  0  0  0  0  0  0  0  0  0  0
   -9.2257   -4.1518   10.6305 C   0  0  0  0  0  0  0  0  0  0  0  0
   -9.2183   -3.9195   12.0591 C   0  0  2  0  0  0  0  0  0  0  0  0
  -10.0939   -4.9965   12.8132 C   0  0  0  0  0  0  0  0  0  0  0  0
  -14.6462   -6.3949   18.3864 C   0  0  2  0  0  0  0  0  0  0  0  0
  -14.3956   -4.0638   18.1502 C   0  0  0  0  0  0  0  0  0  0  0  0
  -15.4889   -7.4734   18.1943 C   0  0  0  0  0  0  0  0  0  0  0  0
  -14.9825   -5.4161   17.5099 C   0  0  1  0  0  0  0  0  0  0  0  0
  -10.8371    4.2360   19.8950 C   0  0  0  0  0  0  0  0  0  0  0  0
  -12.1629    4.5293   20.7486 C   0  0  0  0  0  0  0  0  0  0  0  0
  -13.2376    3.4009   20.3912 C   0  0  1  0  0  0  0  0  0  0  0  0
  -14.5532    3.6022   21.1527 C   0  0  0  0  0  0  0  0  0  0  0  0
  -12.6447   -2.3132   17.7056 C   0  0  1  0  0  0  0  0  0  0  0  0
  -13.7115   -1.3731   18.4829 C   0  0  0  0  0  0  0  0  0  0  0  0
  -13.0127   -0.0384   18.9501 C   0  0  2  0  0  0  0  0  0  0  0  0
  -13.2727   -6.8262   18.2558 F   0  0  0  0  0  0  0  0  0  0  0  0
  -11.4686   -5.2518   12.1312 N   0  0  0  0  0  0  0  0  0  0  0  0
  -10.0379    3.9804   17.4572 N   0  0  0  0  0  0  0  0  0  0  0  0
  -10.1966   -1.6272    9.6184 N   0  0  0  0  0  0  0  0  0  0  0  0
  -15.6057   -8.7040   18.8823 N   0  0  0  0  0  0  0  0  0  0  0  0
  -14.7223    2.6125   22.1441 N   0  0  0  0  0  0  0  0  0  0  0  0
  -13.3178   -3.5591   17.2968 N   0  0  0  0  0  0  0  0  0  0  0  0
  -13.9788    0.8362   19.6509 N   0  0  0  0  0  0  0  0  0  0  0  0
  -11.8343    1.8940   18.2008 O   0  0  0  0  0  0  0  0  0  0  0  0
  -10.9939    0.6793   15.7481 O   0  0  0  0  0  0  0  0  0  0  0  0
  -11.2779   -2.2464   15.7123 O   0  0  0  0  0  0  0  0  0  0  0  0
  -10.6208    2.0924   13.0743 O   0  0  0  0  0  0  0  0  0  0  0  0
   -9.3951   -0.7562   14.7808 O   0  0  0  0  0  0  0  0  0  0  0  0
   -5.8418    0.3939   14.3068 O   0  0  0  0  0  0  0  0  0  0  0  0
   -9.4013   -0.1243   12.0046 O   0  0  0  0  0  0  0  0  0  0  0  0
  -14.4185   -5.6164   16.1954 O   0  0  0  0  0  0  0  0  0  0  0  0
  -14.8135   -3.5376   19.1947 O   0  0  0  0  0  0  0  0  0  0  0  0
   -9.7091   -2.5245   12.3671 O   0  0  0  0  0  0  0  0  0  0  0  0
  -13.5318    3.4243   18.9003 O   0  0  0  0  0  0  0  0  0  0  0  0
  1 36  1  1  0  0  0
  2 36  1  1  0  0  0
  2  3  1  0  0  0  0
  3 37  1  6  0  0  0
  3  4  1  0  0  0  0
  4 38  1  1  0  0  0
  5 37  1  1  0  0  0
  5  6  1  0  0  0  0
  6  7  1  0  0  0  0
  6 39  1  6  0  0  0
  7 42  1  6  0  0  0
  8  9  1  1  0  0  0
  8  7  1  0  0  0  0
 10 42  1  6  0  0  0
 10 11  1  0  0  0  0
 11 31  1  1  0  0  0
 11 13  1  0  0  0  0
 12 30  1  6  0  0  0
 12  1  1  0  0  0  0
 14 13  1  0  0  0  0
 15 16  1  1  0  0  0
 15 14  1  0  0  0  0
 17 19  1  6  0  0  0
 17 28  1  0  0  0  0
 18 34  1  0  0  0  0
 19 32  1  0  0  0  0
 20 18  1  1  0  0  0
 20 17  1  0  0  0  0
 20 43  1  0  0  0  0
 21 12  1  0  0  0  0
 22 21  1  0  0  0  0
 22 23  1  0  0  0  0
 23 24  1  1  0  0  0
 23 46  1  0  0  0  0
 24 33  1  0  0  0  0
 25 34  1  6  0  0  0
 25  4  1  0  0  0  0
 26 25  1  0  0  0  0
 27 35  1  6  0  0  0
 27 26  1  0  0  0  0
 27  2  1  0  0  0  0
 29 16  1  0  0  0  0
 40  8  1  0  0  0  0
 40  5  1  0  0  0  0
 41  9  1  0  0  0  0
 44 18  2  0  0  0  0
 45 15  1  0  0  0  0
 45 10  1  0  0  0  0
 46  1  1  0  0  0  0
M  END
>  <CHROM.1>
-164.94212664,128.82025848,-161.25047237,-161.46764938,-146.58684410,-65.18046452
-141.69240612,-45.24933578,-176.34900222,113.10297284,158.56253603,-109.17780013
-147.21536358,-11.57094213,-1.05000326,16.10999358,-2.22325973,-0.89432038
-2.65573372

>  <Name>
lig.pdb

>  <RI>
0

>  <Rbt.Current_Directory>
/home/afrankz/demos/rdock_decoys_rna/rnas/3wru

>  <Rbt.Executable>
rbdock ($Id: //depot/dev/client3/rdock/2013.1/src/exe/rbdock.cxx#4 $)

>  <Rbt.Library>
libRbt.so (2013.1, Build901 2013/11/27)

>  <Rbt.Parameter_File>
/export/apps/rDock/src/rDock_2013.1_src/data/scripts/dock_solv.prm

>  <Rbt.Receptor>
prm/blind_docking_100.prm

>  <SCORE>
40.1819

>  <SCORE.INTER>
19.6919

>  <SCORE.INTER.CONST>
1

>  <SCORE.INTER.POLAR>
0

>  <SCORE.INTER.ROT>
13

>  <SCORE.INTER.SOLV>
30.9658

>  <SCORE.INTER.VDW>
-9.46065

>  <SCORE.INTER.norm>
0.428085

>  <SCORE.INTRA>
16.0873

>  <SCORE.INTRA.DIHEDRAL>
10.945

>  <SCORE.INTRA.DIHEDRAL.0>
19.7146

>  <SCORE.INTRA.POLAR>
0

>  <SCORE.INTRA.POLAR.0>
0

>  <SCORE.INTRA.REPUL>
0.589895

>  <SCORE.INTRA.REPUL.0>
0

>  <SCORE.INTRA.SOLV>
2.13887

>  <SCORE.INTRA.SOLV.lig_0>
-116.697

>  <SCORE.INTRA.VDW>
6.59588

>  <SCORE.INTRA.VDW.0>
-7.06424

>  <SCORE.INTRA.norm>
0.349724

>  <SCORE.RESTR>
4.40263

>  <SCORE.RESTR.CAVITY>
4.40263

>  <SCORE.RESTR.norm>
0.0957093

>  <SCORE.SYSTEM>
0

>  <SCORE.SYSTEM.CONST>
0

>  <SCORE.SYSTEM.DIHEDRAL>
0

>  <SCORE.SYSTEM.SOLV>
0

>  <SCORE.SYSTEM.norm>
0

>  <SCORE.heavy>
46

>  <SCORE.norm>
0.873519

>  <RMSD>
30.003

$$$$
lig.pdb
 OpenBabel03061811583D
libRbt.so/2013.1/901 2013/11/27
 46 49  0  0  0  0  0  0  0  0999 V2000
  -11.9795    2.2053   17.3053 C   0  0  1  0  0  0  0  0  0  0  0  0
  -10.7593    2.1221   19.5216 C   0  0  1  0  0  0  0  0  0  0  0  0
  -10.1706    0.7532   19.9791 C   0  0  1  0  0  0  0  0  0  0  0  0
  -10.1056    0.7268   21.5909 C   0  0  2  0  0  0  0  0  0  0  0  0
  -10.9891   -1.0038   18.3418 C   0  0  2  0  0  0  0  0  0  0  0  0
  -11.7223   -2.3735   18.4122 C   0  0  1  0  0  0  0  0  0  0  0  0
  -11.9638   -2.5563   16.9332 C   0  0  1  0  0  0  0  0  0  0  0  0
  -12.4966   -1.1721   16.4441 C   0  0  1  0  0  0  0  0  0  0  0  0
  -14.0226   -0.8818   16.6650 C   0  0  0  0  0  0  0  0  0  0  0  0
  -10.5189   -2.5535   14.9342 C   0  0  1  0  0  0  0  0  0  0  0  0
  -10.8440   -3.6454   13.9590 C   0  0  1  0  0  0  0  0  0  0  0  0
  -11.8844    3.2638   16.1811 C   0  0  1  0  0  0  0  0  0  0  0  0
  -10.5911   -3.1070   12.5062 C   0  0  0  0  0  0  0  0  0  0  0  0
   -9.2416   -2.6961   12.2444 C   0  0  0  0  0  0  0  0  0  0  0  0
   -8.9026   -1.6155   13.1457 C   0  0  2  0  0  0  0  0  0  0  0  0
   -7.4197   -1.1250   12.9105 C   0  0  0  0  0  0  0  0  0  0  0  0
   -7.7865    0.2358   26.1721 C   0  0  2  0  0  0  0  0  0  0  0  0
   -7.7673    1.4200   24.1349 C   0  0  0  0  0  0  0  0  0  0  0  0
   -6.4508   -0.1155   26.2231 C   0  0  0  0  0  0  0  0  0  0  0  0
   -7.8853    1.5158   25.7349 C   0  0  1  0  0  0  0  0  0  0  0  0
  -11.8660    4.7412   16.7849 C   0  0  0  0  0  0  0  0  0  0  0  0
  -13.2010    4.9458   17.6499 C   0  0  0  0  0  0  0  0  0  0  0  0
  -13.2133    3.8401   18.8045 C   0  0  1  0  0  0  0  0  0  0  0  0
  -14.4647    3.9455   19.6843 C   0  0  0  0  0  0  0  0  0  0  0  0
   -9.1183    1.8812   22.0637 C   0  0  1  0  0  0  0  0  0  0  0  0
   -9.7920    3.2744   21.5830 C   0  0  0  0  0  0  0  0  0  0  0  0
   -9.8921    3.3092   20.0092 C   0  0  2  0  0  0  0  0  0  0  0  0
   -8.3895    0.0312   27.4698 F   0  0  0  0  0  0  0  0  0  0  0  0
   -6.3757   -2.2752   12.9943 N   0  0  0  0  0  0  0  0  0  0  0  0
  -10.6524    2.9681   15.3601 N   0  0  0  0  0  0  0  0  0  0  0  0
  -10.0362   -4.7796   14.0795 N   0  0  0  0  0  0  0  0  0  0  0  0
   -5.4980   -0.3240   25.1984 N   0  0  0  0  0  0  0  0  0  0  0  0
  -15.6149    3.5258   18.9829 N   0  0  0  0  0  0  0  0  0  0  0  0
   -9.0202    1.8827   23.5343 N   0  0  0  0  0  0  0  0  0  0  0  0
  -10.5175    4.5713   19.5560 N   0  0  0  0  0  0  0  0  0  0  0  0
  -10.7947    2.1984   18.1024 O   0  0  0  0  0  0  0  0  0  0  0  0
  -11.0888   -0.3102   19.4508 O   0  0  0  0  0  0  0  0  0  0  0  0
   -9.5828   -0.4896   21.9690 O   0  0  0  0  0  0  0  0  0  0  0  0
  -10.8491   -3.3093   18.9681 O   0  0  0  0  0  0  0  0  0  0  0  0
  -11.5361   -0.3585   17.1378 O   0  0  0  0  0  0  0  0  0  0  0  0
  -14.2628   -0.9021   18.0862 O   0  0  0  0  0  0  0  0  0  0  0  0
  -10.6543   -2.9181   16.2562 O   0  0  0  0  0  0  0  0  0  0  0  0
   -9.1373    2.1403   26.0935 O   0  0  0  0  0  0  0  0  0  0  0  0
   -6.7598    1.0283   23.5233 O   0  0  0  0  0  0  0  0  0  0  0  0
   -9.0993   -2.0465   14.5800 O   0  0  0  0  0  0  0  0  0  0  0  0
  -13.1697    2.4516   18.1876 O   0  0  0  0  0  0  0  0  0  0  0  0
  1 36  1  1  0  0  0
  2 36  1  6  0  0  0
  2  3  1  0  0  0  0
  3 37  1  1  0  0  0
  3  4  1  0  0  0  0
  4 38  1  6  0  0  0
  5 37  1  1  0  0  0
  5  6  1  0  0  0  0
  6  7  1  0  0  0  0
  6 39  1  6  0  0  0
  7 42  1  6  0  0  0
  8  9  1  1  0  0  0
  8  7  1  0  0  0  0
 10 42  1  1  0  0  0
 10 11  1  0  0  0  0
 11 31  1  1  0  0  0
 11 13  1  0  0  0  0
 12 30  1  1  0  0  0
 12  1  1  0  0  0  0
 14 13  1  0  0  0  0
 15 16  1  1  0  0  0
 15 14  1  0  0  0  0
 17 19  1  1  0  0  0
 17 28  1  0  0  0  0
 18 34  1  0  0  0  0
 19 32  1  0  0  0  0
 20 18  1  6  0  0  0
 20 17  1  0  0  0  0
 20 43  1  0  0  0  0
 21 12  1  0  0  0  0
 22 21  1  0  0  0  0
 22 23  1  0  0  0  0
 23 24  1  6  0  0  0
 23 46  1  0  0  0  0
 24 33  1  0  0  0  0
 25 34  1  1  0  0  0
 25  4  1  0  0  0  0
 26 25  1  0  0  0  0
 27 35  1  1  0  0  0
 27 26  1  0  0  0  0
 27  2  1  0  0  0  0
 29 16  1  0  0  0  0
 40  8  1  0  0  0  0
 40  5  1  0  0  0  0
 41  9  1  0  0  0  0
 44 18  2  0  0  0  0
 45 15  1  0  0  0  0
 45 10  1  0  0  0  0
 46  1  1  0  0  0  0
M  END
>  <CHROM.1>
136.61088340,111.43878579,94.98105218,155.16945249,-151.94648061,62.04451312
-96.50604271,-54.20125856,-68.64543535,116.55740225,81.64349689,71.05186059
108.61616552,-10.38862877,0.37634880,18.96643673,1.86482442,0.83245519,-2.07142557

>  <Name>
lig.pdb

>  <RI>
0

>  <Rbt.Current_Directory>
/home/afrankz/demos/rdock_decoys_rna/rnas/3wru

>  <Rbt.Executable>
rbdock ($Id: //depot/dev/client3/rdock/2013.1/src/exe/rbdock.cxx#4 $)

>  <Rbt.Library>
libRbt.so (2013.1, Build901 2013/11/27)

>  <Rbt.Parameter_File>
/export/apps/rDock/src/rDock_2013.1_src/data/scripts/dock_solv.prm

>  <Rbt.Receptor>
prm/blind_docking_100.prm

>  <SCORE>
29.4026

>  <SCORE.INTER>
10.1819

>  <SCORE.INTER.CONST>
1

>  <SCORE.INTER.POLAR>
0

>  <SCORE.INTER.ROT>
13

>  <SCORE.INTER.SOLV>
35.5704

>  <SCORE.INTER.VDW>
-17.3356

>  <SCORE.INTER.norm>
0.221345

>  <SCORE.INTRA>
12.5677

>  <SCORE.INTRA.DIHEDRAL>
13.9877

>  <SCORE.INTRA.DIHEDRAL.0>
19.7146

>  <SCORE.INTRA.POLAR>
0

>  <SCORE.INTRA.POLAR.0>
0

>  <SCORE.INTRA.REPUL>
0

>  <SCORE.INTRA.REPUL.0>
0

>  <SCORE.INTRA.SOLV>
5.40646

>  <SCORE.INTRA.SOLV.lig_0>
-116.697

>  <SCORE.INTRA.VDW>
2.87059

>  <SCORE.INTRA.VDW.0>
-7.06424

>  <SCORE.INTRA.norm>
0.27321

>  <SCORE.RESTR>
6.65309

>  <SCORE.RESTR.CAVITY>
6.65309

>  <SCORE.RESTR.norm>
0.144632

>  <SCORE.SYSTEM>
0

>  <SCORE.SYSTEM.CONST>
0

>  <SCORE.SYSTEM.DIHEDRAL>
0

>  <SCORE.SYSTEM.SOLV>
0

>  <SCORE.SYSTEM.norm>
0

>  <SCORE.heavy>
46

>  <SCORE.norm>
0.639187

>  <RMSD>
30.004

$$$$
lig.pdb
 OpenBabel03061811583D
libRbt.so/2013.1/901 2013/11/27
 46 49  0  0  0  0  0  0  0  0999 V2000
  -13.1069    3.9472   14.6246 C   0  0  1  0  0  0  0  0  0  0  0  0
  -11.1249    3.4360   13.1352 C   0  0  1  0  0  0  0  0  0  0  0  0
  -10.2136    2.1843   13.3158 C   0  0  1  0  0  0  0  0  0  0  0  0
   -9.6112    1.7671   11.8785 C   0  0  2  0  0  0  0  0  0  0  0  0
   -8.9797    2.2406   15.5321 C   0  0  2  0  0  0  0  0  0  0  0  0
  -10.2579    2.4924   16.3815 C   0  0  1  0  0  0  0  0  0  0  0  0
   -9.9936    1.4722   17.4623 C   0  0  1  0  0  0  0  0  0  0  0  0
   -9.5527    0.1857   16.6945 C   0  0  1  0  0  0  0  0  0  0  0  0
  -10.6950   -0.7177   16.1107 C   0  0  0  0  0  0  0  0  0  0  0  0
   -9.2353    2.2513   19.6763 C   0  0  1  0  0  0  0  0  0  0  0  0
   -9.9134    3.5741   19.8738 C   0  0  1  0  0  0  0  0  0  0  0  0
  -13.4901    5.4320   14.8293 C   0  0  1  0  0  0  0  0  0  0  0  0
  -10.1940    3.7660   21.4064 C   0  0  0  0  0  0  0  0  0  0  0  0
   -9.0234    3.7645   22.2361 C   0  0  0  0  0  0  0  0  0  0  0  0
   -8.3593    2.4858   22.0989 C   0  0  2  0  0  0  0  0  0  0  0  0
   -7.0532    2.4272   22.9852 C   0  0  0  0  0  0  0  0  0  0  0  0
   -9.4615   -0.7474    7.6650 C   0  0  2  0  0  0  0  0  0  0  0  0
  -11.2689    0.3958    8.6546 C   0  0  0  0  0  0  0  0  0  0  0  0
   -8.9376   -1.3588    6.5416 C   0  0  0  0  0  0  0  0  0  0  0  0
  -10.4978    0.0427    7.2893 C   0  0  1  0  0  0  0  0  0  0  0  0
  -12.8443    6.0110   16.1693 C   0  0  0  0  0  0  0  0  0  0  0  0
  -13.3534    5.1155   17.3987 C   0  0  0  0  0  0  0  0  0  0  0  0
  -12.8960    3.6072   17.1310 C   0  0  1  0  0  0  0  0  0  0  0  0
  -13.3491    2.6645   18.2523 C   0  0  0  0  0  0  0  0  0  0  0  0
  -10.8260    1.3712   10.9306 C   0  0  1  0  0  0  0  0  0  0  0  0
  -11.7204    2.7119   10.7616 C   0  0  0  0  0  0  0  0  0  0  0  0
  -12.2963    3.1548   12.1617 C   0  0  2  0  0  0  0  0  0  0  0  0
   -8.4162   -0.0235    8.3526 F   0  0  0  0  0  0  0  0  0  0  0  0
   -7.3501    2.2046   24.4960 N   0  0  0  0  0  0  0  0  0  0  0  0
  -13.0538    6.2029   13.6068 N   0  0  0  0  0  0  0  0  0  0  0  0
   -9.1396    4.6758   19.4981 N   0  0  0  0  0  0  0  0  0  0  0  0
   -9.5569   -1.8474    5.3673 N   0  0  0  0  0  0  0  0  0  0  0  0
  -12.5696    2.8466   19.4143 N   0  0  0  0  0  0  0  0  0  0  0  0
  -10.3161    0.9695    9.6073 N   0  0  0  0  0  0  0  0  0  0  0  0
  -13.1055    4.3860   12.0247 N   0  0  0  0  0  0  0  0  0  0  0  0
  -11.7073    3.8099   14.3772 O   0  0  0  0  0  0  0  0  0  0  0  0
   -9.1255    2.5765   14.2724 O   0  0  0  0  0  0  0  0  0  0  0  0
   -8.8120    0.6613   12.0645 O   0  0  0  0  0  0  0  0  0  0  0  0
  -10.2342    3.8148   16.8264 O   0  0  0  0  0  0  0  0  0  0  0  0
   -8.6503    0.8278   15.7786 O   0  0  0  0  0  0  0  0  0  0  0  0
  -11.1211   -1.6059   17.1632 O   0  0  0  0  0  0  0  0  0  0  0  0
   -8.8892    1.9833   18.3697 O   0  0  0  0  0  0  0  0  0  0  0  0
  -10.0731    1.2618    6.6415 O   0  0  0  0  0  0  0  0  0  0  0  0
  -12.4831    0.2178    8.8463 O   0  0  0  0  0  0  0  0  0  0  0  0
   -8.0310    2.2173   20.6491 O   0  0  0  0  0  0  0  0  0  0  0  0
  -13.4837    3.1166   15.8179 O   0  0  0  0  0  0  0  0  0  0  0  0
  1 36  1  1  0  0  0
  2 36  1  1  0  0  0
  2  3  1  0  0  0  0
  3 37  1  1  0  0  0
  3  4  1  0  0  0  0
  4 38  1  1  0  0  0
  5 37  1  6  0  0  0
  5  6  1  0  0  0  0
  6  7  1  0  0  0  0
  6 39  1  1  0  0  0
  7 42  1  1  0  0  0
  8  9  1  6  0  0  0
  8  7  1  0  0  0  0
 10 42  1  6  0  0  0
 10 11  1  0  0  0  0
 11 31  1  1  0  0  0
 11 13  1  0  0  0  0
 12 30  1  6  0  0  0
 12  1  1  0  0  0  0
 14 13  1  0  0  0  0
 15 16  1  1  0  0  0
 15 14  1  0  0  0  0
 17 19  1  6  0  0  0
 17 28  1  0  0  0  0
 18 34  1  0  0  0  0
 19 32  1  0  0  0  0
 20 18  1  1  0  0  0
 20 17  1  0  0  0  0
 20 43  1  0  0  0  0
 21 12  1  0  0  0  0
 22 21  1  0  0  0  0
 22 23  1  0  0  0  0
 23 24  1  1  0  0  0
 23 46  1  0  0  0  0
 24 33  1  0  0  0  0
 25 34  1  6  0  0  0
 25  4  1  0  0  0  0
 26 25  1  0  0  0  0
 27 35  1  6  0  0  0
 27 26  1  0  0  0  0
 27  2  1  0  0  0  0
 29 16  1  0  0  0  0
 40  8  1  0  0  0  0
 40  5  1  0  0  0  0
 41  9  1  0  0  0  0
 44 18  2  0  0  0  0
 45 15  1  0  0  0  0
 45 10  1  0  0  0  0
 46  1  1  0  0  0  0
M  END
>  <CHROM.1>
-110.15734970,-124.05746253,105.66708080,-51.12814972,114.96644388,-85.31286917
-80.28039178,76.93396740,-35.72253835,54.21622961,165.69447607,-74.19611410
171.83639325,-10.50046645,2.18673111,14.84200039,1.64792171,0.74682217,-1.82865368

>  <Name>
lig.pdb

>  <RI>
0

>  <Rbt.Current_Directory>
/home/afrankz/demos/rdock_decoys_rna/rnas/3wru

>  <Rbt.Executable>
rbdock ($Id: //depot/dev/client3/rdock/2013.1/src/exe/rbdock.cxx#4 $)

>  <Rbt.Library>
libRbt.so (2013.1, Build901 2013/11/27)

>  <Rbt.Parameter_File>
/export/apps/rDock/src/rDock_2013.1_src/data/scripts/dock_solv.prm

>  <Rbt.Receptor>
prm/blind_docking_60.prm

>  <SCORE>
32.0157

>  <SCORE.INTER>
6.61909

>  <SCORE.INTER.CONST>
1

>  <SCORE.INTER.POLAR>
0

>  <SCORE.INTER.ROT>
13

>  <SCORE.INTER.SOLV>
33.8499

>  <SCORE.INTER.VDW>
-19.1372

>  <SCORE.INTER.norm>
0.143893

>  <SCORE.INTRA>
17.8577

>  <SCORE.INTRA.DIHEDRAL>
16.708

>  <SCORE.INTRA.DIHEDRAL.0>
19.7146

>  <SCORE.INTRA.POLAR>
0

>  <SCORE.INTRA.POLAR.0>
0

>  <SCORE.INTRA.REPUL>
0

>  <SCORE.INTRA.REPUL.0>
0

>  <SCORE.INTRA.SOLV>
9.79227

>  <SCORE.INTRA.SOLV.lig_0>
-116.697

>  <SCORE.INTRA.VDW>
4.60758

>  <SCORE.INTRA.VDW.0>
-7.06424

>  <SCORE.INTRA.norm>
0.388211

>  <SCORE.RESTR>
7.53888

>  <SCORE.RESTR.CAVITY>
7.53888

>  <SCORE.RESTR.norm>
0.163889

>  <SCORE.SYSTEM>
0

>  <SCORE.SYSTEM.CONST>
0

>  <SCORE.SYSTEM.DIHEDRAL>
0

>  <SCORE.SYSTEM.SOLV>
0

>  <SCORE.SYSTEM.norm>
0

>  <SCORE.heavy>
46

>  <SCORE.norm>
0.695993

>  <RMSD>
30.010

$$$$
lig.pdb
 OpenBabel03061811583D
libRbt.so/2013.1/901 2013/11/27
 46 49  0  0  0  0  0  0  0  0999 V2000
   -8.5593   -0.0823   14.7945 C   0  0  1  0  0  0  0  0  0  0  0  0
  -10.3018   -1.4585   16.0101 C   0  0  1  0  0  0  0  0  0  0  0  0
  -11.5757   -1.0979   16.8328 C   0  0  1  0  0  0  0  0  0  0  0  0
  -12.0256   -2.3893   17.6889 C   0  0  2  0  0  0  0  0  0  0  0  0
  -10.7658    0.0165   18.9635 C   0  0  2  0  0  0  0  0  0  0  0  0
  -10.7010    1.4235   19.6231 C   0  0  1  0  0  0  0  0  0  0  0  0
  -10.8183    0.9839   21.0625 C   0  0  1  0  0  0  0  0  0  0  0  0
  -11.9814   -0.0585   21.0657 C   0  0  1  0  0  0  0  0  0  0  0  0
  -13.4428    0.5105   21.1125 C   0  0  0  0  0  0  0  0  0  0  0  0
   -8.5050    1.2173   21.8856 C   0  0  1  0  0  0  0  0  0  0  0  0
   -8.0655    1.0504   23.3096 C   0  0  1  0  0  0  0  0  0  0  0  0
   -8.3514    1.4317   14.5536 C   0  0  1  0  0  0  0  0  0  0  0  0
   -6.9688    2.1293   23.6220 C   0  0  0  0  0  0  0  0  0  0  0  0
   -7.4032    3.4885   23.4716 C   0  0  0  0  0  0  0  0  0  0  0  0
   -7.8031    3.6981   22.0964 C   0  0  2  0  0  0  0  0  0  0  0  0
   -8.3019    5.1797   21.8705 C   0  0  0  0  0  0  0  0  0  0  0  0
  -15.3394   -7.0620   17.6468 C   0  0  2  0  0  0  0  0  0  0  0  0
  -14.2675   -4.9643   17.5857 C   0  0  0  0  0  0  0  0  0  0  0  0
  -15.4888   -8.3084   18.2250 C   0  0  0  0  0  0  0  0  0  0  0  0
  -14.4991   -6.3228   18.4128 C   0  0  1  0  0  0  0  0  0  0  0  0
   -9.2097    1.9367   13.3062 C   0  0  0  0  0  0  0  0  0  0  0  0
   -8.7693    1.0882   12.0184 C   0  0  0  0  0  0  0  0  0  0  0  0
   -9.0405   -0.4561   12.3306 C   0  0  1  0  0  0  0  0  0  0  0  0
   -8.6376   -1.3564   11.1565 C   0  0  0  0  0  0  0  0  0  0  0  0
  -12.3989   -3.5516   16.6688 C   0  0  1  0  0  0  0  0  0  0  0  0
  -11.0363   -3.8981   15.8630 C   0  0  0  0  0  0  0  0  0  0  0  0
  -10.5620   -2.6383   15.0409 C   0  0  2  0  0  0  0  0  0  0  0  0
  -16.6380   -6.4501   17.4763 F   0  0  0  0  0  0  0  0  0  0  0  0
   -9.6825    5.4659   22.5279 N   0  0  0  0  0  0  0  0  0  0  0  0
   -8.7086    2.1633   15.8251 N   0  0  0  0  0  0  0  0  0  0  0  0
   -9.0767    1.2672   24.2499 N   0  0  0  0  0  0  0  0  0  0  0  0
  -16.3619   -9.3804   17.9256 N   0  0  0  0  0  0  0  0  0  0  0  0
   -8.9978   -2.6989   11.3997 N   0  0  0  0  0  0  0  0  0  0  0  0
  -12.8293   -4.7492   17.4126 N   0  0  0  0  0  0  0  0  0  0  0  0
   -9.3108   -2.9362   14.3093 N   0  0  0  0  0  0  0  0  0  0  0  0
   -9.8981   -0.3546   15.2102 O   0  0  0  0  0  0  0  0  0  0  0  0
  -11.2025    0.0485   17.7269 O   0  0  0  0  0  0  0  0  0  0  0  0
  -13.1505   -2.0460   18.4048 O   0  0  0  0  0  0  0  0  0  0  0  0
   -9.4726    2.0017   19.3010 O   0  0  0  0  0  0  0  0  0  0  0  0
  -11.5666   -0.7886   19.8992 O   0  0  0  0  0  0  0  0  0  0  0  0
  -14.3275   -0.5975   21.3729 O   0  0  0  0  0  0  0  0  0  0  0  0
   -9.5076    0.3548   21.4990 O   0  0  0  0  0  0  0  0  0  0  0  0
  -15.0454   -6.0128   19.7135 O   0  0  0  0  0  0  0  0  0  0  0  0
  -15.1766   -4.2351   17.1564 O   0  0  0  0  0  0  0  0  0  0  0  0
   -8.8763    2.7097   21.7049 O   0  0  0  0  0  0  0  0  0  0  0  0
   -8.2516   -0.8789   13.5590 O   0  0  0  0  0  0  0  0  0  0  0  0
  1 36  1  6  0  0  0
  2 36  1  6  0  0  0
  2  3  1  0  0  0  0
  3 37  1  1  0  0  0
  3  4  1  0  0  0  0
  4 38  1  6  0  0  0
  5 37  1  6  0  0  0
  5  6  1  0  0  0  0
  6  7  1  0  0  0  0
  6 39  1  1  0  0  0
  7 42  1  6  0  0  0
  8  9  1  6  0  0  0
  8  7  1  0  0  0  0
 10 42  1  1  0  0  0
 10 11  1  0  0  0  0
 11 31  1  1  0  0  0
 11 13  1  0  0  0  0
 12 30  1  1  0  0  0
 12  1  1  0  0  0  0
 14 13  1  0  0  0  0
 15 16  1  1  0  0  0
 15 14  1  0  0  0  0
 17 19  1  1  0  0  0
 17 28  1  0  0  0  0
 18 34  1  0  0  0  0
 19 32  1  0  0  0  0
 20 18  1  6  0  0  0
 20 17  1  0  0  0  0
 20 43  1  0  0  0  0
 21 12  1  0  0  0  0
 22 21  1  0  0  0  0
 22 23  1  0  0  0  0
 23 24  1  6  0  0  0
 23 46  1  0  0  0  0
 24 33  1  0  0  0  0
 25 34  1  1  0  0  0
 25  4  1  0  0  0  0
 26 25  1  0  0  0  0
 27 35  1  1  0  0  0
 27 26  1  0  0  0  0
 27  2  1  0  0  0  0
 29 16  1  0  0  0  0
 40  8  1  0  0  0  0
 40  5  1  0  0  0  0
 41  9  1  0  0  0  0
 44 18  2  0  0  0  0
 45 15  1  0  0  0  0
 45 10  1  0  0  0  0
 46  1  1  0  0  0  0
M  END
>  <CHROM.1>
-152.96430956,151.78346709,-93.05004854,-170.98326010,81.91318170,-168.89414837
118.43498375,-71.63160402,171.35978139,-126.04419513,174.16807003,-174.53350779
97.19726977,-10.99166281,-1.04120432,18.12224888,-0.72924307,-0.85853475
-1.92592846

>  <Name>
lig.pdb

>  <RI>
0

>  <Rbt.Current_Directory>
/home/afrankz/demos/rdock_decoys_rna/rnas/3wru

>  <Rbt.Executable>
rbdock ($Id: //depot/dev/client3/rdock/2013.1/src/exe/rbdock.cxx#4 $)

>  <Rbt.Library>
libRbt.so (2013.1, Build901 2013/11/27)

>  <Rbt.Parameter_File>
/export/apps/rDock/src/rDock_2013.1_src/data/scripts/dock_solv.prm

>  <Rbt.Receptor>
prm/blind_docking_40.prm

>  <SCORE>
11.0423

>  <SCORE.INTER>
0.574062

>  <SCORE.INTER.CONST>
1

>  <SCORE.INTER.POLAR>
0

>  <SCORE.INTER.ROT>
13

>  <SCORE.INTER.SOLV>
35.4637

>  <SCORE.INTER.VDW>
-23.7052

>  <SCORE.INTER.norm>
0.0124796

>  <SCORE.INTRA>
8.54622

>  <SCORE.INTRA.DIHEDRAL>
5.17905

>  <SCORE.INTRA.DIHEDRAL.0>
19.7146

>  <SCORE.INTRA.POLAR>
0

>  <SCORE.INTRA.POLAR.0>
0

>  <SCORE.INTRA.REPUL>
0

>  <SCORE.INTRA.REPUL.0>
0

>  <SCORE.INTRA.SOLV>
4.96616

>  <SCORE.INTRA.SOLV.lig_0>
-116.697

>  <SCORE.INTRA.VDW>
3.47361

>  <SCORE.INTRA.VDW.0>
-7.06424

>  <SCORE.INTRA.norm>
0.185787

>  <SCORE.RESTR>
1.92201

>  <SCORE.RESTR.CAVITY>
1.92201

>  <SCORE.RESTR.norm>
0.0417829

>  <SCORE.SYSTEM>
0

>  <SCORE.SYSTEM.CONST>
0

>  <SCORE.SYSTEM.DIHEDRAL>
0

>  <SCORE.SYSTEM.SOLV>
0

>  <SCORE.SYSTEM.norm>
0

>  <SCORE.heavy>
46

>  <SCORE.norm>
0.24005

>  <RMSD>
30.014

$$$$
lig.pdb
 OpenBabel03061811583D
libRbt.so/2013.1/901 2013/11/27
 46 49  0  0  0  0  0  0  0  0999 V2000
   -8.4474   -0.0668   13.0065 C   0  0  1  0  0  0  0  0  0  0  0  0
   -9.5991    1.6979   14.4091 C   0  0  1  0  0  0  0  0  0  0  0  0
  -10.9387    2.4947   14.3897 C   0  0  1  0  0  0  0  0  0  0  0  0
  -11.0279    3.3962   15.7247 C   0  0  2  0  0  0  0  0  0  0  0  0
  -11.0423    2.9793   11.9012 C   0  0  2  0  0  0  0  0  0  0  0  0
  -12.1064    1.8636   11.6976 C   0  0  1  0  0  0  0  0  0  0  0  0
  -12.4402    2.1554   10.2546 C   0  0  1  0  0  0  0  0  0  0  0  0
  -12.6081    3.7069   10.1920 C   0  0  1  0  0  0  0  0  0  0  0  0
  -13.9954    4.2882   10.6383 C   0  0  0  0  0  0  0  0  0  0  0  0
  -11.4109    0.4228    8.8325 C   0  0  1  0  0  0  0  0  0  0  0  0
  -10.2979    0.0517    7.8985 C   0  0  1  0  0  0  0  0  0  0  0  0
   -7.6624    0.3292   11.7337 C   0  0  1  0  0  0  0  0  0  0  0  0
  -10.5901   -1.3776    7.3187 C   0  0  0  0  0  0  0  0  0  0  0  0
  -11.8149   -1.4870    6.5794 C   0  0  0  0  0  0  0  0  0  0  0  0
  -12.9185   -1.1697    7.4605 C   0  0  2  0  0  0  0  0  0  0  0  0
  -14.2984   -1.2644    6.6977 C   0  0  0  0  0  0  0  0  0  0  0  0
  -13.2735    5.5608   19.8946 C   0  0  2  0  0  0  0  0  0  0  0  0
  -12.4227    3.8328   18.5370 C   0  0  0  0  0  0  0  0  0  0  0  0
  -13.0536    6.3941   18.8142 C   0  0  0  0  0  0  0  0  0  0  0  0
  -12.2938    4.6237   19.9302 C   0  0  1  0  0  0  0  0  0  0  0  0
   -8.5734    0.1865   10.4308 C   0  0  0  0  0  0  0  0  0  0  0  0
   -9.0817   -1.3318   10.3384 C   0  0  0  0  0  0  0  0  0  0  0  0
   -9.9059   -1.6563   11.6693 C   0  0  1  0  0  0  0  0  0  0  0  0
  -10.4272   -3.0984   11.6820 C   0  0  0  0  0  0  0  0  0  0  0  0
  -11.0432    2.4186   16.9797 C   0  0  1  0  0  0  0  0  0  0  0  0
   -9.6227    1.6390   16.9603 C   0  0  0  0  0  0  0  0  0  0  0  0
   -9.5019    0.7729   15.6476 C   0  0  2  0  0  0  0  0  0  0  0  0
  -14.5995    4.9922   19.8038 F   0  0  0  0  0  0  0  0  0  0  0  0
  -15.4781   -0.6296    7.4887 N   0  0  0  0  0  0  0  0  0  0  0  0
   -7.1473    1.7364   11.9180 N   0  0  0  0  0  0  0  0  0  0  0  0
  -10.1835    0.8872    6.7839 N   0  0  0  0  0  0  0  0  0  0  0  0
  -12.0545    7.3653   18.5694 N   0  0  0  0  0  0  0  0  0  0  0  0
   -9.3720   -4.0208   11.5187 N   0  0  0  0  0  0  0  0  0  0  0  0
  -11.1377    3.2044   18.2232 N   0  0  0  0  0  0  0  0  0  0  0  0
   -8.2033    0.0646   15.6100 N   0  0  0  0  0  0  0  0  0  0  0  0
   -9.5031    0.8595   13.2649 O   0  0  0  0  0  0  0  0  0  0  0  0
  -10.9166    3.3469   13.1543 O   0  0  0  0  0  0  0  0  0  0  0  0
  -12.2176    4.0882   15.6840 O   0  0  0  0  0  0  0  0  0  0  0  0
  -11.4901    0.6285   11.9026 O   0  0  0  0  0  0  0  0  0  0  0  0
  -11.4435    4.0414   10.9651 O   0  0  0  0  0  0  0  0  0  0  0  0
  -13.9747    4.3946   12.0758 O   0  0  0  0  0  0  0  0  0  0  0  0
  -11.2966    1.6846    9.3743 O   0  0  0  0  0  0  0  0  0  0  0  0
  -10.9713    5.1929   20.0456 O   0  0  0  0  0  0  0  0  0  0  0  0
  -13.4600    3.7638   17.8574 O   0  0  0  0  0  0  0  0  0  0  0  0
  -12.7344    0.2051    8.0588 O   0  0  0  0  0  0  0  0  0  0  0  0
   -9.0195   -1.4504   12.8866 O   0  0  0  0  0  0  0  0  0  0  0  0
  1 36  1  6  0  0  0
  2 36  1  6  0  0  0
  2  3  1  0  0  0  0
  3 37  1  6  0  0  0
  3  4  1  0  0  0  0
  4 38  1  6  0  0  0
  5 37  1  1  0  0  0
  5  6  1  0  0  0  0
  6  7  1  0  0  0  0
  6 39  1  6  0  0  0
  7 42  1  6  0  0  0
  8  9  1  1  0  0  0
  8  7  1  0  0  0  0
 10 42  1  6  0  0  0
 10 11  1  0  0  0  0
 11 31  1  6  0  0  0
 11 13  1  0  0  0  0
 12 30  1  1  0  0  0
 12  1  1  0  0  0  0
 14 13  1  0  0  0  0
 15 16  1  6  0  0  0
 15 14  1  0  0  0  0
 17 19  1  6  0  0  0
 17 28  1  0  0  0  0
 18 34  1  0  0  0  0
 19 32  1  0  0  0  0
 20 18  1  6  0  0  0
 20 17  1  0  0  0  0
 20 43  1  0  0  0  0
 21 12  1  0  0  0  0
 22 21  1  0  0  0  0
 22 23  1  0  0  0  0
 23 24  1  6  0  0  0
 23 46  1  0  0  0  0
 24 33  1  0  0  0  0
 25 34  1  1  0  0  0
 25  4  1  0  0  0  0
 26 25  1  0  0  0  0
 27 35  1  1  0  0  0
 27 26  1  0  0  0  0
 27  2  1  0  0  0  0
 29 16  1  0  0  0  0
 40  8  1  0  0  0  0
 40  5  1  0  0  0  0
 41  9  1  0  0  0  0
 44 18  2  0  0  0  0
 45 15  1  0  0  0  0
 45 10  1  0  0  0  0
 46  1  1  0  0  0  0
M  END
>  <CHROM.1>
-116.37744548,-175.93655730,72.14469515,39.40004028,94.74309332,83.05753176
175.99671401,-166.93970352,-69.85554589,156.96591491,-60.39300495,56.05892903
72.97200092,-11.24845761,1.73151194,12.97195752,-1.46329032,-0.70286166,1.15685443

>  <Name>
lig.pdb

>  <RI>
0

>  <Rbt.Current_Directory>
/home/afrankz/demos/rdock_decoys_rna/rnas/3wru

>  <Rbt.Executable>
rbdock ($Id: //depot/dev/client3/rdock/2013.1/src/exe/rbdock.cxx#4 $)

>  <Rbt.Library>
libRbt.so (2013.1, Build901 2013/11/27)

>  <Rbt.Parameter_File>
/export/apps/rDock/src/rDock_2013.1_src/data/scripts/dock_solv.prm

>  <Rbt.Receptor>
prm/blind_docking_60.prm

>  <SCORE>
20.8509

>  <SCORE.INTER>
6.71403

>  <SCORE.INTER.CONST>
1

>  <SCORE.INTER.POLAR>
0

>  <SCORE.INTER.ROT>
13

>  <SCORE.INTER.SOLV>
33.0245

>  <SCORE.INTER.VDW>
-18.7988

>  <SCORE.INTER.norm>
0.145957

>  <SCORE.INTRA>
9.2202

>  <SCORE.INTRA.DIHEDRAL>
-1.14024

>  <SCORE.INTRA.DIHEDRAL.0>
19.7146

>  <SCORE.INTRA.POLAR>
0

>  <SCORE.INTRA.POLAR.0>
0

>  <SCORE.INTRA.REPUL>
0

>  <SCORE.INTRA.REPUL.0>
0

>  <SCORE.INTRA.SOLV>
5.17108

>  <SCORE.INTRA.SOLV.lig_0>
-116.697

>  <SCORE.INTRA.VDW>
7.20478

>  <SCORE.INTRA.VDW.0>
-7.06424

>  <SCORE.INTRA.norm>
0.200439

>  <SCORE.RESTR>
4.91666

>  <SCORE.RESTR.CAVITY>
4.91666

>  <SCORE.RESTR.norm>
0.106884

>  <SCORE.SYSTEM>
0

>  <SCORE.SYSTEM.CONST>
0

>  <SCORE.SYSTEM.DIHEDRAL>
0

>  <SCORE.SYSTEM.SOLV>
0

>  <SCORE.SYSTEM.norm>
0

>  <SCORE.heavy>
46

>  <SCORE.norm>
0.45328

>  <RMSD>
30.028

$$$$
lig.pdb
 OpenBabel03061811583D
libRbt.so/2013.1/901 2013/11/27
 46 49  0  0  0  0  0  0  0  0999 V2000
  -12.0702    4.6407   16.7918 C   0  0  1  0  0  0  0  0  0  0  0  0
  -11.7778    2.6134   18.2792 C   0  0  1  0  0  0  0  0  0  0  0  0
  -10.2879    3.0712   18.2951 C   0  0  1  0  0  0  0  0  0  0  0  0
   -9.4603    2.1163   19.2982 C   0  0  2  0  0  0  0  0  0  0  0  0
   -9.4279    1.8735   16.2302 C   0  0  2  0  0  0  0  0  0  0  0  0
  -10.1184    1.7487   14.8422 C   0  0  1  0  0  0  0  0  0  0  0  0
   -9.0783    0.8858   14.1695 C   0  0  1  0  0  0  0  0  0  0  0  0
   -7.7132    1.5478   14.5402 C   0  0  1  0  0  0  0  0  0  0  0  0
   -7.2637    2.7772   13.6751 C   0  0  0  0  0  0  0  0  0  0  0  0
   -9.6133   -1.4994   13.8408 C   0  0  1  0  0  0  0  0  0  0  0  0
   -8.8248   -2.7739   13.8944 C   0  0  1  0  0  0  0  0  0  0  0  0
  -12.4615    5.9044   17.5938 C   0  0  1  0  0  0  0  0  0  0  0  0
   -9.3958   -3.7586   12.8133 C   0  0  0  0  0  0  0  0  0  0  0  0
   -9.3252   -3.2757   11.4640 C   0  0  0  0  0  0  0  0  0  0  0  0
  -10.1065   -2.0613   11.3645 C   0  0  2  0  0  0  0  0  0  0  0  0
  -10.0592   -1.4753    9.8985 C   0  0  0  0  0  0  0  0  0  0  0  0
   -8.6121    0.8210   24.6323 C   0  0  2  0  0  0  0  0  0  0  0  0
   -8.4335    2.1171   22.6725 C   0  0  0  0  0  0  0  0  0  0  0  0
   -8.4846    1.8738   25.5185 C   0  0  0  0  0  0  0  0  0  0  0  0
   -7.7443    1.0055   23.6066 C   0  0  1  0  0  0  0  0  0  0  0  0
  -14.0428    6.1222   17.5846 C   0  0  0  0  0  0  0  0  0  0  0  0
  -14.5234    6.2428   16.0593 C   0  0  0  0  0  0  0  0  0  0  0  0
  -14.1124    4.8939   15.3060 C   0  0  1  0  0  0  0  0  0  0  0  0
  -14.5207    4.9168   13.8281 C   0  0  0  0  0  0  0  0  0  0  0  0
  -10.0581    2.3014   20.7608 C   0  0  1  0  0  0  0  0  0  0  0  0
  -11.5937    1.7892   20.6875 C   0  0  0  0  0  0  0  0  0  0  0  0
  -12.4153    2.6921   19.6886 C   0  0  2  0  0  0  0  0  0  0  0  0
   -9.9877    0.7176   24.2001 F   0  0  0  0  0  0  0  0  0  0  0  0
   -8.9302   -0.4240    9.6974 N   0  0  0  0  0  0  0  0  0  0  0  0
  -11.9138    5.7612   18.9934 N   0  0  0  0  0  0  0  0  0  0  0  0
   -7.4713   -2.6232   13.5801 N   0  0  0  0  0  0  0  0  0  0  0  0
   -7.8794    1.9548   26.7947 N   0  0  0  0  0  0  0  0  0  0  0  0
  -13.3867    4.9418   12.9888 N   0  0  0  0  0  0  0  0  0  0  0  0
   -9.3188    1.4535   21.7131 N   0  0  0  0  0  0  0  0  0  0  0  0
  -13.8176    2.2280   19.6018 N   0  0  0  0  0  0  0  0  0  0  0  0
  -12.5484    3.4588   17.4349 O   0  0  0  0  0  0  0  0  0  0  0  0
   -9.7844    2.9523   16.8861 O   0  0  0  0  0  0  0  0  0  0  0  0
   -8.1504    2.5407   19.2948 O   0  0  0  0  0  0  0  0  0  0  0  0
  -11.3517    1.1210   15.0219 O   0  0  0  0  0  0  0  0  0  0  0  0
   -7.9912    1.7555   15.9349 O   0  0  0  0  0  0  0  0  0  0  0  0
   -8.4209    3.6156   13.4853 O   0  0  0  0  0  0  0  0  0  0  0  0
   -9.1762   -0.5276   14.7144 O   0  0  0  0  0  0  0  0  0  0  0  0
   -6.4476    1.4710   24.0403 O   0  0  0  0  0  0  0  0  0  0  0  0
   -8.2449    3.3405   22.7740 O   0  0  0  0  0  0  0  0  0  0  0  0
   -9.6171   -1.0385   12.3625 O   0  0  0  0  0  0  0  0  0  0  0  0
  -12.6079    4.6953   15.3905 O   0  0  0  0  0  0  0  0  0  0  0  0
  1 36  1  1  0  0  0
  2 36  1  6  0  0  0
  2  3  1  0  0  0  0
  3 37  1  6  0  0  0
  3  4  1  0  0  0  0
  4 38  1  1  0  0  0
  5 37  1  6  0  0  0
  5  6  1  0  0  0  0
  6  7  1  0  0  0  0
  6 39  1  1  0  0  0
  7 42  1  1  0  0  0
  8  9  1  6  0  0  0
  8  7  1  0  0  0  0
 10 42  1  1  0  0  0
 10 11  1  0  0  0  0
 11 31  1  6  0  0  0
 11 13  1  0  0  0  0
 12 30  1  1  0  0  0
 12  1  1  0  0  0  0
 14 13  1  0  0  0  0
 15 16  1  6  0  0  0
 15 14  1  0  0  0  0
 17 19  1  1  0  0  0
 17 28  1  0  0  0  0
 18 34  1  0  0  0  0
 19 32  1  0  0  0  0
 20 18  1  6  0  0  0
 20 17  1  0  0  0  0
 20 43  1  0  0  0  0
 21 12  1  0  0  0  0
 22 21  1  0  0  0  0
 22 23  1  0  0  0  0
 23 24  1  6  0  0  0
 23 46  1  0  0  0  0
 24 33  1  0  0  0  0
 25 34  1  1  0  0  0
 25  4  1  0  0  0  0
 26 25  1  0  0  0  0
 27 35  1  6  0  0  0
 27 26  1  0  0  0  0
 27  2  1  0  0  0  0
 29 16  1  0  0  0  0
 40  8  1  0  0  0  0
 40  5  1  0  0  0  0
 41  9  1  0  0  0  0
 44 18  2  0  0  0  0
 45 15  1  0  0  0  0
 45 10  1  0  0  0  0
 46  1  1  0  0  0  0
M  END
>  <CHROM.1>
-98.15143422,-5.79374005,-77.08301036,128.83882727,112.26484604,43.16208322
135.98578593,-92.88836996,-105.31763399,-87.63378433,-77.48394814,112.95860364
108.93584830,-10.16577710,1.83950141,17.25201477,1.47212441,-0.86493487,1.28670079

>  <Name>
lig.pdb

>  <RI>
0

>  <Rbt.Current_Directory>
/home/afrankz/demos/rdock_decoys_rna/rnas/3wru

>  <Rbt.Executable>
rbdock ($Id: //depot/dev/client3/rdock/2013.1/src/exe/rbdock.cxx#4 $)

>  <Rbt.Library>
libRbt.so (2013.1, Build901 2013/11/27)

>  <Rbt.Parameter_File>
/export/apps/rDock/src/rDock_2013.1_src/data/scripts/dock_solv.prm

>  <Rbt.Receptor>
prm/blind_docking_100.prm

>  <SCORE>
29.8851

>  <SCORE.INTER>
5.0724

>  <SCORE.INTER.CONST>
1

>  <SCORE.INTER.POLAR>
0

>  <SCORE.INTER.ROT>
13

>  <SCORE.INTER.SOLV>
32.1479

>  <SCORE.INTER.VDW>
-19.601

>  <SCORE.INTER.norm>
0.11027

>  <SCORE.INTRA>
22.9267

>  <SCORE.INTRA.DIHEDRAL>
30.6121

>  <SCORE.INTRA.DIHEDRAL.0>
19.7146

>  <SCORE.INTRA.POLAR>
0

>  <SCORE.INTRA.POLAR.0>
0

>  <SCORE.INTRA.REPUL>
0

>  <SCORE.INTRA.REPUL.0>
0

>  <SCORE.INTRA.SOLV>
3.48953

>  <SCORE.INTRA.SOLV.lig_0>
-116.697

>  <SCORE.INTRA.VDW>
5.87594

>  <SCORE.INTRA.VDW.0>
-7.06424

>  <SCORE.INTRA.norm>
0.498407

>  <SCORE.RESTR>
1.88592

>  <SCORE.RESTR.CAVITY>
1.88592

>  <SCORE.RESTR.norm>
0.0409983

>  <SCORE.SYSTEM>
0

>  <SCORE.SYSTEM.CONST>
0

>  <SCORE.SYSTEM.DIHEDRAL>
0

>  <SCORE.SYSTEM.SOLV>
0

>  <SCORE.SYSTEM.norm>
0

>  <SCORE.heavy>
46

>  <SCORE.norm>
0.649675

>  <RMSD>
30.066

$$$$
lig.pdb
 OpenBabel03061811583D
libRbt.so/2013.1/901 2013/11/27
 46 49  0  0  0  0  0  0  0  0999 V2000
  -13.6308    4.1724   15.5597 C   0  0  1  0  0  0  0  0  0  0  0  0
  -12.0862    3.5801   17.4758 C   0  0  1  0  0  0  0  0  0  0  0  0
  -10.9803    2.4830   17.4210 C   0  0  1  0  0  0  0  0  0  0  0  0
  -10.6862    1.9647   18.9202 C   0  0  2  0  0  0  0  0  0  0  0  0
  -10.8628    0.6252   15.6968 C   0  0  2  0  0  0  0  0  0  0  0  0
   -9.4145    0.2897   16.1533 C   0  0  1  0  0  0  0  0  0  0  0  0
   -9.2435   -0.9932   15.3763 C   0  0  1  0  0  0  0  0  0  0  0  0
  -10.5673   -1.7850   15.6212 C   0  0  1  0  0  0  0  0  0  0  0  0
  -10.6688   -2.5996   16.9583 C   0  0  0  0  0  0  0  0  0  0  0  0
   -9.4605   -1.6209   13.0009 C   0  0  1  0  0  0  0  0  0  0  0  0
   -8.7208   -2.9208   13.1104 C   0  0  1  0  0  0  0  0  0  0  0  0
  -13.5063    4.5292   14.0595 C   0  0  1  0  0  0  0  0  0  0  0  0
   -9.2424   -3.8867   11.9881 C   0  0  0  0  0  0  0  0  0  0  0  0
   -9.0559   -3.4073   10.6487 C   0  0  0  0  0  0  0  0  0  0  0  0
   -9.7871   -2.1677   10.4938 C   0  0  2  0  0  0  0  0  0  0  0  0
   -9.6118   -1.5845    9.0363 C   0  0  0  0  0  0  0  0  0  0  0  0
   -7.3391    2.8654   23.6018 C   0  0  2  0  0  0  0  0  0  0  0  0
   -8.4330    2.6182   21.5293 C   0  0  0  0  0  0  0  0  0  0  0  0
   -7.7615    4.1703   23.7713 C   0  0  0  0  0  0  0  0  0  0  0  0
   -8.3535    2.1442   23.0630 C   0  0  1  0  0  0  0  0  0  0  0  0
  -12.9376    6.0082   13.8675 C   0  0  0  0  0  0  0  0  0  0  0  0
  -13.9254    7.0261   14.6161 C   0  0  0  0  0  0  0  0  0  0  0  0
  -13.9790    6.6138   16.1598 C   0  0  1  0  0  0  0  0  0  0  0  0
  -14.9131    7.5263   16.9636 C   0  0  0  0  0  0  0  0  0  0  0  0
  -10.1337    3.1928   19.7671 C   0  0  1  0  0  0  0  0  0  0  0  0
  -11.3299    4.2852   19.8089 C   0  0  0  0  0  0  0  0  0  0  0  0
  -11.6541    4.7846   18.3483 C   0  0  2  0  0  0  0  0  0  0  0  0
   -6.8781    2.3390   24.8667 F   0  0  0  0  0  0  0  0  0  0  0  0
  -10.3860   -2.3948    7.9573 N   0  0  0  0  0  0  0  0  0  0  0  0
  -12.6297    3.4914   13.4008 N   0  0  0  0  0  0  0  0  0  0  0  0
   -7.3434   -2.8152   12.8975 N   0  0  0  0  0  0  0  0  0  0  0  0
   -8.4744    5.0420   22.9149 N   0  0  0  0  0  0  0  0  0  0  0  0
  -16.1464    7.7006   16.3004 N   0  0  0  0  0  0  0  0  0  0  0  0
   -9.8390    2.7572   21.1440 N   0  0  0  0  0  0  0  0  0  0  0  0
  -12.7541    5.7741   18.3696 N   0  0  0  0  0  0  0  0  0  0  0  0
  -12.3444    4.0908   16.1742 O   0  0  0  0  0  0  0  0  0  0  0  0
  -11.5103    1.3783   16.5540 O   0  0  0  0  0  0  0  0  0  0  0  0
   -9.7078    0.9987   18.8449 O   0  0  0  0  0  0  0  0  0  0  0  0
   -8.5744    1.3242   15.7394 O   0  0  0  0  0  0  0  0  0  0  0  0
  -11.4703   -0.6855   15.4175 O   0  0  0  0  0  0  0  0  0  0  0  0
  -11.9717   -3.2159   16.9884 O   0  0  0  0  0  0  0  0  0  0  0  0
   -9.0575   -0.6636   13.9063 O   0  0  0  0  0  0  0  0  0  0  0  0
   -8.1262    0.7190   23.1203 O   0  0  0  0  0  0  0  0  0  0  0  0
   -7.4475    2.8413   20.8071 O   0  0  0  0  0  0  0  0  0  0  0  0
   -9.3394   -1.1611   11.5272 O   0  0  0  0  0  0  0  0  0  0  0  0
  -14.4680    5.1809   16.2930 O   0  0  0  0  0  0  0  0  0  0  0  0
  1 36  1  1  0  0  0
  2 36  1  6  0  0  0
  2  3  1  0  0  0  0
  3 37  1  6  0  0  0
  3  4  1  0  0  0  0
  4 38  1  6  0  0  0
  5 37  1  1  0  0  0
  5  6  1  0  0  0  0
  6  7  1  0  0  0  0
  6 39  1  6  0  0  0
  7 42  1  6  0  0  0
  8  9  1  1  0  0  0
  8  7  1  0  0  0  0
 10 42  1  1  0  0  0
 10 11  1  0  0  0  0
 11 31  1  6  0  0  0
 11 13  1  0  0  0  0
 12 30  1  6  0  0  0
 12  1  1  0  0  0  0
 14 13  1  0  0  0  0
 15 16  1  6  0  0  0
 15 14  1  0  0  0  0
 17 19  1  1  0  0  0
 17 28  1  0  0  0  0
 18 34  1  0  0  0  0
 19 32  1  0  0  0  0
 20 18  1  6  0  0  0
 20 17  1  0  0  0  0
 20 43  1  0  0  0  0
 21 12  1  0  0  0  0
 22 21  1  0  0  0  0
 22 23  1  0  0  0  0
 23 24  1  1  0  0  0
 23 46  1  0  0  0  0
 24 33  1  0  0  0  0
 25 34  1  1  0  0  0
 25  4  1  0  0  0  0
 26 25  1  0  0  0  0
 27 35  1  1  0  0  0
 27 26  1  0  0  0  0
 27  2  1  0  0  0  0
 29 16  1  0  0  0  0
 40  8  1  0  0  0  0
 40  5  1  0  0  0  0
 41  9  1  0  0  0  0
 44 18  2  0  0  0  0
 45 15  1  0  0  0  0
 45 10  1  0  0  0  0
 46  1  1  0  0  0  0
M  END
>  <CHROM.1>
-169.43306843,127.19785501,143.04622133,35.47276902,-152.44445471,178.58857554
-61.97568728,72.28107209,-44.89262229,-138.86107779,73.47152009,46.99263613
106.93772651,-10.55192774,1.73160365,16.71045848,1.55808208,-0.88380506,1.01927488

>  <Name>
lig.pdb

>  <RI>
0

>  <Rbt.Current_Directory>
/home/afrankz/demos/rdock_decoys_rna/rnas/3wru

>  <Rbt.Executable>
rbdock ($Id: //depot/dev/client3/rdock/2013.1/src/exe/rbdock.cxx#4 $)

>  <Rbt.Library>
libRbt.so (2013.1, Build901 2013/11/27)

>  <Rbt.Parameter_File>
/export/apps/rDock/src/rDock_2013.1_src/data/scripts/dock_solv.prm

>  <Rbt.Receptor>
prm/blind_docking_40.prm

>  <SCORE>
20.041

>  <SCORE.INTER>
1.67672

>  <SCORE.INTER.CONST>
1

>  <SCORE.INTER.POLAR>
0

>  <SCORE.INTER.ROT>
13

>  <SCORE.INTER.SOLV>
26.9801

>  <SCORE.INTER.VDW>
-20.1422

>  <SCORE.INTER.norm>
0.0364504

>  <SCORE.INTRA>
9.02858

>  <SCORE.INTRA.DIHEDRAL>
4.10877

>  <SCORE.INTRA.DIHEDRAL.0>
19.7146

>  <SCORE.INTRA.POLAR>
0

>  <SCORE.INTRA.POLAR.0>
0

>  <SCORE.INTRA.REPUL>
0

>  <SCORE.INTRA.REPUL.0>
0

>  <SCORE.INTRA.SOLV>
5.41043

>  <SCORE.INTRA.SOLV.lig_0>
-116.697

>  <SCORE.INTRA.VDW>
4.26898

>  <SCORE.INTRA.VDW.0>
-7.06424

>  <SCORE.INTRA.norm>
0.196274

>  <SCORE.RESTR>
9.33573

>  <SCORE.RESTR.CAVITY>
9.33573

>  <SCORE.RESTR.norm>
0.202951

>  <SCORE.SYSTEM>
0

>  <SCORE.SYSTEM.CONST>
0

>  <SCORE.SYSTEM.DIHEDRAL>
0

>  <SCORE.SYSTEM.SOLV>
0

>  <SCORE.SYSTEM.norm>
0

>  <SCORE.heavy>
46

>  <SCORE.norm>
0.435675

>  <RMSD>
30.079

$$$$
lig.pdb
 OpenBabel03061811583D
libRbt.so/2013.1/901 2013/11/27
 46 49  0  0  0  0  0  0  0  0999 V2000
   -8.8322    1.2291   12.2817 C   0  0  1  0  0  0  0  0  0  0  0  0
   -9.8806    2.3027   14.3203 C   0  0  1  0  0  0  0  0  0  0  0  0
  -11.3176    2.6699   13.8407 C   0  0  1  0  0  0  0  0  0  0  0  0
  -11.8572    3.9128   14.7165 C   0  0  2  0  0  0  0  0  0  0  0  0
  -11.5077    2.3031   11.3373 C   0  0  2  0  0  0  0  0  0  0  0  0
  -12.6990    1.3347   11.5854 C   0  0  1  0  0  0  0  0  0  0  0  0
  -13.1543    1.1938   10.1530 C   0  0  1  0  0  0  0  0  0  0  0  0
  -13.1639    2.6522    9.5944 C   0  0  1  0  0  0  0  0  0  0  0  0
  -14.4259    3.5267    9.9174 C   0  0  0  0  0  0  0  0  0  0  0  0
  -12.3926    0.1497    8.0522 C   0  0  1  0  0  0  0  0  0  0  0  0
  -12.9244   -1.2024    7.6810 C   0  0  1  0  0  0  0  0  0  0  0  0
   -8.6122   -0.1967   11.7231 C   0  0  1  0  0  0  0  0  0  0  0  0
  -13.0746   -1.2670    6.1197 C   0  0  0  0  0  0  0  0  0  0  0  0
  -11.8531   -1.0798    5.3906 C   0  0  0  0  0  0  0  0  0  0  0  0
  -11.3267    0.2333    5.6968 C   0  0  2  0  0  0  0  0  0  0  0  0
   -9.9721    0.4946    4.9275 C   0  0  0  0  0  0  0  0  0  0  0  0
  -13.2413    5.4155   20.2867 C   0  0  2  0  0  0  0  0  0  0  0  0
  -11.9824    4.6229   18.4591 C   0  0  0  0  0  0  0  0  0  0  0  0
  -12.2702    5.1914   21.2442 C   0  0  0  0  0  0  0  0  0  0  0  0
  -12.6482    5.9023   19.1684 C   0  0  1  0  0  0  0  0  0  0  0  0
   -7.4827   -0.9670   12.5469 C   0  0  0  0  0  0  0  0  0  0  0  0
   -6.1306   -0.1081   12.4672 C   0  0  0  0  0  0  0  0  0  0  0  0
   -6.4276    1.3352   13.0872 C   0  0  1  0  0  0  0  0  0  0  0  0
   -5.1912    2.2413   13.0452 C   0  0  0  0  0  0  0  0  0  0  0  0
  -11.9384    3.4475   16.2356 C   0  0  1  0  0  0  0  0  0  0  0  0
  -10.4192    3.1037   16.6827 C   0  0  0  0  0  0  0  0  0  0  0  0
   -9.8609    1.9085   15.8180 C   0  0  2  0  0  0  0  0  0  0  0  0
  -14.2531    6.2981   20.8224 F   0  0  0  0  0  0  0  0  0  0  0  0
   -8.8307   -0.4719    5.3555 N   0  0  0  0  0  0  0  0  0  0  0  0
   -9.9356   -0.9229   11.7539 N   0  0  0  0  0  0  0  0  0  0  0  0
  -12.0771   -2.2624    8.0157 N   0  0  0  0  0  0  0  0  0  0  0  0
  -11.3907    6.0768   21.9103 N   0  0  0  0  0  0  0  0  0  0  0  0
   -5.5199    3.5653   13.4057 N   0  0  0  0  0  0  0  0  0  0  0  0
  -12.4412    4.5534   17.0701 N   0  0  0  0  0  0  0  0  0  0  0  0
   -8.4689    1.5915   16.2069 N   0  0  0  0  0  0  0  0  0  0  0  0
   -9.3864    1.1830   13.5970 O   0  0  0  0  0  0  0  0  0  0  0  0
  -11.2093    3.0302   12.3877 O   0  0  0  0  0  0  0  0  0  0  0  0
  -13.1255    4.2169   14.2749 O   0  0  0  0  0  0  0  0  0  0  0  0
  -12.1975    0.1581   12.1435 O   0  0  0  0  0  0  0  0  0  0  0  0
  -11.8938    3.0555   10.1331 O   0  0  0  0  0  0  0  0  0  0  0  0
  -14.6093    3.5053   11.3471 O   0  0  0  0  0  0  0  0  0  0  0  0
  -12.1685    0.3177    9.4014 O   0  0  0  0  0  0  0  0  0  0  0  0
  -13.5809    6.5303   18.2618 O   0  0  0  0  0  0  0  0  0  0  0  0
  -11.1943    3.8389   19.0129 O   0  0  0  0  0  0  0  0  0  0  0  0
  -11.1306    0.3862    7.1867 O   0  0  0  0  0  0  0  0  0  0  0  0
   -7.5482    2.0078   12.3113 O   0  0  0  0  0  0  0  0  0  0  0  0
  1 36  1  1  0  0  0
  2 36  1  6  0  0  0
  2  3  1  0  0  0  0
  3 37  1  6  0  0  0
  3  4  1  0  0  0  0
  4 38  1  6  0  0  0
  5 37  1  1  0  0  0
  5  6  1  0  0  0  0
  6  7  1  0  0  0  0
  6 39  1  6  0  0  0
  7 42  1  6  0  0  0
  8  9  1  1  0  0  0
  8  7  1  0  0  0  0
 10 42  1  1  0  0  0
 10 11  1  0  0  0  0
 11 31  1  6  0  0  0
 11 13  1  0  0  0  0
 12 30  1  1  0  0  0
 12  1  1  0  0  0  0
 14 13  1  0  0  0  0
 15 16  1  6  0  0  0
 15 14  1  0  0  0  0
 17 19  1  1  0  0  0
 17 28  1  0  0  0  0
 18 34  1  0  0  0  0
 19 32  1  0  0  0  0
 20 18  1  6  0  0  0
 20 17  1  0  0  0  0
 20 43  1  0  0  0  0
 21 12  1  0  0  0  0
 22 21  1  0  0  0  0
 22 23  1  0  0  0  0
 23 24  1  6  0  0  0
 23 46  1  0  0  0  0
 24 33  1  0  0  0  0
 25 34  1  1  0  0  0
 25  4  1  0  0  0  0
 26 25  1  0  0  0  0
 27 35  1  1  0  0  0
 27 26  1  0  0  0  0
 27  2  1  0  0  0  0
 29 16  1  0  0  0  0
 40  8  1  0  0  0  0
 40  5  1  0  0  0  0
 41  9  1  0  0  0  0
 44 18  2  0  0  0  0
 45 15  1  0  0  0  0
 45 10  1  0  0  0  0
 46  1  1  0  0  0  0
M  END
>  <CHROM.1>
-170.78171797,79.81615969,101.22144480,32.66794828,-176.27011864,53.83253997
-106.28042164,-63.77247747,63.07067027,126.53015124,77.49674295,171.11282711
-149.59453439,-11.02619526,2.15024502,12.89116143,-1.48620780,-0.28472806
1.17274837

>  <Name>
lig.pdb

>  <RI>
0

>  <Rbt.Current_Directory>
/home/afrankz/demos/rdock_decoys_rna/rnas/3wru

>  <Rbt.Executable>
rbdock ($Id: //depot/dev/client3/rdock/2013.1/src/exe/rbdock.cxx#4 $)

>  <Rbt.Library>
libRbt.so (2013.1, Build901 2013/11/27)

>  <Rbt.Parameter_File>
/export/apps/rDock/src/rDock_2013.1_src/data/scripts/dock_solv.prm

>  <Rbt.Receptor>
prm/blind_docking_60.prm

>  <SCORE>
39.6382

>  <SCORE.INTER>
23.1357

>  <SCORE.INTER.CONST>
1

>  <SCORE.INTER.POLAR>
0

>  <SCORE.INTER.ROT>
13

>  <SCORE.INTER.SOLV>
33.5766

>  <SCORE.INTER.VDW>
-8.03504

>  <SCORE.INTER.norm>
0.502951

>  <SCORE.INTRA>
10.2856

>  <SCORE.INTRA.DIHEDRAL>
2.16499

>  <SCORE.INTRA.DIHEDRAL.0>
19.7146

>  <SCORE.INTRA.POLAR>
0

>  <SCORE.INTRA.POLAR.0>
0

>  <SCORE.INTRA.REPUL>
0.305941

>  <SCORE.INTRA.REPUL.0>
0

>  <SCORE.INTRA.SOLV>
3.73247

>  <SCORE.INTRA.SOLV.lig_0>
-116.697

>  <SCORE.INTRA.VDW>
5.80714

>  <SCORE.INTRA.VDW.0>
-7.06424

>  <SCORE.INTRA.norm>
0.223599

>  <SCORE.RESTR>
6.21693

>  <SCORE.RESTR.CAVITY>
6.21693

>  <SCORE.RESTR.norm>
0.135151

>  <SCORE.SYSTEM>
0

>  <SCORE.SYSTEM.CONST>
0

>  <SCORE.SYSTEM.DIHEDRAL>
0

>  <SCORE.SYSTEM.SOLV>
0

>  <SCORE.SYSTEM.norm>
0

>  <SCORE.heavy>
46

>  <SCORE.norm>
0.861701

>  <RMSD>
30.109

$$$$
lig.pdb
 OpenBabel03061811583D
libRbt.so/2013.1/901 2013/11/27
 46 49  0  0  0  0  0  0  0  0999 V2000
  -12.3937   -0.9717   19.4078 C   0  0  1  0  0  0  0  0  0  0  0  0
  -12.2853   -1.3499   16.9072 C   0  0  1  0  0  0  0  0  0  0  0  0
  -11.0327   -0.4271   17.0023 C   0  0  1  0  0  0  0  0  0  0  0  0
  -10.4525   -0.1819   15.5170 C   0  0  2  0  0  0  0  0  0  0  0  0
  -10.8574    1.6202   18.4909 C   0  0  2  0  0  0  0  0  0  0  0  0
  -11.0719    3.1385   18.2309 C   0  0  1  0  0  0  0  0  0  0  0  0
  -10.8178    3.6280   19.6361 C   0  0  1  0  0  0  0  0  0  0  0  0
  -11.6306    2.6552   20.5484 C   0  0  1  0  0  0  0  0  0  0  0  0
  -13.1623    2.9524   20.7139 C   0  0  0  0  0  0  0  0  0  0  0  0
   -8.9481    3.7110   21.2427 C   0  0  1  0  0  0  0  0  0  0  0  0
   -7.6757    4.4840   21.4231 C   0  0  1  0  0  0  0  0  0  0  0  0
  -12.1991   -1.9955   20.5511 C   0  0  1  0  0  0  0  0  0  0  0  0
   -7.3376    4.5361   22.9552 C   0  0  0  0  0  0  0  0  0  0  0  0
   -7.1434    3.2549   23.5713 C   0  0  0  0  0  0  0  0  0  0  0  0
   -8.3665    2.4908   23.4481 C   0  0  2  0  0  0  0  0  0  0  0  0
   -8.2105    1.0617   24.1024 C   0  0  0  0  0  0  0  0  0  0  0  0
   -8.5948   -0.7983   11.3654 C   0  0  2  0  0  0  0  0  0  0  0  0
   -8.5401   -2.4350   13.0599 C   0  0  0  0  0  0  0  0  0  0  0  0
   -7.6370   -0.0096   10.7567 C   0  0  0  0  0  0  0  0  0  0  0  0
   -8.0753   -2.0335   11.5747 C   0  0  1  0  0  0  0  0  0  0  0  0
  -13.5896   -2.6575   20.9705 C   0  0  0  0  0  0  0  0  0  0  0  0
  -14.5882   -1.4851   21.4182 C   0  0  0  0  0  0  0  0  0  0  0  0
  -14.7625   -0.4882   20.1806 C   0  0  1  0  0  0  0  0  0  0  0  0
  -15.6960    0.6814   20.5152 C   0  0  0  0  0  0  0  0  0  0  0  0
   -9.9970   -1.5874   14.9272 C   0  0  1  0  0  0  0  0  0  0  0  0
  -11.3389   -2.4907   14.8298 C   0  0  0  0  0  0  0  0  0  0  0  0
  -11.9400   -2.7188   16.2701 C   0  0  2  0  0  0  0  0  0  0  0  0
   -9.7918   -0.8160   10.5552 F   0  0  0  0  0  0  0  0  0  0  0  0
   -6.7549    0.5162   24.0379 N   0  0  0  0  0  0  0  0  0  0  0  0
  -11.1926   -3.0241   20.0948 N   0  0  0  0  0  0  0  0  0  0  0  0
   -6.5600    3.8993   20.8172 N   0  0  0  0  0  0  0  0  0  0  0  0
   -7.5440    1.3927   10.5951 N   0  0  0  0  0  0  0  0  0  0  0  0
  -15.3042    1.3168   21.7126 N   0  0  0  0  0  0  0  0  0  0  0  0
   -9.4467   -1.4053   13.5721 N   0  0  0  0  0  0  0  0  0  0  0  0
  -13.1738   -3.5322   16.1954 N   0  0  0  0  0  0  0  0  0  0  0  0
  -12.8018   -1.6218   18.2036 O   0  0  0  0  0  0  0  0  0  0  0  0
  -11.4892    0.8574   17.6306 O   0  0  0  0  0  0  0  0  0  0  0  0
   -9.3488    0.6339   15.6281 O   0  0  0  0  0  0  0  0  0  0  0  0
  -10.1234    3.5611   17.2987 O   0  0  0  0  0  0  0  0  0  0  0  0
  -11.2347    1.4346   19.9010 O   0  0  0  0  0  0  0  0  0  0  0  0
  -13.7241    3.0634   19.3910 O   0  0  0  0  0  0  0  0  0  0  0  0
   -9.3302    3.5508   19.9285 O   0  0  0  0  0  0  0  0  0  0  0  0
   -8.5570   -3.0163   10.6321 O   0  0  0  0  0  0  0  0  0  0  0  0
   -8.1882   -3.4666   13.6554 O   0  0  0  0  0  0  0  0  0  0  0  0
   -8.7669    2.3707   21.9966 O   0  0  0  0  0  0  0  0  0  0  0  0
  -13.4086    0.0722   19.7767 O   0  0  0  0  0  0  0  0  0  0  0  0
  1 36  1  6  0  0  0
  2 36  1  1  0  0  0
  2  3  1  0  0  0  0
  3 37  1  6  0  0  0
  3  4  1  0  0  0  0
  4 38  1  1  0  0  0
  5 37  1  6  0  0  0
  5  6  1  0  0  0  0
  6  7  1  0  0  0  0
  6 39  1  6  0  0  0
  7 42  1  1  0  0  0
  8  9  1  6  0  0  0
  8  7  1  0  0  0  0
 10 42  1  6  0  0  0
 10 11  1  0  0  0  0
 11 31  1  6  0  0  0
 11 13  1  0  0  0  0
 12 30  1  6  0  0  0
 12  1  1  0  0  0  0
 14 13  1  0  0  0  0
 15 16  1  6  0  0  0
 15 14  1  0  0  0  0
 17 19  1  6  0  0  0
 17 28  1  0  0  0  0
 18 34  1  0  0  0  0
 19 32  1  0  0  0  0
 20 18  1  1  0  0  0
 20 17  1  0  0  0  0
 20 43  1  0  0  0  0
 21 12  1  0  0  0  0
 22 21  1  0  0  0  0
 22 23  1  0  0  0  0
 23 24  1  1  0  0  0
 23 46  1  0  0  0  0
 24 33  1  0  0  0  0
 25 34  1  6  0  0  0
 25  4  1  0  0  0  0
 26 25  1  0  0  0  0
 27 35  1  6  0  0  0
 27 26  1  0  0  0  0
 27  2  1  0  0  0  0
 29 16  1  0  0  0  0
 40  8  1  0  0  0  0
 40  5  1  0  0  0  0
 41  9  1  0  0  0  0
 44 18  2  0  0  0  0
 45 15  1  0  0  0  0
 45 10  1  0  0  0  0
 46  1  1  0  0  0  0
M  END
>  <CHROM.1>
-135.97218561,10.11053958,142.30660372,141.58091951,-167.79244154,52.71420309
-142.23859636,-30.08299342,-163.91437910,5.74025635,136.79834619,51.36180401
157.71494878,-10.54603308,0.40450335,18.01505847,1.69564456,0.55072581,1.13384270

>  <Name>
lig.pdb

>  <RI>
0

>  <Rbt.Current_Directory>
/home/afrankz/demos/rdock_decoys_rna/rnas/3wru

>  <Rbt.Executable>
rbdock ($Id: //depot/dev/client3/rdock/2013.1/src/exe/rbdock.cxx#4 $)

>  <Rbt.Library>
libRbt.so (2013.1, Build901 2013/11/27)

>  <Rbt.Parameter_File>
/export/apps/rDock/src/rDock_2013.1_src/data/scripts/dock_solv.prm

>  <Rbt.Receptor>
prm/blind_docking_100.prm

>  <SCORE>
37.0543

>  <SCORE.INTER>
15.3953

>  <SCORE.INTER.CONST>
1

>  <SCORE.INTER.POLAR>
0

>  <SCORE.INTER.ROT>
13

>  <SCORE.INTER.SOLV>
39.5084

>  <SCORE.INTER.VDW>
-15.1726

>  <SCORE.INTER.norm>
0.334682

>  <SCORE.INTRA>
16.5734

>  <SCORE.INTRA.DIHEDRAL>
19.5516

>  <SCORE.INTRA.DIHEDRAL.0>
19.7146

>  <SCORE.INTRA.POLAR>
0

>  <SCORE.INTRA.POLAR.0>
0

>  <SCORE.INTRA.REPUL>
0

>  <SCORE.INTRA.REPUL.0>
0

>  <SCORE.INTRA.SOLV>
2.19489

>  <SCORE.INTRA.SOLV.lig_0>
-116.697

>  <SCORE.INTRA.VDW>
5.70017

>  <SCORE.INTRA.VDW.0>
-7.06424

>  <SCORE.INTRA.norm>
0.360292

>  <SCORE.RESTR>
5.08554

>  <SCORE.RESTR.CAVITY>
5.08554

>  <SCORE.RESTR.norm>
0.110555

>  <SCORE.SYSTEM>
0

>  <SCORE.SYSTEM.CONST>
0

>  <SCORE.SYSTEM.DIHEDRAL>
0

>  <SCORE.SYSTEM.SOLV>
0

>  <SCORE.SYSTEM.norm>
0

>  <SCORE.heavy>
46

>  <SCORE.norm>
0.805528

>  <RMSD>
30.149

$$$$
lig.pdb
 OpenBabel03061811583D
libRbt.so/2013.1/901 2013/11/27
 46 49  0  0  0  0  0  0  0  0999 V2000
  -13.5751    4.3948   15.6988 C   0  0  1  0  0  0  0  0  0  0  0  0
  -11.9500    3.9087   17.5778 C   0  0  1  0  0  0  0  0  0  0  0  0
  -10.6798    3.0187   17.4219 C   0  0  1  0  0  0  0  0  0  0  0  0
  -10.2920    2.4075   18.8637 C   0  0  2  0  0  0  0  0  0  0  0  0
  -10.2924    1.4263   15.4849 C   0  0  2  0  0  0  0  0  0  0  0  0
   -8.9207    0.8933   15.9879 C   0  0  1  0  0  0  0  0  0  0  0  0
   -8.6771   -0.1185   14.8944 C   0  0  1  0  0  0  0  0  0  0  0  0
  -10.0363   -0.8723   14.7410 C   0  0  1  0  0  0  0  0  0  0  0  0
  -10.3230   -2.0309   15.7594 C   0  0  0  0  0  0  0  0  0  0  0  0
   -8.2454   -0.1448   12.4661 C   0  0  1  0  0  0  0  0  0  0  0  0
   -8.0727    0.6586   11.2116 C   0  0  1  0  0  0  0  0  0  0  0  0
  -13.5175    4.9267   14.2472 C   0  0  1  0  0  0  0  0  0  0  0  0
   -8.0868   -0.3225    9.9861 C   0  0  0  0  0  0  0  0  0  0  0  0
   -9.2957   -1.0809    9.8378 C   0  0  0  0  0  0  0  0  0  0  0  0
   -9.4781   -1.8985   11.0182 C   0  0  2  0  0  0  0  0  0  0  0  0
  -10.8027   -2.7529   10.9170 C   0  0  0  0  0  0  0  0  0  0  0  0
   -6.9736    3.3147   23.6130 C   0  0  2  0  0  0  0  0  0  0  0  0
   -8.1731    3.2502   21.5857 C   0  0  0  0  0  0  0  0  0  0  0  0
   -7.3375    3.7048   24.8879 C   0  0  0  0  0  0  0  0  0  0  0  0
   -8.0009    2.6259   23.0567 C   0  0  1  0  0  0  0  0  0  0  0  0
  -13.2471    6.4996   14.2236 C   0  0  0  0  0  0  0  0  0  0  0  0
  -14.4167    7.2218   15.0500 C   0  0  0  0  0  0  0  0  0  0  0  0
  -14.3940    6.6448   16.5408 C   0  0  1  0  0  0  0  0  0  0  0  0
  -15.4906    7.2686   17.4124 C   0  0  0  0  0  0  0  0  0  0  0  0
   -9.9409    3.6180   19.8343 C   0  0  1  0  0  0  0  0  0  0  0  0
  -11.2995    4.4898   19.9761 C   0  0  0  0  0  0  0  0  0  0  0  0
  -11.7136    5.0738   18.5706 C   0  0  2  0  0  0  0  0  0  0  0  0
   -5.7464    2.5531   23.6729 F   0  0  0  0  0  0  0  0  0  0  0  0
  -10.9881   -3.4298    9.5286 N   0  0  0  0  0  0  0  0  0  0  0  0
  -12.4534    4.1541   13.5054 N   0  0  0  0  0  0  0  0  0  0  0  0
   -9.1046    1.5695   10.9687 N   0  0  0  0  0  0  0  0  0  0  0  0
   -7.4311    2.9780   26.0981 N   0  0  0  0  0  0  0  0  0  0  0  0
  -15.0870    8.5239   17.9145 N   0  0  0  0  0  0  0  0  0  0  0  0
   -9.5671    3.1004   21.1628 N   0  0  0  0  0  0  0  0  0  0  0  0
  -12.9606    5.8624   18.6824 N   0  0  0  0  0  0  0  0  0  0  0  0
  -12.2995    4.4984   16.3322 O   0  0  0  0  0  0  0  0  0  0  0  0
  -11.0290    1.9349   16.4439 O   0  0  0  0  0  0  0  0  0  0  0  0
   -9.1692    1.6275   18.6996 O   0  0  0  0  0  0  0  0  0  0  0  0
   -8.0149    1.9547   15.9959 O   0  0  0  0  0  0  0  0  0  0  0  0
  -10.8846    0.2877   14.7652 O   0  0  0  0  0  0  0  0  0  0  0  0
  -10.3325   -3.2653   15.0148 O   0  0  0  0  0  0  0  0  0  0  0  0
   -8.2991    0.6102   13.6175 O   0  0  0  0  0  0  0  0  0  0  0  0
   -7.7421    1.2085   22.9561 O   0  0  0  0  0  0  0  0  0  0  0  0
   -7.2607    3.7845   20.9341 O   0  0  0  0  0  0  0  0  0  0  0  0
   -9.4950   -1.0352   12.2576 O   0  0  0  0  0  0  0  0  0  0  0  0
  -14.5951    5.1385   16.5126 O   0  0  0  0  0  0  0  0  0  0  0  0
  1 36  1  1  0  0  0
  2 36  1  6  0  0  0
  2  3  1  0  0  0  0
  3 37  1  6  0  0  0
  3  4  1  0  0  0  0
  4 38  1  6  0  0  0
  5 37  1  1  0  0  0
  5  6  1  0  0  0  0
  6  7  1  0  0  0  0
  6 39  1  6  0  0  0
  7 42  1  6  0  0  0
  8  9  1  1  0  0  0
  8  7  1  0  0  0  0
 10 42  1  1  0  0  0
 10 11  1  0  0  0  0
 11 31  1  6  0  0  0
 11 13  1  0  0  0  0
 12 30  1  6  0  0  0
 12  1  1  0  0  0  0
 14 13  1  0  0  0  0
 15 16  1  6  0  0  0
 15 14  1  0  0  0  0
 17 19  1  1  0  0  0
 17 28  1  0  0  0  0
 18 34  1  0  0  0  0
 19 32  1  0  0  0  0
 20 18  1  6  0  0  0
 20 17  1  0  0  0  0
 20 43  1  0  0  0  0
 21 12  1  0  0  0  0
 22 21  1  0  0  0  0
 22 23  1  0  0  0  0
 23 24  1  1  0  0  0
 23 46  1  0  0  0  0
 24 33  1  0  0  0  0
 25 34  1  1  0  0  0
 25  4  1  0  0  0  0
 26 25  1  0  0  0  0
 27 35  1  1  0  0  0
 27 26  1  0  0  0  0
 27  2  1  0  0  0  0
 29 16  1  0  0  0  0
 40  8  1  0  0  0  0
 40  5  1  0  0  0  0
 41  9  1  0  0  0  0
 44 18  2  0  0  0  0
 45 15  1  0  0  0  0
 45 10  1  0  0  0  0
 46  1  1  0  0  0  0
M  END
>  <CHROM.1>
-169.26110052,125.14850338,139.95414868,54.82983785,-170.16017589,-113.16416220
171.21309486,44.91720099,75.87223239,-152.10934950,132.94827411,-82.07521547
111.59306780,-10.30028599,2.32290418,16.69276542,1.68339858,0.78809662,-2.05359423

>  <Name>
lig.pdb

>  <RI>
0

>  <Rbt.Current_Directory>
/home/afrankz/demos/rdock_decoys_rna/rnas/3wru

>  <Rbt.Executable>
rbdock ($Id: //depot/dev/client3/rdock/2013.1/src/exe/rbdock.cxx#4 $)

>  <Rbt.Library>
libRbt.so (2013.1, Build901 2013/11/27)

>  <Rbt.Parameter_File>
/export/apps/rDock/src/rDock_2013.1_src/data/scripts/dock_solv.prm

>  <Rbt.Receptor>
prm/blind_docking_80.prm

>  <SCORE>
26.3538

>  <SCORE.INTER>
10.7584

>  <SCORE.INTER.CONST>
1

>  <SCORE.INTER.POLAR>
0

>  <SCORE.INTER.ROT>
13

>  <SCORE.INTER.SOLV>
27.8827

>  <SCORE.INTER.VDW>
-14.3886

>  <SCORE.INTER.norm>
0.233879

>  <SCORE.INTRA>
9.40869

>  <SCORE.INTRA.DIHEDRAL>
9.53091

>  <SCORE.INTRA.DIHEDRAL.0>
19.7146

>  <SCORE.INTRA.POLAR>
0

>  <SCORE.INTRA.POLAR.0>
0

>  <SCORE.INTRA.REPUL>
0

>  <SCORE.INTRA.REPUL.0>
0

>  <SCORE.INTRA.SOLV>
2.75896

>  <SCORE.INTRA.SOLV.lig_0>
-116.697

>  <SCORE.INTRA.VDW>
3.26376

>  <SCORE.INTRA.VDW.0>
-7.06424

>  <SCORE.INTRA.norm>
0.204537

>  <SCORE.RESTR>
6.18665

>  <SCORE.RESTR.CAVITY>
6.18665

>  <SCORE.RESTR.norm>
0.134492

>  <SCORE.SYSTEM>
0

>  <SCORE.SYSTEM.CONST>
0

>  <SCORE.SYSTEM.DIHEDRAL>
0

>  <SCORE.SYSTEM.SOLV>
0

>  <SCORE.SYSTEM.norm>
0

>  <SCORE.heavy>
46

>  <SCORE.norm>
0.572908

>  <RMSD>
30.238

$$$$
lig.pdb
 OpenBabel03061811583D
libRbt.so/2013.1/901 2013/11/27
 46 49  0  0  0  0  0  0  0  0999 V2000
  -11.8959   -1.2261   16.5404 C   0  0  1  0  0  0  0  0  0  0  0  0
  -10.9262    0.5937   18.0087 C   0  0  1  0  0  0  0  0  0  0  0  0
  -10.9703    1.7316   16.9442 C   0  0  1  0  0  0  0  0  0  0  0  0
  -11.0742    3.1513   17.7035 C   0  0  2  0  0  0  0  0  0  0  0  0
   -9.5423    1.2400   14.9053 C   0  0  2  0  0  0  0  0  0  0  0  0
   -8.6727    2.2205   14.0680 C   0  0  1  0  0  0  0  0  0  0  0  0
   -8.1805    1.2335   13.0373 C   0  0  1  0  0  0  0  0  0  0  0  0
   -7.7444   -0.0184   13.8629 C   0  0  1  0  0  0  0  0  0  0  0  0
   -6.3177    0.0242   14.5145 C   0  0  0  0  0  0  0  0  0  0  0  0
   -8.9702    0.2775   10.9051 C   0  0  1  0  0  0  0  0  0  0  0  0
   -9.8053    0.6831    9.7275 C   0  0  1  0  0  0  0  0  0  0  0  0
  -12.4239   -2.5614   17.1160 C   0  0  1  0  0  0  0  0  0  0  0  0
   -9.3404   -0.1458    8.4781 C   0  0  0  0  0  0  0  0  0  0  0  0
   -9.4716   -1.5677    8.6180 C   0  0  0  0  0  0  0  0  0  0  0  0
   -8.6488   -2.0026    9.7265 C   0  0  2  0  0  0  0  0  0  0  0  0
   -8.7595   -3.5642    9.9364 C   0  0  0  0  0  0  0  0  0  0  0  0
  -14.3965    6.8394   20.0053 C   0  0  2  0  0  0  0  0  0  0  0  0
  -13.6754    4.6029   20.1818 C   0  0  0  0  0  0  0  0  0  0  0  0
  -14.9091    7.8957   20.7344 C   0  0  0  0  0  0  0  0  0  0  0  0
  -13.6287    6.0763   20.8223 C   0  0  1  0  0  0  0  0  0  0  0  0
  -11.2970   -3.6909   17.0699 C   0  0  0  0  0  0  0  0  0  0  0  0
  -10.8302   -3.8712   15.5461 C   0  0  0  0  0  0  0  0  0  0  0  0
  -10.2718   -2.4638   15.0330 C   0  0  1  0  0  0  0  0  0  0  0  0
   -9.8087   -2.5302   13.5726 C   0  0  0  0  0  0  0  0  0  0  0  0
  -12.4390    3.1749   18.5206 C   0  0  1  0  0  0  0  0  0  0  0  0
  -12.3246    1.9917   19.6220 C   0  0  0  0  0  0  0  0  0  0  0  0
  -12.1926    0.5954   18.9003 C   0  0  2  0  0  0  0  0  0  0  0  0
  -13.6751    7.3479   18.8605 F   0  0  0  0  0  0  0  0  0  0  0  0
   -8.1025   -4.3827    8.7881 N   0  0  0  0  0  0  0  0  0  0  0  0
  -12.9176   -2.3056   18.5196 N   0  0  0  0  0  0  0  0  0  0  0  0
  -11.1679    0.4062    9.8695 N   0  0  0  0  0  0  0  0  0  0  0  0
  -15.8429    7.9340   21.7965 N   0  0  0  0  0  0  0  0  0  0  0  0
   -8.8218   -3.5234   13.3979 N   0  0  0  0  0  0  0  0  0  0  0  0
  -12.5794    4.4644   19.2205 N   0  0  0  0  0  0  0  0  0  0  0  0
  -12.0744   -0.4943   19.8944 N   0  0  0  0  0  0  0  0  0  0  0  0
  -10.8749   -0.6779   17.3748 O   0  0  0  0  0  0  0  0  0  0  0  0
   -9.7020    1.6281   16.1483 O   0  0  0  0  0  0  0  0  0  0  0  0
  -11.1122    4.1377   16.7435 O   0  0  0  0  0  0  0  0  0  0  0  0
   -9.5061    3.2148   13.5542 O   0  0  0  0  0  0  0  0  0  0  0  0
   -8.8919   -0.0679   14.7270 O   0  0  0  0  0  0  0  0  0  0  0  0
   -5.3932    0.4582   13.4972 O   0  0  0  0  0  0  0  0  0  0  0  0
   -9.3144    0.9025   12.0839 O   0  0  0  0  0  0  0  0  0  0  0  0
  -12.2597    6.5304   20.8980 O   0  0  0  0  0  0  0  0  0  0  0  0
  -14.5068    3.7295   20.4794 O   0  0  0  0  0  0  0  0  0  0  0  0
   -9.0358   -1.2674   10.9881 O   0  0  0  0  0  0  0  0  0  0  0  0
  -11.3569   -1.4061   15.1500 O   0  0  0  0  0  0  0  0  0  0  0  0
  1 36  1  1  0  0  0
  2 36  1  6  0  0  0
  2  3  1  0  0  0  0
  3 37  1  1  0  0  0
  3  4  1  0  0  0  0
  4 38  1  6  0  0  0
  5 37  1  1  0  0  0
  5  6  1  0  0  0  0
  6  7  1  0  0  0  0
  6 39  1  6  0  0  0
  7 42  1  6  0  0  0
  8  9  1  1  0  0  0
  8  7  1  0  0  0  0
 10 42  1  1  0  0  0
 10 11  1  0  0  0  0
 11 31  1  1  0  0  0
 11 13  1  0  0  0  0
 12 30  1  1  0  0  0
 12  1  1  0  0  0  0
 14 13  1  0  0  0  0
 15 16  1  1  0  0  0
 15 14  1  0  0  0  0
 17 19  1  1  0  0  0
 17 28  1  0  0  0  0
 18 34  1  0  0  0  0
 19 32  1  0  0  0  0
 20 18  1  6  0  0  0
 20 17  1  0  0  0  0
 20 43  1  0  0  0  0
 21 12  1  0  0  0  0
 22 21  1  0  0  0  0
 22 23  1  0  0  0  0
 23 24  1  6  0  0  0
 23 46  1  0  0  0  0
 24 33  1  0  0  0  0
 25 34  1  1  0  0  0
 25  4  1  0  0  0  0
 26 25  1  0  0  0  0
 27 35  1  1  0  0  0
 27 26  1  0  0  0  0
 27  2  1  0  0  0  0
 29 16  1  0  0  0  0
 40  8  1  0  0  0  0
 40  5  1  0  0  0  0
 41  9  1  0  0  0  0
 44 18  2  0  0  0  0
 45 15  1  0  0  0  0
 45 10  1  0  0  0  0
 46  1  1  0  0  0  0
M  END
>  <CHROM.1>
-120.51663597,-63.50270298,109.34632158,130.84868017,164.90353763,-47.97180471
-144.82276384,68.97268441,-67.07195409,89.79944571,153.26188749,-57.14118753
-171.24177081,-10.77029563,1.03746960,15.57736920,0.45071793,-1.12648772
2.97060906

>  <Name>
lig.pdb

>  <RI>
0

>  <Rbt.Current_Directory>
/home/afrankz/demos/rdock_decoys_rna/rnas/3wru

>  <Rbt.Executable>
rbdock ($Id: //depot/dev/client3/rdock/2013.1/src/exe/rbdock.cxx#4 $)

>  <Rbt.Library>
libRbt.so (2013.1, Build901 2013/11/27)

>  <Rbt.Parameter_File>
/export/apps/rDock/src/rDock_2013.1_src/data/scripts/dock_solv.prm

>  <Rbt.Receptor>
prm/blind_docking_100.prm

>  <SCORE>
19.2355

>  <SCORE.INTER>
8.20252

>  <SCORE.INTER.CONST>
1

>  <SCORE.INTER.POLAR>
0

>  <SCORE.INTER.ROT>
13

>  <SCORE.INTER.SOLV>
27.785

>  <SCORE.INTER.VDW>
-16.06

>  <SCORE.INTER.norm>
0.178316

>  <SCORE.INTRA>
9.74256

>  <SCORE.INTRA.DIHEDRAL>
11.156

>  <SCORE.INTRA.DIHEDRAL.0>
19.7146

>  <SCORE.INTRA.POLAR>
0

>  <SCORE.INTRA.POLAR.0>
0

>  <SCORE.INTRA.REPUL>
0

>  <SCORE.INTRA.REPUL.0>
0

>  <SCORE.INTRA.SOLV>
5.06259

>  <SCORE.INTRA.SOLV.lig_0>
-116.697

>  <SCORE.INTRA.VDW>
1.63328

>  <SCORE.INTRA.VDW.0>
-7.06424

>  <SCORE.INTRA.norm>
0.211795

>  <SCORE.RESTR>
1.29042

>  <SCORE.RESTR.CAVITY>
1.29042

>  <SCORE.RESTR.norm>
0.0280527

>  <SCORE.SYSTEM>
0

>  <SCORE.SYSTEM.CONST>
0

>  <SCORE.SYSTEM.DIHEDRAL>
0

>  <SCORE.SYSTEM.SOLV>
0

>  <SCORE.SYSTEM.norm>
0

>  <SCORE.heavy>
46

>  <SCORE.norm>
0.418163

>  <RMSD>
30.287

$$$$
lig.pdb
 OpenBabel03061811583D
libRbt.so/2013.1/901 2013/11/27
 46 49  0  0  0  0  0  0  0  0999 V2000
   -8.2990   -0.2107   14.7975 C   0  0  1  0  0  0  0  0  0  0  0  0
  -10.1358   -1.4220   16.0492 C   0  0  1  0  0  0  0  0  0  0  0  0
  -11.2357   -0.9448   17.0453 C   0  0  1  0  0  0  0  0  0  0  0  0
  -11.8140   -2.2268   17.8358 C   0  0  2  0  0  0  0  0  0  0  0  0
  -11.0575    0.5588   19.0813 C   0  0  2  0  0  0  0  0  0  0  0  0
  -10.0061    1.4005   19.8590 C   0  0  1  0  0  0  0  0  0  0  0  0
  -10.9654    2.3137   20.5834 C   0  0  1  0  0  0  0  0  0  0  0  0
  -11.9840    2.7673   19.4898 C   0  0  1  0  0  0  0  0  0  0  0  0
  -11.5452    3.9530   18.5607 C   0  0  0  0  0  0  0  0  0  0  0  0
  -12.8861    0.9999   21.4010 C   0  0  1  0  0  0  0  0  0  0  0  0
  -13.9609    1.3627   22.3817 C   0  0  1  0  0  0  0  0  0  0  0  0
   -7.9160    1.2706   14.5684 C   0  0  1  0  0  0  0  0  0  0  0  0
  -15.2877    0.6392   21.9568 C   0  0  0  0  0  0  0  0  0  0  0  0
  -15.2084   -0.7931   21.9292 C   0  0  0  0  0  0  0  0  0  0  0  0
  -14.2026   -1.1835   20.9643 C   0  0  2  0  0  0  0  0  0  0  0  0
  -14.0627   -2.7553   20.8956 C   0  0  0  0  0  0  0  0  0  0  0  0
  -15.4772   -5.8852   18.5056 C   0  0  2  0  0  0  0  0  0  0  0  0
  -14.0739   -5.1517   16.7604 C   0  0  0  0  0  0  0  0  0  0  0  0
  -16.7186   -6.1819   17.9754 C   0  0  0  0  0  0  0  0  0  0  0  0
  -14.5206   -6.3875   17.6859 C   0  0  1  0  0  0  0  0  0  0  0  0
   -8.7868    1.9127   13.3949 C   0  0  0  0  0  0  0  0  0  0  0  0
   -8.5490    1.0495   12.0643 C   0  0  0  0  0  0  0  0  0  0  0  0
   -8.9935   -0.4558   12.3686 C   0  0  1  0  0  0  0  0  0  0  0  0
   -8.7914   -1.3687   11.1533 C   0  0  0  0  0  0  0  0  0  0  0  0
  -12.4876   -3.1994   16.7723 C   0  0  1  0  0  0  0  0  0  0  0  0
  -11.2966   -3.6791   15.7836 C   0  0  0  0  0  0  0  0  0  0  0  0
  -10.6963   -2.4357   15.0210 C   0  0  2  0  0  0  0  0  0  0  0  0
  -15.3937   -6.3965   19.8551 F   0  0  0  0  0  0  0  0  0  0  0  0
  -14.2234   -3.4437   22.2814 N   0  0  0  0  0  0  0  0  0  0  0  0
   -8.0877    2.0079   15.8747 N   0  0  0  0  0  0  0  0  0  0  0  0
  -13.7098    0.9378   23.6894 N   0  0  0  0  0  0  0  0  0  0  0  0
  -17.3092   -7.4137   17.6078 N   0  0  0  0  0  0  0  0  0  0  0  0
   -9.4997   -2.5797   11.3050 N   0  0  0  0  0  0  0  0  0  0  0  0
  -13.0420   -4.3808   17.4573 N   0  0  0  0  0  0  0  0  0  0  0  0
   -9.5983   -2.8572   14.1232 N   0  0  0  0  0  0  0  0  0  0  0  0
   -9.6295   -0.3223   15.3038 O   0  0  0  0  0  0  0  0  0  0  0  0
  -10.5779    0.0254   17.9829 O   0  0  0  0  0  0  0  0  0  0  0  0
  -12.7821   -1.7798   18.7071 O   0  0  0  0  0  0  0  0  0  0  0  0
   -9.2916    0.5429   20.6963 O   0  0  0  0  0  0  0  0  0  0  0  0
  -12.1949    1.4743   18.8986 O   0  0  0  0  0  0  0  0  0  0  0  0
  -12.5176    4.0515   17.5011 O   0  0  0  0  0  0  0  0  0  0  0  0
  -11.6508    1.5364   21.6925 O   0  0  0  0  0  0  0  0  0  0  0  0
  -13.3746   -6.8983   18.4013 O   0  0  0  0  0  0  0  0  0  0  0  0
  -14.5311   -4.9142   15.6303 O   0  0  0  0  0  0  0  0  0  0  0  0
  -12.8756   -0.5454   21.3014 O   0  0  0  0  0  0  0  0  0  0  0  0
   -8.1820   -1.0071   13.5295 O   0  0  0  0  0  0  0  0  0  0  0  0
  1 36  1  6  0  0  0
  2 36  1  6  0  0  0
  2  3  1  0  0  0  0
  3 37  1  1  0  0  0
  3  4  1  0  0  0  0
  4 38  1  1  0  0  0
  5 37  1  6  0  0  0
  5  6  1  0  0  0  0
  6  7  1  0  0  0  0
  6 39  1  1  0  0  0
  7 42  1  1  0  0  0
  8  9  1  6  0  0  0
  8  7  1  0  0  0  0
 10 42  1  1  0  0  0
 10 11  1  0  0  0  0
 11 31  1  1  0  0  0
 11 13  1  0  0  0  0
 12 30  1  1  0  0  0
 12  1  1  0  0  0  0
 14 13  1  0  0  0  0
 15 16  1  1  0  0  0
 15 14  1  0  0  0  0
 17 19  1  6  0  0  0
 17 28  1  0  0  0  0
 18 34  1  0  0  0  0
 19 32  1  0  0  0  0
 20 18  1  6  0  0  0
 20 17  1  0  0  0  0
 20 43  1  0  0  0  0
 21 12  1  0  0  0  0
 22 21  1  0  0  0  0
 22 23  1  0  0  0  0
 23 24  1  6  0  0  0
 23 46  1  0  0  0  0
 24 33  1  0  0  0  0
 25 34  1  1  0  0  0
 25  4  1  0  0  0  0
 26 25  1  0  0  0  0
 27 35  1  6  0  0  0
 27 26  1  0  0  0  0
 27  2  1  0  0  0  0
 29 16  1  0  0  0  0
 40  8  1  0  0  0  0
 40  5  1  0  0  0  0
 41  9  1  0  0  0  0
 44 18  2  0  0  0  0
 45 15  1  0  0  0  0
 45 10  1  0  0  0  0
 46  1  1  0  0  0  0
M  END
>  <CHROM.1>
-156.64730676,149.40500218,-170.75217570,173.65680071,-95.79764285,170.45327137
-127.26432833,-36.83217724,55.87132189,85.58501592,96.93082705,-164.40352894
159.63397262,-11.96225101,-1.28178351,17.78312257,0.19036867,-0.88067327
-2.37861108

>  <Name>
lig.pdb

>  <RI>
0

>  <Rbt.Current_Directory>
/home/afrankz/demos/rdock_decoys_rna/rnas/3wru

>  <Rbt.Executable>
rbdock ($Id: //depot/dev/client3/rdock/2013.1/src/exe/rbdock.cxx#4 $)

>  <Rbt.Library>
libRbt.so (2013.1, Build901 2013/11/27)

>  <Rbt.Parameter_File>
/export/apps/rDock/src/rDock_2013.1_src/data/scripts/dock_solv.prm

>  <Rbt.Receptor>
prm/blind_docking_40.prm

>  <SCORE>
23.3248

>  <SCORE.INTER>
10.0197

>  <SCORE.INTER.CONST>
1

>  <SCORE.INTER.POLAR>
0

>  <SCORE.INTER.ROT>
13

>  <SCORE.INTER.SOLV>
41.2193

>  <SCORE.INTER.VDW>
-19.3266

>  <SCORE.INTER.norm>
0.21782

>  <SCORE.INTRA>
10.5366

>  <SCORE.INTRA.DIHEDRAL>
6.44476

>  <SCORE.INTRA.DIHEDRAL.0>
19.7146

>  <SCORE.INTRA.POLAR>
0

>  <SCORE.INTRA.POLAR.0>
0

>  <SCORE.INTRA.REPUL>
0

>  <SCORE.INTRA.REPUL.0>
0

>  <SCORE.INTRA.SOLV>
5.13947

>  <SCORE.INTRA.SOLV.lig_0>
-116.697

>  <SCORE.INTRA.VDW>
4.74448

>  <SCORE.INTRA.VDW.0>
-7.06424

>  <SCORE.INTRA.norm>
0.229056

>  <SCORE.RESTR>
2.76851

>  <SCORE.RESTR.CAVITY>
2.76851

>  <SCORE.RESTR.norm>
0.0601849

>  <SCORE.SYSTEM>
0

>  <SCORE.SYSTEM.CONST>
0

>  <SCORE.SYSTEM.DIHEDRAL>
0

>  <SCORE.SYSTEM.SOLV>
0

>  <SCORE.SYSTEM.norm>
0

>  <SCORE.heavy>
46

>  <SCORE.norm>
0.507062

>  <RMSD>
30.295

$$$$
lig.pdb
 OpenBabel03061811583D
libRbt.so/2013.1/901 2013/11/27
 46 49  0  0  0  0  0  0  0  0999 V2000
  -12.3647   -0.9558   18.4349 C   0  0  1  0  0  0  0  0  0  0  0  0
  -11.1072   -1.7224   16.3760 C   0  0  1  0  0  0  0  0  0  0  0  0
   -9.6162   -1.2925   16.2285 C   0  0  1  0  0  0  0  0  0  0  0  0
   -9.2437   -1.2346   14.6598 C   0  0  2  0  0  0  0  0  0  0  0  0
  -10.3247    1.0694   16.8263 C   0  0  2  0  0  0  0  0  0  0  0  0
   -9.6869    2.4066   17.2993 C   0  0  1  0  0  0  0  0  0  0  0  0
  -10.5941    3.3480   16.5444 C   0  0  1  0  0  0  0  0  0  0  0  0
  -10.6810    2.7470   15.1056 C   0  0  1  0  0  0  0  0  0  0  0  0
   -9.5035    3.0832   14.1247 C   0  0  0  0  0  0  0  0  0  0  0  0
  -12.0640    4.1365   18.3614 C   0  0  1  0  0  0  0  0  0  0  0  0
  -12.9931    3.5675   19.3918 C   0  0  1  0  0  0  0  0  0  0  0  0
  -11.8631   -0.6540   19.8668 C   0  0  1  0  0  0  0  0  0  0  0  0
  -13.0617    4.5625   20.6041 C   0  0  0  0  0  0  0  0  0  0  0  0
  -13.5455    5.8734   20.2785 C   0  0  0  0  0  0  0  0  0  0  0  0
  -12.6512    6.4705   19.3096 C   0  0  2  0  0  0  0  0  0  0  0  0
  -13.1390    7.9170   18.9038 C   0  0  0  0  0  0  0  0  0  0  0  0
   -9.5435   -0.7933    9.6554 C   0  0  2  0  0  0  0  0  0  0  0  0
   -9.8640   -1.8522   11.7360 C   0  0  0  0  0  0  0  0  0  0  0  0
   -8.9675   -0.7835    8.3992 C   0  0  0  0  0  0  0  0  0  0  0  0
   -9.3069   -1.9962   10.2353 C   0  0  1  0  0  0  0  0  0  0  0  0
  -11.8919   -1.9677   20.7730 C   0  0  0  0  0  0  0  0  0  0  0  0
  -13.3957   -2.5246   20.8007 C   0  0  0  0  0  0  0  0  0  0  0  0
  -13.8309   -2.8405   19.2951 C   0  0  1  0  0  0  0  0  0  0  0  0
  -15.2676   -3.3704   19.2142 C   0  0  0  0  0  0  0  0  0  0  0  0
   -9.4058   -2.6991   14.0600 C   0  0  1  0  0  0  0  0  0  0  0  0
  -10.9729   -3.0796   14.2191 C   0  0  0  0  0  0  0  0  0  0  0  0
  -11.3663   -3.1134   15.7461 C   0  0  2  0  0  0  0  0  0  0  0  0
  -10.9512   -0.4845    9.5436 F   0  0  0  0  0  0  0  0  0  0  0  0
  -14.5939    7.9386   18.3533 N   0  0  0  0  0  0  0  0  0  0  0  0
  -10.4779   -0.0621   19.7646 N   0  0  0  0  0  0  0  0  0  0  0  0
  -14.3131    3.4239   18.9553 N   0  0  0  0  0  0  0  0  0  0  0  0
   -9.2020   -1.5829    7.2558 N   0  0  0  0  0  0  0  0  0  0  0  0
  -16.1887   -2.4141   19.6919 N   0  0  0  0  0  0  0  0  0  0  0  0
   -9.0609   -2.6924   12.6270 N   0  0  0  0  0  0  0  0  0  0  0  0
  -12.7988   -3.4476   15.9064 N   0  0  0  0  0  0  0  0  0  0  0  0
  -11.4616   -1.8237   17.7492 O   0  0  0  0  0  0  0  0  0  0  0  0
   -9.4903    0.0581   16.8712 O   0  0  0  0  0  0  0  0  0  0  0  0
   -7.9244   -0.8538   14.5565 O   0  0  0  0  0  0  0  0  0  0  0  0
   -9.8112    2.4840   18.6870 O   0  0  0  0  0  0  0  0  0  0  0  0
  -10.8773    1.3783   15.4980 O   0  0  0  0  0  0  0  0  0  0  0  0
   -8.3286    2.4076   14.6158 O   0  0  0  0  0  0  0  0  0  0  0  0
  -11.9542    3.3754   17.2179 O   0  0  0  0  0  0  0  0  0  0  0  0
   -9.9801   -3.0869    9.5694 O   0  0  0  0  0  0  0  0  0  0  0  0
  -10.8151   -1.1265   12.0696 O   0  0  0  0  0  0  0  0  0  0  0  0
  -12.5328    5.5871   18.0899 O   0  0  0  0  0  0  0  0  0  0  0  0
  -13.7317   -1.5777   18.4551 O   0  0  0  0  0  0  0  0  0  0  0  0
  1 36  1  1  0  0  0
  2 36  1  1  0  0  0
  2  3  1  0  0  0  0
  3 37  1  6  0  0  0
  3  4  1  0  0  0  0
  4 38  1  1  0  0  0
  5 37  1  6  0  0  0
  5  6  1  0  0  0  0
  6  7  1  0  0  0  0
  6 39  1  1  0  0  0
  7 42  1  1  0  0  0
  8  9  1  6  0  0  0
  8  7  1  0  0  0  0
 10 42  1  6  0  0  0
 10 11  1  0  0  0  0
 11 31  1  6  0  0  0
 11 13  1  0  0  0  0
 12 30  1  6  0  0  0
 12  1  1  0  0  0  0
 14 13  1  0  0  0  0
 15 16  1  6  0  0  0
 15 14  1  0  0  0  0
 17 19  1  6  0  0  0
 17 28  1  0  0  0  0
 18 34  1  0  0  0  0
 19 32  1  0  0  0  0
 20 18  1  1  0  0  0
 20 17  1  0  0  0  0
 20 43  1  0  0  0  0
 21 12  1  0  0  0  0
 22 21  1  0  0  0  0
 22 23  1  0  0  0  0
 23 24  1  1  0  0  0
 23 46  1  0  0  0  0
 24 33  1  0  0  0  0
 25 34  1  6  0  0  0
 25  4  1  0  0  0  0
 26 25  1  0  0  0  0
 27 35  1  6  0  0  0
 27 26  1  0  0  0  0
 27  2  1  0  0  0  0
 29 16  1  0  0  0  0
 40  8  1  0  0  0  0
 40  5  1  0  0  0  0
 41  9  1  0  0  0  0
 44 18  2  0  0  0  0
 45 15  1  0  0  0  0
 45 10  1  0  0  0  0
 46  1  1  0  0  0  0
M  END
>  <CHROM.1>
-141.02682108,111.54755908,-39.95609960,-164.98027477,78.38070280,68.38683083
-145.18015329,-56.32176244,61.39938667,-148.70359735,173.84083260,61.79879637
-61.23967844,-11.30797444,0.48127434,16.07511617,2.49300843,1.16140317,0.12865121

>  <Name>
lig.pdb

>  <RI>
0

>  <Rbt.Current_Directory>
/home/afrankz/demos/rdock_decoys_rna/rnas/3wru

>  <Rbt.Executable>
rbdock ($Id: //depot/dev/client3/rdock/2013.1/src/exe/rbdock.cxx#4 $)

>  <Rbt.Library>
libRbt.so (2013.1, Build901 2013/11/27)

>  <Rbt.Parameter_File>
/export/apps/rDock/src/rDock_2013.1_src/data/scripts/dock_solv.prm

>  <Rbt.Receptor>
prm/blind_docking_40.prm

>  <SCORE>
18.5041

>  <SCORE.INTER>
6.01325

>  <SCORE.INTER.CONST>
1

>  <SCORE.INTER.POLAR>
0

>  <SCORE.INTER.ROT>
13

>  <SCORE.INTER.SOLV>
22.0613

>  <SCORE.INTER.VDW>
-15.6116

>  <SCORE.INTER.norm>
0.130723

>  <SCORE.INTRA>
6.23053

>  <SCORE.INTRA.DIHEDRAL>
3.50192

>  <SCORE.INTRA.DIHEDRAL.0>
19.7146

>  <SCORE.INTRA.POLAR>
0

>  <SCORE.INTRA.POLAR.0>
0

>  <SCORE.INTRA.REPUL>
0.0286525

>  <SCORE.INTRA.REPUL.0>
0

>  <SCORE.INTRA.SOLV>
6.19738

>  <SCORE.INTRA.SOLV.lig_0>
-116.697

>  <SCORE.INTRA.VDW>
1.23762

>  <SCORE.INTRA.VDW.0>
-7.06424

>  <SCORE.INTRA.norm>
0.135446

>  <SCORE.RESTR>
6.26027

>  <SCORE.RESTR.CAVITY>
6.26027

>  <SCORE.RESTR.norm>
0.136093

>  <SCORE.SYSTEM>
0

>  <SCORE.SYSTEM.CONST>
0

>  <SCORE.SYSTEM.DIHEDRAL>
0

>  <SCORE.SYSTEM.SOLV>
0

>  <SCORE.SYSTEM.norm>
0

>  <SCORE.heavy>
46

>  <SCORE.norm>
0.402262

>  <RMSD>
30.302

$$$$
lig.pdb
 OpenBabel03061811583D
libRbt.so/2013.1/901 2013/11/27
 46 49  0  0  0  0  0  0  0  0999 V2000
  -12.6234   -3.7049   17.1811 C   0  0  1  0  0  0  0  0  0  0  0  0
  -11.8824   -2.0124   15.4507 C   0  0  1  0  0  0  0  0  0  0  0  0
  -10.8087   -1.4564   16.4344 C   0  0  1  0  0  0  0  0  0  0  0  0
   -9.6774   -0.6799   15.5858 C   0  0  2  0  0  0  0  0  0  0  0  0
  -11.6844    0.7705   17.2781 C   0  0  2  0  0  0  0  0  0  0  0  0
  -12.5370    1.3642   18.4354 C   0  0  1  0  0  0  0  0  0  0  0  0
  -11.9923    2.7715   18.3940 C   0  0  1  0  0  0  0  0  0  0  0  0
  -10.4437    2.5951   18.2950 C   0  0  1  0  0  0  0  0  0  0  0  0
   -9.6736    2.3284   19.6357 C   0  0  0  0  0  0  0  0  0  0  0  0
  -13.4645    4.4880   17.4090 C   0  0  1  0  0  0  0  0  0  0  0  0
  -13.9609    5.1686   16.1684 C   0  0  1  0  0  0  0  0  0  0  0  0
  -13.8822   -4.5597   17.4602 C   0  0  1  0  0  0  0  0  0  0  0  0
  -14.9445    6.3171   16.5901 C   0  0  0  0  0  0  0  0  0  0  0  0
  -14.3628    7.3305   17.4227 C   0  0  0  0  0  0  0  0  0  0  0  0
  -13.9026    6.7153   18.6493 C   0  0  2  0  0  0  0  0  0  0  0  0
  -13.2416    7.7840   19.6063 C   0  0  0  0  0  0  0  0  0  0  0  0
   -6.2090    1.3799   13.3526 C   0  0  2  0  0  0  0  0  0  0  0  0
   -8.2528    0.2167   13.2030 C   0  0  0  0  0  0  0  0  0  0  0  0
   -5.0017    1.7436   12.7867 C   0  0  0  0  0  0  0  0  0  0  0  0
   -6.9630    0.7586   12.4120 C   0  0  1  0  0  0  0  0  0  0  0  0
  -15.0447   -3.6750   18.1034 C   0  0  0  0  0  0  0  0  0  0  0  0
  -14.4866   -3.0219   19.4578 C   0  0  0  0  0  0  0  0  0  0  0  0
  -13.2105   -2.1336   19.0859 C   0  0  1  0  0  0  0  0  0  0  0  0
  -12.5934   -1.4723   20.3242 C   0  0  0  0  0  0  0  0  0  0  0  0
   -8.9766   -1.7319   14.6197 C   0  0  1  0  0  0  0  0  0  0  0  0
  -10.1314   -2.2544   13.6101 C   0  0  0  0  0  0  0  0  0  0  0  0
  -11.2638   -2.9924   14.4231 C   0  0  2  0  0  0  0  0  0  0  0  0
   -6.8505    2.5476   13.9136 F   0  0  0  0  0  0  0  0  0  0  0  0
  -14.2796    8.7333   20.2708 N   0  0  0  0  0  0  0  0  0  0  0  0
  -14.3083   -5.2060   16.1641 N   0  0  0  0  0  0  0  0  0  0  0  0
  -12.9604    5.7942   15.4193 N   0  0  0  0  0  0  0  0  0  0  0  0
   -3.8137    2.2522   13.3624 N   0  0  0  0  0  0  0  0  0  0  0  0
  -11.4559   -0.7117   19.9795 N   0  0  0  0  0  0  0  0  0  0  0  0
   -7.9241   -1.0635   13.8336 N   0  0  0  0  0  0  0  0  0  0  0  0
  -12.3323   -3.4644   13.5148 N   0  0  0  0  0  0  0  0  0  0  0  0
  -12.8773   -2.7393   16.1602 O   0  0  0  0  0  0  0  0  0  0  0  0
  -11.5223   -0.5279   17.3732 O   0  0  0  0  0  0  0  0  0  0  0  0
   -8.7424   -0.1998   16.4754 O   0  0  0  0  0  0  0  0  0  0  0  0
  -13.8835    1.2625   18.0837 O   0  0  0  0  0  0  0  0  0  0  0  0
  -10.4475    1.5675   17.2901 O   0  0  0  0  0  0  0  0  0  0  0  0
   -9.4462    0.9078   19.7258 O   0  0  0  0  0  0  0  0  0  0  0  0
  -12.5490    3.4849   17.1753 O   0  0  0  0  0  0  0  0  0  0  0  0
   -7.3806    1.6421   11.3484 O   0  0  0  0  0  0  0  0  0  0  0  0
   -9.3413    0.8112   13.2704 O   0  0  0  0  0  0  0  0  0  0  0  0
  -12.9304    5.5999   18.3450 O   0  0  0  0  0  0  0  0  0  0  0  0
  -12.1542   -3.0024   18.4230 O   0  0  0  0  0  0  0  0  0  0  0  0
  1 36  1  6  0  0  0
  2 36  1  1  0  0  0
  2  3  1  0  0  0  0
  3 37  1  1  0  0  0
  3  4  1  0  0  0  0
  4 38  1  1  0  0  0
  5 37  1  1  0  0  0
  5  6  1  0  0  0  0
  6  7  1  0  0  0  0
  6 39  1  6  0  0  0
  7 42  1  6  0  0  0
  8  9  1  1  0  0  0
  8  7  1  0  0  0  0
 10 42  1  6  0  0  0
 10 11  1  0  0  0  0
 11 31  1  1  0  0  0
 11 13  1  0  0  0  0
 12 30  1  6  0  0  0
 12  1  1  0  0  0  0
 14 13  1  0  0  0  0
 15 16  1  1  0  0  0
 15 14  1  0  0  0  0
 17 19  1  6  0  0  0
 17 28  1  0  0  0  0
 18 34  1  0  0  0  0
 19 32  1  0  0  0  0
 20 18  1  1  0  0  0
 20 17  1  0  0  0  0
 20 43  1  0  0  0  0
 21 12  1  0  0  0  0
 22 21  1  0  0  0  0
 22 23  1  0  0  0  0
 23 24  1  1  0  0  0
 23 46  1  0  0  0  0
 24 33  1  0  0  0  0
 25 34  1  6  0  0  0
 25  4  1  0  0  0  0
 26 25  1  0  0  0  0
 27 35  1  6  0  0  0
 27 26  1  0  0  0  0
 27  2  1  0  0  0  0
 29 16  1  0  0  0  0
 40  8  1  0  0  0  0
 40  5  1  0  0  0  0
 41  9  1  0  0  0  0
 44 18  2  0  0  0  0
 45 15  1  0  0  0  0
 45 10  1  0  0  0  0
 46  1  1  0  0  0  0
M  END
>  <CHROM.1>
-164.71679046,-45.64832657,-93.22586070,177.76441441,109.87415264,98.71984684
179.08375434,73.04161185,-170.72080839,-83.23076569,173.15181331,178.99323397
-46.49867214,-11.19154118,0.88857608,16.55073699,1.01714204,-0.66731219,-3.05504973

>  <Name>
lig.pdb

>  <RI>
0

>  <Rbt.Current_Directory>
/home/afrankz/demos/rdock_decoys_rna/rnas/3wru

>  <Rbt.Executable>
rbdock ($Id: //depot/dev/client3/rdock/2013.1/src/exe/rbdock.cxx#4 $)

>  <Rbt.Library>
libRbt.so (2013.1, Build901 2013/11/27)

>  <Rbt.Parameter_File>
/export/apps/rDock/src/rDock_2013.1_src/data/scripts/dock_solv.prm

>  <Rbt.Receptor>
prm/blind_docking_100.prm

>  <SCORE>
17.4939

>  <SCORE.INTER>
9.04577

>  <SCORE.INTER.CONST>
1

>  <SCORE.INTER.POLAR>
0

>  <SCORE.INTER.ROT>
13

>  <SCORE.INTER.SOLV>
29.0968

>  <SCORE.INTER.VDW>
-15.9351

>  <SCORE.INTER.norm>
0.196647

>  <SCORE.INTRA>
4.5028

>  <SCORE.INTRA.DIHEDRAL>
-0.350952

>  <SCORE.INTRA.DIHEDRAL.0>
19.7146

>  <SCORE.INTRA.POLAR>
0

>  <SCORE.INTRA.POLAR.0>
0

>  <SCORE.INTRA.REPUL>
0

>  <SCORE.INTRA.REPUL.0>
0

>  <SCORE.INTRA.SOLV>
6.24064

>  <SCORE.INTRA.SOLV.lig_0>
-116.697

>  <SCORE.INTRA.VDW>
1.55796

>  <SCORE.INTRA.VDW.0>
-7.06424

>  <SCORE.INTRA.norm>
0.0978869

>  <SCORE.RESTR>
3.94533

>  <SCORE.RESTR.CAVITY>
3.94533

>  <SCORE.RESTR.norm>
0.085768

>  <SCORE.SYSTEM>
0

>  <SCORE.SYSTEM.CONST>
0

>  <SCORE.SYSTEM.DIHEDRAL>
0

>  <SCORE.SYSTEM.SOLV>
0

>  <SCORE.SYSTEM.norm>
0

>  <SCORE.heavy>
46

>  <SCORE.norm>
0.380302

>  <RMSD>
30.334

$$$$
lig.pdb
 OpenBabel03061811583D
libRbt.so/2013.1/901 2013/11/27
 46 49  0  0  0  0  0  0  0  0999 V2000
   -8.8725    2.2179   15.4822 C   0  0  1  0  0  0  0  0  0  0  0  0
  -10.2717    1.3760   17.4164 C   0  0  1  0  0  0  0  0  0  0  0  0
  -10.2187    0.2188   18.4594 C   0  0  1  0  0  0  0  0  0  0  0  0
  -11.5402    0.2884   19.3822 C   0  0  2  0  0  0  0  0  0  0  0  0
  -11.0826   -1.9892   17.5560 C   0  0  2  0  0  0  0  0  0  0  0  0
  -12.2993   -1.5284   16.7039 C   0  0  1  0  0  0  0  0  0  0  0  0
  -12.7595   -2.8908   16.2447 C   0  0  1  0  0  0  0  0  0  0  0  0
  -11.4540   -3.6196   15.7935 C   0  0  1  0  0  0  0  0  0  0  0  0
  -10.9281   -3.3023   14.3497 C   0  0  0  0  0  0  0  0  0  0  0  0
  -14.0483   -4.8034   17.1193 C   0  0  1  0  0  0  0  0  0  0  0  0
  -15.2993   -4.6629   16.3043 C   0  0  1  0  0  0  0  0  0  0  0  0
   -9.9575    2.0051   14.4003 C   0  0  1  0  0  0  0  0  0  0  0  0
  -15.9278   -6.0879   16.1072 C   0  0  0  0  0  0  0  0  0  0  0  0
  -16.2900   -6.7581   17.3231 C   0  0  0  0  0  0  0  0  0  0  0  0
  -15.0980   -6.9440   18.1229 C   0  0  2  0  0  0  0  0  0  0  0  0
  -15.4361   -7.6714   19.4836 C   0  0  0  0  0  0  0  0  0  0  0  0
  -14.4340    0.1322   23.5295 C   0  0  2  0  0  0  0  0  0  0  0  0
  -12.6525    1.1194   22.3443 C   0  0  0  0  0  0  0  0  0  0  0  0
  -15.5215    0.2720   24.3709 C   0  0  0  0  0  0  0  0  0  0  0  0
  -14.0436    1.3620   23.1119 C   0  0  1  0  0  0  0  0  0  0  0  0
   -9.8524    0.5456   13.7626 C   0  0  0  0  0  0  0  0  0  0  0  0
   -8.3844    0.3752   13.1398 C   0  0  0  0  0  0  0  0  0  0  0  0
   -7.3235    0.5784   14.3184 C   0  0  1  0  0  0  0  0  0  0  0  0
   -5.8800    0.4459   13.8179 C   0  0  0  0  0  0  0  0  0  0  0  0
  -11.5218    1.6725   20.1664 C   0  0  1  0  0  0  0  0  0  0  0  0
  -11.6026    2.8311   19.0363 C   0  0  0  0  0  0  0  0  0  0  0  0
  -10.3325    2.7628   18.1035 C   0  0  2  0  0  0  0  0  0  0  0  0
  -14.7769   -0.7544   22.4405 F   0  0  0  0  0  0  0  0  0  0  0  0
  -14.1888   -8.3068   20.1625 N   0  0  0  0  0  0  0  0  0  0  0  0
  -11.3060    2.2558   15.0312 N   0  0  0  0  0  0  0  0  0  0  0  0
  -16.2977   -3.8990   16.9153 N   0  0  0  0  0  0  0  0  0  0  0  0
  -15.6668    0.9403   25.6093 N   0  0  0  0  0  0  0  0  0  0  0  0
   -5.5863   -0.8879   13.4635 N   0  0  0  0  0  0  0  0  0  0  0  0
  -12.7094    1.7704   21.0338 N   0  0  0  0  0  0  0  0  0  0  0  0
  -10.3987    3.8078   17.0581 N   0  0  0  0  0  0  0  0  0  0  0  0
   -9.1013    1.3714   16.6092 O   0  0  0  0  0  0  0  0  0  0  0  0
  -10.1620   -1.0629   17.6803 O   0  0  0  0  0  0  0  0  0  0  0  0
  -11.4693   -0.7414   20.2935 O   0  0  0  0  0  0  0  0  0  0  0  0
  -13.2005   -0.8749   17.5453 O   0  0  0  0  0  0  0  0  0  0  0  0
  -10.6429   -3.2400   16.9177 O   0  0  0  0  0  0  0  0  0  0  0  0
  -12.0070   -3.5678   13.4312 O   0  0  0  0  0  0  0  0  0  0  0  0
  -13.4235   -3.6091   17.4056 O   0  0  0  0  0  0  0  0  0  0  0  0
  -14.9917    1.9819   22.2157 O   0  0  0  0  0  0  0  0  0  0  0  0
  -11.6885    0.4906   22.8114 O   0  0  0  0  0  0  0  0  0  0  0  0
  -14.4269   -5.6157   18.3820 O   0  0  0  0  0  0  0  0  0  0  0  0
   -7.4981    1.9562   14.9359 O   0  0  0  0  0  0  0  0  0  0  0  0
  1 36  1  1  0  0  0
  2 36  1  6  0  0  0
  2  3  1  0  0  0  0
  3 37  1  6  0  0  0
  3  4  1  0  0  0  0
  4 38  1  1  0  0  0
  5 37  1  6  0  0  0
  5  6  1  0  0  0  0
  6  7  1  0  0  0  0
  6 39  1  1  0  0  0
  7 42  1  1  0  0  0
  8  9  1  6  0  0  0
  8  7  1  0  0  0  0
 10 42  1  1  0  0  0
 10 11  1  0  0  0  0
 11 31  1  1  0  0  0
 11 13  1  0  0  0  0
 12 30  1  1  0  0  0
 12  1  1  0  0  0  0
 14 13  1  0  0  0  0
 15 16  1  1  0  0  0
 15 14  1  0  0  0  0
 17 19  1  1  0  0  0
 17 28  1  0  0  0  0
 18 34  1  0  0  0  0
 19 32  1  0  0  0  0
 20 18  1  6  0  0  0
 20 17  1  0  0  0  0
 20 43  1  0  0  0  0
 21 12  1  0  0  0  0
 22 21  1  0  0  0  0
 22 23  1  0  0  0  0
 23 24  1  6  0  0  0
 23 46  1  0  0  0  0
 24 33  1  0  0  0  0
 25 34  1  1  0  0  0
 25  4  1  0  0  0  0
 26 25  1  0  0  0  0
 27 35  1  6  0  0  0
 27 26  1  0  0  0  0
 27  2  1  0  0  0  0
 29 16  1  0  0  0  0
 40  8  1  0  0  0  0
 40  5  1  0  0  0  0
 41  9  1  0  0  0  0
 44 18  2  0  0  0  0
 45 15  1  0  0  0  0
 45 10  1  0  0  0  0
 46  1  1  0  0  0  0
M  END
>  <CHROM.1>
-59.49070473,174.27103566,-110.10945184,70.20278217,172.31510023,-54.84467493
-69.95461018,161.25575282,-61.16027759,129.67743836,171.19183341,-69.63245719
82.90053875,-12.02649486,-1.10228098,17.98153504,-0.10867903,0.83091816,0.74551845

>  <Name>
lig.pdb

>  <RI>
0

>  <Rbt.Current_Directory>
/home/afrankz/demos/rdock_decoys_rna/rnas/3wru

>  <Rbt.Executable>
rbdock ($Id: //depot/dev/client3/rdock/2013.1/src/exe/rbdock.cxx#4 $)

>  <Rbt.Library>
libRbt.so (2013.1, Build901 2013/11/27)

>  <Rbt.Parameter_File>
/export/apps/rDock/src/rDock_2013.1_src/data/scripts/dock_solv.prm

>  <Rbt.Receptor>
prm/blind_docking_40.prm

>  <SCORE>
13.9614

>  <SCORE.INTER>
6.33423

>  <SCORE.INTER.CONST>
1

>  <SCORE.INTER.POLAR>
0

>  <SCORE.INTER.ROT>
13

>  <SCORE.INTER.SOLV>
35.7028

>  <SCORE.INTER.VDW>
-19.9448

>  <SCORE.INTER.norm>
0.137701

>  <SCORE.INTRA>
1.55446

>  <SCORE.INTRA.DIHEDRAL>
-6.73643

>  <SCORE.INTRA.DIHEDRAL.0>
19.7146

>  <SCORE.INTRA.POLAR>
0

>  <SCORE.INTRA.POLAR.0>
0

>  <SCORE.INTRA.REPUL>
0

>  <SCORE.INTRA.REPUL.0>
0

>  <SCORE.INTRA.SOLV>
3.26342

>  <SCORE.INTRA.SOLV.lig_0>
-116.697

>  <SCORE.INTRA.VDW>
3.29096

>  <SCORE.INTRA.VDW.0>
-7.06424

>  <SCORE.INTRA.norm>
0.0337925

>  <SCORE.RESTR>
6.07276

>  <SCORE.RESTR.CAVITY>
6.07276

>  <SCORE.RESTR.norm>
0.132017

>  <SCORE.SYSTEM>
0

>  <SCORE.SYSTEM.CONST>
0

>  <SCORE.SYSTEM.DIHEDRAL>
0

>  <SCORE.SYSTEM.SOLV>
0

>  <SCORE.SYSTEM.norm>
0

>  <SCORE.heavy>
46

>  <SCORE.norm>
0.30351

>  <RMSD>
30.352

$$$$
lig.pdb
 OpenBabel03061811583D
libRbt.so/2013.1/901 2013/11/27
 46 49  0  0  0  0  0  0  0  0999 V2000
  -13.6385    4.4811   17.7230 C   0  0  1  0  0  0  0  0  0  0  0  0
  -11.5581    3.9879   19.0783 C   0  0  1  0  0  0  0  0  0  0  0  0
  -10.1730    3.4692   18.5861 C   0  0  1  0  0  0  0  0  0  0  0  0
   -9.4035    2.7822   19.8265 C   0  0  2  0  0  0  0  0  0  0  0  0
   -9.6078    1.9529   16.6318 C   0  0  2  0  0  0  0  0  0  0  0  0
  -10.2543    0.8501   15.7460 C   0  0  1  0  0  0  0  0  0  0  0  0
   -9.3230    0.9612   14.5631 C   0  0  1  0  0  0  0  0  0  0  0  0
   -9.1973    2.4954   14.2995 C   0  0  1  0  0  0  0  0  0  0  0  0
  -10.3454    3.1682   13.4683 C   0  0  0  0  0  0  0  0  0  0  0  0
   -7.6064   -0.7777   14.2264 C   0  0  1  0  0  0  0  0  0  0  0  0
   -7.0462   -0.4966   12.8641 C   0  0  1  0  0  0  0  0  0  0  0  0
  -13.9330    4.8387   16.2470 C   0  0  1  0  0  0  0  0  0  0  0  0
   -6.7185   -1.8651   12.1683 C   0  0  0  0  0  0  0  0  0  0  0  0
   -7.8467   -2.7332   11.9891 C   0  0  0  0  0  0  0  0  0  0  0  0
   -8.3945   -3.0563   13.2893 C   0  0  2  0  0  0  0  0  0  0  0  0
   -9.6498   -4.0056   13.1557 C   0  0  0  0  0  0  0  0  0  0  0  0
   -6.6037    2.3373   23.5992 C   0  0  2  0  0  0  0  0  0  0  0  0
   -7.9171    4.2282   23.0968 C   0  0  0  0  0  0  0  0  0  0  0  0
   -5.5860    1.8362   24.3887 C   0  0  0  0  0  0  0  0  0  0  0  0
   -7.1898    3.3742   24.2478 C   0  0  1  0  0  0  0  0  0  0  0  0
  -13.6947    6.3935   15.9755 C   0  0  0  0  0  0  0  0  0  0  0  0
  -14.6434    7.2263   16.9647 C   0  0  0  0  0  0  0  0  0  0  0  0
  -14.2610    6.8272   18.4649 C   0  0  1  0  0  0  0  0  0  0  0  0
  -15.1270    7.5664   19.4920 C   0  0  0  0  0  0  0  0  0  0  0  0
   -9.1574    3.8980   20.9334 C   0  0  1  0  0  0  0  0  0  0  0  0
  -10.6258    4.3793   21.4214 C   0  0  0  0  0  0  0  0  0  0  0  0
  -11.4079    5.0287   20.2154 C   0  0  2  0  0  0  0  0  0  0  0  0
   -7.5293    1.2758   23.2734 F   0  0  0  0  0  0  0  0  0  0  0  0
  -10.4790   -4.1098   14.4679 N   0  0  0  0  0  0  0  0  0  0  0  0
  -13.0662    3.9674   15.3703 N   0  0  0  0  0  0  0  0  0  0  0  0
   -7.9346    0.1534   12.0028 N   0  0  0  0  0  0  0  0  0  0  0  0
   -4.6765    0.7729   24.1799 N   0  0  0  0  0  0  0  0  0  0  0  0
  -14.7621    7.2163   20.8093 N   0  0  0  0  0  0  0  0  0  0  0  0
   -8.4426    3.3126   22.0818 N   0  0  0  0  0  0  0  0  0  0  0  0
  -12.7564    5.4619   20.6434 N   0  0  0  0  0  0  0  0  0  0  0  0
  -12.2504    4.6370   18.0196 O   0  0  0  0  0  0  0  0  0  0  0  0
  -10.4466    2.4765   17.4940 O   0  0  0  0  0  0  0  0  0  0  0  0
   -8.1854    2.3337   19.3670 O   0  0  0  0  0  0  0  0  0  0  0  0
  -10.1692   -0.3645   16.4276 O   0  0  0  0  0  0  0  0  0  0  0  0
   -9.0168    2.8950   15.6683 O   0  0  0  0  0  0  0  0  0  0  0  0
  -10.0689    2.9215   12.0752 O   0  0  0  0  0  0  0  0  0  0  0  0
   -7.9825    0.3484   14.9260 O   0  0  0  0  0  0  0  0  0  0  0  0
   -8.1631    2.9505   25.2274 O   0  0  0  0  0  0  0  0  0  0  0  0
   -8.0205    5.4659   23.0944 O   0  0  0  0  0  0  0  0  0  0  0  0
   -8.7591   -1.7937   14.0342 O   0  0  0  0  0  0  0  0  0  0  0  0
  -14.4452    5.3314   18.6622 O   0  0  0  0  0  0  0  0  0  0  0  0
  1 36  1  1  0  0  0
  2 36  1  6  0  0  0
  2  3  1  0  0  0  0
  3 37  1  6  0  0  0
  3  4  1  0  0  0  0
  4 38  1  6  0  0  0
  5 37  1  6  0  0  0
  5  6  1  0  0  0  0
  6  7  1  0  0  0  0
  6 39  1  1  0  0  0
  7 42  1  1  0  0  0
  8  9  1  1  0  0  0
  8  7  1  0  0  0  0
 10 42  1  6  0  0  0
 10 11  1  0  0  0  0
 11 31  1  6  0  0  0
 11 13  1  0  0  0  0
 12 30  1  6  0  0  0
 12  1  1  0  0  0  0
 14 13  1  0  0  0  0
 15 16  1  6  0  0  0
 15 14  1  0  0  0  0
 17 19  1  1  0  0  0
 17 28  1  0  0  0  0
 18 34  1  0  0  0  0
 19 32  1  0  0  0  0
 20 18  1  6  0  0  0
 20 17  1  0  0  0  0
 20 43  1  0  0  0  0
 21 12  1  0  0  0  0
 22 21  1  0  0  0  0
 22 23  1  0  0  0  0
 23 24  1  1  0  0  0
 23 46  1  0  0  0  0
 24 33  1  0  0  0  0
 25 34  1  1  0  0  0
 25  4  1  0  0  0  0
 26 25  1  0  0  0  0
 27 35  1  1  0  0  0
 27 26  1  0  0  0  0
 27  2  1  0  0  0  0
 29 16  1  0  0  0  0
 40  8  1  0  0  0  0
 40  5  1  0  0  0  0
 41  9  1  0  0  0  0
 44 18  2  0  0  0  0
 45 15  1  0  0  0  0
 45 10  1  0  0  0  0
 46  1  1  0  0  0  0
M  END
>  <CHROM.1>
-157.08273402,137.07819649,167.13648015,174.20279042,115.15184253,-81.60607234
79.59045304,-166.13797011,-179.83838070,35.94374401,158.62753920,-179.14262642
169.43999184,-9.94033516,2.47085070,17.86218076,1.74415895,-0.72164739,1.12420618

>  <Name>
lig.pdb

>  <RI>
0

>  <Rbt.Current_Directory>
/home/afrankz/demos/rdock_decoys_rna/rnas/3wru

>  <Rbt.Executable>
rbdock ($Id: //depot/dev/client3/rdock/2013.1/src/exe/rbdock.cxx#4 $)

>  <Rbt.Library>
libRbt.so (2013.1, Build901 2013/11/27)

>  <Rbt.Parameter_File>
/export/apps/rDock/src/rDock_2013.1_src/data/scripts/dock_solv.prm

>  <Rbt.Receptor>
prm/blind_docking_80.prm

>  <SCORE>
18.8403

>  <SCORE.INTER>
6.2035

>  <SCORE.INTER.CONST>
1

>  <SCORE.INTER.POLAR>
0

>  <SCORE.INTER.ROT>
13

>  <SCORE.INTER.SOLV>
29.8779

>  <SCORE.INTER.VDW>
-18.0903

>  <SCORE.INTER.norm>
0.134859

>  <SCORE.INTRA>
6.28926

>  <SCORE.INTRA.DIHEDRAL>
3.24487

>  <SCORE.INTRA.DIHEDRAL.0>
19.7146

>  <SCORE.INTRA.POLAR>
0

>  <SCORE.INTRA.POLAR.0>
0

>  <SCORE.INTRA.REPUL>
0

>  <SCORE.INTRA.REPUL.0>
0

>  <SCORE.INTRA.SOLV>
5.7151

>  <SCORE.INTRA.SOLV.lig_0>
-116.697

>  <SCORE.INTRA.VDW>
1.80928

>  <SCORE.INTRA.VDW.0>
-7.06424

>  <SCORE.INTRA.norm>
0.136723

>  <SCORE.RESTR>
6.34755

>  <SCORE.RESTR.CAVITY>
6.34755

>  <SCORE.RESTR.norm>
0.13799

>  <SCORE.SYSTEM>
0

>  <SCORE.SYSTEM.CONST>
0

>  <SCORE.SYSTEM.DIHEDRAL>
0

>  <SCORE.SYSTEM.SOLV>
0

>  <SCORE.SYSTEM.norm>
0

>  <SCORE.heavy>
46

>  <SCORE.norm>
0.409572

>  <RMSD>
30.355

$$$$
lig.pdb
 OpenBabel03061811583D
libRbt.so/2013.1/901 2013/11/27
 46 49  0  0  0  0  0  0  0  0999 V2000
   -9.6586    0.8945   16.2198 C   0  0  1  0  0  0  0  0  0  0  0  0
  -10.8609   -1.3263   16.3949 C   0  0  1  0  0  0  0  0  0  0  0  0
  -12.2439   -1.2193   17.1060 C   0  0  1  0  0  0  0  0  0  0  0  0
  -12.5796   -2.6330   17.8072 C   0  0  2  0  0  0  0  0  0  0  0  0
  -11.3933   -0.0838   19.2095 C   0  0  2  0  0  0  0  0  0  0  0  0
  -11.1967    1.3559   19.7638 C   0  0  1  0  0  0  0  0  0  0  0  0
  -10.9434    0.9905   21.2064 C   0  0  1  0  0  0  0  0  0  0  0  0
  -12.0467   -0.0602   21.5494 C   0  0  1  0  0  0  0  0  0  0  0  0
  -13.4625    0.4977   21.9315 C   0  0  0  0  0  0  0  0  0  0  0  0
   -8.5586    1.2362   21.7863 C   0  0  1  0  0  0  0  0  0  0  0  0
   -8.2248    1.0651   23.2382 C   0  0  1  0  0  0  0  0  0  0  0  0
  -10.1779    2.3107   15.8763 C   0  0  1  0  0  0  0  0  0  0  0  0
   -7.1268    2.1187   23.6242 C   0  0  0  0  0  0  0  0  0  0  0  0
   -7.5164    3.4872   23.4398 C   0  0  0  0  0  0  0  0  0  0  0  0
   -7.8132    3.7002   22.0392 C   0  0  2  0  0  0  0  0  0  0  0  0
   -8.2586    5.1924   21.7746 C   0  0  0  0  0  0  0  0  0  0  0  0
  -15.5230   -7.3282   17.6527 C   0  0  2  0  0  0  0  0  0  0  0  0
  -14.3792   -5.2691   17.7205 C   0  0  0  0  0  0  0  0  0  0  0  0
  -15.5934   -8.6633   18.0030 C   0  0  0  0  0  0  0  0  0  0  0  0
  -14.4958   -6.7533   18.3261 C   0  0  1  0  0  0  0  0  0  0  0  0
  -10.1506    2.5645   14.3006 C   0  0  0  0  0  0  0  0  0  0  0  0
   -8.6438    2.3692   13.7874 C   0  0  0  0  0  0  0  0  0  0  0  0
   -8.1900    0.8797   14.1497 C   0  0  1  0  0  0  0  0  0  0  0  0
   -6.7492    0.5970   13.7076 C   0  0  0  0  0  0  0  0  0  0  0  0
  -12.6856   -3.7366   16.6664 C   0  0  1  0  0  0  0  0  0  0  0  0
  -11.2189   -3.8192   15.9824 C   0  0  0  0  0  0  0  0  0  0  0  0
  -10.8575   -2.4365   15.3149 C   0  0  2  0  0  0  0  0  0  0  0  0
  -16.7961   -6.6937   17.9103 F   0  0  0  0  0  0  0  0  0  0  0  0
   -9.4846    5.6242   22.6295 N   0  0  0  0  0  0  0  0  0  0  0  0
  -11.5655    2.4553   16.4532 N   0  0  0  0  0  0  0  0  0  0  0  0
   -9.2941    1.3103   24.1042 N   0  0  0  0  0  0  0  0  0  0  0  0
  -14.6441   -9.7076   17.9059 N   0  0  0  0  0  0  0  0  0  0  0  0
   -6.5468    0.9776   12.3640 N   0  0  0  0  0  0  0  0  0  0  0  0
  -13.0054   -5.0447   17.2656 N   0  0  0  0  0  0  0  0  0  0  0  0
   -9.5144   -2.4931   14.6967 N   0  0  0  0  0  0  0  0  0  0  0  0
  -10.5487   -0.1090   15.7299 O   0  0  0  0  0  0  0  0  0  0  0  0
  -12.1241   -0.1198   18.1206 O   0  0  0  0  0  0  0  0  0  0  0  0
  -13.8035   -2.5129   18.4266 O   0  0  0  0  0  0  0  0  0  0  0  0
  -10.0993    1.9273   19.1183 O   0  0  0  0  0  0  0  0  0  0  0  0
  -11.9193   -0.8463   20.3528 O   0  0  0  0  0  0  0  0  0  0  0  0
  -13.3559    1.0762   23.2475 O   0  0  0  0  0  0  0  0  0  0  0  0
   -9.5522    0.3963   21.3323 O   0  0  0  0  0  0  0  0  0  0  0  0
  -14.7241   -6.6806   19.7505 O   0  0  0  0  0  0  0  0  0  0  0  0
  -15.3197   -4.4615   17.6445 O   0  0  0  0  0  0  0  0  0  0  0  0
   -8.8798    2.7363   21.5757 O   0  0  0  0  0  0  0  0  0  0  0  0
   -8.2880    0.6627   15.6509 O   0  0  0  0  0  0  0  0  0  0  0  0
  1 36  1  6  0  0  0
  2 36  1  6  0  0  0
  2  3  1  0  0  0  0
  3 37  1  1  0  0  0
  3  4  1  0  0  0  0
  4 38  1  6  0  0  0
  5 37  1  6  0  0  0
  5  6  1  0  0  0  0
  6  7  1  0  0  0  0
  6 39  1  6  0  0  0
  7 42  1  6  0  0  0
  8  9  1  6  0  0  0
  8  7  1  0  0  0  0
 10 42  1  1  0  0  0
 10 11  1  0  0  0  0
 11 31  1  1  0  0  0
 11 13  1  0  0  0  0
 12 30  1  6  0  0  0
 12  1  1  0  0  0  0
 14 13  1  0  0  0  0
 15 16  1  1  0  0  0
 15 14  1  0  0  0  0
 17 19  1  1  0  0  0
 17 28  1  0  0  0  0
 18 34  1  0  0  0  0
 19 32  1  0  0  0  0
 20 18  1  6  0  0  0
 20 17  1  0  0  0  0
 20 43  1  0  0  0  0
 21 12  1  0  0  0  0
 22 21  1  0  0  0  0
 22 23  1  0  0  0  0
 23 24  1  1  0  0  0
 23 46  1  0  0  0  0
 24 33  1  0  0  0  0
 25 34  1  1  0  0  0
 25  4  1  0  0  0  0
 26 25  1  0  0  0  0
 27 35  1  1  0  0  0
 27 26  1  0  0  0  0
 27  2  1  0  0  0  0
 29 16  1  0  0  0  0
 40  8  1  0  0  0  0
 40  5  1  0  0  0  0
 41  9  1  0  0  0  0
 44 18  2  0  0  0  0
 45 15  1  0  0  0  0
 45 10  1  0  0  0  0
 46  1  1  0  0  0  0
M  END
>  <CHROM.1>
-142.81304511,101.02881110,-66.84150916,162.39039611,99.61300158,-72.46826349
100.22892684,-56.79332153,-58.16691633,-126.00417494,173.12061596,-49.64935694
75.27295449,-11.14241264,-0.80273548,18.56078205,-0.53671908,-0.91415009
-1.90886915

>  <Name>
lig.pdb

>  <RI>
0

>  <Rbt.Current_Directory>
/home/afrankz/demos/rdock_decoys_rna/rnas/3wru

>  <Rbt.Executable>
rbdock ($Id: //depot/dev/client3/rdock/2013.1/src/exe/rbdock.cxx#4 $)

>  <Rbt.Library>
libRbt.so (2013.1, Build901 2013/11/27)

>  <Rbt.Parameter_File>
/export/apps/rDock/src/rDock_2013.1_src/data/scripts/dock_solv.prm

>  <Rbt.Receptor>
prm/blind_docking_100.prm

>  <SCORE>
5.94743

>  <SCORE.INTER>
-2.76731

>  <SCORE.INTER.CONST>
1

>  <SCORE.INTER.POLAR>
0

>  <SCORE.INTER.ROT>
13

>  <SCORE.INTER.SOLV>
37.1034

>  <SCORE.INTER.VDW>
-26.4793

>  <SCORE.INTER.norm>
-0.060159

>  <SCORE.INTRA>
6.77402

>  <SCORE.INTRA.DIHEDRAL>
6.98127

>  <SCORE.INTRA.DIHEDRAL.0>
19.7146

>  <SCORE.INTRA.POLAR>
0

>  <SCORE.INTRA.POLAR.0>
0

>  <SCORE.INTRA.REPUL>
0

>  <SCORE.INTRA.REPUL.0>
0

>  <SCORE.INTRA.SOLV>
4.25919

>  <SCORE.INTRA.SOLV.lig_0>
-116.697

>  <SCORE.INTRA.VDW>
1.15379

>  <SCORE.INTRA.VDW.0>
-7.06424

>  <SCORE.INTRA.norm>
0.147261

>  <SCORE.RESTR>
1.94071

>  <SCORE.RESTR.CAVITY>
1.94071

>  <SCORE.RESTR.norm>
0.0421895

>  <SCORE.SYSTEM>
0

>  <SCORE.SYSTEM.CONST>
0

>  <SCORE.SYSTEM.DIHEDRAL>
0

>  <SCORE.SYSTEM.SOLV>
0

>  <SCORE.SYSTEM.norm>
0

>  <SCORE.heavy>
46

>  <SCORE.norm>
0.129292

>  <RMSD>
30.356

$$$$
lig.pdb
 OpenBabel03061811583D
libRbt.so/2013.1/901 2013/11/27
 46 49  0  0  0  0  0  0  0  0999 V2000
   -7.7060   -0.8896   13.6749 C   0  0  1  0  0  0  0  0  0  0  0  0
   -9.5194   -1.1937   15.4147 C   0  0  1  0  0  0  0  0  0  0  0  0
  -10.4172   -0.2830   16.3060 C   0  0  1  0  0  0  0  0  0  0  0  0
  -11.5228   -1.2003   17.0403 C   0  0  2  0  0  0  0  0  0  0  0  0
   -9.7660    1.3812   18.1072 C   0  0  2  0  0  0  0  0  0  0  0  0
  -11.2264    1.9020   17.9849 C   0  0  1  0  0  0  0  0  0  0  0  0
  -11.3519    2.4956   19.3672 C   0  0  1  0  0  0  0  0  0  0  0  0
  -10.7656    1.4071   20.3214 C   0  0  1  0  0  0  0  0  0  0  0  0
  -11.7230    0.2332   20.7304 C   0  0  0  0  0  0  0  0  0  0  0  0
  -11.2550    4.9599   19.3303 C   0  0  1  0  0  0  0  0  0  0  0  0
  -12.0826    5.2857   20.5377 C   0  0  1  0  0  0  0  0  0  0  0  0
   -6.4197   -0.0359   13.5752 C   0  0  1  0  0  0  0  0  0  0  0  0
  -12.8704    6.6143   20.2576 C   0  0  0  0  0  0  0  0  0  0  0  0
  -13.7644    6.5577   19.1368 C   0  0  0  0  0  0  0  0  0  0  0  0
  -12.9945    6.2794   17.9431 C   0  0  2  0  0  0  0  0  0  0  0  0
  -13.9290    6.1957   16.6724 C   0  0  0  0  0  0  0  0  0  0  0  0
  -14.5013   -5.6324   17.1542 C   0  0  2  0  0  0  0  0  0  0  0  0
  -13.0275   -3.8101   17.3993 C   0  0  0  0  0  0  0  0  0  0  0  0
  -15.4392   -6.4780   17.7159 C   0  0  0  0  0  0  0  0  0  0  0  0
  -14.3161   -4.5739   17.9817 C   0  0  1  0  0  0  0  0  0  0  0  0
   -6.7537    1.4501   13.0974 C   0  0  0  0  0  0  0  0  0  0  0  0
   -7.4939    1.3654   11.6771 C   0  0  0  0  0  0  0  0  0  0  0  0
   -8.8229    0.4971   11.8661 C   0  0  1  0  0  0  0  0  0  0  0  0
   -9.5998    0.3471   10.5526 C   0  0  0  0  0  0  0  0  0  0  0  0
  -12.4365   -1.8636   15.9195 C   0  0  1  0  0  0  0  0  0  0  0  0
  -11.4572   -2.8124   15.0439 C   0  0  0  0  0  0  0  0  0  0  0  0
  -10.3492   -1.9382   14.3395 C   0  0  2  0  0  0  0  0  0  0  0  0
  -14.9303   -5.2479   15.8285 F   0  0  0  0  0  0  0  0  0  0  0  0
  -14.8329    7.4495   16.4956 N   0  0  0  0  0  0  0  0  0  0  0  0
   -5.7332   -0.0617   14.9196 N   0  0  0  0  0  0  0  0  0  0  0  0
  -13.0594    4.3318   20.8364 N   0  0  0  0  0  0  0  0  0  0  0  0
  -15.9733   -7.7103   17.2716 N   0  0  0  0  0  0  0  0  0  0  0  0
   -8.8730   -0.4208    9.6181 N   0  0  0  0  0  0  0  0  0  0  0  0
  -13.4713   -2.7019   16.5510 N   0  0  0  0  0  0  0  0  0  0  0  0
   -9.4392   -2.7935   13.5459 N   0  0  0  0  0  0  0  0  0  0  0  0
   -8.5561   -0.4133   14.7188 O   0  0  0  0  0  0  0  0  0  0  0  0
   -9.5084    0.3798   17.2998 O   0  0  0  0  0  0  0  0  0  0  0  0
  -12.3018   -0.3742   17.8193 O   0  0  0  0  0  0  0  0  0  0  0  0
  -11.2711    2.8412   16.9539 O   0  0  0  0  0  0  0  0  0  0  0  0
   -9.5979    1.0998   19.5417 O   0  0  0  0  0  0  0  0  0  0  0  0
  -12.9232    0.8244   21.2670 O   0  0  0  0  0  0  0  0  0  0  0  0
  -10.5478    3.7816   19.4313 O   0  0  0  0  0  0  0  0  0  0  0  0
  -15.4448   -3.6730   18.0080 O   0  0  0  0  0  0  0  0  0  0  0  0
  -11.8508   -4.1161   17.6527 O   0  0  0  0  0  0  0  0  0  0  0  0
  -12.2088    5.0003   18.1111 O   0  0  0  0  0  0  0  0  0  0  0  0
   -8.4639   -0.8881   12.3782 O   0  0  0  0  0  0  0  0  0  0  0  0
  1 36  1  1  0  0  0
  2 36  1  6  0  0  0
  2  3  1  0  0  0  0
  3 37  1  1  0  0  0
  3  4  1  0  0  0  0
  4 38  1  1  0  0  0
  5 37  1  6  0  0  0
  5  6  1  0  0  0  0
  6  7  1  0  0  0  0
  6 39  1  6  0  0  0
  7 42  1  6  0  0  0
  8  9  1  6  0  0  0
  8  7  1  0  0  0  0
 10 42  1  1  0  0  0
 10 11  1  0  0  0  0
 11 31  1  6  0  0  0
 11 13  1  0  0  0  0
 12 30  1  1  0  0  0
 12  1  1  0  0  0  0
 14 13  1  0  0  0  0
 15 16  1  6  0  0  0
 15 14  1  0  0  0  0
 17 19  1  1  0  0  0
 17 28  1  0  0  0  0
 18 34  1  0  0  0  0
 19 32  1  0  0  0  0
 20 18  1  6  0  0  0
 20 17  1  0  0  0  0
 20 43  1  0  0  0  0
 21 12  1  0  0  0  0
 22 21  1  0  0  0  0
 22 23  1  0  0  0  0
 23 24  1  6  0  0  0
 23 46  1  0  0  0  0
 24 33  1  0  0  0  0
 25 34  1  1  0  0  0
 25  4  1  0  0  0  0
 26 25  1  0  0  0  0
 27 35  1  1  0  0  0
 27 26  1  0  0  0  0
 27  2  1  0  0  0  0
 29 16  1  0  0  0  0
 40  8  1  0  0  0  0
 40  5  1  0  0  0  0
 41  9  1  0  0  0  0
 44 18  2  0  0  0  0
 45 15  1  0  0  0  0
 45 10  1  0  0  0  0
 46  1  1  0  0  0  0
M  END
>  <CHROM.1>
-155.06107018,-170.34661832,168.04494166,0.63137413,101.23789317,-53.56899706
71.49789084,53.46343443,-179.33633632,96.98806621,169.36225647,66.51253541
-59.35877545,-11.34260367,0.26678175,16.69823344,-1.51909464,0.80922045,0.36964522

>  <Name>
lig.pdb

>  <RI>
0

>  <Rbt.Current_Directory>
/home/afrankz/demos/rdock_decoys_rna/rnas/3wru

>  <Rbt.Executable>
rbdock ($Id: //depot/dev/client3/rdock/2013.1/src/exe/rbdock.cxx#4 $)

>  <Rbt.Library>
libRbt.so (2013.1, Build901 2013/11/27)

>  <Rbt.Parameter_File>
/export/apps/rDock/src/rDock_2013.1_src/data/scripts/dock_solv.prm

>  <Rbt.Receptor>
prm/blind_docking_100.prm

>  <SCORE>
15.949

>  <SCORE.INTER>
4.36773

>  <SCORE.INTER.CONST>
1

>  <SCORE.INTER.POLAR>
0

>  <SCORE.INTER.ROT>
13

>  <SCORE.INTER.SOLV>
28.6558

>  <SCORE.INTER.VDW>
-18.9068

>  <SCORE.INTER.norm>
0.0949507

>  <SCORE.INTRA>
9.08096

>  <SCORE.INTRA.DIHEDRAL>
0.333389

>  <SCORE.INTRA.DIHEDRAL.0>
19.7146

>  <SCORE.INTRA.POLAR>
0

>  <SCORE.INTRA.POLAR.0>
0

>  <SCORE.INTRA.REPUL>
0

>  <SCORE.INTRA.REPUL.0>
0

>  <SCORE.INTRA.SOLV>
4.0886

>  <SCORE.INTRA.SOLV.lig_0>
-116.697

>  <SCORE.INTRA.VDW>
6.86997

>  <SCORE.INTRA.VDW.0>
-7.06424

>  <SCORE.INTRA.norm>
0.197412

>  <SCORE.RESTR>
2.50031

>  <SCORE.RESTR.CAVITY>
2.50031

>  <SCORE.RESTR.norm>
0.0543546

>  <SCORE.SYSTEM>
0

>  <SCORE.SYSTEM.CONST>
0

>  <SCORE.SYSTEM.DIHEDRAL>
0

>  <SCORE.SYSTEM.SOLV>
0

>  <SCORE.SYSTEM.norm>
0

>  <SCORE.heavy>
46

>  <SCORE.norm>
0.346718

>  <RMSD>
30.372

$$$$
lig.pdb
 OpenBabel03061811583D
libRbt.so/2013.1/901 2013/11/27
 46 49  0  0  0  0  0  0  0  0999 V2000
  -12.8660    5.4523   15.2852 C   0  0  1  0  0  0  0  0  0  0  0  0
  -12.8461    4.0146   17.3686 C   0  0  1  0  0  0  0  0  0  0  0  0
  -11.4194    3.4450   17.1044 C   0  0  1  0  0  0  0  0  0  0  0  0
  -10.7754    2.9814   18.5092 C   0  0  2  0  0  0  0  0  0  0  0  0
  -10.8257    1.9293   15.1581 C   0  0  2  0  0  0  0  0  0  0  0  0
   -9.3143    2.1973   15.4083 C   0  0  1  0  0  0  0  0  0  0  0  0
   -8.7598    1.1587   14.4634 C   0  0  1  0  0  0  0  0  0  0  0  0
   -9.5981   -0.1273   14.7509 C   0  0  1  0  0  0  0  0  0  0  0  0
   -9.1592   -0.9995   15.9791 C   0  0  0  0  0  0  0  0  0  0  0  0
   -9.2438    0.6732   12.0941 C   0  0  1  0  0  0  0  0  0  0  0  0
   -8.0407    0.0248   11.4769 C   0  0  1  0  0  0  0  0  0  0  0  0
  -13.9315    6.4863   14.8503 C   0  0  1  0  0  0  0  0  0  0  0  0
   -8.5286   -0.9998   10.3922 C   0  0  0  0  0  0  0  0  0  0  0  0
   -9.2923   -0.4242    9.3227 C   0  0  0  0  0  0  0  0  0  0  0  0
  -10.4837    0.1823    9.8776 C   0  0  2  0  0  0  0  0  0  0  0  0
  -11.3637    0.8433    8.7446 C   0  0  0  0  0  0  0  0  0  0  0  0
   -8.7561    1.9112   22.4908 C   0  0  2  0  0  0  0  0  0  0  0  0
   -8.6341    3.4802   20.7369 C   0  0  0  0  0  0  0  0  0  0  0  0
   -8.2904    1.4480   23.7068 C   0  0  0  0  0  0  0  0  0  0  0  0
   -8.1988    3.1224   22.2421 C   0  0  1  0  0  0  0  0  0  0  0  0
  -15.0457    5.8085   13.9300 C   0  0  0  0  0  0  0  0  0  0  0  0
  -14.3185    5.1668   12.6527 C   0  0  0  0  0  0  0  0  0  0  0  0
  -13.2584    4.0919   13.1787 C   0  0  1  0  0  0  0  0  0  0  0  0
  -12.4974    3.4271   12.0253 C   0  0  0  0  0  0  0  0  0  0  0  0
  -10.6393    4.2663   19.4373 C   0  0  1  0  0  0  0  0  0  0  0  0
  -12.1485    4.7970   19.6953 C   0  0  0  0  0  0  0  0  0  0  0  0
  -12.8083    5.2289   18.3292 C   0  0  2  0  0  0  0  0  0  0  0  0
  -10.2012    1.9443   22.5081 F   0  0  0  0  0  0  0  0  0  0  0  0
  -11.5939   -0.0946    7.5250 N   0  0  0  0  0  0  0  0  0  0  0  0
  -14.5198    7.1066   16.0947 N   0  0  0  0  0  0  0  0  0  0  0  0
   -7.1985    0.9099   10.7980 N   0  0  0  0  0  0  0  0  0  0  0  0
   -7.0129    0.9908   24.1071 N   0  0  0  0  0  0  0  0  0  0  0  0
  -13.3867    2.9481   11.0401 N   0  0  0  0  0  0  0  0  0  0  0  0
  -10.0408    3.8873   20.7298 N   0  0  0  0  0  0  0  0  0  0  0  0
  -14.1923    5.7043   18.5479 N   0  0  0  0  0  0  0  0  0  0  0  0
  -13.4310    4.4716   16.1559 O   0  0  0  0  0  0  0  0  0  0  0  0
  -11.5843    2.2836   16.1681 O   0  0  0  0  0  0  0  0  0  0  0  0
   -9.5181    2.4837   18.2495 O   0  0  0  0  0  0  0  0  0  0  0  0
   -9.0360    3.5134   15.0372 O   0  0  0  0  0  0  0  0  0  0  0  0
  -10.8873    0.5071   14.7858 O   0  0  0  0  0  0  0  0  0  0  0  0
  -10.1209   -2.0647   16.1156 O   0  0  0  0  0  0  0  0  0  0  0  0
   -8.9469    1.6356   13.0345 O   0  0  0  0  0  0  0  0  0  0  0  0
   -8.6633    4.1534   23.1407 O   0  0  0  0  0  0  0  0  0  0  0  0
   -7.8788    3.4289   19.7522 O   0  0  0  0  0  0  0  0  0  0  0  0
  -10.1132    1.2032   10.9274 O   0  0  0  0  0  0  0  0  0  0  0  0
  -12.2533    4.7673   14.0973 O   0  0  0  0  0  0  0  0  0  0  0  0
  1 36  1  1  0  0  0
  2 36  1  6  0  0  0
  2  3  1  0  0  0  0
  3 37  1  6  0  0  0
  3  4  1  0  0  0  0
  4 38  1  6  0  0  0
  5 37  1  1  0  0  0
  5  6  1  0  0  0  0
  6  7  1  0  0  0  0
  6 39  1  6  0  0  0
  7 42  1  6  0  0  0
  8  9  1  1  0  0  0
  8  7  1  0  0  0  0
 10 42  1  1  0  0  0
 10 11  1  0  0  0  0
 11 31  1  6  0  0  0
 11 13  1  0  0  0  0
 12 30  1  1  0  0  0
 12  1  1  0  0  0  0
 14 13  1  0  0  0  0
 15 16  1  6  0  0  0
 15 14  1  0  0  0  0
 17 19  1  1  0  0  0
 17 28  1  0  0  0  0
 18 34  1  0  0  0  0
 19 32  1  0  0  0  0
 20 18  1  6  0  0  0
 20 17  1  0  0  0  0
 20 43  1  0  0  0  0
 21 12  1  0  0  0  0
 22 21  1  0  0  0  0
 22 23  1  0  0  0  0
 23 24  1  6  0  0  0
 23 46  1  0  0  0  0
 24 33  1  0  0  0  0
 25 34  1  1  0  0  0
 25  4  1  0  0  0  0
 26 25  1  0  0  0  0
 27 35  1  1  0  0  0
 27 26  1  0  0  0  0
 27  2  1  0  0  0  0
 29 16  1  0  0  0  0
 40  8  1  0  0  0  0
 40  5  1  0  0  0  0
 41  9  1  0  0  0  0
 44 18  2  0  0  0  0
 45 15  1  0  0  0  0
 45 10  1  0  0  0  0
 46  1  1  0  0  0  0
M  END
>  <CHROM.1>
-134.17731692,-56.99221454,140.72148698,35.34592145,-143.81876061,175.73901899
-87.78163762,48.20023172,-69.91841674,75.38745941,172.43046955,-50.25679869
69.09047931,-10.67437361,2.57607260,15.86802906,1.71839337,0.76583732,-1.84544651

>  <Name>
lig.pdb

>  <RI>
0

>  <Rbt.Current_Directory>
/home/afrankz/demos/rdock_decoys_rna/rnas/3wru

>  <Rbt.Executable>
rbdock ($Id: //depot/dev/client3/rdock/2013.1/src/exe/rbdock.cxx#4 $)

>  <Rbt.Library>
libRbt.so (2013.1, Build901 2013/11/27)

>  <Rbt.Parameter_File>
/export/apps/rDock/src/rDock_2013.1_src/data/scripts/dock_solv.prm

>  <Rbt.Receptor>
prm/blind_docking_60.prm

>  <SCORE>
17.1184

>  <SCORE.INTER>
4.83268

>  <SCORE.INTER.CONST>
1

>  <SCORE.INTER.POLAR>
0

>  <SCORE.INTER.ROT>
13

>  <SCORE.INTER.SOLV>
29.312

>  <SCORE.INTER.VDW>
-18.8155

>  <SCORE.INTER.norm>
0.105058

>  <SCORE.INTRA>
7.00878

>  <SCORE.INTRA.DIHEDRAL>
5.00466

>  <SCORE.INTRA.DIHEDRAL.0>
19.7146

>  <SCORE.INTRA.POLAR>
0

>  <SCORE.INTRA.POLAR.0>
0

>  <SCORE.INTRA.REPUL>
0

>  <SCORE.INTRA.REPUL.0>
0

>  <SCORE.INTRA.SOLV>
3.39595

>  <SCORE.INTRA.SOLV.lig_0>
-116.697

>  <SCORE.INTRA.VDW>
2.80847

>  <SCORE.INTRA.VDW.0>
-7.06424

>  <SCORE.INTRA.norm>
0.152365

>  <SCORE.RESTR>
5.277

>  <SCORE.RESTR.CAVITY>
5.277

>  <SCORE.RESTR.norm>
0.114717

>  <SCORE.SYSTEM>
0

>  <SCORE.SYSTEM.CONST>
0

>  <SCORE.SYSTEM.DIHEDRAL>
0

>  <SCORE.SYSTEM.SOLV>
0

>  <SCORE.SYSTEM.norm>
0

>  <SCORE.heavy>
46

>  <SCORE.norm>
0.37214

>  <RMSD>
30.426

$$$$
lig.pdb
 OpenBabel03061811583D
libRbt.so/2013.1/901 2013/11/27
 46 49  0  0  0  0  0  0  0  0999 V2000
  -12.2551    5.2738   17.1076 C   0  0  1  0  0  0  0  0  0  0  0  0
  -12.0687    3.2294   18.5888 C   0  0  1  0  0  0  0  0  0  0  0  0
  -10.5553    3.6028   18.5921 C   0  0  1  0  0  0  0  0  0  0  0  0
   -9.7674    2.5749   19.5541 C   0  0  2  0  0  0  0  0  0  0  0  0
   -9.9444    2.4227   16.4305 C   0  0  2  0  0  0  0  0  0  0  0  0
  -10.3836    2.6418   14.9548 C   0  0  1  0  0  0  0  0  0  0  0  0
   -9.5385    1.5618   14.3238 C   0  0  1  0  0  0  0  0  0  0  0  0
   -8.1281    1.7316   14.9725 C   0  0  1  0  0  0  0  0  0  0  0  0
   -7.1934    2.8321   14.3584 C   0  0  0  0  0  0  0  0  0  0  0  0
   -9.3704   -0.8988   14.3554 C   0  0  1  0  0  0  0  0  0  0  0  0
   -8.3508   -0.6702   13.2797 C   0  0  1  0  0  0  0  0  0  0  0  0
  -12.6663    6.5887   17.8113 C   0  0  1  0  0  0  0  0  0  0  0  0
   -7.5953   -2.0206   13.0147 C   0  0  0  0  0  0  0  0  0  0  0  0
   -8.4322   -3.1016   12.5792 C   0  0  0  0  0  0  0  0  0  0  0  0
   -9.4100   -3.3757   13.6106 C   0  0  2  0  0  0  0  0  0  0  0  0
  -10.3698   -4.5551   13.1829 C   0  0  0  0  0  0  0  0  0  0  0  0
   -8.4443    1.5068   25.0531 C   0  0  2  0  0  0  0  0  0  0  0  0
   -8.6718    2.4191   22.8924 C   0  0  0  0  0  0  0  0  0  0  0  0
   -8.2099    0.3923   25.8360 C   0  0  0  0  0  0  0  0  0  0  0  0
   -8.0354    1.2451   23.7867 C   0  0  1  0  0  0  0  0  0  0  0  0
  -14.2377    6.8390   17.6853 C   0  0  0  0  0  0  0  0  0  0  0  0
  -14.6148    6.8836   16.1270 C   0  0  0  0  0  0  0  0  0  0  0  0
  -14.1893    5.4859   15.4779 C   0  0  1  0  0  0  0  0  0  0  0  0
  -14.4998    5.4341   13.9771 C   0  0  0  0  0  0  0  0  0  0  0  0
  -10.3313    2.7510   21.0312 C   0  0  1  0  0  0  0  0  0  0  0  0
  -11.8943    2.3277   20.9697 C   0  0  0  0  0  0  0  0  0  0  0  0
  -12.6790    3.3033   20.0104 C   0  0  2  0  0  0  0  0  0  0  0  0
   -7.7857    2.6538   25.6364 F   0  0  0  0  0  0  0  0  0  0  0  0
  -10.8960   -4.4161   11.7255 N   0  0  0  0  0  0  0  0  0  0  0  0
  -12.2146    6.5130   19.2499 N   0  0  0  0  0  0  0  0  0  0  0  0
   -8.8935   -0.3011   12.0457 N   0  0  0  0  0  0  0  0  0  0  0  0
   -8.4486    0.1455   27.2084 N   0  0  0  0  0  0  0  0  0  0  0  0
  -15.8560    5.7344   13.7289 N   0  0  0  0  0  0  0  0  0  0  0  0
   -9.6263    1.8362   21.9470 N   0  0  0  0  0  0  0  0  0  0  0  0
  -14.1063    2.9208   19.9345 N   0  0  0  0  0  0  0  0  0  0  0  0
  -12.8033    4.1403   17.7814 O   0  0  0  0  0  0  0  0  0  0  0  0
  -10.0809    3.4964   17.1720 O   0  0  0  0  0  0  0  0  0  0  0  0
   -8.4359    2.9254   19.5404 O   0  0  0  0  0  0  0  0  0  0  0  0
  -11.7578    2.4149   14.8690 O   0  0  0  0  0  0  0  0  0  0  0  0
   -8.5761    1.8910   16.3289 O   0  0  0  0  0  0  0  0  0  0  0  0
   -7.0145    2.5149   12.9636 O   0  0  0  0  0  0  0  0  0  0  0  0
  -10.1396    0.2062   14.6486 O   0  0  0  0  0  0  0  0  0  0  0  0
   -6.5980    1.2504   23.6445 O   0  0  0  0  0  0  0  0  0  0  0  0
   -8.3970    3.6246   23.0101 O   0  0  0  0  0  0  0  0  0  0  0  0
  -10.2049   -2.1303   13.9252 O   0  0  0  0  0  0  0  0  0  0  0  0
  -12.6989    5.2606   15.6727 O   0  0  0  0  0  0  0  0  0  0  0  0
  1 36  1  1  0  0  0
  2 36  1  6  0  0  0
  2  3  1  0  0  0  0
  3 37  1  6  0  0  0
  3  4  1  0  0  0  0
  4 38  1  1  0  0  0
  5 37  1  1  0  0  0
  5  6  1  0  0  0  0
  6  7  1  0  0  0  0
  6 39  1  1  0  0  0
  7 42  1  1  0  0  0
  8  9  1  6  0  0  0
  8  7  1  0  0  0  0
 10 42  1  6  0  0  0
 10 11  1  0  0  0  0
 11 31  1  6  0  0  0
 11 13  1  0  0  0  0
 12 30  1  1  0  0  0
 12  1  1  0  0  0  0
 14 13  1  0  0  0  0
 15 16  1  6  0  0  0
 15 14  1  0  0  0  0
 17 19  1  1  0  0  0
 17 28  1  0  0  0  0
 18 34  1  0  0  0  0
 19 32  1  0  0  0  0
 20 18  1  6  0  0  0
 20 17  1  0  0  0  0
 20 43  1  0  0  0  0
 21 12  1  0  0  0  0
 22 21  1  0  0  0  0
 22 23  1  0  0  0  0
 23 24  1  6  0  0  0
 23 46  1  0  0  0  0
 24 33  1  0  0  0  0
 25 34  1  1  0  0  0
 25  4  1  0  0  0  0
 26 25  1  0  0  0  0
 27 35  1  6  0  0  0
 27 26  1  0  0  0  0
 27  2  1  0  0  0  0
 29 16  1  0  0  0  0
 40  8  1  0  0  0  0
 40  5  1  0  0  0  0
 41  9  1  0  0  0  0
 44 18  2  0  0  0  0
 45 15  1  0  0  0  0
 45 10  1  0  0  0  0
 46  1  1  0  0  0  0
M  END
>  <CHROM.1>
-106.52235557,-2.40590261,-68.29943884,140.44983401,-168.80809781,-58.21913306
-24.20610785,-45.95488892,179.90324942,-115.87777761,166.20055314,-54.34971014
107.81682328,-10.31938481,2.11667596,17.65436317,1.72504224,0.90002997,-1.92039590

>  <Name>
lig.pdb

>  <RI>
0

>  <Rbt.Current_Directory>
/home/afrankz/demos/rdock_decoys_rna/rnas/3wru

>  <Rbt.Executable>
rbdock ($Id: //depot/dev/client3/rdock/2013.1/src/exe/rbdock.cxx#4 $)

>  <Rbt.Library>
libRbt.so (2013.1, Build901 2013/11/27)

>  <Rbt.Parameter_File>
/export/apps/rDock/src/rDock_2013.1_src/data/scripts/dock_solv.prm

>  <Rbt.Receptor>
prm/blind_docking_80.prm

>  <SCORE>
20.8859

>  <SCORE.INTER>
5.60539

>  <SCORE.INTER.CONST>
1

>  <SCORE.INTER.POLAR>
0

>  <SCORE.INTER.ROT>
13

>  <SCORE.INTER.SOLV>
35.6869

>  <SCORE.INTER.VDW>
-20.4254

>  <SCORE.INTER.norm>
0.121856

>  <SCORE.INTRA>
10.2493

>  <SCORE.INTRA.DIHEDRAL>
9.7673

>  <SCORE.INTRA.DIHEDRAL.0>
19.7146

>  <SCORE.INTRA.POLAR>
0

>  <SCORE.INTRA.POLAR.0>
0

>  <SCORE.INTRA.REPUL>
0

>  <SCORE.INTRA.REPUL.0>
0

>  <SCORE.INTRA.SOLV>
2.25216

>  <SCORE.INTRA.SOLV.lig_0>
-116.697

>  <SCORE.INTRA.VDW>
4.23959

>  <SCORE.INTRA.VDW.0>
-7.06424

>  <SCORE.INTRA.norm>
0.222811

>  <SCORE.RESTR>
5.03115

>  <SCORE.RESTR.CAVITY>
5.03115

>  <SCORE.RESTR.norm>
0.109373

>  <SCORE.SYSTEM>
0

>  <SCORE.SYSTEM.CONST>
0

>  <SCORE.SYSTEM.DIHEDRAL>
0

>  <SCORE.SYSTEM.SOLV>
0

>  <SCORE.SYSTEM.norm>
0

>  <SCORE.heavy>
46

>  <SCORE.norm>
0.45404

>  <RMSD>
30.446

$$$$
lig.pdb
 OpenBabel03061811583D
libRbt.so/2013.1/901 2013/11/27
 46 49  0  0  0  0  0  0  0  0999 V2000
  -12.9388    4.1675   17.0614 C   0  0  1  0  0  0  0  0  0  0  0  0
  -10.7816    3.2216   16.1342 C   0  0  1  0  0  0  0  0  0  0  0  0
  -10.4822    2.1779   17.2526 C   0  0  1  0  0  0  0  0  0  0  0  0
   -9.6181    0.9709   16.6206 C   0  0  2  0  0  0  0  0  0  0  0  0
   -9.3599    2.4684   19.5095 C   0  0  2  0  0  0  0  0  0  0  0  0
  -10.0784    3.2164   20.6684 C   0  0  1  0  0  0  0  0  0  0  0  0
   -9.9761    2.1304   21.7119 C   0  0  1  0  0  0  0  0  0  0  0  0
  -10.3955    0.8234   20.9669 C   0  0  1  0  0  0  0  0  0  0  0  0
  -11.9341    0.5516   20.8241 C   0  0  0  0  0  0  0  0  0  0  0  0
   -8.3238    2.4041   23.5226 C   0  0  1  0  0  0  0  0  0  0  0  0
   -7.1475    3.3116   23.7265 C   0  0  1  0  0  0  0  0  0  0  0  0
  -13.7562    5.4088   16.6322 C   0  0  1  0  0  0  0  0  0  0  0  0
   -6.9861    3.5796   25.2648 C   0  0  0  0  0  0  0  0  0  0  0  0
   -6.7556    2.4064   26.0579 C   0  0  0  0  0  0  0  0  0  0  0  0
   -7.8901    1.5191   25.9142 C   0  0  2  0  0  0  0  0  0  0  0  0
   -7.6894    0.2005   26.7604 C   0  0  0  0  0  0  0  0  0  0  0  0
   -9.6729   -2.9669   12.2289 C   0  0  2  0  0  0  0  0  0  0  0  0
  -10.5014   -1.8402   14.1255 C   0  0  0  0  0  0  0  0  0  0  0  0
   -8.9876   -1.9021   11.6749 C   0  0  0  0  0  0  0  0  0  0  0  0
   -9.4855   -2.9559   13.5720 C   0  0  1  0  0  0  0  0  0  0  0  0
  -13.2671    6.7141   17.4098 C   0  0  0  0  0  0  0  0  0  0  0  0
  -13.4199    6.4466   18.9838 C   0  0  0  0  0  0  0  0  0  0  0  0
  -12.5274    5.1733   19.3552 C   0  0  1  0  0  0  0  0  0  0  0  0
  -12.6169    4.8272   20.8463 C   0  0  0  0  0  0  0  0  0  0  0  0
  -10.5005    0.2667   15.4998 C   0  0  1  0  0  0  0  0  0  0  0  0
  -10.7579    1.3884   14.3590 C   0  0  0  0  0  0  0  0  0  0  0  0
  -11.5774    2.5930   14.9635 C   0  0  2  0  0  0  0  0  0  0  0  0
   -9.2393   -4.1969   11.6055 F   0  0  0  0  0  0  0  0  0  0  0  0
   -9.0037   -0.6105   26.9479 N   0  0  0  0  0  0  0  0  0  0  0  0
  -13.6334    5.5576   15.1348 N   0  0  0  0  0  0  0  0  0  0  0  0
   -5.9273    2.7683   23.3151 N   0  0  0  0  0  0  0  0  0  0  0  0
   -8.9861   -1.3702   10.3641 N   0  0  0  0  0  0  0  0  0  0  0  0
  -12.0105    5.8267   21.6365 N   0  0  0  0  0  0  0  0  0  0  0  0
   -9.7502   -0.8537   14.9046 N   0  0  0  0  0  0  0  0  0  0  0  0
  -11.8093    3.6317   13.9356 N   0  0  0  0  0  0  0  0  0  0  0  0
  -11.5776    4.2829   16.6454 O   0  0  0  0  0  0  0  0  0  0  0  0
   -9.7147    2.8989   18.3222 O   0  0  0  0  0  0  0  0  0  0  0  0
   -9.3676    0.0640   17.6261 O   0  0  0  0  0  0  0  0  0  0  0  0
   -9.3465    4.3663   20.9673 O   0  0  0  0  0  0  0  0  0  0  0  0
   -9.6245    1.0453   19.7743 O   0  0  0  0  0  0  0  0  0  0  0  0
  -12.4787    0.4531   22.1552 O   0  0  0  0  0  0  0  0  0  0  0  0
   -8.5440    2.0512   22.2089 O   0  0  0  0  0  0  0  0  0  0  0  0
   -9.7743   -4.2275   14.1933 O   0  0  0  0  0  0  0  0  0  0  0  0
  -11.7234   -1.8255   13.9036 O   0  0  0  0  0  0  0  0  0  0  0  0
   -8.1166    1.1876   24.4580 O   0  0  0  0  0  0  0  0  0  0  0  0
  -12.9877    3.9696   18.5495 O   0  0  0  0  0  0  0  0  0  0  0  0
  1 36  1  1  0  0  0
  2 36  1  1  0  0  0
  2  3  1  0  0  0  0
  3 37  1  1  0  0  0
  3  4  1  0  0  0  0
  4 38  1  1  0  0  0
  5 37  1  6  0  0  0
  5  6  1  0  0  0  0
  6  7  1  0  0  0  0
  6 39  1  1  0  0  0
  7 42  1  6  0  0  0
  8  9  1  6  0  0  0
  8  7  1  0  0  0  0
 10 42  1  6  0  0  0
 10 11  1  0  0  0  0
 11 31  1  1  0  0  0
 11 13  1  0  0  0  0
 12 30  1  6  0  0  0
 12  1  1  0  0  0  0
 14 13  1  0  0  0  0
 15 16  1  1  0  0  0
 15 14  1  0  0  0  0
 17 19  1  6  0  0  0
 17 28  1  0  0  0  0
 18 34  1  0  0  0  0
 19 32  1  0  0  0  0
 20 18  1  1  0  0  0
 20 17  1  0  0  0  0
 20 43  1  0  0  0  0
 21 12  1  0  0  0  0
 22 21  1  0  0  0  0
 22 23  1  0  0  0  0
 23 24  1  1  0  0  0
 23 46  1  0  0  0  0
 24 33  1  0  0  0  0
 25 34  1  6  0  0  0
 25  4  1  0  0  0  0
 26 25  1  0  0  0  0
 27 35  1  6  0  0  0
 27 26  1  0  0  0  0
 27  2  1  0  0  0  0
 29 16  1  0  0  0  0
 40  8  1  0  0  0  0
 40  5  1  0  0  0  0
 41  9  1  0  0  0  0
 44 18  2  0  0  0  0
 45 15  1  0  0  0  0
 45 10  1  0  0  0  0
 46  1  1  0  0  0  0
M  END
>  <CHROM.1>
-140.52501072,-68.34863414,172.64421004,-113.02833964,113.62699620,-60.71054211
-134.26451795,164.91940205,-171.10685786,-124.61470655,79.48295208,-67.71626523
163.87093914,-10.23284938,1.71182907,18.63261678,1.82661169,0.98429168,-2.08903034

>  <Name>
lig.pdb

>  <RI>
0

>  <Rbt.Current_Directory>
/home/afrankz/demos/rdock_decoys_rna/rnas/3wru

>  <Rbt.Executable>
rbdock ($Id: //depot/dev/client3/rdock/2013.1/src/exe/rbdock.cxx#4 $)

>  <Rbt.Library>
libRbt.so (2013.1, Build901 2013/11/27)

>  <Rbt.Parameter_File>
/export/apps/rDock/src/rDock_2013.1_src/data/scripts/dock_solv.prm

>  <Rbt.Receptor>
prm/blind_docking_80.prm

>  <SCORE>
24.733

>  <SCORE.INTER>
7.65089

>  <SCORE.INTER.CONST>
1

>  <SCORE.INTER.POLAR>
0

>  <SCORE.INTER.ROT>
13

>  <SCORE.INTER.SOLV>
35.872

>  <SCORE.INTER.VDW>
-19.1234

>  <SCORE.INTER.norm>
0.166324

>  <SCORE.INTRA>
8.64343

>  <SCORE.INTRA.DIHEDRAL>
11.4343

>  <SCORE.INTRA.DIHEDRAL.0>
19.7146

>  <SCORE.INTRA.POLAR>
0

>  <SCORE.INTRA.POLAR.0>
0

>  <SCORE.INTRA.REPUL>
0

>  <SCORE.INTRA.REPUL.0>
0

>  <SCORE.INTRA.SOLV>
1.7536

>  <SCORE.INTRA.SOLV.lig_0>
-116.697

>  <SCORE.INTRA.VDW>
2.0495

>  <SCORE.INTRA.VDW.0>
-7.06424

>  <SCORE.INTRA.norm>
0.187901

>  <SCORE.RESTR>
8.43864

>  <SCORE.RESTR.CAVITY>
8.43864

>  <SCORE.RESTR.norm>
0.183449

>  <SCORE.SYSTEM>
0

>  <SCORE.SYSTEM.CONST>
0

>  <SCORE.SYSTEM.DIHEDRAL>
0

>  <SCORE.SYSTEM.SOLV>
0

>  <SCORE.SYSTEM.norm>
0

>  <SCORE.heavy>
46

>  <SCORE.norm>
0.537673

>  <RMSD>
30.569

$$$$
lig.pdb
 OpenBabel03061811583D
libRbt.so/2013.1/901 2013/11/27
 46 49  0  0  0  0  0  0  0  0999 V2000
  -12.7785   -1.9428   19.5831 C   0  0  1  0  0  0  0  0  0  0  0  0
  -12.3720   -1.2282   17.1889 C   0  0  1  0  0  0  0  0  0  0  0  0
  -10.8493   -1.1675   17.5169 C   0  0  1  0  0  0  0  0  0  0  0  0
  -10.0176   -1.1900   16.1346 C   0  0  2  0  0  0  0  0  0  0  0  0
  -11.0523    1.3162   17.9943 C   0  0  2  0  0  0  0  0  0  0  0  0
   -9.9429    2.4004   18.1056 C   0  0  1  0  0  0  0  0  0  0  0  0
  -10.5441    3.4110   17.1589 C   0  0  1  0  0  0  0  0  0  0  0  0
  -10.9905    2.5752   15.9174 C   0  0  1  0  0  0  0  0  0  0  0  0
   -9.8839    2.2312   14.8595 C   0  0  0  0  0  0  0  0  0  0  0  0
  -12.3241    5.1183   17.1487 C   0  0  1  0  0  0  0  0  0  0  0  0
  -13.5419    5.6784   17.8211 C   0  0  1  0  0  0  0  0  0  0  0  0
  -14.0338   -2.4801   20.3102 C   0  0  1  0  0  0  0  0  0  0  0  0
  -14.1421    6.8045   16.9068 C   0  0  0  0  0  0  0  0  0  0  0  0
  -14.5454    6.3668   15.6012 C   0  0  0  0  0  0  0  0  0  0  0  0
  -13.3853    5.8507   14.9062 C   0  0  2  0  0  0  0  0  0  0  0  0
  -13.7698    5.3430   13.4607 C   0  0  0  0  0  0  0  0  0  0  0  0
   -9.5655   -2.3741   11.0930 C   0  0  2  0  0  0  0  0  0  0  0  0
  -10.0695   -3.5246   13.0868 C   0  0  0  0  0  0  0  0  0  0  0  0
   -9.2378   -1.2077   11.7581 C   0  0  0  0  0  0  0  0  0  0  0  0
   -9.1016   -3.4295   11.8073 C   0  0  1  0  0  0  0  0  0  0  0  0
  -14.9336   -1.2823   20.8611 C   0  0  0  0  0  0  0  0  0  0  0  0
  -14.0362   -0.3957   21.8515 C   0  0  0  0  0  0  0  0  0  0  0  0
  -12.7800    0.1463   21.0244 C   0  0  1  0  0  0  0  0  0  0  0  0
  -11.8489    1.0008   21.8929 C   0  0  0  0  0  0  0  0  0  0  0  0
  -10.3185   -2.5688   15.4003 C   0  0  1  0  0  0  0  0  0  0  0  0
  -11.9040   -2.5634   15.0651 C   0  0  0  0  0  0  0  0  0  0  0  0
  -12.7371   -2.5122   16.4035 C   0  0  2  0  0  0  0  0  0  0  0  0
   -9.0415   -2.3258    9.7467 F   0  0  0  0  0  0  0  0  0  0  0  0
  -14.9959    4.3854   13.4560 N   0  0  0  0  0  0  0  0  0  0  0  0
  -14.7901   -3.3662   19.3498 N   0  0  0  0  0  0  0  0  0  0  0  0
  -14.5752    4.7537   17.9965 N   0  0  0  0  0  0  0  0  0  0  0  0
   -7.9894   -0.5884   12.0016 N   0  0  0  0  0  0  0  0  0  0  0  0
  -10.6557    1.3096   21.2058 N   0  0  0  0  0  0  0  0  0  0  0  0
   -9.5651   -2.6353   14.1353 N   0  0  0  0  0  0  0  0  0  0  0  0
  -14.1877   -2.4940   16.1123 N   0  0  0  0  0  0  0  0  0  0  0  0
  -13.1376   -1.2509   18.3867 O   0  0  0  0  0  0  0  0  0  0  0  0
  -10.6206    0.1090   18.2726 O   0  0  0  0  0  0  0  0  0  0  0  0
   -8.6785   -1.1362   16.4508 O   0  0  0  0  0  0  0  0  0  0  0  0
   -9.8804    2.8278   19.4325 O   0  0  0  0  0  0  0  0  0  0  0  0
  -11.6050    1.4971   16.6426 O   0  0  0  0  0  0  0  0  0  0  0  0
   -9.1661    3.4489   14.5767 O   0  0  0  0  0  0  0  0  0  0  0  0
  -11.7282    4.0808   17.8323 O   0  0  0  0  0  0  0  0  0  0  0  0
   -9.1442   -4.6720   11.0720 O   0  0  0  0  0  0  0  0  0  0  0  0
  -11.0875   -4.2332   13.1511 O   0  0  0  0  0  0  0  0  0  0  0  0
  -12.7438    4.7417   15.7066 O   0  0  0  0  0  0  0  0  0  0  0  0
  -11.9859   -1.0244   20.4687 O   0  0  0  0  0  0  0  0  0  0  0  0
  1 36  1  6  0  0  0
  2 36  1  1  0  0  0
  2  3  1  0  0  0  0
  3 37  1  6  0  0  0
  3  4  1  0  0  0  0
  4 38  1  1  0  0  0
  5 37  1  6  0  0  0
  5  6  1  0  0  0  0
  6  7  1  0  0  0  0
  6 39  1  1  0  0  0
  7 42  1  1  0  0  0
  8  9  1  1  0  0  0
  8  7  1  0  0  0  0
 10 42  1  1  0  0  0
 10 11  1  0  0  0  0
 11 31  1  6  0  0  0
 11 13  1  0  0  0  0
 12 30  1  6  0  0  0
 12  1  1  0  0  0  0
 14 13  1  0  0  0  0
 15 16  1  6  0  0  0
 15 14  1  0  0  0  0
 17 19  1  1  0  0  0
 17 28  1  0  0  0  0
 18 34  1  0  0  0  0
 19 32  1  0  0  0  0
 20 18  1  1  0  0  0
 20 17  1  0  0  0  0
 20 43  1  0  0  0  0
 21 12  1  0  0  0  0
 22 21  1  0  0  0  0
 22 23  1  0  0  0  0
 23 24  1  1  0  0  0
 23 46  1  0  0  0  0
 24 33  1  0  0  0  0
 25 34  1  6  0  0  0
 25  4  1  0  0  0  0
 26 25  1  0  0  0  0
 27 35  1  6  0  0  0
 27 26  1  0  0  0  0
 27  2  1  0  0  0  0
 29 16  1  0  0  0  0
 40  8  1  0  0  0  0
 40  5  1  0  0  0  0
 41  9  1  0  0  0  0
 44 18  2  0  0  0  0
 45 15  1  0  0  0  0
 45 10  1  0  0  0  0
 46  1  1  0  0  0  0
M  END
>  <CHROM.1>
-145.98978271,-37.67572677,-46.91215416,-133.34062804,174.46526401,-47.69652582
176.12478802,-50.02563036,68.08342988,-86.08176248,72.56757625,171.56174084
-156.61426302,-11.62045514,0.50626594,16.40677454,2.83969083,1.18129442,-0.49044527

>  <Name>
lig.pdb

>  <RI>
0

>  <Rbt.Current_Directory>
/home/afrankz/demos/rdock_decoys_rna/rnas/3wru

>  <Rbt.Executable>
rbdock ($Id: //depot/dev/client3/rdock/2013.1/src/exe/rbdock.cxx#4 $)

>  <Rbt.Library>
libRbt.so (2013.1, Build901 2013/11/27)

>  <Rbt.Parameter_File>
/export/apps/rDock/src/rDock_2013.1_src/data/scripts/dock_solv.prm

>  <Rbt.Receptor>
prm/blind_docking_100.prm

>  <SCORE>
11.3924

>  <SCORE.INTER>
2.40158

>  <SCORE.INTER.CONST>
1

>  <SCORE.INTER.POLAR>
0

>  <SCORE.INTER.ROT>
13

>  <SCORE.INTER.SOLV>
20.9867

>  <SCORE.INTER.VDW>
-17.6612

>  <SCORE.INTER.norm>
0.0522084

>  <SCORE.INTRA>
6.16809

>  <SCORE.INTRA.DIHEDRAL>
-1.88744

>  <SCORE.INTRA.DIHEDRAL.0>
19.7146

>  <SCORE.INTRA.POLAR>
0

>  <SCORE.INTRA.POLAR.0>
0

>  <SCORE.INTRA.REPUL>
0

>  <SCORE.INTRA.REPUL.0>
0

>  <SCORE.INTRA.SOLV>
5.72512

>  <SCORE.INTRA.SOLV.lig_0>
-116.697

>  <SCORE.INTRA.VDW>
4.24926

>  <SCORE.INTRA.VDW.0>
-7.06424

>  <SCORE.INTRA.norm>
0.134089

>  <SCORE.RESTR>
2.82275

>  <SCORE.RESTR.CAVITY>
2.82275

>  <SCORE.RESTR.norm>
0.0613641

>  <SCORE.SYSTEM>
0

>  <SCORE.SYSTEM.CONST>
0

>  <SCORE.SYSTEM.DIHEDRAL>
0

>  <SCORE.SYSTEM.SOLV>
0

>  <SCORE.SYSTEM.norm>
0

>  <SCORE.heavy>
46

>  <SCORE.norm>
0.247662

>  <RMSD>
30.601

$$$$
lig.pdb
 OpenBabel03061811583D
libRbt.so/2013.1/901 2013/11/27
 46 49  0  0  0  0  0  0  0  0999 V2000
  -12.9874    5.8795   18.2679 C   0  0  1  0  0  0  0  0  0  0  0  0
  -11.5304    4.0078   19.1521 C   0  0  1  0  0  0  0  0  0  0  0  0
  -10.4902    2.9924   18.5894 C   0  0  1  0  0  0  0  0  0  0  0  0
   -9.8519    2.1654   19.8188 C   0  0  2  0  0  0  0  0  0  0  0  0
  -10.8538    1.6287   16.4808 C   0  0  2  0  0  0  0  0  0  0  0  0
   -9.4446    0.9717   16.5136 C   0  0  1  0  0  0  0  0  0  0  0  0
   -9.6158    0.0529   15.3281 C   0  0  1  0  0  0  0  0  0  0  0  0
  -11.0186   -0.6023   15.5331 C   0  0  1  0  0  0  0  0  0  0  0  0
  -11.0914   -1.8314   16.5056 C   0  0  0  0  0  0  0  0  0  0  0  0
   -8.3964    1.5537   13.7969 C   0  0  1  0  0  0  0  0  0  0  0  0
   -8.3841    2.2879   12.4894 C   0  0  1  0  0  0  0  0  0  0  0  0
  -14.3558    5.3932   18.8009 C   0  0  1  0  0  0  0  0  0  0  0  0
   -6.9780    2.9625   12.3102 C   0  0  0  0  0  0  0  0  0  0  0  0
   -5.8717    2.0490   12.2910 C   0  0  0  0  0  0  0  0  0  0  0  0
   -5.8295    1.3450   13.5550 C   0  0  2  0  0  0  0  0  0  0  0  0
   -4.6330    0.3144   13.5903 C   0  0  0  0  0  0  0  0  0  0  0  0
   -8.8813    1.4692   24.9594 C   0  0  2  0  0  0  0  0  0  0  0  0
   -9.3223    1.5435   22.6458 C   0  0  0  0  0  0  0  0  0  0  0  0
   -8.5863    0.6457   26.0295 C   0  0  0  0  0  0  0  0  0  0  0  0
   -8.4506    0.8749   23.8189 C   0  0  1  0  0  0  0  0  0  0  0  0
  -15.1059    4.4928   17.7172 C   0  0  0  0  0  0  0  0  0  0  0  0
  -15.2899    5.3634   16.3829 C   0  0  0  0  0  0  0  0  0  0  0  0
  -13.8379    5.8022   15.8778 C   0  0  1  0  0  0  0  0  0  0  0  0
  -13.9083    6.6549   14.6053 C   0  0  0  0  0  0  0  0  0  0  0  0
   -9.0893    3.1945   20.7623 C   0  0  1  0  0  0  0  0  0  0  0  0
  -10.2204    4.2048   21.3333 C   0  0  0  0  0  0  0  0  0  0  0  0
  -10.8788    5.0037   20.1433 C   0  0  2  0  0  0  0  0  0  0  0  0
   -8.2945    2.7722   25.1768 F   0  0  0  0  0  0  0  0  0  0  0  0
   -5.0987   -1.1545   13.8045 N   0  0  0  0  0  0  0  0  0  0  0  0
  -14.1196    4.6507   20.0941 N   0  0  0  0  0  0  0  0  0  0  0  0
   -8.5462    1.4665   11.3702 N   0  0  0  0  0  0  0  0  0  0  0  0
   -7.4022    0.4823   26.7861 N   0  0  0  0  0  0  0  0  0  0  0  0
  -14.4373    5.9144   13.5269 N   0  0  0  0  0  0  0  0  0  0  0  0
   -8.4785    2.4753   21.8946 N   0  0  0  0  0  0  0  0  0  0  0  0
  -11.9233    5.9219   20.6488 N   0  0  0  0  0  0  0  0  0  0  0  0
  -12.0862    4.7847   18.0991 O   0  0  0  0  0  0  0  0  0  0  0  0
  -11.2335    2.0887   17.6492 O   0  0  0  0  0  0  0  0  0  0  0  0
   -8.9380    1.2776   19.2967 O   0  0  0  0  0  0  0  0  0  0  0  0
   -8.4906    1.9729   16.3270 O   0  0  0  0  0  0  0  0  0  0  0  0
  -11.7231    0.5983   15.8910 O   0  0  0  0  0  0  0  0  0  0  0  0
  -10.5203   -2.9605   15.8150 O   0  0  0  0  0  0  0  0  0  0  0  0
   -9.5672    0.8732   14.0518 O   0  0  0  0  0  0  0  0  0  0  0  0
   -7.0454    1.0919   23.5646 O   0  0  0  0  0  0  0  0  0  0  0  0
  -10.5159    1.2859   22.4184 O   0  0  0  0  0  0  0  0  0  0  0  0
   -7.1431    0.6443   13.8102 O   0  0  0  0  0  0  0  0  0  0  0  0
  -13.1370    6.6051   16.9614 O   0  0  0  0  0  0  0  0  0  0  0  0
  1 36  1  6  0  0  0
  2 36  1  6  0  0  0
  2  3  1  0  0  0  0
  3 37  1  6  0  0  0
  3  4  1  0  0  0  0
  4 38  1  6  0  0  0
  5 37  1  1  0  0  0
  5  6  1  0  0  0  0
  6  7  1  0  0  0  0
  6 39  1  6  0  0  0
  7 42  1  6  0  0  0
  8  9  1  1  0  0  0
  8  7  1  0  0  0  0
 10 42  1  6  0  0  0
 10 11  1  0  0  0  0
 11 31  1  6  0  0  0
 11 13  1  0  0  0  0
 12 30  1  1  0  0  0
 12  1  1  0  0  0  0
 14 13  1  0  0  0  0
 15 16  1  6  0  0  0
 15 14  1  0  0  0  0
 17 19  1  1  0  0  0
 17 28  1  0  0  0  0
 18 34  1  0  0  0  0
 19 32  1  0  0  0  0
 20 18  1  6  0  0  0
 20 17  1  0  0  0  0
 20 43  1  0  0  0  0
 21 12  1  0  0  0  0
 22 21  1  0  0  0  0
 22 23  1  0  0  0  0
 23 24  1  6  0  0  0
 23 46  1  0  0  0  0
 24 33  1  0  0  0  0
 25 34  1  1  0  0  0
 25  4  1  0  0  0  0
 26 25  1  0  0  0  0
 27 35  1  1  0  0  0
 27 26  1  0  0  0  0
 27  2  1  0  0  0  0
 29 16  1  0  0  0  0
 40  8  1  0  0  0  0
 40  5  1  0  0  0  0
 41  9  1  0  0  0  0
 44 18  2  0  0  0  0
 45 15  1  0  0  0  0
 45 10  1  0  0  0  0
 46  1  1  0  0  0  0
M  END
>  <CHROM.1>
-67.78574658,-174.65793222,138.90729629,50.90477120,61.77809004,-74.69327294
177.02608958,-120.04922908,83.53825525,105.94934154,157.58151057,-64.17082757
-49.44406857,-10.06176503,2.39325053,17.95552744,1.62392102,-0.67485181,1.55281070

>  <Name>
lig.pdb

>  <RI>
0

>  <Rbt.Current_Directory>
/home/afrankz/demos/rdock_decoys_rna/rnas/3wru

>  <Rbt.Executable>
rbdock ($Id: //depot/dev/client3/rdock/2013.1/src/exe/rbdock.cxx#4 $)

>  <Rbt.Library>
libRbt.so (2013.1, Build901 2013/11/27)

>  <Rbt.Parameter_File>
/export/apps/rDock/src/rDock_2013.1_src/data/scripts/dock_solv.prm

>  <Rbt.Receptor>
prm/blind_docking_80.prm

>  <SCORE>
22.6903

>  <SCORE.INTER>
7.80053

>  <SCORE.INTER.CONST>
1

>  <SCORE.INTER.POLAR>
0

>  <SCORE.INTER.ROT>
13

>  <SCORE.INTER.SOLV>
34.7083

>  <SCORE.INTER.VDW>
-18.6358

>  <SCORE.INTER.norm>
0.169577

>  <SCORE.INTRA>
7.30257

>  <SCORE.INTRA.DIHEDRAL>
-1.43467

>  <SCORE.INTRA.DIHEDRAL.0>
19.7146

>  <SCORE.INTRA.POLAR>
0

>  <SCORE.INTRA.POLAR.0>
0

>  <SCORE.INTRA.REPUL>
0

>  <SCORE.INTRA.REPUL.0>
0

>  <SCORE.INTRA.SOLV>
4.80689

>  <SCORE.INTRA.SOLV.lig_0>
-116.697

>  <SCORE.INTRA.VDW>
5.61646

>  <SCORE.INTRA.VDW.0>
-7.06424

>  <SCORE.INTRA.norm>
0.158751

>  <SCORE.RESTR>
7.58722

>  <SCORE.RESTR.CAVITY>
7.58722

>  <SCORE.RESTR.norm>
0.16494

>  <SCORE.SYSTEM>
0

>  <SCORE.SYSTEM.CONST>
0

>  <SCORE.SYSTEM.DIHEDRAL>
0

>  <SCORE.SYSTEM.SOLV>
0

>  <SCORE.SYSTEM.norm>
0

>  <SCORE.heavy>
46

>  <SCORE.norm>
0.493268

>  <RMSD>
30.602

$$$$
lig.pdb
 OpenBabel03061811583D
libRbt.so/2013.1/901 2013/11/27
 46 49  0  0  0  0  0  0  0  0999 V2000
  -12.2904    6.1927   17.6202 C   0  0  1  0  0  0  0  0  0  0  0  0
  -11.9238    4.2400   19.1889 C   0  0  1  0  0  0  0  0  0  0  0  0
  -10.6184    3.7083   18.5234 C   0  0  1  0  0  0  0  0  0  0  0  0
   -9.7520    2.9199   19.6328 C   0  0  2  0  0  0  0  0  0  0  0  0
  -10.3140    1.9504   16.7191 C   0  0  2  0  0  0  0  0  0  0  0  0
  -11.1665    0.9366   15.9042 C   0  0  1  0  0  0  0  0  0  0  0  0
  -10.1507    0.6257   14.8316 C   0  0  1  0  0  0  0  0  0  0  0  0
   -9.5891    2.0181   14.4013 C   0  0  1  0  0  0  0  0  0  0  0  0
  -10.4401    2.8371   13.3685 C   0  0  0  0  0  0  0  0  0  0  0  0
   -8.5636   -1.2484   14.6028 C   0  0  1  0  0  0  0  0  0  0  0  0
   -7.9505   -0.7486   13.3288 C   0  0  1  0  0  0  0  0  0  0  0  0
  -13.1768    7.3752   18.0775 C   0  0  1  0  0  0  0  0  0  0  0  0
   -7.4820   -1.9853   12.4829 C   0  0  0  0  0  0  0  0  0  0  0  0
   -8.5297   -2.8950   12.1179 C   0  0  0  0  0  0  0  0  0  0  0  0
   -9.1238   -3.4271   13.3258 C   0  0  2  0  0  0  0  0  0  0  0  0
  -10.2944   -4.4318   12.9868 C   0  0  0  0  0  0  0  0  0  0  0  0
   -7.9537    1.7791   23.8887 C   0  0  2  0  0  0  0  0  0  0  0  0
   -8.3637    3.9563   23.0857 C   0  0  0  0  0  0  0  0  0  0  0  0
   -7.7371    1.0665   25.0529 C   0  0  0  0  0  0  0  0  0  0  0  0
   -7.4645    3.0341   24.0471 C   0  0  1  0  0  0  0  0  0  0  0  0
  -14.6763    7.2016   17.5587 C   0  0  0  0  0  0  0  0  0  0  0  0
  -14.6442    7.0978   15.9585 C   0  0  0  0  0  0  0  0  0  0  0  0
  -13.7379    5.8409   15.5652 C   0  0  1  0  0  0  0  0  0  0  0  0
  -13.6345    5.6634   14.0456 C   0  0  0  0  0  0  0  0  0  0  0  0
   -9.3493    3.9555   20.7714 C   0  0  1  0  0  0  0  0  0  0  0  0
  -10.7394    4.4529   21.4394 C   0  0  0  0  0  0  0  0  0  0  0  0
  -11.6161    5.2020   20.3631 C   0  0  2  0  0  0  0  0  0  0  0  0
   -9.3620    1.7560   23.5634 F   0  0  0  0  0  0  0  0  0  0  0  0
  -11.1754   -3.9626   11.7935 N   0  0  0  0  0  0  0  0  0  0  0  0
  -13.1010    7.4648   19.5827 N   0  0  0  0  0  0  0  0  0  0  0  0
   -8.8355   -0.0492   12.5035 N   0  0  0  0  0  0  0  0  0  0  0  0
   -8.5520    0.1450   25.7515 N   0  0  0  0  0  0  0  0  0  0  0  0
  -12.6638    4.6949   13.7129 N   0  0  0  0  0  0  0  0  0  0  0  0
   -8.5430    3.2761   21.8013 N   0  0  0  0  0  0  0  0  0  0  0  0
  -12.8951    5.6513   20.9561 N   0  0  0  0  0  0  0  0  0  0  0  0
  -12.6959    4.9766   18.2494 O   0  0  0  0  0  0  0  0  0  0  0  0
  -11.0420    2.7955   17.4097 O   0  0  0  0  0  0  0  0  0  0  0  0
   -8.6065    2.4616   19.0215 O   0  0  0  0  0  0  0  0  0  0  0  0
  -11.4712   -0.1443   16.7325 O   0  0  0  0  0  0  0  0  0  0  0  0
   -9.4138    2.5535   15.7236 O   0  0  0  0  0  0  0  0  0  0  0  0
  -10.4416    2.0983   12.1307 O   0  0  0  0  0  0  0  0  0  0  0  0
   -9.0621   -0.2552   15.4175 O   0  0  0  0  0  0  0  0  0  0  0  0
   -7.5607    3.5107   25.4071 O   0  0  0  0  0  0  0  0  0  0  0  0
   -8.8356    5.0599   23.4052 O   0  0  0  0  0  0  0  0  0  0  0  0
   -9.6237   -2.3043   14.2040 O   0  0  0  0  0  0  0  0  0  0  0  0
  -12.3378    6.0196   16.1290 O   0  0  0  0  0  0  0  0  0  0  0  0
  1 36  1  1  0  0  0
  2 36  1  6  0  0  0
  2  3  1  0  0  0  0
  3 37  1  6  0  0  0
  3  4  1  0  0  0  0
  4 38  1  6  0  0  0
  5 37  1  6  0  0  0
  5  6  1  0  0  0  0
  6  7  1  0  0  0  0
  6 39  1  1  0  0  0
  7 42  1  1  0  0  0
  8  9  1  6  0  0  0
  8  7  1  0  0  0  0
 10 42  1  6  0  0  0
 10 11  1  0  0  0  0
 11 31  1  6  0  0  0
 11 13  1  0  0  0  0
 12 30  1  1  0  0  0
 12  1  1  0  0  0  0
 14 13  1  0  0  0  0
 15 16  1  6  0  0  0
 15 14  1  0  0  0  0
 17 19  1  1  0  0  0
 17 28  1  0  0  0  0
 18 34  1  0  0  0  0
 19 32  1  0  0  0  0
 20 18  1  6  0  0  0
 20 17  1  0  0  0  0
 20 43  1  0  0  0  0
 21 12  1  0  0  0  0
 22 21  1  0  0  0  0
 22 23  1  0  0  0  0
 23 24  1  6  0  0  0
 23 46  1  0  0  0  0
 24 33  1  0  0  0  0
 25 34  1  1  0  0  0
 25  4  1  0  0  0  0
 26 25  1  0  0  0  0
 27 35  1  1  0  0  0
 27 26  1  0  0  0  0
 27  2  1  0  0  0  0
 29 16  1  0  0  0  0
 40  8  1  0  0  0  0
 40  5  1  0  0  0  0
 41  9  1  0  0  0  0
 44 18  2  0  0  0  0
 45 15  1  0  0  0  0
 45 10  1  0  0  0  0
 46  1  1  0  0  0  0
M  END
>  <CHROM.1>
-113.59596961,-63.80382786,-167.41278388,165.50171770,141.95298627,-65.33033819
59.58689342,-39.81152178,139.48823211,-43.60357692,-151.54543477,170.34811124
-164.75575236,-10.37214820,2.44321552,17.68645624,1.56576951,-0.96573775
1.08788895

>  <Name>
lig.pdb

>  <RI>
0

>  <Rbt.Current_Directory>
/home/afrankz/demos/rdock_decoys_rna/rnas/3wru

>  <Rbt.Executable>
rbdock ($Id: //depot/dev/client3/rdock/2013.1/src/exe/rbdock.cxx#4 $)

>  <Rbt.Library>
libRbt.so (2013.1, Build901 2013/11/27)

>  <Rbt.Parameter_File>
/export/apps/rDock/src/rDock_2013.1_src/data/scripts/dock_solv.prm

>  <Rbt.Receptor>
prm/blind_docking_60.prm

>  <SCORE>
26.5574

>  <SCORE.INTER>
5.31589

>  <SCORE.INTER.CONST>
1

>  <SCORE.INTER.POLAR>
0

>  <SCORE.INTER.ROT>
13

>  <SCORE.INTER.SOLV>
33.8175

>  <SCORE.INTER.VDW>
-19.9953

>  <SCORE.INTER.norm>
0.115563

>  <SCORE.INTRA>
18.2685

>  <SCORE.INTRA.DIHEDRAL>
3.31207

>  <SCORE.INTRA.DIHEDRAL.0>
19.7146

>  <SCORE.INTRA.POLAR>
0

>  <SCORE.INTRA.POLAR.0>
0

>  <SCORE.INTRA.REPUL>
0

>  <SCORE.INTRA.REPUL.0>
0

>  <SCORE.INTRA.SOLV>
8.83505

>  <SCORE.INTRA.SOLV.lig_0>
-116.697

>  <SCORE.INTRA.VDW>
12.1949

>  <SCORE.INTRA.VDW.0>
-7.06424

>  <SCORE.INTRA.norm>
0.397141

>  <SCORE.RESTR>
2.97298

>  <SCORE.RESTR.CAVITY>
2.97298

>  <SCORE.RESTR.norm>
0.0646299

>  <SCORE.SYSTEM>
0

>  <SCORE.SYSTEM.CONST>
0

>  <SCORE.SYSTEM.DIHEDRAL>
0

>  <SCORE.SYSTEM.SOLV>
0

>  <SCORE.SYSTEM.norm>
0

>  <SCORE.heavy>
46

>  <SCORE.norm>
0.577334

>  <RMSD>
30.603

$$$$
lig.pdb
 OpenBabel03061811583D
libRbt.so/2013.1/901 2013/11/27
 46 49  0  0  0  0  0  0  0  0999 V2000
   -8.1371   -0.5514   14.6909 C   0  0  1  0  0  0  0  0  0  0  0  0
  -10.0489   -1.4923   16.0576 C   0  0  1  0  0  0  0  0  0  0  0  0
  -11.0942   -0.8519   17.0204 C   0  0  1  0  0  0  0  0  0  0  0  0
  -11.7733   -2.0194   17.9028 C   0  0  2  0  0  0  0  0  0  0  0  0
  -10.8229    1.0836   18.6384 C   0  0  2  0  0  0  0  0  0  0  0  0
  -10.6939    0.7847   20.1592 C   0  0  1  0  0  0  0  0  0  0  0  0
  -10.6916    2.2116   20.6521 C   0  0  1  0  0  0  0  0  0  0  0  0
   -9.7016    2.9580   19.7024 C   0  0  1  0  0  0  0  0  0  0  0  0
   -8.1728    2.8335   20.0327 C   0  0  0  0  0  0  0  0  0  0  0  0
  -12.2031    4.1184   20.2480 C   0  0  1  0  0  0  0  0  0  0  0  0
  -13.3605    4.8047   20.9101 C   0  0  1  0  0  0  0  0  0  0  0  0
   -7.6660    0.8506   14.2374 C   0  0  1  0  0  0  0  0  0  0  0  0
  -13.3891    6.3012   20.4369 C   0  0  0  0  0  0  0  0  0  0  0  0
  -13.5460    6.4809   19.0221 C   0  0  0  0  0  0  0  0  0  0  0  0
  -12.4251    5.8603   18.3486 C   0  0  2  0  0  0  0  0  0  0  0  0
  -12.5471    6.0179   16.7817 C   0  0  0  0  0  0  0  0  0  0  0  0
  -15.7935   -6.5618   17.3977 C   0  0  2  0  0  0  0  0  0  0  0  0
  -14.1170   -4.9606   16.9750 C   0  0  0  0  0  0  0  0  0  0  0  0
  -15.8178   -7.9301   17.5901 C   0  0  0  0  0  0  0  0  0  0  0  0
  -14.6908   -6.0549   18.0030 C   0  0  1  0  0  0  0  0  0  0  0  0
   -8.5271    1.3717   12.9985 C   0  0  0  0  0  0  0  0  0  0  0  0
   -8.3844    0.3084   11.8063 C   0  0  0  0  0  0  0  0  0  0  0  0
   -8.9163   -1.1020   12.3389 C   0  0  1  0  0  0  0  0  0  0  0  0
   -8.8091   -2.1950   11.2687 C   0  0  0  0  0  0  0  0  0  0  0  0
  -12.5381   -3.0034   16.9140 C   0  0  1  0  0  0  0  0  0  0  0  0
  -11.4022   -3.6536   15.9585 C   0  0  0  0  0  0  0  0  0  0  0  0
  -10.7043   -2.5243   15.1066 C   0  0  2  0  0  0  0  0  0  0  0  0
  -17.0252   -5.9836   17.8861 F   0  0  0  0  0  0  0  0  0  0  0  0
  -13.8809    5.4536   16.2134 N   0  0  0  0  0  0  0  0  0  0  0  0
   -7.7516    1.7815   15.4229 N   0  0  0  0  0  0  0  0  0  0  0  0
  -14.6099    4.2827   20.5637 N   0  0  0  0  0  0  0  0  0  0  0  0
  -16.5237   -8.7326   18.5170 N   0  0  0  0  0  0  0  0  0  0  0  0
   -9.9683   -2.9991   11.2468 N   0  0  0  0  0  0  0  0  0  0  0  0
  -13.1857   -4.0805   17.6839 N   0  0  0  0  0  0  0  0  0  0  0  0
   -9.6552   -3.1022   14.2378 N   0  0  0  0  0  0  0  0  0  0  0  0
   -9.4569   -0.4964   15.2335 O   0  0  0  0  0  0  0  0  0  0  0  0
  -10.3465    0.1221   17.8837 O   0  0  0  0  0  0  0  0  0  0  0  0
  -12.6910   -1.4293   18.7428 O   0  0  0  0  0  0  0  0  0  0  0  0
  -11.8089    0.0454   20.5560 O   0  0  0  0  0  0  0  0  0  0  0  0
  -10.1847    2.3987   18.4696 O   0  0  0  0  0  0  0  0  0  0  0  0
   -8.0462    1.9295   21.1485 O   0  0  0  0  0  0  0  0  0  0  0  0
  -12.0963    2.7772   20.5454 O   0  0  0  0  0  0  0  0  0  0  0  0
  -14.9805   -5.4261   19.2707 O   0  0  0  0  0  0  0  0  0  0  0  0
  -14.4158   -4.8977   15.7711 O   0  0  0  0  0  0  0  0  0  0  0  0
  -12.3244    4.4023   18.7306 O   0  0  0  0  0  0  0  0  0  0  0  0
   -8.1089   -1.5313   13.5529 O   0  0  0  0  0  0  0  0  0  0  0  0
  1 36  1  6  0  0  0
  2 36  1  6  0  0  0
  2  3  1  0  0  0  0
  3 37  1  1  0  0  0
  3  4  1  0  0  0  0
  4 38  1  1  0  0  0
  5 37  1  6  0  0  0
  5  6  1  0  0  0  0
  6  7  1  0  0  0  0
  6 39  1  1  0  0  0
  7 42  1  6  0  0  0
  8  9  1  1  0  0  0
  8  7  1  0  0  0  0
 10 42  1  6  0  0  0
 10 11  1  0  0  0  0
 11 31  1  6  0  0  0
 11 13  1  0  0  0  0
 12 30  1  1  0  0  0
 12  1  1  0  0  0  0
 14 13  1  0  0  0  0
 15 16  1  6  0  0  0
 15 14  1  0  0  0  0
 17 19  1  1  0  0  0
 17 28  1  0  0  0  0
 18 34  1  0  0  0  0
 19 32  1  0  0  0  0
 20 18  1  6  0  0  0
 20 17  1  0  0  0  0
 20 43  1  0  0  0  0
 21 12  1  0  0  0  0
 22 21  1  0  0  0  0
 22 23  1  0  0  0  0
 23 24  1  6  0  0  0
 23 46  1  0  0  0  0
 24 33  1  0  0  0  0
 25 34  1  1  0  0  0
 25  4  1  0  0  0  0
 26 25  1  0  0  0  0
 27 35  1  6  0  0  0
 27 26  1  0  0  0  0
 27  2  1  0  0  0  0
 29 16  1  0  0  0  0
 40  8  1  0  0  0  0
 40  5  1  0  0  0  0
 41  9  1  0  0  0  0
 44 18  2  0  0  0  0
 45 15  1  0  0  0  0
 45 10  1  0  0  0  0
 46  1  1  0  0  0  0
M  END
>  <CHROM.1>
-161.99613174,150.93495427,164.48459350,109.02780352,-146.29548193,4.07796239
-145.23635003,-56.06031847,99.09246142,163.03279100,138.59967710,-137.35352891
170.26354800,-11.62092865,-0.30063040,17.26531979,-1.91064686,0.77849433
0.48405206

>  <Name>
lig.pdb

>  <RI>
0

>  <Rbt.Current_Directory>
/home/afrankz/demos/rdock_decoys_rna/rnas/3wru

>  <Rbt.Executable>
rbdock ($Id: //depot/dev/client3/rdock/2013.1/src/exe/rbdock.cxx#4 $)

>  <Rbt.Library>
libRbt.so (2013.1, Build901 2013/11/27)

>  <Rbt.Parameter_File>
/export/apps/rDock/src/rDock_2013.1_src/data/scripts/dock_solv.prm

>  <Rbt.Receptor>
prm/blind_docking_40.prm

>  <SCORE>
21.5739

>  <SCORE.INTER>
1.0936

>  <SCORE.INTER.CONST>
1

>  <SCORE.INTER.POLAR>
0

>  <SCORE.INTER.ROT>
13

>  <SCORE.INTER.SOLV>
28.1672

>  <SCORE.INTER.VDW>
-20.9267

>  <SCORE.INTER.norm>
0.0237739

>  <SCORE.INTRA>
17.8482

>  <SCORE.INTRA.DIHEDRAL>
19.937

>  <SCORE.INTRA.DIHEDRAL.0>
19.7146

>  <SCORE.INTRA.POLAR>
0

>  <SCORE.INTRA.POLAR.0>
0

>  <SCORE.INTRA.REPUL>
0.131685

>  <SCORE.INTRA.REPUL.0>
0

>  <SCORE.INTRA.SOLV>
4.08376

>  <SCORE.INTRA.SOLV.lig_0>
-116.697

>  <SCORE.INTRA.VDW>
5.17944

>  <SCORE.INTRA.VDW.0>
-7.06424

>  <SCORE.INTRA.norm>
0.388005

>  <SCORE.RESTR>
2.63202

>  <SCORE.RESTR.CAVITY>
2.63202

>  <SCORE.RESTR.norm>
0.0572178

>  <SCORE.SYSTEM>
0

>  <SCORE.SYSTEM.CONST>
0

>  <SCORE.SYSTEM.DIHEDRAL>
0

>  <SCORE.SYSTEM.SOLV>
0

>  <SCORE.SYSTEM.norm>
0

>  <SCORE.heavy>
46

>  <SCORE.norm>
0.468997

>  <RMSD>
30.614

$$$$
lig.pdb
 OpenBabel03061811583D
libRbt.so/2013.1/901 2013/11/27
 46 49  0  0  0  0  0  0  0  0999 V2000
   -8.1931   -0.2894   14.4651 C   0  0  1  0  0  0  0  0  0  0  0  0
   -9.9547   -1.3909   15.9112 C   0  0  1  0  0  0  0  0  0  0  0  0
  -10.7913   -0.8799   17.1231 C   0  0  1  0  0  0  0  0  0  0  0  0
  -11.3980   -2.1510   17.9100 C   0  0  2  0  0  0  0  0  0  0  0  0
  -10.1242    0.9178   18.7848 C   0  0  2  0  0  0  0  0  0  0  0  0
  -11.4369    1.6585   18.4014 C   0  0  1  0  0  0  0  0  0  0  0  0
  -11.7553    2.2340   19.7602 C   0  0  1  0  0  0  0  0  0  0  0  0
  -11.5416    1.0480   20.7536 C   0  0  1  0  0  0  0  0  0  0  0  0
  -12.7228    0.0259   20.9015 C   0  0  0  0  0  0  0  0  0  0  0  0
  -11.2510    4.6485   19.7514 C   0  0  1  0  0  0  0  0  0  0  0  0
  -12.2406    5.1989   20.7345 C   0  0  1  0  0  0  0  0  0  0  0  0
   -7.7624    1.1543   14.1138 C   0  0  1  0  0  0  0  0  0  0  0  0
  -12.7017    6.6147   20.2372 C   0  0  0  0  0  0  0  0  0  0  0  0
  -13.3372    6.6218   18.9508 C   0  0  0  0  0  0  0  0  0  0  0  0
  -12.3975    6.1287   17.9665 C   0  0  2  0  0  0  0  0  0  0  0  0
  -13.0455    6.1045   16.5263 C   0  0  0  0  0  0  0  0  0  0  0  0
  -15.2446   -6.3592   17.5053 C   0  0  2  0  0  0  0  0  0  0  0  0
  -14.4188   -4.1609   17.7010 C   0  0  0  0  0  0  0  0  0  0  0  0
  -15.3976   -7.6187   18.0533 C   0  0  0  0  0  0  0  0  0  0  0  0
  -14.8295   -5.5077   18.4759 C   0  0  1  0  0  0  0  0  0  0  0  0
   -8.7614    1.8089   13.0548 C   0  0  0  0  0  0  0  0  0  0  0  0
   -8.7793    0.8840   11.7446 C   0  0  0  0  0  0  0  0  0  0  0  0
   -9.2608   -0.5769   12.1804 C   0  0  1  0  0  0  0  0  0  0  0  0
   -9.2996   -1.5448   10.9917 C   0  0  0  0  0  0  0  0  0  0  0  0
  -12.3717   -2.9258   16.9188 C   0  0  1  0  0  0  0  0  0  0  0  0
  -11.4454   -3.4512   15.6974 C   0  0  0  0  0  0  0  0  0  0  0  0
  -10.8178   -2.2237   14.9311 C   0  0  2  0  0  0  0  0  0  0  0  0
  -16.4834   -5.9496   16.8830 F   0  0  0  0  0  0  0  0  0  0  0  0
  -12.6548    4.8442   15.7021 N   0  0  0  0  0  0  0  0  0  0  0  0
   -7.6903    1.9484   15.3959 N   0  0  0  0  0  0  0  0  0  0  0  0
  -13.4129    4.4465   20.8489 N   0  0  0  0  0  0  0  0  0  0  0  0
  -16.2634   -8.1013   19.0627 N   0  0  0  0  0  0  0  0  0  0  0  0
   -7.9970   -1.9230   10.6027 N   0  0  0  0  0  0  0  0  0  0  0  0
  -12.9592   -4.0903   17.6053 N   0  0  0  0  0  0  0  0  0  0  0  0
   -9.9586   -2.6888   13.8199 N   0  0  0  0  0  0  0  0  0  0  0  0
   -9.4359   -0.2953   15.1684 O   0  0  0  0  0  0  0  0  0  0  0  0
   -9.8549   -0.0933   17.9935 O   0  0  0  0  0  0  0  0  0  0  0  0
  -12.1315   -1.6741   18.9733 O   0  0  0  0  0  0  0  0  0  0  0  0
  -11.1323    2.6158   17.4329 O   0  0  0  0  0  0  0  0  0  0  0  0
  -10.2963    0.5828   20.2072 O   0  0  0  0  0  0  0  0  0  0  0  0
  -13.8676    0.7584   21.3821 O   0  0  0  0  0  0  0  0  0  0  0  0
  -10.8032    3.3801   20.0506 O   0  0  0  0  0  0  0  0  0  0  0  0
  -15.8567   -5.2153   19.4483 O   0  0  0  0  0  0  0  0  0  0  0  0
  -15.2259   -3.3322   17.2489 O   0  0  0  0  0  0  0  0  0  0  0  0
  -11.9061    4.7534   18.3522 O   0  0  0  0  0  0  0  0  0  0  0  0
   -8.3169   -1.1374   13.2316 O   0  0  0  0  0  0  0  0  0  0  0  0
  1 36  1  6  0  0  0
  2 36  1  6  0  0  0
  2  3  1  0  0  0  0
  3 37  1  1  0  0  0
  3  4  1  0  0  0  0
  4 38  1  1  0  0  0
  5 37  1  6  0  0  0
  5  6  1  0  0  0  0
  6  7  1  0  0  0  0
  6 39  1  6  0  0  0
  7 42  1  1  0  0  0
  8  9  1  6  0  0  0
  8  7  1  0  0  0  0
 10 42  1  1  0  0  0
 10 11  1  0  0  0  0
 11 31  1  6  0  0  0
 11 13  1  0  0  0  0
 12 30  1  1  0  0  0
 12  1  1  0  0  0  0
 14 13  1  0  0  0  0
 15 16  1  6  0  0  0
 15 14  1  0  0  0  0
 17 19  1  1  0  0  0
 17 28  1  0  0  0  0
 18 34  1  0  0  0  0
 19 32  1  0  0  0  0
 20 18  1  6  0  0  0
 20 17  1  0  0  0  0
 20 43  1  0  0  0  0
 21 12  1  0  0  0  0
 22 21  1  0  0  0  0
 22 23  1  0  0  0  0
 23 24  1  6  0  0  0
 23 46  1  0  0  0  0
 24 33  1  0  0  0  0
 25 34  1  1  0  0  0
 25  4  1  0  0  0  0
 26 25  1  0  0  0  0
 27 35  1  6  0  0  0
 27 26  1  0  0  0  0
 27  2  1  0  0  0  0
 29 16  1  0  0  0  0
 40  8  1  0  0  0  0
 40  5  1  0  0  0  0
 41  9  1  0  0  0  0
 44 18  2  0  0  0  0
 45 15  1  0  0  0  0
 45 10  1  0  0  0  0
 46  1  1  0  0  0  0
M  END
>  <CHROM.1>
-164.02013942,147.75784670,150.72348764,-22.13183558,95.21133947,-60.66670195
76.11058807,-140.08087486,62.99828337,-102.90312500,169.72039263,73.74622498
121.49730519,-11.72560997,-0.14412791,17.17404255,-1.13609822,-0.87222271
-2.69615386

>  <Name>
lig.pdb

>  <RI>
0

>  <Rbt.Current_Directory>
/home/afrankz/demos/rdock_decoys_rna/rnas/3wru

>  <Rbt.Executable>
rbdock ($Id: //depot/dev/client3/rdock/2013.1/src/exe/rbdock.cxx#4 $)

>  <Rbt.Library>
libRbt.so (2013.1, Build901 2013/11/27)

>  <Rbt.Parameter_File>
/export/apps/rDock/src/rDock_2013.1_src/data/scripts/dock_solv.prm

>  <Rbt.Receptor>
prm/blind_docking_40.prm

>  <SCORE>
17.4571

>  <SCORE.INTER>
2.21535

>  <SCORE.INTER.CONST>
1

>  <SCORE.INTER.POLAR>
0

>  <SCORE.INTER.ROT>
13

>  <SCORE.INTER.SOLV>
25.2855

>  <SCORE.INTER.VDW>
-19.2183

>  <SCORE.INTER.norm>
0.0481598

>  <SCORE.INTRA>
12.5896

>  <SCORE.INTRA.DIHEDRAL>
8.19025

>  <SCORE.INTRA.DIHEDRAL.0>
19.7146

>  <SCORE.INTRA.POLAR>
0

>  <SCORE.INTRA.POLAR.0>
0

>  <SCORE.INTRA.REPUL>
0

>  <SCORE.INTRA.REPUL.0>
0

>  <SCORE.INTRA.SOLV>
7.72665

>  <SCORE.INTRA.SOLV.lig_0>
-116.697

>  <SCORE.INTRA.VDW>
4.63113

>  <SCORE.INTRA.VDW.0>
-7.06424

>  <SCORE.INTRA.norm>
0.273686

>  <SCORE.RESTR>
2.65216

>  <SCORE.RESTR.CAVITY>
2.65216

>  <SCORE.RESTR.norm>
0.0576556

>  <SCORE.SYSTEM>
0

>  <SCORE.SYSTEM.CONST>
0

>  <SCORE.SYSTEM.DIHEDRAL>
0

>  <SCORE.SYSTEM.SOLV>
0

>  <SCORE.SYSTEM.norm>
0

>  <SCORE.heavy>
46

>  <SCORE.norm>
0.379502

>  <RMSD>
30.677

$$$$
lig.pdb
 OpenBabel03061811583D
libRbt.so/2013.1/901 2013/11/27
 46 49  0  0  0  0  0  0  0  0999 V2000
  -11.6860   -2.4957   17.4060 C   0  0  1  0  0  0  0  0  0  0  0  0
  -11.2125   -0.6951   15.6909 C   0  0  1  0  0  0  0  0  0  0  0  0
  -10.4320    0.2475   16.6563 C   0  0  1  0  0  0  0  0  0  0  0  0
   -9.4177    1.1556   15.7906 C   0  0  2  0  0  0  0  0  0  0  0  0
  -11.3023    2.2576   17.9369 C   0  0  2  0  0  0  0  0  0  0  0  0
  -12.3974    2.5612   18.9987 C   0  0  1  0  0  0  0  0  0  0  0  0
  -11.6066    3.5330   19.8408 C   0  0  1  0  0  0  0  0  0  0  0  0
  -10.2112    2.8559   20.0235 C   0  0  1  0  0  0  0  0  0  0  0  0
  -10.0921    1.7708   21.1505 C   0  0  0  0  0  0  0  0  0  0  0  0
  -12.6080    5.6595   19.0932 C   0  0  1  0  0  0  0  0  0  0  0  0
  -13.2537    5.8033   17.7473 C   0  0  1  0  0  0  0  0  0  0  0  0
  -12.7498   -3.6071   17.5677 C   0  0  1  0  0  0  0  0  0  0  0  0
  -14.4691    6.7878   17.8807 C   0  0  0  0  0  0  0  0  0  0  0  0
  -14.1268    8.1077   18.3271 C   0  0  0  0  0  0  0  0  0  0  0  0
  -13.5313    8.0125   19.6429 C   0  0  2  0  0  0  0  0  0  0  0  0
  -13.1235    9.4389   20.1852 C   0  0  0  0  0  0  0  0  0  0  0  0
   -5.6794    2.4672   13.3588 C   0  0  2  0  0  0  0  0  0  0  0  0
   -7.9593    1.8791   13.2643 C   0  0  0  0  0  0  0  0  0  0  0  0
   -4.7322    1.7030   12.7038 C   0  0  0  0  0  0  0  0  0  0  0  0
   -6.7448    2.6408   12.5377 C   0  0  1  0  0  0  0  0  0  0  0  0
  -14.0995   -3.0228   18.1879 C   0  0  0  0  0  0  0  0  0  0  0  0
  -13.7523   -2.3548   19.6041 C   0  0  0  0  0  0  0  0  0  0  0  0
  -12.6744   -1.2012   19.3527 C   0  0  1  0  0  0  0  0  0  0  0  0
  -12.2660   -0.5057   20.6569 C   0  0  0  0  0  0  0  0  0  0  0  0
   -8.3735    0.1883   15.0802 C   0  0  1  0  0  0  0  0  0  0  0  0
   -9.2366   -0.7464   14.0765 C   0  0  0  0  0  0  0  0  0  0  0  0
  -10.2566   -1.6230   14.9007 C   0  0  2  0  0  0  0  0  0  0  0  0
   -5.0834    3.7130   13.7860 F   0  0  0  0  0  0  0  0  0  0  0  0
  -14.3346   10.4033   20.3377 N   0  0  0  0  0  0  0  0  0  0  0  0
  -12.9722   -4.2450   16.2175 N   0  0  0  0  0  0  0  0  0  0  0  0
  -12.4257    6.3671   16.7726 N   0  0  0  0  0  0  0  0  0  0  0  0
   -4.6964    0.3241   12.3895 N   0  0  0  0  0  0  0  0  0  0  0  0
  -13.3648    0.1563   21.2445 N   0  0  0  0  0  0  0  0  0  0  0  0
   -7.4176    0.9819   14.2871 N   0  0  0  0  0  0  0  0  0  0  0  0
  -11.0611   -2.4731   13.9956 N   0  0  0  0  0  0  0  0  0  0  0  0
  -12.0894   -1.5411   16.4235 O   0  0  0  0  0  0  0  0  0  0  0  0
  -11.4562    1.0896   17.3598 O   0  0  0  0  0  0  0  0  0  0  0  0
   -8.7414    1.9772   16.6645 O   0  0  0  0  0  0  0  0  0  0  0  0
  -13.4927    3.1298   18.3475 O   0  0  0  0  0  0  0  0  0  0  0  0
  -10.0332    2.4479   18.6569 O   0  0  0  0  0  0  0  0  0  0  0  0
   -8.6904    1.4809   21.3218 O   0  0  0  0  0  0  0  0  0  0  0  0
  -11.4907    4.8531   19.1005 O   0  0  0  0  0  0  0  0  0  0  0  0
   -7.0885    4.0302   12.3440 O   0  0  0  0  0  0  0  0  0  0  0  0
   -9.1603    2.0497   12.9977 O   0  0  0  0  0  0  0  0  0  0  0  0
  -12.3337    7.0924   19.6122 O   0  0  0  0  0  0  0  0  0  0  0  0
  -11.4309   -1.7907   18.7075 O   0  0  0  0  0  0  0  0  0  0  0  0
  1 36  1  6  0  0  0
  2 36  1  1  0  0  0
  2  3  1  0  0  0  0
  3 37  1  6  0  0  0
  3  4  1  0  0  0  0
  4 38  1  1  0  0  0
  5 37  1  1  0  0  0
  5  6  1  0  0  0  0
  6  7  1  0  0  0  0
  6 39  1  6  0  0  0
  7 42  1  6  0  0  0
  8  9  1  1  0  0  0
  8  7  1  0  0  0  0
 10 42  1  6  0  0  0
 10 11  1  0  0  0  0
 11 31  1  6  0  0  0
 11 13  1  0  0  0  0
 12 30  1  6  0  0  0
 12  1  1  0  0  0  0
 14 13  1  0  0  0  0
 15 16  1  6  0  0  0
 15 14  1  0  0  0  0
 17 19  1  6  0  0  0
 17 28  1  0  0  0  0
 18 34  1  0  0  0  0
 19 32  1  0  0  0  0
 20 18  1  1  0  0  0
 20 17  1  0  0  0  0
 20 43  1  0  0  0  0
 21 12  1  0  0  0  0
 22 21  1  0  0  0  0
 22 23  1  0  0  0  0
 23 24  1  1  0  0  0
 23 46  1  0  0  0  0
 24 33  1  0  0  0  0
 25 34  1  6  0  0  0
 25  4  1  0  0  0  0
 26 25  1  0  0  0  0
 27 35  1  6  0  0  0
 27 26  1  0  0  0  0
 27  2  1  0  0  0  0
 29 16  1  0  0  0  0
 40  8  1  0  0  0  0
 40  5  1  0  0  0  0
 41  9  1  0  0  0  0
 44 18  2  0  0  0  0
 45 15  1  0  0  0  0
 45 10  1  0  0  0  0
 46  1  1  0  0  0  0
M  END
>  <CHROM.1>
-156.47283437,-61.45199484,-157.35914463,-157.87195594,76.40959100,-168.73347993
-111.90445996,61.26028253,-73.37896758,-16.22709463,115.01057392,-63.51126963
-56.36794354,-10.72494626,2.00725531,17.13070195,0.80383772,-0.77089206,-3.05868780

>  <Name>
lig.pdb

>  <RI>
0

>  <Rbt.Current_Directory>
/home/afrankz/demos/rdock_decoys_rna/rnas/3wru

>  <Rbt.Executable>
rbdock ($Id: //depot/dev/client3/rdock/2013.1/src/exe/rbdock.cxx#4 $)

>  <Rbt.Library>
libRbt.so (2013.1, Build901 2013/11/27)

>  <Rbt.Parameter_File>
/export/apps/rDock/src/rDock_2013.1_src/data/scripts/dock_solv.prm

>  <Rbt.Receptor>
prm/blind_docking_100.prm

>  <SCORE>
12.403

>  <SCORE.INTER>
1.68731

>  <SCORE.INTER.CONST>
1

>  <SCORE.INTER.POLAR>
0

>  <SCORE.INTER.ROT>
13

>  <SCORE.INTER.SOLV>
30.3857

>  <SCORE.INTER.VDW>
-21.2704

>  <SCORE.INTER.norm>
0.0366807

>  <SCORE.INTRA>
8.5433

>  <SCORE.INTRA.DIHEDRAL>
3.18633

>  <SCORE.INTRA.DIHEDRAL.0>
19.7146

>  <SCORE.INTRA.POLAR>
0

>  <SCORE.INTRA.POLAR.0>
0

>  <SCORE.INTRA.REPUL>
0

>  <SCORE.INTRA.REPUL.0>
0

>  <SCORE.INTRA.SOLV>
3.68073

>  <SCORE.INTRA.SOLV.lig_0>
-116.697

>  <SCORE.INTRA.VDW>
5.10976

>  <SCORE.INTRA.VDW.0>
-7.06424

>  <SCORE.INTRA.norm>
0.185724

>  <SCORE.RESTR>
2.17241

>  <SCORE.RESTR.CAVITY>
2.17241

>  <SCORE.RESTR.norm>
0.0472263

>  <SCORE.SYSTEM>
0

>  <SCORE.SYSTEM.CONST>
0

>  <SCORE.SYSTEM.DIHEDRAL>
0

>  <SCORE.SYSTEM.SOLV>
0

>  <SCORE.SYSTEM.norm>
0

>  <SCORE.heavy>
46

>  <SCORE.norm>
0.269631

>  <RMSD>
30.682

$$$$
lig.pdb
 OpenBabel03061811583D
libRbt.so/2013.1/901 2013/11/27
 46 49  0  0  0  0  0  0  0  0999 V2000
  -14.2494    4.8402   16.8129 C   0  0  1  0  0  0  0  0  0  0  0  0
  -12.3444    3.8841   18.1784 C   0  0  1  0  0  0  0  0  0  0  0  0
  -10.7871    3.9507   18.1624 C   0  0  1  0  0  0  0  0  0  0  0  0
  -10.2104    2.9157   19.2574 C   0  0  2  0  0  0  0  0  0  0  0  0
  -10.3324    2.3932   16.2117 C   0  0  2  0  0  0  0  0  0  0  0  0
  -10.5678    2.4451   14.6753 C   0  0  1  0  0  0  0  0  0  0  0  0
   -9.8669    1.1578   14.3140 C   0  0  1  0  0  0  0  0  0  0  0  0
   -8.5250    1.1991   15.1119 C   0  0  1  0  0  0  0  0  0  0  0  0
   -7.3500    2.0250   14.4802 C   0  0  0  0  0  0  0  0  0  0  0  0
  -10.5738   -1.1886   14.0344 C   0  0  1  0  0  0  0  0  0  0  0  0
  -10.8146   -2.4290   14.8422 C   0  0  1  0  0  0  0  0  0  0  0  0
  -14.3452    5.2894   15.3356 C   0  0  1  0  0  0  0  0  0  0  0  0
  -10.5452   -3.6776   13.9297 C   0  0  0  0  0  0  0  0  0  0  0  0
   -9.2105   -3.7654   13.4105 C   0  0  0  0  0  0  0  0  0  0  0  0
   -8.9530   -2.5987   12.5935 C   0  0  2  0  0  0  0  0  0  0  0  0
   -7.4899   -2.6343   11.9993 C   0  0  0  0  0  0  0  0  0  0  0  0
   -7.7927    2.3441   24.4130 C   0  0  2  0  0  0  0  0  0  0  0  0
   -9.0072    2.8798   22.4660 C   0  0  0  0  0  0  0  0  0  0  0  0
   -7.9550    1.7638   25.6568 C   0  0  0  0  0  0  0  0  0  0  0  0
   -8.6329    1.7405   23.5361 C   0  0  1  0  0  0  0  0  0  0  0  0
  -13.8995    6.8131   15.1699 C   0  0  0  0  0  0  0  0  0  0  0  0
  -14.8418    7.7153   16.1029 C   0  0  0  0  0  0  0  0  0  0  0  0
  -14.6666    7.2133   17.6106 C   0  0  1  0  0  0  0  0  0  0  0  0
  -15.5421    8.0112   18.5845 C   0  0  0  0  0  0  0  0  0  0  0  0
  -10.7182    3.3809   20.6914 C   0  0  1  0  0  0  0  0  0  0  0  0
  -12.3343    3.2682   20.6549 C   0  0  0  0  0  0  0  0  0  0  0  0
  -12.9183    4.2521   19.5691 C   0  0  2  0  0  0  0  0  0  0  0  0
   -6.4045    2.2600   24.0184 F   0  0  0  0  0  0  0  0  0  0  0  0
   -6.3869   -2.4560   13.0818 N   0  0  0  0  0  0  0  0  0  0  0  0
  -13.5000    4.3546   14.5044 N   0  0  0  0  0  0  0  0  0  0  0  0
   -9.9554   -2.5763   15.9347 N   0  0  0  0  0  0  0  0  0  0  0  0
   -7.6838    2.2480   26.9580 N   0  0  0  0  0  0  0  0  0  0  0  0
  -15.2112    7.7145   19.9238 N   0  0  0  0  0  0  0  0  0  0  0  0
  -10.2008    2.4664   21.7250 N   0  0  0  0  0  0  0  0  0  0  0  0
  -14.3935    4.1507   19.5157 N   0  0  0  0  0  0  0  0  0  0  0  0
  -12.8909    4.8141   17.2522 O   0  0  0  0  0  0  0  0  0  0  0  0
  -10.3529    3.5779   16.7748 O   0  0  0  0  0  0  0  0  0  0  0  0
   -8.8360    2.9936   19.2241 O   0  0  0  0  0  0  0  0  0  0  0  0
  -11.9437    2.4308   14.4427 O   0  0  0  0  0  0  0  0  0  0  0  0
   -9.0777    1.6396   16.3634 O   0  0  0  0  0  0  0  0  0  0  0  0
   -7.1391    1.5213   13.1460 O   0  0  0  0  0  0  0  0  0  0  0  0
  -10.7305   -0.0156   14.7402 O   0  0  0  0  0  0  0  0  0  0  0  0
   -8.0302    0.6162   22.8585 O   0  0  0  0  0  0  0  0  0  0  0  0
   -8.3809    3.9420   22.3172 O   0  0  0  0  0  0  0  0  0  0  0  0
   -9.1711   -1.3373   13.3955 O   0  0  0  0  0  0  0  0  0  0  0  0
  -15.0441    5.7445   17.7110 O   0  0  0  0  0  0  0  0  0  0  0  0
  1 36  1  1  0  0  0
  2 36  1  6  0  0  0
  2  3  1  0  0  0  0
  3 37  1  6  0  0  0
  3  4  1  0  0  0  0
  4 38  1  1  0  0  0
  5 37  1  6  0  0  0
  5  6  1  0  0  0  0
  6  7  1  0  0  0  0
  6 39  1  1  0  0  0
  7 42  1  1  0  0  0
  8  9  1  6  0  0  0
  8  7  1  0  0  0  0
 10 42  1  1  0  0  0
 10 11  1  0  0  0  0
 11 31  1  1  0  0  0
 11 13  1  0  0  0  0
 12 30  1  6  0  0  0
 12  1  1  0  0  0  0
 14 13  1  0  0  0  0
 15 16  1  1  0  0  0
 15 14  1  0  0  0  0
 17 19  1  1  0  0  0
 17 28  1  0  0  0  0
 18 34  1  0  0  0  0
 19 32  1  0  0  0  0
 20 18  1  6  0  0  0
 20 17  1  0  0  0  0
 20 43  1  0  0  0  0
 21 12  1  0  0  0  0
 22 21  1  0  0  0  0
 22 23  1  0  0  0  0
 23 24  1  1  0  0  0
 23 46  1  0  0  0  0
 24 33  1  0  0  0  0
 25 34  1  1  0  0  0
 25  4  1  0  0  0  0
 26 25  1  0  0  0  0
 27 35  1  6  0  0  0
 27 26  1  0  0  0  0
 27  2  1  0  0  0  0
 29 16  1  0  0  0  0
 40  8  1  0  0  0  0
 40  5  1  0  0  0  0
 41  9  1  0  0  0  0
 44 18  2  0  0  0  0
 45 15  1  0  0  0  0
 45 10  1  0  0  0  0
 46  1  1  0  0  0  0
M  END
>  <CHROM.1>
-145.62316195,166.84271599,-74.57768519,149.14460931,153.30835091,-54.77987780
148.89710190,-68.47036496,-156.84520887,-163.02469706,149.27034771,-170.02130232
98.33913916,-10.59576629,2.32897649,17.66826119,1.81816280,-0.79802549,1.17101426

>  <Name>
lig.pdb

>  <RI>
0

>  <Rbt.Current_Directory>
/home/afrankz/demos/rdock_decoys_rna/rnas/3wru

>  <Rbt.Executable>
rbdock ($Id: //depot/dev/client3/rdock/2013.1/src/exe/rbdock.cxx#4 $)

>  <Rbt.Library>
libRbt.so (2013.1, Build901 2013/11/27)

>  <Rbt.Parameter_File>
/export/apps/rDock/src/rDock_2013.1_src/data/scripts/dock_solv.prm

>  <Rbt.Receptor>
prm/blind_docking_80.prm

>  <SCORE>
30.3401

>  <SCORE.INTER>
14.9391

>  <SCORE.INTER.CONST>
1

>  <SCORE.INTER.POLAR>
0

>  <SCORE.INTER.ROT>
13

>  <SCORE.INTER.SOLV>
29.7938

>  <SCORE.INTER.VDW>
-12.2386

>  <SCORE.INTER.norm>
0.324763

>  <SCORE.INTRA>
7.30965

>  <SCORE.INTRA.DIHEDRAL>
3.97753

>  <SCORE.INTRA.DIHEDRAL.0>
19.7146

>  <SCORE.INTRA.POLAR>
0

>  <SCORE.INTRA.POLAR.0>
0

>  <SCORE.INTRA.REPUL>
0.230312

>  <SCORE.INTRA.REPUL.0>
0

>  <SCORE.INTRA.SOLV>
4.05121

>  <SCORE.INTRA.SOLV.lig_0>
-116.697

>  <SCORE.INTRA.VDW>
2.14372

>  <SCORE.INTRA.VDW.0>
-7.06424

>  <SCORE.INTRA.norm>
0.158905

>  <SCORE.RESTR>
8.09139

>  <SCORE.RESTR.CAVITY>
8.09139

>  <SCORE.RESTR.norm>
0.1759

>  <SCORE.SYSTEM>
0

>  <SCORE.SYSTEM.CONST>
0

>  <SCORE.SYSTEM.DIHEDRAL>
0

>  <SCORE.SYSTEM.SOLV>
0

>  <SCORE.SYSTEM.norm>
0

>  <SCORE.heavy>
46

>  <SCORE.norm>
0.659568

>  <RMSD>
30.750

$$$$
lig.pdb
 OpenBabel03061811583D
libRbt.so/2013.1/901 2013/11/27
 46 49  0  0  0  0  0  0  0  0999 V2000
   -8.9727    1.7659   20.0408 C   0  0  1  0  0  0  0  0  0  0  0  0
  -10.6346    3.1313   18.7061 C   0  0  1  0  0  0  0  0  0  0  0  0
  -11.2376    2.1956   17.6150 C   0  0  1  0  0  0  0  0  0  0  0  0
  -11.7039    3.0937   16.3585 C   0  0  2  0  0  0  0  0  0  0  0  0
  -10.0826    0.4621   16.1662 C   0  0  2  0  0  0  0  0  0  0  0  0
   -8.7409   -0.3185   16.0705 C   0  0  1  0  0  0  0  0  0  0  0  0
   -9.2314   -1.4729   15.2305 C   0  0  1  0  0  0  0  0  0  0  0  0
  -10.5803   -1.9000   15.8918 C   0  0  1  0  0  0  0  0  0  0  0  0
  -10.4890   -2.8405   17.1443 C   0  0  0  0  0  0  0  0  0  0  0  0
   -9.8398   -1.9448   12.8872 C   0  0  1  0  0  0  0  0  0  0  0  0
   -8.8460   -3.0458   12.6657 C   0  0  1  0  0  0  0  0  0  0  0  0
   -8.9856    0.8356   21.2768 C   0  0  1  0  0  0  0  0  0  0  0  0
   -9.4095   -4.0108   11.5632 C   0  0  0  0  0  0  0  0  0  0  0  0
   -9.6464   -3.3944   10.2894 C   0  0  0  0  0  0  0  0  0  0  0  0
  -10.6305   -2.3463   10.4572 C   0  0  2  0  0  0  0  0  0  0  0  0
  -10.9270   -1.6221    9.0852 C   0  0  0  0  0  0  0  0  0  0  0  0
  -15.1254    5.7670   13.8039 C   0  0  2  0  0  0  0  0  0  0  0  0
  -14.3197    5.9386   16.0117 C   0  0  0  0  0  0  0  0  0  0  0  0
  -16.5048    5.8390   13.7589 C   0  0  0  0  0  0  0  0  0  0  0  0
  -14.6654    6.7210   14.6510 C   0  0  1  0  0  0  0  0  0  0  0  0
   -9.1729    1.6733   22.6226 C   0  0  0  0  0  0  0  0  0  0  0  0
   -7.9768    2.7371   22.7215 C   0  0  0  0  0  0  0  0  0  0  0  0
   -8.0468    3.6774   21.4304 C   0  0  1  0  0  0  0  0  0  0  0  0
   -6.9291    4.7272   21.4260 C   0  0  0  0  0  0  0  0  0  0  0  0
  -12.8445    4.0845   16.8566 C   0  0  1  0  0  0  0  0  0  0  0  0
  -12.1550    5.0429   17.9665 C   0  0  0  0  0  0  0  0  0  0  0  0
  -11.6649    4.1804   19.1928 C   0  0  2  0  0  0  0  0  0  0  0  0
  -14.5915    5.8907   12.4663 F   0  0  0  0  0  0  0  0  0  0  0  0
  -11.8240   -2.4632    8.1323 N   0  0  0  0  0  0  0  0  0  0  0  0
  -10.0800   -0.1864   21.0844 N   0  0  0  0  0  0  0  0  0  0  0  0
   -7.6092   -2.6114   12.1808 N   0  0  0  0  0  0  0  0  0  0  0  0
  -17.4896    5.5437   14.7306 N   0  0  0  0  0  0  0  0  0  0  0  0
   -7.1926    5.7527   22.3587 N   0  0  0  0  0  0  0  0  0  0  0  0
  -13.3089    4.9165   15.7321 N   0  0  0  0  0  0  0  0  0  0  0  0
  -11.0212    5.0414   20.2096 N   0  0  0  0  0  0  0  0  0  0  0  0
  -10.2483    2.3781   19.8484 O   0  0  0  0  0  0  0  0  0  0  0  0
  -10.1552    1.2310   17.2267 O   0  0  0  0  0  0  0  0  0  0  0  0
  -12.2323    2.2458   15.4109 O   0  0  0  0  0  0  0  0  0  0  0  0
   -7.8054    0.4960   15.4312 O   0  0  0  0  0  0  0  0  0  0  0  0
  -11.1182   -0.5783   16.0641 O   0  0  0  0  0  0  0  0  0  0  0  0
  -11.5165   -3.8420   17.0058 O   0  0  0  0  0  0  0  0  0  0  0  0
   -9.4384   -0.9974   13.8038 O   0  0  0  0  0  0  0  0  0  0  0  0
  -13.4826    7.3895   14.1607 O   0  0  0  0  0  0  0  0  0  0  0  0
  -14.8278    6.1866   17.1176 O   0  0  0  0  0  0  0  0  0  0  0  0
  -10.1665   -1.3513   11.4948 O   0  0  0  0  0  0  0  0  0  0  0  0
   -7.9245    2.8336   20.1722 O   0  0  0  0  0  0  0  0  0  0  0  0
  1 36  1  1  0  0  0
  2 36  1  1  0  0  0
  2  3  1  0  0  0  0
  3 37  1  6  0  0  0
  3  4  1  0  0  0  0
  4 38  1  6  0  0  0
  5 37  1  1  0  0  0
  5  6  1  0  0  0  0
  6  7  1  0  0  0  0
  6 39  1  6  0  0  0
  7 42  1  6  0  0  0
  8  9  1  1  0  0  0
  8  7  1  0  0  0  0
 10 42  1  1  0  0  0
 10 11  1  0  0  0  0
 11 31  1  6  0  0  0
 11 13  1  0  0  0  0
 12 30  1  6  0  0  0
 12  1  1  0  0  0  0
 14 13  1  0  0  0  0
 15 16  1  6  0  0  0
 15 14  1  0  0  0  0
 17 19  1  6  0  0  0
 17 28  1  0  0  0  0
 18 34  1  0  0  0  0
 19 32  1  0  0  0  0
 20 18  1  1  0  0  0
 20 17  1  0  0  0  0
 20 43  1  0  0  0  0
 21 12  1  0  0  0  0
 22 21  1  0  0  0  0
 22 23  1  0  0  0  0
 23 24  1  1  0  0  0
 23 46  1  0  0  0  0
 24 33  1  0  0  0  0
 25 34  1  6  0  0  0
 25  4  1  0  0  0  0
 26 25  1  0  0  0  0
 27 35  1  1  0  0  0
 27 26  1  0  0  0  0
 27  2  1  0  0  0  0
 29 16  1  0  0  0  0
 40  8  1  0  0  0  0
 40  5  1  0  0  0  0
 41  9  1  0  0  0  0
 44 18  2  0  0  0  0
 45 15  1  0  0  0  0
 45 10  1  0  0  0  0
 46  1  1  0  0  0  0
M  END
>  <CHROM.1>
-170.42172821,88.54236294,-163.45723315,175.54349143,177.64323784,-137.73491675
-63.32541963,75.74834830,-68.58012886,59.68135327,101.61472270,-74.43634296
-177.21152418,-10.91977038,1.68774117,16.19307895,-1.62270133,0.85160124
-2.21630300

>  <Name>
lig.pdb

>  <RI>
0

>  <Rbt.Current_Directory>
/home/afrankz/demos/rdock_decoys_rna/rnas/3wru

>  <Rbt.Executable>
rbdock ($Id: //depot/dev/client3/rdock/2013.1/src/exe/rbdock.cxx#4 $)

>  <Rbt.Library>
libRbt.so (2013.1, Build901 2013/11/27)

>  <Rbt.Parameter_File>
/export/apps/rDock/src/rDock_2013.1_src/data/scripts/dock_solv.prm

>  <Rbt.Receptor>
prm/blind_docking_80.prm

>  <SCORE>
13.6441

>  <SCORE.INTER>
8.26821

>  <SCORE.INTER.CONST>
1

>  <SCORE.INTER.POLAR>
0

>  <SCORE.INTER.ROT>
13

>  <SCORE.INTER.SOLV>
36.5031

>  <SCORE.INTER.VDW>
-18.9222

>  <SCORE.INTER.norm>
0.179744

>  <SCORE.INTRA>
-0.563186

>  <SCORE.INTRA.DIHEDRAL>
-3.90505

>  <SCORE.INTRA.DIHEDRAL.0>
19.7146

>  <SCORE.INTRA.POLAR>
0

>  <SCORE.INTRA.POLAR.0>
0

>  <SCORE.INTRA.REPUL>
0

>  <SCORE.INTRA.REPUL.0>
0

>  <SCORE.INTRA.SOLV>
-1.66018

>  <SCORE.INTRA.SOLV.lig_0>
-116.697

>  <SCORE.INTRA.VDW>
2.21943

>  <SCORE.INTRA.VDW.0>
-7.06424

>  <SCORE.INTRA.norm>
-0.0122432

>  <SCORE.RESTR>
5.93905

>  <SCORE.RESTR.CAVITY>
5.93905

>  <SCORE.RESTR.norm>
0.12911

>  <SCORE.SYSTEM>
0

>  <SCORE.SYSTEM.CONST>
0

>  <SCORE.SYSTEM.DIHEDRAL>
0

>  <SCORE.SYSTEM.SOLV>
0

>  <SCORE.SYSTEM.norm>
0

>  <SCORE.heavy>
46

>  <SCORE.norm>
0.29661

>  <RMSD>
30.802

$$$$
lig.pdb
 OpenBabel03061811583D
libRbt.so/2013.1/901 2013/11/27
 46 49  0  0  0  0  0  0  0  0999 V2000
  -11.2335   -0.9085   19.2852 C   0  0  1  0  0  0  0  0  0  0  0  0
  -11.2890   -0.2092   16.8530 C   0  0  1  0  0  0  0  0  0  0  0  0
   -9.8453    0.3667   16.7354 C   0  0  1  0  0  0  0  0  0  0  0  0
   -9.3505    0.2236   15.2064 C   0  0  2  0  0  0  0  0  0  0  0  0
  -10.8790    2.4252   17.7992 C   0  0  2  0  0  0  0  0  0  0  0  0
  -10.5972    3.9411   18.0024 C   0  0  1  0  0  0  0  0  0  0  0  0
  -12.0287    4.4034   18.1299 C   0  0  1  0  0  0  0  0  0  0  0  0
  -12.7832    3.6839   16.9671 C   0  0  1  0  0  0  0  0  0  0  0  0
  -12.6890    4.3428   15.5463 C   0  0  0  0  0  0  0  0  0  0  0  0
  -13.7049    4.6267   19.9255 C   0  0  1  0  0  0  0  0  0  0  0  0
  -13.5989    6.1225   19.9400 C   0  0  1  0  0  0  0  0  0  0  0  0
  -12.3754   -1.3725   20.2200 C   0  0  1  0  0  0  0  0  0  0  0  0
  -14.9363    6.7109   20.5140 C   0  0  0  0  0  0  0  0  0  0  0  0
  -15.2489    6.2976   21.8519 C   0  0  0  0  0  0  0  0  0  0  0  0
  -15.3945    4.8576   21.8705 C   0  0  2  0  0  0  0  0  0  0  0  0
  -15.7313    4.3405   23.3245 C   0  0  0  0  0  0  0  0  0  0  0  0
   -9.3238   -3.4802   10.6207 C   0  0  2  0  0  0  0  0  0  0  0  0
   -8.9718   -2.8310   12.8585 C   0  0  0  0  0  0  0  0  0  0  0  0
   -9.2251   -3.0898    9.2986 C   0  0  0  0  0  0  0  0  0  0  0  0
   -8.4172   -2.7840   11.3507 C   0  0  1  0  0  0  0  0  0  0  0  0
  -13.0475   -0.1305   20.9640 C   0  0  0  0  0  0  0  0  0  0  0  0
  -11.9071    0.6345   21.7925 C   0  0  0  0  0  0  0  0  0  0  0  0
  -10.7824    1.1077   20.7596 C   0  0  1  0  0  0  0  0  0  0  0  0
   -9.6344    1.8433   21.4612 C   0  0  0  0  0  0  0  0  0  0  0  0
   -9.3042   -1.3251   14.8459 C   0  0  1  0  0  0  0  0  0  0  0  0
  -10.8295   -1.8599   14.9618 C   0  0  0  0  0  0  0  0  0  0  0  0
  -11.3442   -1.7021   16.4444 C   0  0  2  0  0  0  0  0  0  0  0  0
   -9.1496   -4.9120   10.7157 F   0  0  0  0  0  0  0  0  0  0  0  0
  -15.4481    2.8225   23.5134 N   0  0  0  0  0  0  0  0  0  0  0  0
  -13.3720   -2.1500   19.3944 N   0  0  0  0  0  0  0  0  0  0  0  0
  -12.5899    6.6168   20.7713 N   0  0  0  0  0  0  0  0  0  0  0  0
  -10.1464   -3.1696    8.2280 N   0  0  0  0  0  0  0  0  0  0  0  0
   -8.5774    2.1068   20.5643 N   0  0  0  0  0  0  0  0  0  0  0  0
   -8.8428   -1.5007   13.4571 N   0  0  0  0  0  0  0  0  0  0  0  0
  -12.7412   -2.1752   16.5627 N   0  0  0  0  0  0  0  0  0  0  0  0
  -11.7447   -0.1369   18.1978 O   0  0  0  0  0  0  0  0  0  0  0  0
   -9.9188    1.8061   17.1544 O   0  0  0  0  0  0  0  0  0  0  0  0
   -8.0754    0.7377   15.1291 O   0  0  0  0  0  0  0  0  0  0  0  0
   -9.8422    4.0938   19.1659 O   0  0  0  0  0  0  0  0  0  0  0  0
  -12.2035    2.3828   17.1596 O   0  0  0  0  0  0  0  0  0  0  0  0
  -13.1625    5.6989   15.6690 O   0  0  0  0  0  0  0  0  0  0  0  0
  -12.5682    3.9840   19.4854 O   0  0  0  0  0  0  0  0  0  0  0  0
   -7.0923   -3.3573   11.3019 O   0  0  0  0  0  0  0  0  0  0  0  0
   -9.4452   -3.8404   13.4057 O   0  0  0  0  0  0  0  0  0  0  0  0
  -14.1412    4.1961   21.3475 O   0  0  0  0  0  0  0  0  0  0  0  0
  -10.2122   -0.0985   20.0315 O   0  0  0  0  0  0  0  0  0  0  0  0
  1 36  1  6  0  0  0
  2 36  1  1  0  0  0
  2  3  1  0  0  0  0
  3 37  1  6  0  0  0
  3  4  1  0  0  0  0
  4 38  1  1  0  0  0
  5 37  1  6  0  0  0
  5  6  1  0  0  0  0
  6  7  1  0  0  0  0
  6 39  1  1  0  0  0
  7 42  1  1  0  0  0
  8  9  1  6  0  0  0
  8  7  1  0  0  0  0
 10 42  1  1  0  0  0
 10 11  1  0  0  0  0
 11 31  1  1  0  0  0
 11 13  1  0  0  0  0
 12 30  1  6  0  0  0
 12  1  1  0  0  0  0
 14 13  1  0  0  0  0
 15 16  1  1  0  0  0
 15 14  1  0  0  0  0
 17 19  1  6  0  0  0
 17 28  1  0  0  0  0
 18 34  1  0  0  0  0
 19 32  1  0  0  0  0
 20 18  1  1  0  0  0
 20 17  1  0  0  0  0
 20 43  1  0  0  0  0
 21 12  1  0  0  0  0
 22 21  1  0  0  0  0
 22 23  1  0  0  0  0
 23 24  1  1  0  0  0
 23 46  1  0  0  0  0
 24 33  1  0  0  0  0
 25 34  1  6  0  0  0
 25  4  1  0  0  0  0
 26 25  1  0  0  0  0
 27 35  1  6  0  0  0
 27 26  1  0  0  0  0
 27  2  1  0  0  0  0
 29 16  1  0  0  0  0
 40  8  1  0  0  0  0
 40  5  1  0  0  0  0
 41  9  1  0  0  0  0
 44 18  2  0  0  0  0
 45 15  1  0  0  0  0
 45 10  1  0  0  0  0
 46  1  1  0  0  0  0
M  END
>  <CHROM.1>
-140.27175489,-68.79732646,15.26433910,-177.96388394,162.44947964,-56.27151196
-54.22255179,-161.28975731,-158.04940435,-136.34447860,157.83938987,172.73114537
-168.78020711,-11.35749386,1.04762863,17.31952504,-3.03553710,1.20591593
-0.78804563

>  <Name>
lig.pdb

>  <RI>
0

>  <Rbt.Current_Directory>
/home/afrankz/demos/rdock_decoys_rna/rnas/3wru

>  <Rbt.Executable>
rbdock ($Id: //depot/dev/client3/rdock/2013.1/src/exe/rbdock.cxx#4 $)

>  <Rbt.Library>
libRbt.so (2013.1, Build901 2013/11/27)

>  <Rbt.Parameter_File>
/export/apps/rDock/src/rDock_2013.1_src/data/scripts/dock_solv.prm

>  <Rbt.Receptor>
prm/blind_docking_100.prm

>  <SCORE>
8.01041

>  <SCORE.INTER>
1.67757

>  <SCORE.INTER.CONST>
1

>  <SCORE.INTER.POLAR>
0

>  <SCORE.INTER.ROT>
13

>  <SCORE.INTER.SOLV>
31.2225

>  <SCORE.INTER.VDW>
-21.5558

>  <SCORE.INTER.norm>
0.0364688

>  <SCORE.INTRA>
4.66502

>  <SCORE.INTRA.DIHEDRAL>
0.492423

>  <SCORE.INTRA.DIHEDRAL.0>
19.7146

>  <SCORE.INTRA.POLAR>
0

>  <SCORE.INTRA.POLAR.0>
0

>  <SCORE.INTRA.REPUL>
0.0607453

>  <SCORE.INTRA.REPUL.0>
0

>  <SCORE.INTRA.SOLV>
3.82974

>  <SCORE.INTRA.SOLV.lig_0>
-116.697

>  <SCORE.INTRA.VDW>
2.20021

>  <SCORE.INTRA.VDW.0>
-7.06424

>  <SCORE.INTRA.norm>
0.101414

>  <SCORE.RESTR>
1.66782

>  <SCORE.RESTR.CAVITY>
1.66782

>  <SCORE.RESTR.norm>
0.036257

>  <SCORE.SYSTEM>
0

>  <SCORE.SYSTEM.CONST>
0

>  <SCORE.SYSTEM.DIHEDRAL>
0

>  <SCORE.SYSTEM.SOLV>
0

>  <SCORE.SYSTEM.norm>
0

>  <SCORE.heavy>
46

>  <SCORE.norm>
0.174139

>  <RMSD>
30.825

$$$$
lig.pdb
 OpenBabel03061811583D
libRbt.so/2013.1/901 2013/11/27
 46 49  0  0  0  0  0  0  0  0999 V2000
  -13.0869   -1.7906   19.9959 C   0  0  1  0  0  0  0  0  0  0  0  0
  -12.4878   -0.6933   17.7948 C   0  0  1  0  0  0  0  0  0  0  0  0
  -11.3269    0.1916   18.3416 C   0  0  1  0  0  0  0  0  0  0  0  0
  -10.2942    0.4966   17.1402 C   0  0  2  0  0  0  0  0  0  0  0  0
  -11.3662    2.5179   19.3540 C   0  0  2  0  0  0  0  0  0  0  0  0
  -11.4523    3.7537   18.4137 C   0  0  1  0  0  0  0  0  0  0  0  0
  -11.3154    4.8263   19.4671 C   0  0  1  0  0  0  0  0  0  0  0  0
  -12.2814    4.3841   20.6118 C   0  0  1  0  0  0  0  0  0  0  0  0
  -13.7992    4.7404   20.4356 C   0  0  0  0  0  0  0  0  0  0  0  0
   -9.6128    4.3256   21.1800 C   0  0  1  0  0  0  0  0  0  0  0  0
   -8.3184    4.7742   21.7900 C   0  0  1  0  0  0  0  0  0  0  0  0
  -14.2671   -2.7141   20.3798 C   0  0  1  0  0  0  0  0  0  0  0  0
   -8.1277    4.0285   23.1582 C   0  0  0  0  0  0  0  0  0  0  0  0
   -8.0740    2.5981   23.0602 C   0  0  0  0  0  0  0  0  0  0  0  0
   -9.3245    2.1238   22.5067 C   0  0  2  0  0  0  0  0  0  0  0  0
   -9.3216    0.5506   22.3658 C   0  0  0  0  0  0  0  0  0  0  0  0
   -8.4688    0.3818   12.3058 C   0  0  2  0  0  0  0  0  0  0  0  0
   -9.0319    0.4031   14.5939 C   0  0  0  0  0  0  0  0  0  0  0  0
   -9.0770   -0.8564   12.2232 C   0  0  0  0  0  0  0  0  0  0  0  0
   -7.8497    0.4853   13.5080 C   0  0  1  0  0  0  0  0  0  0  0  0
  -15.5277   -1.8624   20.8627 C   0  0  0  0  0  0  0  0  0  0  0  0
  -15.0766   -0.9637   22.1122 C   0  0  0  0  0  0  0  0  0  0  0  0
  -13.8794   -0.0192   21.6319 C   0  0  1  0  0  0  0  0  0  0  0  0
  -13.3667    0.8761   22.7663 C   0  0  0  0  0  0  0  0  0  0  0  0
   -9.6826   -0.8885   16.6521 C   0  0  1  0  0  0  0  0  0  0  0  0
  -10.9270   -1.7515   16.0753 C   0  0  0  0  0  0  0  0  0  0  0  0
  -11.9648   -2.0367   17.2284 C   0  0  2  0  0  0  0  0  0  0  0  0
   -9.4513    1.4183   12.0824 F   0  0  0  0  0  0  0  0  0  0  0  0
   -9.9372    0.0566   21.0251 N   0  0  0  0  0  0  0  0  0  0  0  0
  -14.5894   -3.5845   19.1890 N   0  0  0  0  0  0  0  0  0  0  0  0
   -7.1877    4.4543   21.0331 N   0  0  0  0  0  0  0  0  0  0  0  0
   -9.4210   -1.6578   11.1093 N   0  0  0  0  0  0  0  0  0  0  0  0
  -14.4372    1.4079   23.5162 N   0  0  0  0  0  0  0  0  0  0  0  0
   -8.7209   -0.6523   15.5603 N   0  0  0  0  0  0  0  0  0  0  0  0
  -13.1137   -2.8138   16.7131 N   0  0  0  0  0  0  0  0  0  0  0  0
  -13.3991   -1.0170   18.8370 O   0  0  0  0  0  0  0  0  0  0  0  0
  -11.9528    1.4539   18.8591 O   0  0  0  0  0  0  0  0  0  0  0  0
   -9.2801    1.2776   17.6479 O   0  0  0  0  0  0  0  0  0  0  0  0
  -10.3856    3.6957   17.5159 O   0  0  0  0  0  0  0  0  0  0  0  0
  -11.9007    2.9984   20.6380 O   0  0  0  0  0  0  0  0  0  0  0  0
  -13.8691    5.9496   19.6539 O   0  0  0  0  0  0  0  0  0  0  0  0
   -9.8750    4.8748   19.9437 O   0  0  0  0  0  0  0  0  0  0  0  0
   -6.8966   -0.5735   13.7459 O   0  0  0  0  0  0  0  0  0  0  0  0
  -10.0337    1.1372   14.6042 O   0  0  0  0  0  0  0  0  0  0  0  0
   -9.5891    2.7773   21.1708 O   0  0  0  0  0  0  0  0  0  0  0  0
  -12.7254   -0.8688   21.1253 O   0  0  0  0  0  0  0  0  0  0  0  0
  1 36  1  6  0  0  0
  2 36  1  1  0  0  0
  2  3  1  0  0  0  0
  3 37  1  6  0  0  0
  3  4  1  0  0  0  0
  4 38  1  1  0  0  0
  5 37  1  6  0  0  0
  5  6  1  0  0  0  0
  6  7  1  0  0  0  0
  6 39  1  6  0  0  0
  7 42  1  1  0  0  0
  8  9  1  6  0  0  0
  8  7  1  0  0  0  0
 10 42  1  6  0  0  0
 10 11  1  0  0  0  0
 11 31  1  6  0  0  0
 11 13  1  0  0  0  0
 12 30  1  6  0  0  0
 12  1  1  0  0  0  0
 14 13  1  0  0  0  0
 15 16  1  6  0  0  0
 15 14  1  0  0  0  0
 17 19  1  1  0  0  0
 17 28  1  0  0  0  0
 18 34  1  0  0  0  0
 19 32  1  0  0  0  0
 20 18  1  1  0  0  0
 20 17  1  0  0  0  0
 20 43  1  0  0  0  0
 21 12  1  0  0  0  0
 22 21  1  0  0  0  0
 22 23  1  0  0  0  0
 23 24  1  1  0  0  0
 23 46  1  0  0  0  0
 24 33  1  0  0  0  0
 25 34  1  6  0  0  0
 25  4  1  0  0  0  0
 26 25  1  0  0  0  0
 27 35  1  6  0  0  0
 27 26  1  0  0  0  0
 27  2  1  0  0  0  0
 29 16  1  0  0  0  0
 40  8  1  0  0  0  0
 40  5  1  0  0  0  0
 41  9  1  0  0  0  0
 44 18  2  0  0  0  0
 45 15  1  0  0  0  0
 45 10  1  0  0  0  0
 46  1  1  0  0  0  0
M  END
>  <CHROM.1>
-141.93645613,-63.42635670,-176.49391857,109.35904443,-104.60223927,-29.69326000
-161.36058019,-137.65933335,-154.18621356,126.44227290,-63.16500512,-42.40752094
-37.07629078,-10.99259303,1.08049104,18.64992296,1.97780667,0.78300791,0.95569811

>  <Name>
lig.pdb

>  <RI>
0

>  <Rbt.Current_Directory>
/home/afrankz/demos/rdock_decoys_rna/rnas/3wru

>  <Rbt.Executable>
rbdock ($Id: //depot/dev/client3/rdock/2013.1/src/exe/rbdock.cxx#4 $)

>  <Rbt.Library>
libRbt.so (2013.1, Build901 2013/11/27)

>  <Rbt.Parameter_File>
/export/apps/rDock/src/rDock_2013.1_src/data/scripts/dock_solv.prm

>  <Rbt.Receptor>
prm/blind_docking_100.prm

>  <SCORE>
25.9449

>  <SCORE.INTER>
4.44895

>  <SCORE.INTER.CONST>
1

>  <SCORE.INTER.POLAR>
0

>  <SCORE.INTER.ROT>
13

>  <SCORE.INTER.SOLV>
32.9832

>  <SCORE.INTER.VDW>
-20.2951

>  <SCORE.INTER.norm>
0.0967164

>  <SCORE.INTRA>
20.0928

>  <SCORE.INTRA.DIHEDRAL>
12.6073

>  <SCORE.INTRA.DIHEDRAL.0>
19.7146

>  <SCORE.INTRA.POLAR>
0

>  <SCORE.INTRA.POLAR.0>
0

>  <SCORE.INTRA.REPUL>
0.000487402

>  <SCORE.INTRA.REPUL.0>
0

>  <SCORE.INTRA.SOLV>
9.72431

>  <SCORE.INTRA.SOLV.lig_0>
-116.697

>  <SCORE.INTRA.VDW>
8.92456

>  <SCORE.INTRA.VDW.0>
-7.06424

>  <SCORE.INTRA.norm>
0.436801

>  <SCORE.RESTR>
1.40316

>  <SCORE.RESTR.CAVITY>
1.40316

>  <SCORE.RESTR.norm>
0.0305035

>  <SCORE.SYSTEM>
0

>  <SCORE.SYSTEM.CONST>
0

>  <SCORE.SYSTEM.DIHEDRAL>
0

>  <SCORE.SYSTEM.SOLV>
0

>  <SCORE.SYSTEM.norm>
0

>  <SCORE.heavy>
46

>  <SCORE.norm>
0.56402

>  <RMSD>
30.910

$$$$
lig.pdb
 OpenBabel03061811583D
libRbt.so/2013.1/901 2013/11/27
 46 49  0  0  0  0  0  0  0  0999 V2000
  -14.1522    4.6132   17.9892 C   0  0  1  0  0  0  0  0  0  0  0  0
  -12.0104    3.4207   18.6204 C   0  0  1  0  0  0  0  0  0  0  0  0
  -10.4920    3.7732   18.6238 C   0  0  1  0  0  0  0  0  0  0  0  0
   -9.7038    2.6722   19.5010 C   0  0  2  0  0  0  0  0  0  0  0  0
   -9.8279    2.7254   16.4104 C   0  0  2  0  0  0  0  0  0  0  0  0
  -11.1159    1.9027   16.1221 C   0  0  1  0  0  0  0  0  0  0  0  0
  -10.6867    1.2989   14.8067 C   0  0  1  0  0  0  0  0  0  0  0  0
  -10.0726    2.4900   14.0048 C   0  0  1  0  0  0  0  0  0  0  0  0
  -11.0778    3.4315   13.2532 C   0  0  0  0  0  0  0  0  0  0  0  0
   -9.5477   -0.7789   14.1218 C   0  0  1  0  0  0  0  0  0  0  0  0
   -8.2274   -1.4899   14.1250 C   0  0  1  0  0  0  0  0  0  0  0  0
  -14.7151    5.2074   16.6764 C   0  0  1  0  0  0  0  0  0  0  0  0
   -8.2286   -2.5477   12.9651 C   0  0  0  0  0  0  0  0  0  0  0  0
   -8.4084   -1.9987   11.6517 C   0  0  0  0  0  0  0  0  0  0  0  0
   -9.6924   -1.3327   11.5992 C   0  0  2  0  0  0  0  0  0  0  0  0
   -9.9440   -0.6978   10.1749 C   0  0  0  0  0  0  0  0  0  0  0  0
   -8.6715    0.8523   24.5677 C   0  0  2  0  0  0  0  0  0  0  0  0
   -8.4495    2.2577   22.6893 C   0  0  0  0  0  0  0  0  0  0  0  0
   -8.4687    1.8823   25.4666 C   0  0  0  0  0  0  0  0  0  0  0  0
   -7.8357    1.0217   23.5132 C   0  0  1  0  0  0  0  0  0  0  0  0
  -14.1529    6.6802   16.4266 C   0  0  0  0  0  0  0  0  0  0  0  0
  -14.5562    7.5906   17.6839 C   0  0  0  0  0  0  0  0  0  0  0  0
  -13.9164    6.9325   18.9929 C   0  0  1  0  0  0  0  0  0  0  0  0
  -14.2578    7.7283   20.2585 C   0  0  0  0  0  0  0  0  0  0  0  0
  -10.2418    2.7552   20.9958 C   0  0  1  0  0  0  0  0  0  0  0  0
  -11.8114    2.3573   20.9318 C   0  0  0  0  0  0  0  0  0  0  0  0
  -12.5972    3.4059   20.0537 C   0  0  2  0  0  0  0  0  0  0  0  0
  -10.0652    0.8117   24.1862 F   0  0  0  0  0  0  0  0  0  0  0  0
  -10.0772   -1.7614    9.0473 N   0  0  0  0  0  0  0  0  0  0  0  0
  -14.3688    4.2660   15.5480 N   0  0  0  0  0  0  0  0  0  0  0  0
   -7.1307   -0.6618   13.8699 N   0  0  0  0  0  0  0  0  0  0  0  0
   -7.3933    2.1623   26.3421 N   0  0  0  0  0  0  0  0  0  0  0  0
  -15.6487    7.9411   20.3643 N   0  0  0  0  0  0  0  0  0  0  0  0
   -9.5356    1.7713   21.8357 N   0  0  0  0  0  0  0  0  0  0  0  0
  -14.0309    3.0480   19.9758 N   0  0  0  0  0  0  0  0  0  0  0  0
  -12.7447    4.3937   17.8887 O   0  0  0  0  0  0  0  0  0  0  0  0
  -10.0416    3.7571   17.1921 O   0  0  0  0  0  0  0  0  0  0  0  0
   -8.3678    3.0055   19.4888 O   0  0  0  0  0  0  0  0  0  0  0  0
  -11.2809    0.9736   17.1501 O   0  0  0  0  0  0  0  0  0  0  0  0
   -9.2895    3.0394   15.0775 O   0  0  0  0  0  0  0  0  0  0  0  0
  -11.0561    3.0596   11.8606 O   0  0  0  0  0  0  0  0  0  0  0  0
   -9.6559    0.2159   15.0691 O   0  0  0  0  0  0  0  0  0  0  0  0
   -6.4806    1.3266   23.9094 O   0  0  0  0  0  0  0  0  0  0  0  0
   -8.0616    3.4336   22.7866 O   0  0  0  0  0  0  0  0  0  0  0  0
   -9.7809   -0.2767   12.6757 O   0  0  0  0  0  0  0  0  0  0  0  0
  -14.4319    5.5124   19.1593 O   0  0  0  0  0  0  0  0  0  0  0  0
  1 36  1  6  0  0  0
  2 36  1  6  0  0  0
  2  3  1  0  0  0  0
  3 37  1  6  0  0  0
  3  4  1  0  0  0  0
  4 38  1  1  0  0  0
  5 37  1  6  0  0  0
  5  6  1  0  0  0  0
  6  7  1  0  0  0  0
  6 39  1  1  0  0  0
  7 42  1  1  0  0  0
  8  9  1  1  0  0  0
  8  7  1  0  0  0  0
 10 42  1  1  0  0  0
 10 11  1  0  0  0  0
 11 31  1  6  0  0  0
 11 13  1  0  0  0  0
 12 30  1  6  0  0  0
 12  1  1  0  0  0  0
 14 13  1  0  0  0  0
 15 16  1  6  0  0  0
 15 14  1  0  0  0  0
 17 19  1  1  0  0  0
 17 28  1  0  0  0  0
 18 34  1  0  0  0  0
 19 32  1  0  0  0  0
 20 18  1  6  0  0  0
 20 17  1  0  0  0  0
 20 43  1  0  0  0  0
 21 12  1  0  0  0  0
 22 21  1  0  0  0  0
 22 23  1  0  0  0  0
 23 24  1  1  0  0  0
 23 46  1  0  0  0  0
 24 33  1  0  0  0  0
 25 34  1  1  0  0  0
 25  4  1  0  0  0  0
 26 25  1  0  0  0  0
 27 35  1  6  0  0  0
 27 26  1  0  0  0  0
 27  2  1  0  0  0  0
 29 16  1  0  0  0  0
 40  8  1  0  0  0  0
 40  5  1  0  0  0  0
 41  9  1  0  0  0  0
 44 18  2  0  0  0  0
 45 15  1  0  0  0  0
 45 10  1  0  0  0  0
 46  1  1  0  0  0  0
M  END
>  <CHROM.1>
-153.27819368,-161.05782747,-74.42281343,64.31900988,154.66785519,-101.54915857
157.40909145,65.71083072,-71.50111279,-81.81076531,-73.00882529,52.31190328
100.82762633,-10.68209340,2.43464144,17.75801422,1.63989515,-0.78104589,1.31168763

>  <Name>
lig.pdb

>  <RI>
0

>  <Rbt.Current_Directory>
/home/afrankz/demos/rdock_decoys_rna/rnas/3wru

>  <Rbt.Executable>
rbdock ($Id: //depot/dev/client3/rdock/2013.1/src/exe/rbdock.cxx#4 $)

>  <Rbt.Library>
libRbt.so (2013.1, Build901 2013/11/27)

>  <Rbt.Parameter_File>
/export/apps/rDock/src/rDock_2013.1_src/data/scripts/dock_solv.prm

>  <Rbt.Receptor>
prm/blind_docking_100.prm

>  <SCORE>
22.6743

>  <SCORE.INTER>
9.24087

>  <SCORE.INTER.CONST>
1

>  <SCORE.INTER.POLAR>
0

>  <SCORE.INTER.ROT>
13

>  <SCORE.INTER.SOLV>
20.6205

>  <SCORE.INTER.VDW>
-12.9796

>  <SCORE.INTER.norm>
0.200889

>  <SCORE.INTRA>
8.09548

>  <SCORE.INTRA.DIHEDRAL>
-1.31165

>  <SCORE.INTRA.DIHEDRAL.0>
19.7146

>  <SCORE.INTRA.POLAR>
0

>  <SCORE.INTRA.POLAR.0>
0

>  <SCORE.INTRA.REPUL>
0

>  <SCORE.INTRA.REPUL.0>
0

>  <SCORE.INTRA.SOLV>
3.26173

>  <SCORE.INTRA.SOLV.lig_0>
-116.697

>  <SCORE.INTRA.VDW>
7.12044

>  <SCORE.INTRA.VDW.0>
-7.06424

>  <SCORE.INTRA.norm>
0.175989

>  <SCORE.RESTR>
5.33799

>  <SCORE.RESTR.CAVITY>
5.33799

>  <SCORE.RESTR.norm>
0.116043

>  <SCORE.SYSTEM>
0

>  <SCORE.SYSTEM.CONST>
0

>  <SCORE.SYSTEM.DIHEDRAL>
0

>  <SCORE.SYSTEM.SOLV>
0

>  <SCORE.SYSTEM.norm>
0

>  <SCORE.heavy>
46

>  <SCORE.norm>
0.49292

>  <RMSD>
30.916

$$$$
lig.pdb
 OpenBabel03061811583D
libRbt.so/2013.1/901 2013/11/27
 46 49  0  0  0  0  0  0  0  0999 V2000
  -12.7058    5.9484   17.2223 C   0  0  1  0  0  0  0  0  0  0  0  0
  -12.3912    3.7626   18.4597 C   0  0  1  0  0  0  0  0  0  0  0  0
  -10.9110    4.2362   18.5804 C   0  0  1  0  0  0  0  0  0  0  0  0
  -10.1236    3.2367   19.5723 C   0  0  2  0  0  0  0  0  0  0  0  0
  -10.0068    3.1600   16.4680 C   0  0  2  0  0  0  0  0  0  0  0  0
  -10.4749    1.8131   17.0889 C   0  0  1  0  0  0  0  0  0  0  0  0
  -10.5459    1.0096   15.8129 C   0  0  1  0  0  0  0  0  0  0  0  0
  -11.2822    1.9407   14.7980 C   0  0  1  0  0  0  0  0  0  0  0  0
  -12.8490    1.9730   14.8737 C   0  0  0  0  0  0  0  0  0  0  0  0
   -8.7331    1.2483   14.1575 C   0  0  1  0  0  0  0  0  0  0  0  0
   -8.6864    0.2855   13.0086 C   0  0  1  0  0  0  0  0  0  0  0  0
  -13.6067    7.0393   17.8480 C   0  0  1  0  0  0  0  0  0  0  0  0
   -8.1581    1.0472   11.7417 C   0  0  0  0  0  0  0  0  0  0  0  0
   -6.8424    1.6025   11.8800 C   0  0  0  0  0  0  0  0  0  0  0  0
   -6.8567    2.5660   12.9600 C   0  0  2  0  0  0  0  0  0  0  0  0
   -5.4279    3.2069   13.1670 C   0  0  0  0  0  0  0  0  0  0  0  0
   -7.1355    2.3120   24.0240 C   0  0  2  0  0  0  0  0  0  0  0  0
   -8.9425    2.9818   22.6680 C   0  0  0  0  0  0  0  0  0  0  0  0
   -6.4981    1.3348   24.7649 C   0  0  0  0  0  0  0  0  0  0  0  0
   -8.3486    1.8453   23.6368 C   0  0  1  0  0  0  0  0  0  0  0  0
  -15.0900    6.9624   17.2633 C   0  0  0  0  0  0  0  0  0  0  0  0
  -15.0103    7.1324   15.6705 C   0  0  0  0  0  0  0  0  0  0  0  0
  -14.0913    5.9573   15.0958 C   0  0  1  0  0  0  0  0  0  0  0  0
  -13.9426    6.0406   13.5718 C   0  0  0  0  0  0  0  0  0  0  0  0
  -10.8004    3.3331   21.0088 C   0  0  1  0  0  0  0  0  0  0  0  0
  -12.3224    2.8079   20.8254 C   0  0  0  0  0  0  0  0  0  0  0  0
  -13.1032    3.7554   19.8352 C   0  0  2  0  0  0  0  0  0  0  0  0
   -6.2960    2.7003   22.9132 F   0  0  0  0  0  0  0  0  0  0  0  0
   -4.3037    2.1469   13.3480 N   0  0  0  0  0  0  0  0  0  0  0  0
  -13.5758    6.8711   19.3480 N   0  0  0  0  0  0  0  0  0  0  0  0
   -7.8045   -0.7831   13.1928 N   0  0  0  0  0  0  0  0  0  0  0  0
   -6.0969    0.0198   24.4312 N   0  0  0  0  0  0  0  0  0  0  0  0
  -15.0625    5.4805   12.9214 N   0  0  0  0  0  0  0  0  0  0  0  0
  -10.1000    2.4422   21.9513 N   0  0  0  0  0  0  0  0  0  0  0  0
  -14.4921    3.2804   19.6481 N   0  0  0  0  0  0  0  0  0  0  0  0
  -13.1284    4.6446   17.6231 O   0  0  0  0  0  0  0  0  0  0  0  0
  -10.3321    4.2018   17.1960 O   0  0  0  0  0  0  0  0  0  0  0  0
   -8.8217    3.6759   19.6624 O   0  0  0  0  0  0  0  0  0  0  0  0
   -9.4951    1.3795   17.9829 O   0  0  0  0  0  0  0  0  0  0  0  0
  -10.5557    3.1428   15.1029 O   0  0  0  0  0  0  0  0  0  0  0  0
  -13.2129    3.0059   15.8111 O   0  0  0  0  0  0  0  0  0  0  0  0
   -9.1371    0.6866   15.3492 O   0  0  0  0  0  0  0  0  0  0  0  0
   -8.2705    0.5912   22.9245 O   0  0  0  0  0  0  0  0  0  0  0  0
   -8.4880    4.1334   22.5687 O   0  0  0  0  0  0  0  0  0  0  0  0
   -7.3389    1.9174   14.2362 O   0  0  0  0  0  0  0  0  0  0  0  0
  -12.7087    6.0319   15.7227 O   0  0  0  0  0  0  0  0  0  0  0  0
  1 36  1  6  0  0  0
  2 36  1  6  0  0  0
  2  3  1  0  0  0  0
  3 37  1  6  0  0  0
  3  4  1  0  0  0  0
  4 38  1  1  0  0  0
  5 37  1  1  0  0  0
  5  6  1  0  0  0  0
  6  7  1  0  0  0  0
  6 39  1  1  0  0  0
  7 42  1  6  0  0  0
  8  9  1  1  0  0  0
  8  7  1  0  0  0  0
 10 42  1  1  0  0  0
 10 11  1  0  0  0  0
 11 31  1  1  0  0  0
 11 13  1  0  0  0  0
 12 30  1  1  0  0  0
 12  1  1  0  0  0  0
 14 13  1  0  0  0  0
 15 16  1  1  0  0  0
 15 14  1  0  0  0  0
 17 19  1  6  0  0  0
 17 28  1  0  0  0  0
 18 34  1  0  0  0  0
 19 32  1  0  0  0  0
 20 18  1  6  0  0  0
 20 17  1  0  0  0  0
 20 43  1  0  0  0  0
 21 12  1  0  0  0  0
 22 21  1  0  0  0  0
 22 23  1  0  0  0  0
 23 24  1  6  0  0  0
 23 46  1  0  0  0  0
 24 33  1  0  0  0  0
 25 34  1  1  0  0  0
 25  4  1  0  0  0  0
 26 25  1  0  0  0  0
 27 35  1  6  0  0  0
 27 26  1  0  0  0  0
 27  2  1  0  0  0  0
 29 16  1  0  0  0  0
 40  8  1  0  0  0  0
 40  5  1  0  0  0  0
 41  9  1  0  0  0  0
 44 18  2  0  0  0  0
 45 15  1  0  0  0  0
 45 10  1  0  0  0  0
 46  1  1  0  0  0  0
M  END
>  <CHROM.1>
-112.74250804,-14.91954576,-72.16051455,8.76310741,-114.71794071,89.25009822
-105.31853368,-53.15995767,60.76307346,166.82661184,-174.46266058,-81.16802499
87.95478972,-10.26758789,3.12655874,17.59019329,1.95344668,0.54722077,-1.61650715

>  <Name>
lig.pdb

>  <RI>
0

>  <Rbt.Current_Directory>
/home/afrankz/demos/rdock_decoys_rna/rnas/3wru

>  <Rbt.Executable>
rbdock ($Id: //depot/dev/client3/rdock/2013.1/src/exe/rbdock.cxx#4 $)

>  <Rbt.Library>
libRbt.so (2013.1, Build901 2013/11/27)

>  <Rbt.Parameter_File>
/export/apps/rDock/src/rDock_2013.1_src/data/scripts/dock_solv.prm

>  <Rbt.Receptor>
prm/blind_docking_80.prm

>  <SCORE>
41.6889

>  <SCORE.INTER>
13.2538

>  <SCORE.INTER.CONST>
1

>  <SCORE.INTER.POLAR>
0

>  <SCORE.INTER.ROT>
13

>  <SCORE.INTER.SOLV>
33.516

>  <SCORE.INTER.VDW>
-14.6028

>  <SCORE.INTER.norm>
0.288127

>  <SCORE.INTRA>
20.1661

>  <SCORE.INTRA.DIHEDRAL>
19.8714

>  <SCORE.INTRA.DIHEDRAL.0>
19.7146

>  <SCORE.INTRA.POLAR>
0

>  <SCORE.INTRA.POLAR.0>
0

>  <SCORE.INTRA.REPUL>
0

>  <SCORE.INTRA.REPUL.0>
0

>  <SCORE.INTRA.SOLV>
5.02366

>  <SCORE.INTRA.SOLV.lig_0>
-116.697

>  <SCORE.INTRA.VDW>
7.71861

>  <SCORE.INTRA.VDW.0>
-7.06424

>  <SCORE.INTRA.norm>
0.438394

>  <SCORE.RESTR>
8.26897

>  <SCORE.RESTR.CAVITY>
8.26897

>  <SCORE.RESTR.norm>
0.17976

>  <SCORE.SYSTEM>
0

>  <SCORE.SYSTEM.CONST>
0

>  <SCORE.SYSTEM.DIHEDRAL>
0

>  <SCORE.SYSTEM.SOLV>
0

>  <SCORE.SYSTEM.norm>
0

>  <SCORE.heavy>
46

>  <SCORE.norm>
0.906281

>  <RMSD>
30.934

$$$$
lig.pdb
 OpenBabel03061811583D
libRbt.so/2013.1/901 2013/11/27
 46 49  0  0  0  0  0  0  0  0999 V2000
   -8.4723   -0.5262   14.7844 C   0  0  1  0  0  0  0  0  0  0  0  0
  -10.3140   -1.6106   16.1409 C   0  0  1  0  0  0  0  0  0  0  0  0
  -11.4536   -1.0857   17.0657 C   0  0  1  0  0  0  0  0  0  0  0  0
  -12.0628   -2.3268   17.8973 C   0  0  2  0  0  0  0  0  0  0  0  0
  -11.2220    1.1638   18.2165 C   0  0  2  0  0  0  0  0  0  0  0  0
  -11.6329    1.3964   19.6984 C   0  0  1  0  0  0  0  0  0  0  0  0
  -11.3755    2.8828   19.7546 C   0  0  1  0  0  0  0  0  0  0  0  0
   -9.9834    3.0707   19.0721 C   0  0  1  0  0  0  0  0  0  0  0  0
   -8.7172    2.8102   19.9612 C   0  0  0  0  0  0  0  0  0  0  0  0
  -12.4673    4.9828   19.0606 C   0  0  1  0  0  0  0  0  0  0  0  0
  -12.7040    5.5300   20.4366 C   0  0  1  0  0  0  0  0  0  0  0  0
   -8.0383    0.9216   14.4544 C   0  0  1  0  0  0  0  0  0  0  0  0
  -12.7310    7.0973   20.3514 C   0  0  0  0  0  0  0  0  0  0  0  0
  -13.7549    7.6351   19.5022 C   0  0  0  0  0  0  0  0  0  0  0  0
  -13.5380    7.1559   18.1537 C   0  0  2  0  0  0  0  0  0  0  0  0
  -14.6437    7.7092   17.1707 C   0  0  0  0  0  0  0  0  0  0  0  0
  -15.1090   -6.6891   17.8125 C   0  0  2  0  0  0  0  0  0  0  0  0
  -14.6599   -4.3868   18.0381 C   0  0  0  0  0  0  0  0  0  0  0  0
  -14.8865   -7.9274   18.3846 C   0  0  0  0  0  0  0  0  0  0  0  0
  -15.0790   -5.7460   18.7867 C   0  0  1  0  0  0  0  0  0  0  0  0
   -8.9399    1.5391   13.2910 C   0  0  0  0  0  0  0  0  0  0  0  0
   -8.8084    0.5958   12.0006 C   0  0  0  0  0  0  0  0  0  0  0  0
   -9.3010   -0.8690   12.4100 C   0  0  1  0  0  0  0  0  0  0  0  0
   -9.2013   -1.8541   11.2390 C   0  0  0  0  0  0  0  0  0  0  0  0
  -12.6922   -3.3546   16.8589 C   0  0  1  0  0  0  0  0  0  0  0  0
  -11.4619   -3.8815   15.9452 C   0  0  0  0  0  0  0  0  0  0  0  0
  -10.8319   -2.6774   15.1445 C   0  0  2  0  0  0  0  0  0  0  0  0
  -16.3566   -6.7115   17.0827 F   0  0  0  0  0  0  0  0  0  0  0  0
  -14.5062    7.1556   15.7234 N   0  0  0  0  0  0  0  0  0  0  0  0
   -8.1104    1.7349   15.7243 N   0  0  0  0  0  0  0  0  0  0  0  0
  -13.9341    5.1680   20.9928 N   0  0  0  0  0  0  0  0  0  0  0  0
  -15.5197   -8.5871   19.4640 N   0  0  0  0  0  0  0  0  0  0  0  0
   -9.9830   -3.0046   11.4760 N   0  0  0  0  0  0  0  0  0  0  0  0
  -13.2733   -4.5007   17.5810 N   0  0  0  0  0  0  0  0  0  0  0  0
   -9.6982   -3.1417   14.3146 N   0  0  0  0  0  0  0  0  0  0  0  0
   -9.7786   -0.5494   15.3608 O   0  0  0  0  0  0  0  0  0  0  0  0
  -10.8349   -0.0667   17.9779 O   0  0  0  0  0  0  0  0  0  0  0  0
  -13.0655   -1.8380   18.7045 O   0  0  0  0  0  0  0  0  0  0  0  0
  -12.9755    1.0436   19.8408 O   0  0  0  0  0  0  0  0  0  0  0  0
  -10.2209    2.2080   17.9472 O   0  0  0  0  0  0  0  0  0  0  0  0
   -8.7252    3.7901   21.0184 O   0  0  0  0  0  0  0  0  0  0  0  0
  -12.4702    3.6066   18.9917 O   0  0  0  0  0  0  0  0  0  0  0  0
  -16.3547   -5.5676   19.4401 O   0  0  0  0  0  0  0  0  0  0  0  0
  -15.4115   -3.4125   17.8700 O   0  0  0  0  0  0  0  0  0  0  0  0
  -13.5129    5.6457   18.1305 O   0  0  0  0  0  0  0  0  0  0  0  0
   -8.4553   -1.3939   13.5586 O   0  0  0  0  0  0  0  0  0  0  0  0
  1 36  1  6  0  0  0
  2 36  1  6  0  0  0
  2  3  1  0  0  0  0
  3 37  1  1  0  0  0
  3  4  1  0  0  0  0
  4 38  1  1  0  0  0
  5 37  1  1  0  0  0
  5  6  1  0  0  0  0
  6  7  1  0  0  0  0
  6 39  1  6  0  0  0
  7 42  1  6  0  0  0
  8  9  1  1  0  0  0
  8  7  1  0  0  0  0
 10 42  1  1  0  0  0
 10 11  1  0  0  0  0
 11 31  1  6  0  0  0
 11 13  1  0  0  0  0
 12 30  1  1  0  0  0
 12  1  1  0  0  0  0
 14 13  1  0  0  0  0
 15 16  1  6  0  0  0
 15 14  1  0  0  0  0
 17 19  1  1  0  0  0
 17 28  1  0  0  0  0
 18 34  1  0  0  0  0
 19 32  1  0  0  0  0
 20 18  1  6  0  0  0
 20 17  1  0  0  0  0
 20 43  1  0  0  0  0
 21 12  1  0  0  0  0
 22 21  1  0  0  0  0
 22 23  1  0  0  0  0
 23 24  1  6  0  0  0
 23 46  1  0  0  0  0
 24 33  1  0  0  0  0
 25 34  1  1  0  0  0
 25  4  1  0  0  0  0
 26 25  1  0  0  0  0
 27 35  1  1  0  0  0
 27 26  1  0  0  0  0
 27  2  1  0  0  0  0
 29 16  1  0  0  0  0
 40  8  1  0  0  0  0
 40  5  1  0  0  0  0
 41  9  1  0  0  0  0
 44 18  2  0  0  0  0
 45 15  1  0  0  0  0
 45 10  1  0  0  0  0
 46  1  1  0  0  0  0
M  END
>  <CHROM.1>
-159.63732922,156.43940638,127.95893932,117.06795441,173.38474363,-63.61493001
-63.96373288,-176.56658350,53.01994485,-67.99962108,154.45260797,-162.71590862
87.45000235,-11.93457439,0.03701350,17.25570854,-1.75914157,0.79052752,0.29829940

>  <Name>
lig.pdb

>  <RI>
0

>  <Rbt.Current_Directory>
/home/afrankz/demos/rdock_decoys_rna/rnas/3wru

>  <Rbt.Executable>
rbdock ($Id: //depot/dev/client3/rdock/2013.1/src/exe/rbdock.cxx#4 $)

>  <Rbt.Library>
libRbt.so (2013.1, Build901 2013/11/27)

>  <Rbt.Parameter_File>
/export/apps/rDock/src/rDock_2013.1_src/data/scripts/dock_solv.prm

>  <Rbt.Receptor>
prm/blind_docking_40.prm

>  <SCORE>
20.976

>  <SCORE.INTER>
6.29715

>  <SCORE.INTER.CONST>
1

>  <SCORE.INTER.POLAR>
0

>  <SCORE.INTER.ROT>
13

>  <SCORE.INTER.SOLV>
26.6258

>  <SCORE.INTER.VDW>
-16.9438

>  <SCORE.INTER.norm>
0.136895

>  <SCORE.INTRA>
10.299

>  <SCORE.INTRA.DIHEDRAL>
3.58238

>  <SCORE.INTRA.DIHEDRAL.0>
19.7146

>  <SCORE.INTRA.POLAR>
0

>  <SCORE.INTRA.POLAR.0>
0

>  <SCORE.INTRA.REPUL>
0.537049

>  <SCORE.INTRA.REPUL.0>
0

>  <SCORE.INTRA.SOLV>
5.39508

>  <SCORE.INTRA.SOLV.lig_0>
-116.697

>  <SCORE.INTRA.VDW>
3.12507

>  <SCORE.INTRA.VDW.0>
-7.06424

>  <SCORE.INTRA.norm>
0.223892

>  <SCORE.RESTR>
4.37981

>  <SCORE.RESTR.CAVITY>
4.37981

>  <SCORE.RESTR.norm>
0.0952133

>  <SCORE.SYSTEM>
0

>  <SCORE.SYSTEM.CONST>
0

>  <SCORE.SYSTEM.DIHEDRAL>
0

>  <SCORE.SYSTEM.SOLV>
0

>  <SCORE.SYSTEM.norm>
0

>  <SCORE.heavy>
46

>  <SCORE.norm>
0.456

>  <RMSD>
31.050

$$$$
lig.pdb
 OpenBabel03061811583D
libRbt.so/2013.1/901 2013/11/27
 46 49  0  0  0  0  0  0  0  0999 V2000
  -12.6161    6.4264   19.1953 C   0  0  1  0  0  0  0  0  0  0  0  0
  -11.6845    4.4329   17.9439 C   0  0  1  0  0  0  0  0  0  0  0  0
  -10.9658    3.2668   18.6876 C   0  0  1  0  0  0  0  0  0  0  0  0
   -9.9306    2.5606   17.6714 C   0  0  2  0  0  0  0  0  0  0  0  0
   -9.8848    3.3071   20.9828 C   0  0  2  0  0  0  0  0  0  0  0  0
   -8.9628    2.0734   20.7671 C   0  0  1  0  0  0  0  0  0  0  0  0
   -8.2609    2.1022   22.1033 C   0  0  1  0  0  0  0  0  0  0  0  0
   -7.8759    3.6006   22.3171 C   0  0  1  0  0  0  0  0  0  0  0  0
   -6.5683    4.1040   21.6110 C   0  0  0  0  0  0  0  0  0  0  0  0
   -8.6679    0.8863   24.2103 C   0  0  1  0  0  0  0  0  0  0  0  0
   -8.9464    1.4455   25.5736 C   0  0  1  0  0  0  0  0  0  0  0  0
  -13.4039    6.6331   20.5106 C   0  0  1  0  0  0  0  0  0  0  0  0
   -8.2169    0.5508   26.6374 C   0  0  0  0  0  0  0  0  0  0  0  0
   -6.7910    0.4863   26.4917 C   0  0  0  0  0  0  0  0  0  0  0  0
   -6.4823   -0.0834   25.1974 C   0  0  2  0  0  0  0  0  0  0  0  0
   -4.9211   -0.1716   24.9745 C   0  0  0  0  0  0  0  0  0  0  0  0
   -6.7459    1.7583   13.8259 C   0  0  2  0  0  0  0  0  0  0  0  0
   -8.8386    2.0989   14.8543 C   0  0  0  0  0  0  0  0  0  0  0  0
   -5.8206    0.8338   13.3798 C   0  0  0  0  0  0  0  0  0  0  0  0
   -7.9645    1.1655   13.8806 C   0  0  1  0  0  0  0  0  0  0  0  0
  -14.9615    6.3590   20.2948 C   0  0  0  0  0  0  0  0  0  0  0  0
  -15.4911    7.3503   19.1506 C   0  0  0  0  0  0  0  0  0  0  0  0
  -14.6540    7.0578   17.8204 C   0  0  1  0  0  0  0  0  0  0  0  0
  -15.0806    7.9698   16.6638 C   0  0  0  0  0  0  0  0  0  0  0  0
  -10.7656    1.9472   16.4641 C   0  0  1  0  0  0  0  0  0  0  0  0
  -11.4673    3.2031   15.7183 C   0  0  0  0  0  0  0  0  0  0  0  0
  -12.4633    3.9268   16.7044 C   0  0  2  0  0  0  0  0  0  0  0  0
   -6.7187    2.9213   12.9678 F   0  0  0  0  0  0  0  0  0  0  0  0
   -4.2310    1.2220   24.9298 N   0  0  0  0  0  0  0  0  0  0  0  0
  -12.8066    5.7304   21.5631 N   0  0  0  0  0  0  0  0  0  0  0  0
   -8.4520    2.7373   25.7745 N   0  0  0  0  0  0  0  0  0  0  0  0
   -4.4741    0.9796   12.9710 N   0  0  0  0  0  0  0  0  0  0  0  0
  -16.2992    7.5370   16.0993 N   0  0  0  0  0  0  0  0  0  0  0  0
   -9.8555    1.2791   15.5165 N   0  0  0  0  0  0  0  0  0  0  0  0
  -13.1026    5.0843   16.0404 N   0  0  0  0  0  0  0  0  0  0  0  0
  -12.6361    5.0550   18.7976 O   0  0  0  0  0  0  0  0  0  0  0  0
  -10.2527    3.8761   19.8594 O   0  0  0  0  0  0  0  0  0  0  0  0
   -9.3103    1.5359   18.3506 O   0  0  0  0  0  0  0  0  0  0  0  0
   -9.7704    0.9525   20.5704 O   0  0  0  0  0  0  0  0  0  0  0  0
   -9.1344    4.1652   21.9133 O   0  0  0  0  0  0  0  0  0  0  0  0
   -6.6058    3.6320   20.2495 O   0  0  0  0  0  0  0  0  0  0  0  0
   -9.2164    1.6155   23.1778 O   0  0  0  0  0  0  0  0  0  0  0  0
   -8.6066    1.0734   12.5901 O   0  0  0  0  0  0  0  0  0  0  0  0
   -8.6551    3.3163   15.0177 O   0  0  0  0  0  0  0  0  0  0  0  0
   -7.1318    0.7252   24.0991 O   0  0  0  0  0  0  0  0  0  0  0  0
  -13.1731    7.2728   18.0866 O   0  0  0  0  0  0  0  0  0  0  0  0
  1 36  1  6  0  0  0
  2 36  1  1  0  0  0
  2  3  1  0  0  0  0
  3 37  1  1  0  0  0
  3  4  1  0  0  0  0
  4 38  1  1  0  0  0
  5 37  1  6  0  0  0
  5  6  1  0  0  0  0
  6  7  1  0  0  0  0
  6 39  1  1  0  0  0
  7 42  1  1  0  0  0
  8  9  1  6  0  0  0
  8  7  1  0  0  0  0
 10 42  1  6  0  0  0
 10 11  1  0  0  0  0
 11 31  1  6  0  0  0
 11 13  1  0  0  0  0
 12 30  1  1  0  0  0
 12  1  1  0  0  0  0
 14 13  1  0  0  0  0
 15 16  1  6  0  0  0
 15 14  1  0  0  0  0
 17 19  1  6  0  0  0
 17 28  1  0  0  0  0
 18 34  1  0  0  0  0
 19 32  1  0  0  0  0
 20 18  1  1  0  0  0
 20 17  1  0  0  0  0
 20 43  1  0  0  0  0
 21 12  1  0  0  0  0
 22 21  1  0  0  0  0
 22 23  1  0  0  0  0
 23 24  1  6  0  0  0
 23 46  1  0  0  0  0
 24 33  1  0  0  0  0
 25 34  1  6  0  0  0
 25  4  1  0  0  0  0
 26 25  1  0  0  0  0
 27 35  1  6  0  0  0
 27 26  1  0  0  0  0
 27  2  1  0  0  0  0
 29 16  1  0  0  0  0
 40  8  1  0  0  0  0
 40  5  1  0  0  0  0
 41  9  1  0  0  0  0
 44 18  2  0  0  0  0
 45 15  1  0  0  0  0
 45 10  1  0  0  0  0
 46  1  1  0  0  0  0
M  END
>  <CHROM.1>
-157.30200532,119.55321590,155.96381679,56.73635172,144.94996052,46.64250578
124.08368339,-64.23315819,169.82533368,-151.49321286,161.02171789,-76.82441739
-61.69174987,-9.72219852,3.17239908,19.35262916,2.11159777,0.61643984,-1.55175614

>  <Name>
lig.pdb

>  <RI>
0

>  <Rbt.Current_Directory>
/home/afrankz/demos/rdock_decoys_rna/rnas/3wru

>  <Rbt.Executable>
rbdock ($Id: //depot/dev/client3/rdock/2013.1/src/exe/rbdock.cxx#4 $)

>  <Rbt.Library>
libRbt.so (2013.1, Build901 2013/11/27)

>  <Rbt.Parameter_File>
/export/apps/rDock/src/rDock_2013.1_src/data/scripts/dock_solv.prm

>  <Rbt.Receptor>
prm/blind_docking_80.prm

>  <SCORE>
22.0582

>  <SCORE.INTER>
2.5845

>  <SCORE.INTER.CONST>
1

>  <SCORE.INTER.POLAR>
0

>  <SCORE.INTER.ROT>
13

>  <SCORE.INTER.SOLV>
33.9368

>  <SCORE.INTER.VDW>
-21.8559

>  <SCORE.INTER.norm>
0.0561848

>  <SCORE.INTRA>
11.827

>  <SCORE.INTRA.DIHEDRAL>
8.63661

>  <SCORE.INTRA.DIHEDRAL.0>
19.7146

>  <SCORE.INTRA.POLAR>
0

>  <SCORE.INTRA.POLAR.0>
0

>  <SCORE.INTRA.REPUL>
0.04849

>  <SCORE.INTRA.REPUL.0>
0

>  <SCORE.INTRA.SOLV>
3.80933

>  <SCORE.INTRA.SOLV.lig_0>
-116.697

>  <SCORE.INTRA.VDW>
5.36154

>  <SCORE.INTRA.VDW.0>
-7.06424

>  <SCORE.INTRA.norm>
0.257108

>  <SCORE.RESTR>
7.64671

>  <SCORE.RESTR.CAVITY>
7.64671

>  <SCORE.RESTR.norm>
0.166233

>  <SCORE.SYSTEM>
0

>  <SCORE.SYSTEM.CONST>
0

>  <SCORE.SYSTEM.DIHEDRAL>
0

>  <SCORE.SYSTEM.SOLV>
0

>  <SCORE.SYSTEM.norm>
0

>  <SCORE.heavy>
46

>  <SCORE.norm>
0.479526

>  <RMSD>
31.093

$$$$
lig.pdb
 OpenBabel03061811583D
libRbt.so/2013.1/901 2013/11/27
 46 49  0  0  0  0  0  0  0  0999 V2000
  -11.7715   -1.0267   19.8450 C   0  0  1  0  0  0  0  0  0  0  0  0
  -11.7954   -0.8621   17.3190 C   0  0  1  0  0  0  0  0  0  0  0  0
  -10.4172   -0.3091   16.8450 C   0  0  1  0  0  0  0  0  0  0  0  0
  -10.0836   -0.9204   15.3897 C   0  0  2  0  0  0  0  0  0  0  0  0
  -11.2715    1.9730   17.5522 C   0  0  2  0  0  0  0  0  0  0  0  0
  -10.6461    3.3847   17.7387 C   0  0  1  0  0  0  0  0  0  0  0  0
  -11.9198    4.1389   18.0348 C   0  0  1  0  0  0  0  0  0  0  0  0
  -12.9356    3.6405   16.9583 C   0  0  1  0  0  0  0  0  0  0  0  0
  -12.8566    4.3143   15.5436 C   0  0  0  0  0  0  0  0  0  0  0  0
  -13.5035    4.4586   19.8986 C   0  0  1  0  0  0  0  0  0  0  0  0
  -13.3468    5.9478   19.9787 C   0  0  1  0  0  0  0  0  0  0  0  0
  -12.9903   -1.0736   20.7967 C   0  0  1  0  0  0  0  0  0  0  0  0
  -14.6680    6.5565   20.5689 C   0  0  0  0  0  0  0  0  0  0  0  0
  -15.0053    6.0968   21.8855 C   0  0  0  0  0  0  0  0  0  0  0  0
  -15.1999    4.6632   21.8406 C   0  0  2  0  0  0  0  0  0  0  0  0
  -15.5658    4.0957   23.2685 C   0  0  0  0  0  0  0  0  0  0  0  0
   -9.9975   -2.9525   11.1177 C   0  0  2  0  0  0  0  0  0  0  0  0
  -10.7610   -3.3664   13.3083 C   0  0  0  0  0  0  0  0  0  0  0  0
   -8.7692   -2.3794   11.3875 C   0  0  0  0  0  0  0  0  0  0  0  0
  -10.1812   -4.0056   11.9524 C   0  0  1  0  0  0  0  0  0  0  0  0
  -13.3944    0.3921   21.2828 C   0  0  0  0  0  0  0  0  0  0  0  0
  -12.1250    1.0459   22.0130 C   0  0  0  0  0  0  0  0  0  0  0  0
  -10.9207    1.0874   20.9624 C   0  0  1  0  0  0  0  0  0  0  0  0
   -9.6491    1.6886   21.5731 C   0  0  0  0  0  0  0  0  0  0  0  0
   -9.9682   -2.5005   15.5331 C   0  0  1  0  0  0  0  0  0  0  0  0
  -11.4303   -3.0177   16.0028 C   0  0  0  0  0  0  0  0  0  0  0  0
  -11.7897   -2.4081   17.4125 C   0  0  2  0  0  0  0  0  0  0  0  0
  -10.0635   -3.3177    9.7206 F   0  0  0  0  0  0  0  0  0  0  0  0
  -16.9026    4.6628   23.8267 N   0  0  0  0  0  0  0  0  0  0  0  0
  -14.1217   -1.7680   20.0777 N   0  0  0  0  0  0  0  0  0  0  0  0
  -12.3283    6.3709   20.8373 N   0  0  0  0  0  0  0  0  0  0  0  0
   -7.4699   -2.9357   11.4483 N   0  0  0  0  0  0  0  0  0  0  0  0
   -8.6215    1.7867   20.6111 N   0  0  0  0  0  0  0  0  0  0  0  0
   -9.6500   -3.0985   14.2240 N   0  0  0  0  0  0  0  0  0  0  0  0
  -13.1287   -2.8620   17.8489 N   0  0  0  0  0  0  0  0  0  0  0  0
  -12.1054   -0.3758   18.6186 O   0  0  0  0  0  0  0  0  0  0  0  0
  -10.5456    1.1855   16.7946 O   0  0  0  0  0  0  0  0  0  0  0  0
   -8.8639   -0.4182   14.9942 O   0  0  0  0  0  0  0  0  0  0  0  0
   -9.7530    3.3296   18.8095 O   0  0  0  0  0  0  0  0  0  0  0  0
  -12.6354    2.2392   17.0684 O   0  0  0  0  0  0  0  0  0  0  0  0
  -13.4919    5.6043   15.6457 O   0  0  0  0  0  0  0  0  0  0  0  0
  -12.3857    3.7969   19.4385 O   0  0  0  0  0  0  0  0  0  0  0  0
  -11.1144   -4.9797   11.4363 O   0  0  0  0  0  0  0  0  0  0  0  0
  -11.9617   -3.1300   13.5206 O   0  0  0  0  0  0  0  0  0  0  0  0
  -13.9656    3.9823   21.2976 O   0  0  0  0  0  0  0  0  0  0  0  0
  -10.6089   -0.3202   20.4813 O   0  0  0  0  0  0  0  0  0  0  0  0
  1 36  1  6  0  0  0
  2 36  1  1  0  0  0
  2  3  1  0  0  0  0
  3 37  1  6  0  0  0
  3  4  1  0  0  0  0
  4 38  1  1  0  0  0
  5 37  1  6  0  0  0
  5  6  1  0  0  0  0
  6  7  1  0  0  0  0
  6 39  1  1  0  0  0
  7 42  1  1  0  0  0
  8  9  1  6  0  0  0
  8  7  1  0  0  0  0
 10 42  1  1  0  0  0
 10 11  1  0  0  0  0
 11 31  1  1  0  0  0
 11 13  1  0  0  0  0
 12 30  1  6  0  0  0
 12  1  1  0  0  0  0
 14 13  1  0  0  0  0
 15 16  1  1  0  0  0
 15 14  1  0  0  0  0
 17 19  1  6  0  0  0
 17 28  1  0  0  0  0
 18 34  1  0  0  0  0
 19 32  1  0  0  0  0
 20 18  1  1  0  0  0
 20 17  1  0  0  0  0
 20 43  1  0  0  0  0
 21 12  1  0  0  0  0
 22 21  1  0  0  0  0
 22 23  1  0  0  0  0
 23 24  1  1  0  0  0
 23 46  1  0  0  0  0
 24 33  1  0  0  0  0
 25 34  1  6  0  0  0
 25  4  1  0  0  0  0
 26 25  1  0  0  0  0
 27 35  1  6  0  0  0
 27 26  1  0  0  0  0
 27  2  1  0  0  0  0
 29 16  1  0  0  0  0
 40  8  1  0  0  0  0
 40  5  1  0  0  0  0
 41  9  1  0  0  0  0
 44 18  2  0  0  0  0
 45 15  1  0  0  0  0
 45 10  1  0  0  0  0
 46  1  1  0  0  0  0
M  END
>  <CHROM.1>
-132.71409186,-91.06269050,32.22781361,149.80821880,176.61799600,-77.62413307
-61.34760761,62.41430781,53.67019673,-93.48147402,84.18988871,-176.66964689
-83.97179352,-11.78314689,0.82325026,17.60332097,2.97355403,1.25071144,-0.53979875

>  <Name>
lig.pdb

>  <RI>
0

>  <Rbt.Current_Directory>
/home/afrankz/demos/rdock_decoys_rna/rnas/3wru

>  <Rbt.Executable>
rbdock ($Id: //depot/dev/client3/rdock/2013.1/src/exe/rbdock.cxx#4 $)

>  <Rbt.Library>
libRbt.so (2013.1, Build901 2013/11/27)

>  <Rbt.Parameter_File>
/export/apps/rDock/src/rDock_2013.1_src/data/scripts/dock_solv.prm

>  <Rbt.Receptor>
prm/blind_docking_100.prm

>  <SCORE>
14.4628

>  <SCORE.INTER>
2.78264

>  <SCORE.INTER.CONST>
1

>  <SCORE.INTER.POLAR>
0

>  <SCORE.INTER.ROT>
13

>  <SCORE.INTER.SOLV>
30.6746

>  <SCORE.INTER.VDW>
-20.6364

>  <SCORE.INTER.norm>
0.0604922

>  <SCORE.INTRA>
9.29279

>  <SCORE.INTRA.DIHEDRAL>
2.64479

>  <SCORE.INTRA.DIHEDRAL.0>
19.7146

>  <SCORE.INTRA.POLAR>
0

>  <SCORE.INTRA.POLAR.0>
0

>  <SCORE.INTRA.REPUL>
0.0196746

>  <SCORE.INTRA.REPUL.0>
0

>  <SCORE.INTRA.SOLV>
5.05692

>  <SCORE.INTRA.SOLV.lig_0>
-116.697

>  <SCORE.INTRA.VDW>
5.34356

>  <SCORE.INTRA.VDW.0>
-7.06424

>  <SCORE.INTRA.norm>
0.202017

>  <SCORE.RESTR>
2.38734

>  <SCORE.RESTR.CAVITY>
2.38734

>  <SCORE.RESTR.norm>
0.0518988

>  <SCORE.SYSTEM>
0

>  <SCORE.SYSTEM.CONST>
0

>  <SCORE.SYSTEM.DIHEDRAL>
0

>  <SCORE.SYSTEM.SOLV>
0

>  <SCORE.SYSTEM.norm>
0

>  <SCORE.heavy>
46

>  <SCORE.norm>
0.314408

>  <RMSD>
31.161

$$$$
lig.pdb
 OpenBabel03061811583D
libRbt.so/2013.1/901 2013/11/27
 46 49  0  0  0  0  0  0  0  0999 V2000
   -9.1961    1.6050   20.7864 C   0  0  1  0  0  0  0  0  0  0  0  0
  -10.7354    3.3657   19.8177 C   0  0  1  0  0  0  0  0  0  0  0  0
  -11.6450    2.6296   18.7879 C   0  0  1  0  0  0  0  0  0  0  0  0
  -12.1214    3.6860   17.6654 C   0  0  2  0  0  0  0  0  0  0  0  0
   -9.9690    1.5927   17.1898 C   0  0  2  0  0  0  0  0  0  0  0  0
  -10.3418    0.6454   16.0140 C   0  0  1  0  0  0  0  0  0  0  0  0
   -9.6440    1.4010   14.9090 C   0  0  1  0  0  0  0  0  0  0  0  0
  -10.0373    2.8947   15.1397 C   0  0  1  0  0  0  0  0  0  0  0  0
  -11.4309    3.3546   14.5844 C   0  0  0  0  0  0  0  0  0  0  0  0
   -7.5973    0.1661   14.3012 C   0  0  1  0  0  0  0  0  0  0  0  0
   -7.1699    0.5569   12.9179 C   0  0  1  0  0  0  0  0  0  0  0  0
   -9.2481    0.5481   21.9149 C   0  0  1  0  0  0  0  0  0  0  0  0
   -6.6229   -0.7198   12.1863 C   0  0  0  0  0  0  0  0  0  0  0  0
   -7.5727   -1.7863   12.0484 C   0  0  0  0  0  0  0  0  0  0  0  0
   -7.9830   -2.2156   13.3684 C   0  0  2  0  0  0  0  0  0  0  0  0
   -9.0396   -3.3864   13.2809 C   0  0  0  0  0  0  0  0  0  0  0  0
  -14.1406    6.6004   14.7363 C   0  0  2  0  0  0  0  0  0  0  0  0
  -14.7551    5.5607   16.7598 C   0  0  0  0  0  0  0  0  0  0  0  0
  -14.6398    5.7207   13.7944 C   0  0  0  0  0  0  0  0  0  0  0  0
  -15.0584    6.7511   15.7233 C   0  0  1  0  0  0  0  0  0  0  0  0
   -9.0821    1.2313   23.3479 C   0  0  0  0  0  0  0  0  0  0  0  0
   -7.6857    2.0199   23.3686 C   0  0  0  0  0  0  0  0  0  0  0  0
   -7.7190    3.1096   22.1993 C   0  0  1  0  0  0  0  0  0  0  0  0
   -6.4148    3.9130   22.1286 C   0  0  0  0  0  0  0  0  0  0  0  0
  -12.9854    4.8124   18.3833 C   0  0  1  0  0  0  0  0  0  0  0  0
  -11.9849    5.5549   19.4195 C   0  0  0  0  0  0  0  0  0  0  0  0
  -11.4833    4.5319   20.5102 C   0  0  2  0  0  0  0  0  0  0  0  0
  -13.7881    7.8466   14.0942 F   0  0  0  0  0  0  0  0  0  0  0  0
   -9.5438   -3.6468   11.8324 N   0  0  0  0  0  0  0  0  0  0  0  0
  -10.5489   -0.2082   21.7911 N   0  0  0  0  0  0  0  0  0  0  0  0
   -8.2078    1.0302   12.1104 N   0  0  0  0  0  0  0  0  0  0  0  0
  -14.0006    4.7466   12.9921 N   0  0  0  0  0  0  0  0  0  0  0  0
   -6.1423    4.5473   23.3592 N   0  0  0  0  0  0  0  0  0  0  0  0
  -13.4527    5.7935   17.3875 N   0  0  0  0  0  0  0  0  0  0  0  0
  -10.5581    5.1934   21.4568 N   0  0  0  0  0  0  0  0  0  0  0  0
  -10.3277    2.4738   20.8472 O   0  0  0  0  0  0  0  0  0  0  0  0
  -10.8172    1.5302   18.1886 O   0  0  0  0  0  0  0  0  0  0  0  0
  -12.9220    3.0128   16.7699 O   0  0  0  0  0  0  0  0  0  0  0  0
   -9.7986   -0.6128   16.2768 O   0  0  0  0  0  0  0  0  0  0  0  0
   -9.8246    2.9153   16.5611 O   0  0  0  0  0  0  0  0  0  0  0  0
  -11.3311    3.3876   13.1467 O   0  0  0  0  0  0  0  0  0  0  0  0
   -8.1453    1.1955   15.0351 O   0  0  0  0  0  0  0  0  0  0  0  0
  -14.9567    8.0229   16.4003 O   0  0  0  0  0  0  0  0  0  0  0  0
  -15.5227    4.6117   16.9897 O   0  0  0  0  0  0  0  0  0  0  0  0
   -8.5434   -1.0503   14.1492 O   0  0  0  0  0  0  0  0  0  0  0  0
   -7.9383    2.4223   20.8615 O   0  0  0  0  0  0  0  0  0  0  0  0
  1 36  1  1  0  0  0
  2 36  1  1  0  0  0
  2  3  1  0  0  0  0
  3 37  1  6  0  0  0
  3  4  1  0  0  0  0
  4 38  1  6  0  0  0
  5 37  1  1  0  0  0
  5  6  1  0  0  0  0
  6  7  1  0  0  0  0
  6 39  1  1  0  0  0
  7 42  1  1  0  0  0
  8  9  1  1  0  0  0
  8  7  1  0  0  0  0
 10 42  1  6  0  0  0
 10 11  1  0  0  0  0
 11 31  1  6  0  0  0
 11 13  1  0  0  0  0
 12 30  1  1  0  0  0
 12  1  1  0  0  0  0
 14 13  1  0  0  0  0
 15 16  1  6  0  0  0
 15 14  1  0  0  0  0
 17 19  1  6  0  0  0
 17 28  1  0  0  0  0
 18 34  1  0  0  0  0
 19 32  1  0  0  0  0
 20 18  1  1  0  0  0
 20 17  1  0  0  0  0
 20 43  1  0  0  0  0
 21 12  1  0  0  0  0
 22 21  1  0  0  0  0
 22 23  1  0  0  0  0
 23 24  1  6  0  0  0
 23 46  1  0  0  0  0
 24 33  1  0  0  0  0
 25 34  1  6  0  0  0
 25  4  1  0  0  0  0
 26 25  1  0  0  0  0
 27 35  1  1  0  0  0
 27 26  1  0  0  0  0
 27  2  1  0  0  0  0
 29 16  1  0  0  0  0
 40  8  1  0  0  0  0
 40  5  1  0  0  0  0
 41  9  1  0  0  0  0
 44 18  2  0  0  0  0
 45 15  1  0  0  0  0
 45 10  1  0  0  0  0
 46  1  1  0  0  0  0
M  END
>  <CHROM.1>
-166.28480043,85.86924990,-84.09930071,-121.09836173,93.56174406,-70.97546022
88.95836092,-8.75083409,-145.05183371,66.98038661,87.03620062,-57.14813712
91.32984728,-10.52110058,2.58285173,17.04084046,-1.96444629,0.80084121,-1.90999211

>  <Name>
lig.pdb

>  <RI>
0

>  <Rbt.Current_Directory>
/home/afrankz/demos/rdock_decoys_rna/rnas/3wru

>  <Rbt.Executable>
rbdock ($Id: //depot/dev/client3/rdock/2013.1/src/exe/rbdock.cxx#4 $)

>  <Rbt.Library>
libRbt.so (2013.1, Build901 2013/11/27)

>  <Rbt.Parameter_File>
/export/apps/rDock/src/rDock_2013.1_src/data/scripts/dock_solv.prm

>  <Rbt.Receptor>
prm/blind_docking_80.prm

>  <SCORE>
18.9881

>  <SCORE.INTER>
-2.21509

>  <SCORE.INTER.CONST>
1

>  <SCORE.INTER.POLAR>
0

>  <SCORE.INTER.ROT>
13

>  <SCORE.INTER.SOLV>
31.8254

>  <SCORE.INTER.VDW>
-24.3519

>  <SCORE.INTER.norm>
-0.0481541

>  <SCORE.INTRA>
11.8724

>  <SCORE.INTRA.DIHEDRAL>
13.6416

>  <SCORE.INTRA.DIHEDRAL.0>
19.7146

>  <SCORE.INTRA.POLAR>
0

>  <SCORE.INTRA.POLAR.0>
0

>  <SCORE.INTRA.REPUL>
0

>  <SCORE.INTRA.REPUL.0>
0

>  <SCORE.INTRA.SOLV>
3.54322

>  <SCORE.INTRA.SOLV.lig_0>
-116.697

>  <SCORE.INTRA.VDW>
3.27993

>  <SCORE.INTRA.VDW.0>
-7.06424

>  <SCORE.INTRA.norm>
0.258095

>  <SCORE.RESTR>
9.33079

>  <SCORE.RESTR.CAVITY>
9.33079

>  <SCORE.RESTR.norm>
0.202843

>  <SCORE.SYSTEM>
0

>  <SCORE.SYSTEM.CONST>
0

>  <SCORE.SYSTEM.DIHEDRAL>
0

>  <SCORE.SYSTEM.SOLV>
0

>  <SCORE.SYSTEM.norm>
0

>  <SCORE.heavy>
46

>  <SCORE.norm>
0.412784

>  <RMSD>
31.173

$$$$
lig.pdb
 OpenBabel03061811583D
libRbt.so/2013.1/901 2013/11/27
 46 49  0  0  0  0  0  0  0  0999 V2000
   -9.8317    0.3698   17.8661 C   0  0  1  0  0  0  0  0  0  0  0  0
  -10.8735    2.6693   17.6786 C   0  0  1  0  0  0  0  0  0  0  0  0
  -11.5607    3.4949   16.5492 C   0  0  1  0  0  0  0  0  0  0  0  0
  -11.7352    5.0185   17.0504 C   0  0  2  0  0  0  0  0  0  0  0  0
  -10.3148    2.3554   14.6553 C   0  0  2  0  0  0  0  0  0  0  0  0
  -11.5276    1.6053   14.0347 C   0  0  1  0  0  0  0  0  0  0  0  0
  -10.8010    0.9510   12.8845 C   0  0  1  0  0  0  0  0  0  0  0  0
   -9.9214    2.0874   12.2729 C   0  0  1  0  0  0  0  0  0  0  0  0
  -10.6280    3.0720   11.2763 C   0  0  0  0  0  0  0  0  0  0  0  0
   -9.9491   -1.3554   12.6881 C   0  0  1  0  0  0  0  0  0  0  0  0
   -9.0677   -2.4308   13.2497 C   0  0  1  0  0  0  0  0  0  0  0  0
   -9.4275   -0.7142   16.8390 C   0  0  1  0  0  0  0  0  0  0  0  0
   -9.1248   -3.6726   12.2911 C   0  0  0  0  0  0  0  0  0  0  0  0
   -8.6782   -3.4183   10.9515 C   0  0  0  0  0  0  0  0  0  0  0  0
   -9.5303   -2.4074   10.3624 C   0  0  2  0  0  0  0  0  0  0  0  0
   -9.0802   -2.0773    8.8848 C   0  0  0  0  0  0  0  0  0  0  0  0
  -15.0014    8.3698   20.7096 C   0  0  2  0  0  0  0  0  0  0  0  0
  -13.6160    6.5771   20.0614 C   0  0  0  0  0  0  0  0  0  0  0  0
  -15.7750    8.1797   19.5802 C   0  0  0  0  0  0  0  0  0  0  0  0
  -13.7018    8.1478   20.3915 C   0  0  1  0  0  0  0  0  0  0  0  0
  -10.6752   -1.6320   16.4535 C   0  0  0  0  0  0  0  0  0  0  0  0
  -11.2393   -2.3014   17.7973 C   0  0  0  0  0  0  0  0  0  0  0  0
  -11.6622   -1.1242   18.7930 C   0  0  1  0  0  0  0  0  0  0  0  0
  -12.2064   -1.6657   20.1205 C   0  0  0  0  0  0  0  0  0  0  0  0
  -12.6918    5.0130   18.3215 C   0  0  1  0  0  0  0  0  0  0  0  0
  -11.9171    4.1644   19.4642 C   0  0  0  0  0  0  0  0  0  0  0  0
  -11.7097    2.6768   18.9823 C   0  0  2  0  0  0  0  0  0  0  0  0
  -15.4797    7.5142   21.7721 F   0  0  0  0  0  0  0  0  0  0  0  0
   -9.5641   -3.1324    7.8490 N   0  0  0  0  0  0  0  0  0  0  0  0
   -8.8346   -0.0229   15.6349 N   0  0  0  0  0  0  0  0  0  0  0  0
   -7.7162   -2.0823   13.3242 N   0  0  0  0  0  0  0  0  0  0  0  0
  -15.8645    8.9117   18.3730 N   0  0  0  0  0  0  0  0  0  0  0  0
  -13.4572   -2.2927   19.9381 N   0  0  0  0  0  0  0  0  0  0  0  0
  -12.8883    6.3918   18.8042 N   0  0  0  0  0  0  0  0  0  0  0  0
  -10.9917    1.8925   20.0112 N   0  0  0  0  0  0  0  0  0  0  0  0
  -10.7389    1.3089   17.2879 O   0  0  0  0  0  0  0  0  0  0  0  0
  -10.6646    3.4132   15.3479 O   0  0  0  0  0  0  0  0  0  0  0  0
  -12.3436    5.7255   16.0375 O   0  0  0  0  0  0  0  0  0  0  0  0
  -12.0194    0.7082   14.9837 O   0  0  0  0  0  0  0  0  0  0  0  0
   -9.4209    2.6103   13.5146 O   0  0  0  0  0  0  0  0  0  0  0  0
  -11.0535    2.2984   10.1368 O   0  0  0  0  0  0  0  0  0  0  0  0
   -9.9479   -0.1860   13.4171 O   0  0  0  0  0  0  0  0  0  0  0  0
  -13.2621    8.9100   19.2462 O   0  0  0  0  0  0  0  0  0  0  0  0
  -14.0846    5.6781   20.7789 O   0  0  0  0  0  0  0  0  0  0  0  0
   -9.5271   -1.1580   11.2114 O   0  0  0  0  0  0  0  0  0  0  0  0
  -10.4603   -0.2412   19.0857 O   0  0  0  0  0  0  0  0  0  0  0  0
  1 36  1  6  0  0  0
  2 36  1  6  0  0  0
  2  3  1  0  0  0  0
  3 37  1  6  0  0  0
  3  4  1  0  0  0  0
  4 38  1  6  0  0  0
  5 37  1  6  0  0  0
  5  6  1  0  0  0  0
  6  7  1  0  0  0  0
  6 39  1  1  0  0  0
  7 42  1  1  0  0  0
  8  9  1  1  0  0  0
  8  7  1  0  0  0  0
 10 42  1  1  0  0  0
 10 11  1  0  0  0  0
 11 31  1  6  0  0  0
 11 13  1  0  0  0  0
 12 30  1  6  0  0  0
 12  1  1  0  0  0  0
 14 13  1  0  0  0  0
 15 16  1  6  0  0  0
 15 14  1  0  0  0  0
 17 19  1  6  0  0  0
 17 28  1  0  0  0  0
 18 34  1  0  0  0  0
 19 32  1  0  0  0  0
 20 18  1  6  0  0  0
 20 17  1  0  0  0  0
 20 43  1  0  0  0  0
 21 12  1  0  0  0  0
 22 21  1  0  0  0  0
 22 23  1  0  0  0  0
 23 24  1  1  0  0  0
 23 46  1  0  0  0  0
 24 33  1  0  0  0  0
 25 34  1  1  0  0  0
 25  4  1  0  0  0  0
 26 25  1  0  0  0  0
 27 35  1  1  0  0  0
 27 26  1  0  0  0  0
 27  2  1  0  0  0  0
 29 16  1  0  0  0  0
 40  8  1  0  0  0  0
 40  5  1  0  0  0  0
 41  9  1  0  0  0  0
 44 18  2  0  0  0  0
 45 15  1  0  0  0  0
 45 10  1  0  0  0  0
 46  1  1  0  0  0  0
M  END
>  <CHROM.1>
-151.67071285,160.30374057,62.73300028,59.43762513,137.58638188,-63.35972753
178.87028802,79.22743377,-67.82543633,132.22941575,-67.08750045,-69.20708126
-173.10784584,-11.34311925,1.96656733,16.03505357,-0.14479180,-1.19867900
2.17890010

>  <Name>
lig.pdb

>  <RI>
0

>  <Rbt.Current_Directory>
/home/afrankz/demos/rdock_decoys_rna/rnas/3wru

>  <Rbt.Executable>
rbdock ($Id: //depot/dev/client3/rdock/2013.1/src/exe/rbdock.cxx#4 $)

>  <Rbt.Library>
libRbt.so (2013.1, Build901 2013/11/27)

>  <Rbt.Parameter_File>
/export/apps/rDock/src/rDock_2013.1_src/data/scripts/dock_solv.prm

>  <Rbt.Receptor>
prm/blind_docking_40.prm

>  <SCORE>
22.8827

>  <SCORE.INTER>
7.64276

>  <SCORE.INTER.CONST>
1

>  <SCORE.INTER.POLAR>
0

>  <SCORE.INTER.ROT>
13

>  <SCORE.INTER.SOLV>
24.7823

>  <SCORE.INTER.VDW>
-15.4323

>  <SCORE.INTER.norm>
0.166147

>  <SCORE.INTRA>
8.1645

>  <SCORE.INTRA.DIHEDRAL>
-4.49236

>  <SCORE.INTRA.DIHEDRAL.0>
19.7146

>  <SCORE.INTRA.POLAR>
0

>  <SCORE.INTRA.POLAR.0>
0

>  <SCORE.INTRA.REPUL>
0.0458849

>  <SCORE.INTRA.REPUL.0>
0

>  <SCORE.INTRA.SOLV>
9.51691

>  <SCORE.INTRA.SOLV.lig_0>
-116.697

>  <SCORE.INTRA.VDW>
5.4228

>  <SCORE.INTRA.VDW.0>
-7.06424

>  <SCORE.INTRA.norm>
0.177489

>  <SCORE.RESTR>
7.07542

>  <SCORE.RESTR.CAVITY>
7.07542

>  <SCORE.RESTR.norm>
0.153813

>  <SCORE.SYSTEM>
0

>  <SCORE.SYSTEM.CONST>
0

>  <SCORE.SYSTEM.DIHEDRAL>
0

>  <SCORE.SYSTEM.SOLV>
0

>  <SCORE.SYSTEM.norm>
0

>  <SCORE.heavy>
46

>  <SCORE.norm>
0.49745

>  <RMSD>
31.178

$$$$
lig.pdb
 OpenBabel03061811583D
libRbt.so/2013.1/901 2013/11/27
 46 49  0  0  0  0  0  0  0  0999 V2000
  -10.6770    2.4916   21.5323 C   0  0  1  0  0  0  0  0  0  0  0  0
  -10.8466    3.4491   19.1952 C   0  0  1  0  0  0  0  0  0  0  0  0
  -11.5497    2.4200   18.2590 C   0  0  1  0  0  0  0  0  0  0  0  0
  -12.3649    3.2228   17.1216 C   0  0  2  0  0  0  0  0  0  0  0  0
  -10.5501    0.7093   16.6739 C   0  0  2  0  0  0  0  0  0  0  0  0
   -9.2637   -0.1478   16.5036 C   0  0  1  0  0  0  0  0  0  0  0  0
   -9.8974   -1.3431   15.8339 C   0  0  1  0  0  0  0  0  0  0  0  0
  -11.1787   -1.6375   16.6769 C   0  0  1  0  0  0  0  0  0  0  0  0
  -10.9853   -2.4684   17.9937 C   0  0  0  0  0  0  0  0  0  0  0  0
   -9.8241   -1.8581   13.4228 C   0  0  1  0  0  0  0  0  0  0  0  0
   -8.3376   -2.0485   13.3680 C   0  0  1  0  0  0  0  0  0  0  0  0
   -9.7575    1.5133   22.3009 C   0  0  1  0  0  0  0  0  0  0  0  0
   -8.0032   -3.0174   12.1789 C   0  0  0  0  0  0  0  0  0  0  0  0
   -8.4159   -2.5479   10.8874 C   0  0  0  0  0  0  0  0  0  0  0  0
   -9.8542   -2.3857   10.8906 C   0  0  2  0  0  0  0  0  0  0  0  0
  -10.3686   -1.8601    9.4928 C   0  0  0  0  0  0  0  0  0  0  0  0
  -15.0571    5.4962   14.2612 C   0  0  2  0  0  0  0  0  0  0  0  0
  -13.5674    5.8605   16.0504 C   0  0  0  0  0  0  0  0  0  0  0  0
  -16.3882    5.7165   13.9616 C   0  0  0  0  0  0  0  0  0  0  0  0
  -14.6030    6.5265   15.0173 C   0  0  1  0  0  0  0  0  0  0  0  0
   -9.7442    0.0753   21.6082 C   0  0  0  0  0  0  0  0  0  0  0  0
  -11.2506   -0.4734   21.5632 C   0  0  0  0  0  0  0  0  0  0  0  0
  -12.1297    0.5708   20.7310 C   0  0  1  0  0  0  0  0  0  0  0  0
  -13.5983    0.1386   20.6412 C   0  0  0  0  0  0  0  0  0  0  0  0
  -13.4848    4.0948   17.8401 C   0  0  1  0  0  0  0  0  0  0  0  0
  -12.6964    5.1566   18.7765 C   0  0  0  0  0  0  0  0  0  0  0  0
  -11.8683    4.3910   19.8792 C   0  0  2  0  0  0  0  0  0  0  0  0
  -14.3096    5.3184   13.0368 F   0  0  0  0  0  0  0  0  0  0  0  0
  -10.1258   -2.8693    8.3341 N   0  0  0  0  0  0  0  0  0  0  0  0
   -8.3786    2.1236   22.3742 N   0  0  0  0  0  0  0  0  0  0  0  0
   -7.6199   -0.8783   13.1053 N   0  0  0  0  0  0  0  0  0  0  0  0
  -17.3686    4.8769   13.3828 N   0  0  0  0  0  0  0  0  0  0  0  0
  -13.7070   -1.2592   20.4821 N   0  0  0  0  0  0  0  0  0  0  0  0
  -14.2634    4.8361   16.8318 N   0  0  0  0  0  0  0  0  0  0  0  0
  -11.1325    5.3481   20.7347 N   0  0  0  0  0  0  0  0  0  0  0  0
  -10.1493    2.7779   20.2366 O   0  0  0  0  0  0  0  0  0  0  0  0
  -10.4668    1.5708   17.6598 O   0  0  0  0  0  0  0  0  0  0  0  0
  -12.9760    2.2935   16.3097 O   0  0  0  0  0  0  0  0  0  0  0  0
   -8.3732    0.5561   15.6919 O   0  0  0  0  0  0  0  0  0  0  0  0
  -11.6350   -0.2787   16.7840 O   0  0  0  0  0  0  0  0  0  0  0  0
  -12.2755   -2.5761   18.6276 O   0  0  0  0  0  0  0  0  0  0  0  0
  -10.2459   -0.9838   14.4008 O   0  0  0  0  0  0  0  0  0  0  0  0
  -13.9307    7.5430   14.2421 O   0  0  0  0  0  0  0  0  0  0  0  0
  -12.3678    6.1681   16.1448 O   0  0  0  0  0  0  0  0  0  0  0  0
  -10.2747   -1.4493   11.9989 O   0  0  0  0  0  0  0  0  0  0  0  0
  -12.0662    1.9383   21.3912 O   0  0  0  0  0  0  0  0  0  0  0  0
  1 36  1  6  0  0  0
  2 36  1  1  0  0  0
  2  3  1  0  0  0  0
  3 37  1  6  0  0  0
  3  4  1  0  0  0  0
  4 38  1  6  0  0  0
  5 37  1  1  0  0  0
  5  6  1  0  0  0  0
  6  7  1  0  0  0  0
  6 39  1  6  0  0  0
  7 42  1  6  0  0  0
  8  9  1  1  0  0  0
  8  7  1  0  0  0  0
 10 42  1  1  0  0  0
 10 11  1  0  0  0  0
 11 31  1  6  0  0  0
 11 13  1  0  0  0  0
 12 30  1  6  0  0  0
 12  1  1  0  0  0  0
 14 13  1  0  0  0  0
 15 16  1  6  0  0  0
 15 14  1  0  0  0  0
 17 19  1  6  0  0  0
 17 28  1  0  0  0  0
 18 34  1  0  0  0  0
 19 32  1  0  0  0  0
 20 18  1  1  0  0  0
 20 17  1  0  0  0  0
 20 43  1  0  0  0  0
 21 12  1  0  0  0  0
 22 21  1  0  0  0  0
 22 23  1  0  0  0  0
 23 24  1  1  0  0  0
 23 46  1  0  0  0  0
 24 33  1  0  0  0  0
 25 34  1  6  0  0  0
 25  4  1  0  0  0  0
 26 25  1  0  0  0  0
 27 35  1  1  0  0  0
 27 26  1  0  0  0  0
 27  2  1  0  0  0  0
 29 16  1  0  0  0  0
 40  8  1  0  0  0  0
 40  5  1  0  0  0  0
 41  9  1  0  0  0  0
 44 18  2  0  0  0  0
 45 15  1  0  0  0  0
 45 10  1  0  0  0  0
 46  1  1  0  0  0  0
M  END
>  <CHROM.1>
168.66340611,-93.28961957,-169.03126551,-170.20514517,129.90797612,177.94199313
-59.99664204,64.44695587,-169.43962168,-58.44557095,144.29457510,-38.22426460
-65.15042516,-11.49323830,1.47800915,16.58383835,-2.15083427,0.99538631,-1.73231805

>  <Name>
lig.pdb

>  <RI>
0

>  <Rbt.Current_Directory>
/home/afrankz/demos/rdock_decoys_rna/rnas/3wru

>  <Rbt.Executable>
rbdock ($Id: //depot/dev/client3/rdock/2013.1/src/exe/rbdock.cxx#4 $)

>  <Rbt.Library>
libRbt.so (2013.1, Build901 2013/11/27)

>  <Rbt.Parameter_File>
/export/apps/rDock/src/rDock_2013.1_src/data/scripts/dock_solv.prm

>  <Rbt.Receptor>
prm/blind_docking_100.prm

>  <SCORE>
12.0686

>  <SCORE.INTER>
6.1193

>  <SCORE.INTER.CONST>
1

>  <SCORE.INTER.POLAR>
0

>  <SCORE.INTER.ROT>
13

>  <SCORE.INTER.SOLV>
31.1092

>  <SCORE.INTER.VDW>
-18.5569

>  <SCORE.INTER.norm>
0.133028

>  <SCORE.INTRA>
3.22469

>  <SCORE.INTRA.DIHEDRAL>
-1.1385

>  <SCORE.INTRA.DIHEDRAL.0>
19.7146

>  <SCORE.INTRA.POLAR>
0

>  <SCORE.INTRA.POLAR.0>
0

>  <SCORE.INTRA.REPUL>
0.0295471

>  <SCORE.INTRA.REPUL.0>
0

>  <SCORE.INTRA.SOLV>
1.50005

>  <SCORE.INTRA.SOLV.lig_0>
-116.697

>  <SCORE.INTRA.VDW>
2.89618

>  <SCORE.INTRA.VDW.0>
-7.06424

>  <SCORE.INTRA.norm>
0.070102

>  <SCORE.RESTR>
2.72459

>  <SCORE.RESTR.CAVITY>
2.72459

>  <SCORE.RESTR.norm>
0.0592302

>  <SCORE.SYSTEM>
0

>  <SCORE.SYSTEM.CONST>
0

>  <SCORE.SYSTEM.DIHEDRAL>
0

>  <SCORE.SYSTEM.SOLV>
0

>  <SCORE.SYSTEM.norm>
0

>  <SCORE.heavy>
46

>  <SCORE.norm>
0.26236

>  <RMSD>
31.244

$$$$
lig.pdb
 OpenBabel03061811583D
libRbt.so/2013.1/901 2013/11/27
 46 49  0  0  0  0  0  0  0  0999 V2000
  -12.4047    6.2894   18.6396 C   0  0  1  0  0  0  0  0  0  0  0  0
  -11.6311    4.4051   17.1367 C   0  0  1  0  0  0  0  0  0  0  0  0
  -10.7927    3.2394   17.7433 C   0  0  1  0  0  0  0  0  0  0  0  0
   -9.8647    2.6075   16.5846 C   0  0  2  0  0  0  0  0  0  0  0  0
   -9.3368    3.2176   19.8211 C   0  0  2  0  0  0  0  0  0  0  0  0
  -10.1156    3.2572   21.1667 C   0  0  1  0  0  0  0  0  0  0  0  0
   -9.5169    2.0194   21.7899 C   0  0  1  0  0  0  0  0  0  0  0  0
   -9.5540    0.9464   20.6557 C   0  0  1  0  0  0  0  0  0  0  0  0
  -10.9117    0.1901   20.4396 C   0  0  0  0  0  0  0  0  0  0  0  0
   -7.9406    3.0580   23.3773 C   0  0  1  0  0  0  0  0  0  0  0  0
   -6.6783    3.8661   23.4268 C   0  0  1  0  0  0  0  0  0  0  0  0
  -12.9800    6.3629   20.0738 C   0  0  1  0  0  0  0  0  0  0  0  0
   -6.6130    4.6035   24.8111 C   0  0  0  0  0  0  0  0  0  0  0  0
   -6.6029    3.7359   25.9538 C   0  0  0  0  0  0  0  0  0  0  0  0
   -7.8264    2.9624   25.9598 C   0  0  2  0  0  0  0  0  0  0  0  0
   -7.8690    1.9783   27.1945 C   0  0  0  0  0  0  0  0  0  0  0  0
   -9.1447   -1.5905   12.9643 C   0  0  2  0  0  0  0  0  0  0  0  0
   -9.4662    0.0654   14.6098 C   0  0  0  0  0  0  0  0  0  0  0  0
   -8.6505   -1.9430   11.7227 C   0  0  0  0  0  0  0  0  0  0  0  0
   -8.6297   -0.3854   13.3136 C   0  0  1  0  0  0  0  0  0  0  0  0
  -14.5537    6.0959   20.0745 C   0  0  0  0  0  0  0  0  0  0  0  0
  -15.2476    7.1862   19.1247 C   0  0  0  0  0  0  0  0  0  0  0  0
  -14.6263    7.0291   17.6600 C   0  0  1  0  0  0  0  0  0  0  0  0
  -15.2208    8.0427   16.6748 C   0  0  0  0  0  0  0  0  0  0  0  0
  -10.8182    2.0085   15.4608 C   0  0  1  0  0  0  0  0  0  0  0  0
  -11.6427    3.2646   14.8538 C   0  0  0  0  0  0  0  0  0  0  0  0
  -12.5360    3.9164   15.9785 C   0  0  2  0  0  0  0  0  0  0  0  0
   -8.8436   -2.6342   13.9180 F   0  0  0  0  0  0  0  0  0  0  0  0
   -7.3998    2.6422   28.5209 N   0  0  0  0  0  0  0  0  0  0  0  0
  -12.2329    5.3701   20.9314 N   0  0  0  0  0  0  0  0  0  0  0  0
   -5.5082    3.1049   23.3570 N   0  0  0  0  0  0  0  0  0  0  0  0
   -8.7930   -3.1261   10.9601 N   0  0  0  0  0  0  0  0  0  0  0  0
  -16.5352    7.6834   16.3084 N   0  0  0  0  0  0  0  0  0  0  0  0
  -10.0074    1.4078   14.3865 N   0  0  0  0  0  0  0  0  0  0  0  0
  -13.2856    5.0735   15.4414 N   0  0  0  0  0  0  0  0  0  0  0  0
  -12.4928    4.9619   18.1209 O   0  0  0  0  0  0  0  0  0  0  0  0
   -9.9643    3.8313   18.8461 O   0  0  0  0  0  0  0  0  0  0  0  0
   -9.1362    1.5819   17.1444 O   0  0  0  0  0  0  0  0  0  0  0  0
   -9.7899    4.4431   21.8262 O   0  0  0  0  0  0  0  0  0  0  0  0
   -9.0627    1.7890   19.6000 O   0  0  0  0  0  0  0  0  0  0  0  0
  -11.4311   -0.1417   21.7428 O   0  0  0  0  0  0  0  0  0  0  0  0
   -8.0937    2.3195   22.2241 O   0  0  0  0  0  0  0  0  0  0  0  0
   -7.2236   -0.4446   13.6387 O   0  0  0  0  0  0  0  0  0  0  0  0
   -9.6296   -0.6338   15.6232 O   0  0  0  0  0  0  0  0  0  0  0  0
   -7.9710    2.1982   24.6648 O   0  0  0  0  0  0  0  0  0  0  0  0
  -13.1210    7.2319   17.7152 O   0  0  0  0  0  0  0  0  0  0  0  0
  1 36  1  6  0  0  0
  2 36  1  1  0  0  0
  2  3  1  0  0  0  0
  3 37  1  1  0  0  0
  3  4  1  0  0  0  0
  4 38  1  1  0  0  0
  5 37  1  6  0  0  0
  5  6  1  0  0  0  0
  6  7  1  0  0  0  0
  6 39  1  1  0  0  0
  7 42  1  6  0  0  0
  8  9  1  6  0  0  0
  8  7  1  0  0  0  0
 10 42  1  6  0  0  0
 10 11  1  0  0  0  0
 11 31  1  1  0  0  0
 11 13  1  0  0  0  0
 12 30  1  1  0  0  0
 12  1  1  0  0  0  0
 14 13  1  0  0  0  0
 15 16  1  1  0  0  0
 15 14  1  0  0  0  0
 17 19  1  6  0  0  0
 17 28  1  0  0  0  0
 18 34  1  0  0  0  0
 19 32  1  0  0  0  0
 20 18  1  1  0  0  0
 20 17  1  0  0  0  0
 20 43  1  0  0  0  0
 21 12  1  0  0  0  0
 22 21  1  0  0  0  0
 22 23  1  0  0  0  0
 23 24  1  6  0  0  0
 23 46  1  0  0  0  0
 24 33  1  0  0  0  0
 25 34  1  6  0  0  0
 25  4  1  0  0  0  0
 26 25  1  0  0  0  0
 27 35  1  6  0  0  0
 27 26  1  0  0  0  0
 27  2  1  0  0  0  0
 29 16  1  0  0  0  0
 40  8  1  0  0  0  0
 40  5  1  0  0  0  0
 41  9  1  0  0  0  0
 44 18  2  0  0  0  0
 45 15  1  0  0  0  0
 45 10  1  0  0  0  0
 46  1  1  0  0  0  0
M  END
>  <CHROM.1>
-153.00129810,114.63836238,163.47214042,-99.97494683,76.47996737,-42.82799085
-152.22486732,43.73333824,174.74009916,-127.06387152,169.38290189,-74.37089519
80.20101270,-10.23101461,2.83938512,18.94428571,1.31724534,-0.79313565,1.13850763

>  <Name>
lig.pdb

>  <RI>
0

>  <Rbt.Current_Directory>
/home/afrankz/demos/rdock_decoys_rna/rnas/3wru

>  <Rbt.Executable>
rbdock ($Id: //depot/dev/client3/rdock/2013.1/src/exe/rbdock.cxx#4 $)

>  <Rbt.Library>
libRbt.so (2013.1, Build901 2013/11/27)

>  <Rbt.Parameter_File>
/export/apps/rDock/src/rDock_2013.1_src/data/scripts/dock_solv.prm

>  <Rbt.Receptor>
prm/blind_docking_80.prm

>  <SCORE>
15.6167

>  <SCORE.INTER>
2.71292

>  <SCORE.INTER.CONST>
1

>  <SCORE.INTER.POLAR>
0

>  <SCORE.INTER.ROT>
13

>  <SCORE.INTER.SOLV>
33.7061

>  <SCORE.INTER.VDW>
-21.6934

>  <SCORE.INTER.norm>
0.0589765

>  <SCORE.INTRA>
7.0549

>  <SCORE.INTRA.DIHEDRAL>
7.36561

>  <SCORE.INTRA.DIHEDRAL.0>
19.7146

>  <SCORE.INTRA.POLAR>
0

>  <SCORE.INTRA.POLAR.0>
0

>  <SCORE.INTRA.REPUL>
0

>  <SCORE.INTRA.REPUL.0>
0

>  <SCORE.INTRA.SOLV>
2.95243

>  <SCORE.INTRA.SOLV.lig_0>
-116.697

>  <SCORE.INTRA.VDW>
1.89588

>  <SCORE.INTRA.VDW.0>
-7.06424

>  <SCORE.INTRA.norm>
0.153367

>  <SCORE.RESTR>
5.84885

>  <SCORE.RESTR.CAVITY>
5.84885

>  <SCORE.RESTR.norm>
0.127149

>  <SCORE.SYSTEM>
0

>  <SCORE.SYSTEM.CONST>
0

>  <SCORE.SYSTEM.DIHEDRAL>
0

>  <SCORE.SYSTEM.SOLV>
0

>  <SCORE.SYSTEM.norm>
0

>  <SCORE.heavy>
46

>  <SCORE.norm>
0.339493

>  <RMSD>
31.249

$$$$
lig.pdb
 OpenBabel03061811583D
libRbt.so/2013.1/901 2013/11/27
 46 49  0  0  0  0  0  0  0  0999 V2000
  -13.7465    5.3348   18.2493 C   0  0  1  0  0  0  0  0  0  0  0  0
  -11.7885    4.2705   17.0489 C   0  0  1  0  0  0  0  0  0  0  0  0
  -10.7015    3.1927   17.3431 C   0  0  1  0  0  0  0  0  0  0  0  0
   -9.8258    2.9584   16.0085 C   0  0  2  0  0  0  0  0  0  0  0  0
   -9.7628    3.2886   19.6985 C   0  0  2  0  0  0  0  0  0  0  0  0
  -11.1457    3.0728   20.3765 C   0  0  1  0  0  0  0  0  0  0  0  0
  -10.7207    2.0387   21.3909 C   0  0  1  0  0  0  0  0  0  0  0  0
   -9.8450    1.0279   20.5844 C   0  0  1  0  0  0  0  0  0  0  0  0
  -10.6060   -0.0749   19.7680 C   0  0  0  0  0  0  0  0  0  0  0  0
   -8.7211    3.2881   22.1150 C   0  0  1  0  0  0  0  0  0  0  0  0
   -7.5116    2.5939   22.6664 C   0  0  1  0  0  0  0  0  0  0  0  0
  -13.3785    6.7013   18.8743 C   0  0  1  0  0  0  0  0  0  0  0  0
   -6.2334    3.3831   22.2107 C   0  0  0  0  0  0  0  0  0  0  0  0
   -6.1777    4.7454   22.6575 C   0  0  0  0  0  0  0  0  0  0  0  0
   -7.3140    5.4586   22.1143 C   0  0  2  0  0  0  0  0  0  0  0  0
   -7.3121    6.9677   22.5809 C   0  0  0  0  0  0  0  0  0  0  0  0
   -7.8198   -0.2859   12.1313 C   0  0  2  0  0  0  0  0  0  0  0  0
   -9.1324    1.0001   13.6065 C   0  0  0  0  0  0  0  0  0  0  0  0
   -8.6413   -1.1601   11.4450 C   0  0  0  0  0  0  0  0  0  0  0  0
   -8.4139    0.9326   12.1704 C   0  0  1  0  0  0  0  0  0  0  0  0
  -12.9901    6.5412   20.4142 C   0  0  0  0  0  0  0  0  0  0  0  0
  -14.2353    5.8806   21.1792 C   0  0  0  0  0  0  0  0  0  0  0  0
  -14.5354    4.4651   20.4995 C   0  0  1  0  0  0  0  0  0  0  0  0
  -15.7251    3.7555   21.1571 C   0  0  0  0  0  0  0  0  0  0  0  0
  -10.7930    2.3998   14.8757 C   0  0  1  0  0  0  0  0  0  0  0  0
  -11.8815    3.5676   14.5973 C   0  0  0  0  0  0  0  0  0  0  0  0
  -12.7306    3.8337   15.8997 C   0  0  2  0  0  0  0  0  0  0  0  0
   -6.5148   -0.2612   11.5101 F   0  0  0  0  0  0  0  0  0  0  0  0
   -6.4954    7.8973   21.6380 N   0  0  0  0  0  0  0  0  0  0  0  0
  -12.2563    7.3024   18.0627 N   0  0  0  0  0  0  0  0  0  0  0  0
   -7.4530    2.5684   24.0626 N   0  0  0  0  0  0  0  0  0  0  0  0
   -8.5073   -2.5384   11.1556 N   0  0  0  0  0  0  0  0  0  0  0  0
  -15.3552    3.1844   22.3933 N   0  0  0  0  0  0  0  0  0  0  0  0
  -10.0271    2.1590   13.6397 N   0  0  0  0  0  0  0  0  0  0  0  0
  -13.7211    4.9074   15.6640 N   0  0  0  0  0  0  0  0  0  0  0  0
  -12.6076    4.4753   18.1927 O   0  0  0  0  0  0  0  0  0  0  0  0
   -9.8580    3.7248   18.4649 O   0  0  0  0  0  0  0  0  0  0  0  0
   -8.8752    2.0038   16.2937 O   0  0  0  0  0  0  0  0  0  0  0  0
  -11.5539    4.2853   20.9337 O   0  0  0  0  0  0  0  0  0  0  0  0
   -9.0698    2.0013   19.8652 O   0  0  0  0  0  0  0  0  0  0  0  0
  -10.5419    0.2988   18.3772 O   0  0  0  0  0  0  0  0  0  0  0  0
   -9.9188    2.7171   22.4869 O   0  0  0  0  0  0  0  0  0  0  0  0
   -7.4754    2.0233   12.0446 O   0  0  0  0  0  0  0  0  0  0  0  0
   -8.9560    0.1813   14.5236 O   0  0  0  0  0  0  0  0  0  0  0  0
   -8.6018    4.7790   22.5161 O   0  0  0  0  0  0  0  0  0  0  0  0
  -14.8413    4.6577   19.0232 O   0  0  0  0  0  0  0  0  0  0  0  0
  1 36  1  1  0  0  0
  2 36  1  1  0  0  0
  2  3  1  0  0  0  0
  3 37  1  1  0  0  0
  3  4  1  0  0  0  0
  4 38  1  1  0  0  0
  5 37  1  6  0  0  0
  5  6  1  0  0  0  0
  6  7  1  0  0  0  0
  6 39  1  1  0  0  0
  7 42  1  1  0  0  0
  8  9  1  6  0  0  0
  8  7  1  0  0  0  0
 10 42  1  1  0  0  0
 10 11  1  0  0  0  0
 11 31  1  1  0  0  0
 11 13  1  0  0  0  0
 12 30  1  6  0  0  0
 12  1  1  0  0  0  0
 14 13  1  0  0  0  0
 15 16  1  1  0  0  0
 15 14  1  0  0  0  0
 17 19  1  6  0  0  0
 17 28  1  0  0  0  0
 18 34  1  0  0  0  0
 19 32  1  0  0  0  0
 20 18  1  1  0  0  0
 20 17  1  0  0  0  0
 20 43  1  0  0  0  0
 21 12  1  0  0  0  0
 22 21  1  0  0  0  0
 22 23  1  0  0  0  0
 23 24  1  1  0  0  0
 23 46  1  0  0  0  0
 24 33  1  0  0  0  0
 25 34  1  6  0  0  0
 25  4  1  0  0  0  0
 26 25  1  0  0  0  0
 27 35  1  6  0  0  0
 27 26  1  0  0  0  0
 27  2  1  0  0  0  0
 29 16  1  0  0  0  0
 40  8  1  0  0  0  0
 40  5  1  0  0  0  0
 41  9  1  0  0  0  0
 44 18  2  0  0  0  0
 45 15  1  0  0  0  0
 45 10  1  0  0  0  0
 46  1  1  0  0  0  0
M  END
>  <CHROM.1>
-98.16627076,-176.22053907,111.83712832,-49.29927014,-64.15733007,105.01689949
-111.63249347,87.92289592,-178.21333475,-168.53397711,97.60509011,-76.81156841
73.59227514,-10.27722156,3.13224951,18.28093831,1.77442847,-0.33332996,1.19628295

>  <Name>
lig.pdb

>  <RI>
0

>  <Rbt.Current_Directory>
/home/afrankz/demos/rdock_decoys_rna/rnas/3wru

>  <Rbt.Executable>
rbdock ($Id: //depot/dev/client3/rdock/2013.1/src/exe/rbdock.cxx#4 $)

>  <Rbt.Library>
libRbt.so (2013.1, Build901 2013/11/27)

>  <Rbt.Parameter_File>
/export/apps/rDock/src/rDock_2013.1_src/data/scripts/dock_solv.prm

>  <Rbt.Receptor>
prm/blind_docking_80.prm

>  <SCORE>
36.8341

>  <SCORE.INTER>
12.2591

>  <SCORE.INTER.CONST>
1

>  <SCORE.INTER.POLAR>
0

>  <SCORE.INTER.ROT>
13

>  <SCORE.INTER.SOLV>
33.4771

>  <SCORE.INTER.VDW>
-15.253

>  <SCORE.INTER.norm>
0.266503

>  <SCORE.INTRA>
14.0782

>  <SCORE.INTRA.DIHEDRAL>
11.9476

>  <SCORE.INTRA.DIHEDRAL.0>
19.7146

>  <SCORE.INTRA.POLAR>
0

>  <SCORE.INTRA.POLAR.0>
0

>  <SCORE.INTRA.REPUL>
0.0687454

>  <SCORE.INTRA.REPUL.0>
0

>  <SCORE.INTRA.SOLV>
2.44051

>  <SCORE.INTRA.SOLV.lig_0>
-116.697

>  <SCORE.INTRA.VDW>
6.54042

>  <SCORE.INTRA.VDW.0>
-7.06424

>  <SCORE.INTRA.norm>
0.306048

>  <SCORE.RESTR>
10.4967

>  <SCORE.RESTR.CAVITY>
10.4967

>  <SCORE.RESTR.norm>
0.22819

>  <SCORE.SYSTEM>
0

>  <SCORE.SYSTEM.CONST>
0

>  <SCORE.SYSTEM.DIHEDRAL>
0

>  <SCORE.SYSTEM.SOLV>
0

>  <SCORE.SYSTEM.norm>
0

>  <SCORE.heavy>
46

>  <SCORE.norm>
0.80074

>  <RMSD>
31.259

$$$$
lig.pdb
 OpenBabel03061811583D
libRbt.so/2013.1/901 2013/11/27
 46 49  0  0  0  0  0  0  0  0999 V2000
  -12.4784    6.3356   18.3844 C   0  0  1  0  0  0  0  0  0  0  0  0
  -11.5940    4.3692   17.0581 C   0  0  1  0  0  0  0  0  0  0  0  0
  -10.7998    3.1709   17.6607 C   0  0  1  0  0  0  0  0  0  0  0  0
   -9.8895    2.5141   16.5018 C   0  0  2  0  0  0  0  0  0  0  0  0
   -9.2756    3.0796   19.6872 C   0  0  2  0  0  0  0  0  0  0  0  0
   -9.7609    3.3829   21.1333 C   0  0  1  0  0  0  0  0  0  0  0  0
   -9.2902    2.1042   21.7830 C   0  0  1  0  0  0  0  0  0  0  0  0
   -9.7399    0.9729   20.8047 C   0  0  1  0  0  0  0  0  0  0  0  0
  -11.2286    0.4902   20.9158 C   0  0  0  0  0  0  0  0  0  0  0  0
   -7.2836    2.6543   23.1077 C   0  0  1  0  0  0  0  0  0  0  0  0
   -7.4781    1.7569   24.2932 C   0  0  1  0  0  0  0  0  0  0  0  0
  -13.0122    6.5365   19.8224 C   0  0  1  0  0  0  0  0  0  0  0  0
   -6.9204    2.4861   25.5666 C   0  0  0  0  0  0  0  0  0  0  0  0
   -7.5599    3.7334   25.8729 C   0  0  0  0  0  0  0  0  0  0  0  0
   -7.3625    4.6408   24.7626 C   0  0  2  0  0  0  0  0  0  0  0  0
   -8.0548    6.0335   25.0385 C   0  0  0  0  0  0  0  0  0  0  0  0
   -8.3588   -1.7707   13.4901 C   0  0  2  0  0  0  0  0  0  0  0  0
   -9.5770   -0.0302   14.5099 C   0  0  0  0  0  0  0  0  0  0  0  0
   -9.3191   -2.6452   13.0178 C   0  0  0  0  0  0  0  0  0  0  0  0
   -8.7502   -0.5017   13.2148 C   0  0  1  0  0  0  0  0  0  0  0  0
  -14.5472    6.1121   19.9285 C   0  0  0  0  0  0  0  0  0  0  0  0
  -15.3842    6.9923   18.8811 C   0  0  0  0  0  0  0  0  0  0  0  0
  -14.7968    6.7097   17.4213 C   0  0  1  0  0  0  0  0  0  0  0  0
  -15.5278    7.5198   16.3438 C   0  0  0  0  0  0  0  0  0  0  0  0
  -10.8585    1.9560   15.3703 C   0  0  1  0  0  0  0  0  0  0  0  0
  -11.6357    3.2440   14.7679 C   0  0  0  0  0  0  0  0  0  0  0  0
  -12.5104    3.9198   15.8931 C   0  0  2  0  0  0  0  0  0  0  0  0
   -7.0757   -2.1061   12.9152 F   0  0  0  0  0  0  0  0  0  0  0  0
   -8.3229    6.8496   23.7415 N   0  0  0  0  0  0  0  0  0  0  0  0
  -12.1357    5.7459   20.7638 N   0  0  0  0  0  0  0  0  0  0  0  0
   -8.8157    1.4746   24.5841 N   0  0  0  0  0  0  0  0  0  0  0  0
   -9.5625   -3.1570   11.7216 N   0  0  0  0  0  0  0  0  0  0  0  0
  -15.1297    8.8733   16.3693 N   0  0  0  0  0  0  0  0  0  0  0  0
  -10.0646    1.3339   14.2956 N   0  0  0  0  0  0  0  0  0  0  0  0
  -13.2167    5.1059   15.3603 N   0  0  0  0  0  0  0  0  0  0  0  0
  -12.4400    4.9497   18.0423 O   0  0  0  0  0  0  0  0  0  0  0  0
   -9.9559    3.7265   18.7707 O   0  0  0  0  0  0  0  0  0  0  0  0
   -9.1998    1.4601   17.0581 O   0  0  0  0  0  0  0  0  0  0  0  0
   -9.1035    4.5282   21.5843 O   0  0  0  0  0  0  0  0  0  0  0  0
   -9.3149    1.6119   19.5894 O   0  0  0  0  0  0  0  0  0  0  0  0
  -11.5495    0.4052   22.3187 O   0  0  0  0  0  0  0  0  0  0  0  0
   -7.7796    2.1459   21.9269 O   0  0  0  0  0  0  0  0  0  0  0  0
   -7.6408    0.3963   12.9928 O   0  0  0  0  0  0  0  0  0  0  0  0
   -9.7737   -0.7315   15.5160 O   0  0  0  0  0  0  0  0  0  0  0  0
   -7.8873    4.0295   23.4849 O   0  0  0  0  0  0  0  0  0  0  0  0
  -13.3209    7.0710   17.3817 O   0  0  0  0  0  0  0  0  0  0  0  0
  1 36  1  6  0  0  0
  2 36  1  1  0  0  0
  2  3  1  0  0  0  0
  3 37  1  1  0  0  0
  3  4  1  0  0  0  0
  4 38  1  1  0  0  0
  5 37  1  6  0  0  0
  5  6  1  0  0  0  0
  6  7  1  0  0  0  0
  6 39  1  1  0  0  0
  7 42  1  6  0  0  0
  8  9  1  6  0  0  0
  8  7  1  0  0  0  0
 10 42  1  6  0  0  0
 10 11  1  0  0  0  0
 11 31  1  1  0  0  0
 11 13  1  0  0  0  0
 12 30  1  1  0  0  0
 12  1  1  0  0  0  0
 14 13  1  0  0  0  0
 15 16  1  1  0  0  0
 15 14  1  0  0  0  0
 17 19  1  6  0  0  0
 17 28  1  0  0  0  0
 18 34  1  0  0  0  0
 19 32  1  0  0  0  0
 20 18  1  1  0  0  0
 20 17  1  0  0  0  0
 20 43  1  0  0  0  0
 21 12  1  0  0  0  0
 22 21  1  0  0  0  0
 22 23  1  0  0  0  0
 23 24  1  6  0  0  0
 23 46  1  0  0  0  0
 24 33  1  0  0  0  0
 25 34  1  6  0  0  0
 25  4  1  0  0  0  0
 26 25  1  0  0  0  0
 27 35  1  6  0  0  0
 27 26  1  0  0  0  0
 27  2  1  0  0  0  0
 29 16  1  0  0  0  0
 40  8  1  0  0  0  0
 40  5  1  0  0  0  0
 41  9  1  0  0  0  0
 44 18  2  0  0  0  0
 45 15  1  0  0  0  0
 45 10  1  0  0  0  0
 46  1  1  0  0  0  0
M  END
>  <CHROM.1>
-155.78806618,127.47682583,168.93932557,-118.21989505,91.43695118,-41.52562172
71.76841726,-159.48037225,81.06019610,-179.05565841,91.25371465,75.51998047
80.47244131,-10.29614630,2.99052928,18.74824902,1.49608835,-0.81713328,1.10077678

>  <Name>
lig.pdb

>  <RI>
0

>  <Rbt.Current_Directory>
/home/afrankz/demos/rdock_decoys_rna/rnas/3wru

>  <Rbt.Executable>
rbdock ($Id: //depot/dev/client3/rdock/2013.1/src/exe/rbdock.cxx#4 $)

>  <Rbt.Library>
libRbt.so (2013.1, Build901 2013/11/27)

>  <Rbt.Parameter_File>
/export/apps/rDock/src/rDock_2013.1_src/data/scripts/dock_solv.prm

>  <Rbt.Receptor>
prm/blind_docking_80.prm

>  <SCORE>
17.2239

>  <SCORE.INTER>
0.666314

>  <SCORE.INTER.CONST>
1

>  <SCORE.INTER.POLAR>
0

>  <SCORE.INTER.ROT>
13

>  <SCORE.INTER.SOLV>
32.0066

>  <SCORE.INTER.VDW>
-22.4913

>  <SCORE.INTER.norm>
0.0144851

>  <SCORE.INTRA>
11.9209

>  <SCORE.INTRA.DIHEDRAL>
10.4764

>  <SCORE.INTRA.DIHEDRAL.0>
19.7146

>  <SCORE.INTRA.POLAR>
0

>  <SCORE.INTRA.POLAR.0>
0

>  <SCORE.INTRA.REPUL>
0

>  <SCORE.INTRA.REPUL.0>
0

>  <SCORE.INTRA.SOLV>
7.03478

>  <SCORE.INTRA.SOLV.lig_0>
-116.697

>  <SCORE.INTRA.VDW>
3.1653

>  <SCORE.INTRA.VDW.0>
-7.06424

>  <SCORE.INTRA.norm>
0.25915

>  <SCORE.RESTR>
4.63674

>  <SCORE.RESTR.CAVITY>
4.63674

>  <SCORE.RESTR.norm>
0.100799

>  <SCORE.SYSTEM>
0

>  <SCORE.SYSTEM.CONST>
0

>  <SCORE.SYSTEM.DIHEDRAL>
0

>  <SCORE.SYSTEM.SOLV>
0

>  <SCORE.SYSTEM.norm>
0

>  <SCORE.heavy>
46

>  <SCORE.norm>
0.374434

>  <RMSD>
31.275

$$$$
lig.pdb
 OpenBabel03061811583D
libRbt.so/2013.1/901 2013/11/27
 46 49  0  0  0  0  0  0  0  0999 V2000
  -12.7059    5.7997   20.0360 C   0  0  1  0  0  0  0  0  0  0  0  0
  -12.0909    4.7867   17.7992 C   0  0  1  0  0  0  0  0  0  0  0  0
  -11.2011    3.6585   18.4036 C   0  0  1  0  0  0  0  0  0  0  0  0
  -10.1811    3.1353   17.2684 C   0  0  2  0  0  0  0  0  0  0  0  0
  -10.0488    3.6829   20.6640 C   0  0  2  0  0  0  0  0  0  0  0  0
   -8.6682    2.9859   20.4996 C   0  0  1  0  0  0  0  0  0  0  0  0
   -8.2378    3.0335   21.9458 C   0  0  1  0  0  0  0  0  0  0  0  0
   -8.5631    4.4891   22.4090 C   0  0  1  0  0  0  0  0  0  0  0  0
   -7.5121    5.5980   22.0520 C   0  0  0  0  0  0  0  0  0  0  0  0
   -8.4197    1.4732   23.8474 C   0  0  1  0  0  0  0  0  0  0  0  0
   -8.1692    2.4614   24.9472 C   0  0  1  0  0  0  0  0  0  0  0  0
  -13.8042    5.4776   21.0768 C   0  0  1  0  0  0  0  0  0  0  0  0
   -7.4204    1.7271   26.1154 C   0  0  0  0  0  0  0  0  0  0  0  0
   -6.1499    1.1661   25.7555 C   0  0  0  0  0  0  0  0  0  0  0  0
   -6.3561    0.1787   24.7175 C   0  0  2  0  0  0  0  0  0  0  0  0
   -4.9865   -0.4698   24.2717 C   0  0  0  0  0  0  0  0  0  0  0  0
   -7.9594   -0.7781   14.2850 C   0  0  2  0  0  0  0  0  0  0  0  0
   -9.5887    0.6662   15.1863 C   0  0  0  0  0  0  0  0  0  0  0  0
   -8.3482   -1.8305   13.4779 C   0  0  0  0  0  0  0  0  0  0  0  0
   -8.6534    0.3296   13.9233 C   0  0  1  0  0  0  0  0  0  0  0  0
  -15.1702    6.2208   20.7171 C   0  0  0  0  0  0  0  0  0  0  0  0
  -14.8830    7.7977   20.6600 C   0  0  0  0  0  0  0  0  0  0  0  0
  -13.7647    8.0539   19.5465 C   0  0  1  0  0  0  0  0  0  0  0  0
  -13.4097    9.5406   19.4238 C   0  0  0  0  0  0  0  0  0  0  0  0
  -11.0400    2.5157   16.0813 C   0  0  1  0  0  0  0  0  0  0  0  0
  -11.9221    3.7349   15.4802 C   0  0  0  0  0  0  0  0  0  0  0  0
  -12.9075    4.2817   16.5838 C   0  0  2  0  0  0  0  0  0  0  0  0
   -6.5271   -0.6046   14.1955 F   0  0  0  0  0  0  0  0  0  0  0  0
   -5.1595   -1.8664   23.6086 N   0  0  0  0  0  0  0  0  0  0  0  0
  -13.9696    3.9781   21.1368 N   0  0  0  0  0  0  0  0  0  0  0  0
   -7.3368    3.5237   24.5837 N   0  0  0  0  0  0  0  0  0  0  0  0
   -9.6264   -2.3581   13.1790 N   0  0  0  0  0  0  0  0  0  0  0  0
  -12.9733   10.0618   20.6603 N   0  0  0  0  0  0  0  0  0  0  0  0
  -10.1426    2.0124   15.0260 N   0  0  0  0  0  0  0  0  0  0  0  0
  -13.7113    5.4046   16.0525 N   0  0  0  0  0  0  0  0  0  0  0  0
  -13.0320    5.2461   18.7607 O   0  0  0  0  0  0  0  0  0  0  0  0
  -10.4655    4.2633   19.5638 O   0  0  0  0  0  0  0  0  0  0  0  0
   -9.4085    2.1411   17.8259 O   0  0  0  0  0  0  0  0  0  0  0  0
   -8.8842    1.6971   20.0103 O   0  0  0  0  0  0  0  0  0  0  0  0
   -9.8731    4.5716   21.8235 O   0  0  0  0  0  0  0  0  0  0  0  0
   -7.7743    6.7297   22.9055 O   0  0  0  0  0  0  0  0  0  0  0  0
   -9.0322    2.0089   22.7353 O   0  0  0  0  0  0  0  0  0  0  0  0
   -7.8024    1.4601   13.6335 O   0  0  0  0  0  0  0  0  0  0  0  0
   -9.8072   -0.1108   16.1303 O   0  0  0  0  0  0  0  0  0  0  0  0
   -7.0610    0.7995   23.5345 O   0  0  0  0  0  0  0  0  0  0  0  0
  -12.5035    7.2814   19.8968 O   0  0  0  0  0  0  0  0  0  0  0  0
  1 36  1  6  0  0  0
  2 36  1  1  0  0  0
  2  3  1  0  0  0  0
  3 37  1  1  0  0  0
  3  4  1  0  0  0  0
  4 38  1  1  0  0  0
  5 37  1  6  0  0  0
  5  6  1  0  0  0  0
  6  7  1  0  0  0  0
  6 39  1  1  0  0  0
  7 42  1  1  0  0  0
  8  9  1  6  0  0  0
  8  7  1  0  0  0  0
 10 42  1  6  0  0  0
 10 11  1  0  0  0  0
 11 31  1  6  0  0  0
 11 13  1  0  0  0  0
 12 30  1  6  0  0  0
 12  1  1  0  0  0  0
 14 13  1  0  0  0  0
 15 16  1  6  0  0  0
 15 14  1  0  0  0  0
 17 19  1  6  0  0  0
 17 28  1  0  0  0  0
 18 34  1  0  0  0  0
 19 32  1  0  0  0  0
 20 18  1  1  0  0  0
 20 17  1  0  0  0  0
 20 43  1  0  0  0  0
 21 12  1  0  0  0  0
 22 21  1  0  0  0  0
 22 23  1  0  0  0  0
 23 24  1  1  0  0  0
 23 46  1  0  0  0  0
 24 33  1  0  0  0  0
 25 34  1  6  0  0  0
 25  4  1  0  0  0  0
 26 25  1  0  0  0  0
 27 35  1  6  0  0  0
 27 26  1  0  0  0  0
 27  2  1  0  0  0  0
 29 16  1  0  0  0  0
 40  8  1  0  0  0  0
 40  5  1  0  0  0  0
 41  9  1  0  0  0  0
 44 18  2  0  0  0  0
 45 15  1  0  0  0  0
 45 10  1  0  0  0  0
 46  1  1  0  0  0  0
M  END
>  <CHROM.1>
-148.66160781,58.61861614,149.94627686,84.22575264,151.30122413,-162.12730760
65.72097440,157.49397534,-53.00005318,166.82104108,113.94704546,57.20416192
84.09949339,-9.89822337,3.15304034,19.59294504,1.42482597,-0.81405277,1.17602254

>  <Name>
lig.pdb

>  <RI>
0

>  <Rbt.Current_Directory>
/home/afrankz/demos/rdock_decoys_rna/rnas/3wru

>  <Rbt.Executable>
rbdock ($Id: //depot/dev/client3/rdock/2013.1/src/exe/rbdock.cxx#4 $)

>  <Rbt.Library>
libRbt.so (2013.1, Build901 2013/11/27)

>  <Rbt.Parameter_File>
/export/apps/rDock/src/rDock_2013.1_src/data/scripts/dock_solv.prm

>  <Rbt.Receptor>
prm/blind_docking_80.prm

>  <SCORE>
17.6043

>  <SCORE.INTER>
4.87067

>  <SCORE.INTER.CONST>
1

>  <SCORE.INTER.POLAR>
0

>  <SCORE.INTER.ROT>
13

>  <SCORE.INTER.SOLV>
40.8449

>  <SCORE.INTER.VDW>
-22.6345

>  <SCORE.INTER.norm>
0.105884

>  <SCORE.INTRA>
7.84569

>  <SCORE.INTRA.DIHEDRAL>
2.75639

>  <SCORE.INTRA.DIHEDRAL.0>
19.7146

>  <SCORE.INTRA.POLAR>
0

>  <SCORE.INTRA.POLAR.0>
0

>  <SCORE.INTRA.REPUL>
0

>  <SCORE.INTRA.REPUL.0>
0

>  <SCORE.INTRA.SOLV>
2.93868

>  <SCORE.INTRA.SOLV.lig_0>
-116.697

>  <SCORE.INTRA.VDW>
4.99815

>  <SCORE.INTRA.VDW.0>
-7.06424

>  <SCORE.INTRA.norm>
0.170558

>  <SCORE.RESTR>
4.88791

>  <SCORE.RESTR.CAVITY>
4.88791

>  <SCORE.RESTR.norm>
0.106259

>  <SCORE.SYSTEM>
0

>  <SCORE.SYSTEM.CONST>
0

>  <SCORE.SYSTEM.DIHEDRAL>
0

>  <SCORE.SYSTEM.SOLV>
0

>  <SCORE.SYSTEM.norm>
0

>  <SCORE.heavy>
46

>  <SCORE.norm>
0.382701

>  <RMSD>
31.367

$$$$
lig.pdb
 OpenBabel03061811583D
libRbt.so/2013.1/901 2013/11/27
 46 49  0  0  0  0  0  0  0  0999 V2000
  -12.5653    6.5490   18.7174 C   0  0  1  0  0  0  0  0  0  0  0  0
  -11.5995    4.4179   17.7513 C   0  0  1  0  0  0  0  0  0  0  0  0
  -11.0355    3.2552   18.6230 C   0  0  1  0  0  0  0  0  0  0  0  0
   -9.9521    2.4324   17.7558 C   0  0  2  0  0  0  0  0  0  0  0  0
   -9.6095    3.3425   20.7198 C   0  0  2  0  0  0  0  0  0  0  0  0
   -8.1057    3.6364   20.4533 C   0  0  1  0  0  0  0  0  0  0  0  0
   -7.6085    3.4770   21.8697 C   0  0  1  0  0  0  0  0  0  0  0  0
   -8.6329    4.2704   22.7416 C   0  0  1  0  0  0  0  0  0  0  0  0
   -8.4295    5.8233   22.8370 C   0  0  0  0  0  0  0  0  0  0  0  0
   -7.2623    1.6847   23.5285 C   0  0  1  0  0  0  0  0  0  0  0  0
   -8.2204    0.7453   24.1981 C   0  0  1  0  0  0  0  0  0  0  0  0
  -13.1093    6.8721   20.1291 C   0  0  1  0  0  0  0  0  0  0  0  0
   -7.7464    0.5216   25.6778 C   0  0  0  0  0  0  0  0  0  0  0  0
   -7.6940    1.7113   26.4781 C   0  0  0  0  0  0  0  0  0  0  0  0
   -6.7494    2.6310   25.8807 C   0  0  2  0  0  0  0  0  0  0  0  0
   -6.6549    3.9685   26.7155 C   0  0  0  0  0  0  0  0  0  0  0  0
   -7.0821    1.4736   13.3091 C   0  0  2  0  0  0  0  0  0  0  0  0
   -8.6495    1.7572   15.0457 C   0  0  0  0  0  0  0  0  0  0  0  0
   -7.9943    1.9459   12.3845 C   0  0  0  0  0  0  0  0  0  0  0  0
   -7.7387    0.7184   14.2244 C   0  0  1  0  0  0  0  0  0  0  0  0
  -14.6645    6.5291   20.2365 C   0  0  0  0  0  0  0  0  0  0  0  0
  -15.4427    7.3747   19.1177 C   0  0  0  0  0  0  0  0  0  0  0  0
  -14.8488    6.9661   17.6908 C   0  0  1  0  0  0  0  0  0  0  0  0
  -15.5242    7.7348   16.5487 C   0  0  0  0  0  0  0  0  0  0  0  0
  -10.7005    1.8020   16.5014 C   0  0  1  0  0  0  0  0  0  0  0  0
  -11.2415    3.0530   15.6249 C   0  0  0  0  0  0  0  0  0  0  0  0
  -12.2819    3.8893   16.4652 C   0  0  2  0  0  0  0  0  0  0  0  0
   -6.3704    2.5862   13.8968 F   0  0  0  0  0  0  0  0  0  0  0  0
   -6.9556    5.2389   25.8692 N   0  0  0  0  0  0  0  0  0  0  0  0
  -12.2857    6.1067   21.1367 N   0  0  0  0  0  0  0  0  0  0  0  0
   -9.5261    1.2340   24.2973 N   0  0  0  0  0  0  0  0  0  0  0  0
   -8.7234    1.2856   11.3677 N   0  0  0  0  0  0  0  0  0  0  0  0
  -15.2938    7.1049   15.3072 N   0  0  0  0  0  0  0  0  0  0  0  0
   -9.7457    1.0285   15.6876 N   0  0  0  0  0  0  0  0  0  0  0  0
  -12.7754    5.0431   15.6814 N   0  0  0  0  0  0  0  0  0  0  0  0
  -12.5891    5.1428   18.4700 O   0  0  0  0  0  0  0  0  0  0  0  0
  -10.4049    3.8867   19.8299 O   0  0  0  0  0  0  0  0  0  0  0  0
   -9.4703    1.4129   18.5461 O   0  0  0  0  0  0  0  0  0  0  0  0
   -7.6221    2.6734   19.5666 O   0  0  0  0  0  0  0  0  0  0  0  0
   -9.8243    3.7721   22.1107 O   0  0  0  0  0  0  0  0  0  0  0  0
   -7.0105    6.0743   22.7982 O   0  0  0  0  0  0  0  0  0  0  0  0
   -7.5971    2.0025   22.2301 O   0  0  0  0  0  0  0  0  0  0  0  0
   -8.5762   -0.2945   13.6252 O   0  0  0  0  0  0  0  0  0  0  0  0
   -8.4328    2.9776   15.1244 O   0  0  0  0  0  0  0  0  0  0  0  0
   -7.1340    2.9230   24.4494 O   0  0  0  0  0  0  0  0  0  0  0  0
  -13.3568    7.2536   17.6530 O   0  0  0  0  0  0  0  0  0  0  0  0
  1 36  1  6  0  0  0
  2 36  1  1  0  0  0
  2  3  1  0  0  0  0
  3 37  1  1  0  0  0
  3  4  1  0  0  0  0
  4 38  1  1  0  0  0
  5 37  1  6  0  0  0
  5  6  1  0  0  0  0
  6  7  1  0  0  0  0
  6 39  1  6  0  0  0
  7 42  1  1  0  0  0
  8  9  1  6  0  0  0
  8  7  1  0  0  0  0
 10 42  1  6  0  0  0
 10 11  1  0  0  0  0
 11 31  1  1  0  0  0
 11 13  1  0  0  0  0
 12 30  1  1  0  0  0
 12  1  1  0  0  0  0
 14 13  1  0  0  0  0
 15 16  1  1  0  0  0
 15 14  1  0  0  0  0
 17 19  1  6  0  0  0
 17 28  1  0  0  0  0
 18 34  1  0  0  0  0
 19 32  1  0  0  0  0
 20 18  1  6  0  0  0
 20 17  1  0  0  0  0
 20 43  1  0  0  0  0
 21 12  1  0  0  0  0
 22 21  1  0  0  0  0
 22 23  1  0  0  0  0
 23 24  1  6  0  0  0
 23 46  1  0  0  0  0
 24 33  1  0  0  0  0
 25 34  1  6  0  0  0
 25  4  1  0  0  0  0
 26 25  1  0  0  0  0
 27 35  1  6  0  0  0
 27 26  1  0  0  0  0
 27  2  1  0  0  0  0
 29 16  1  0  0  0  0
 40  8  1  0  0  0  0
 40  5  1  0  0  0  0
 41  9  1  0  0  0  0
 44 18  2  0  0  0  0
 45 15  1  0  0  0  0
 45 10  1  0  0  0  0
 46  1  1  0  0  0  0
M  END
>  <CHROM.1>
-142.64136902,124.18288973,-167.06296698,98.24173621,-175.31006318,-33.88254670
130.15957706,-123.70307908,-70.45662189,158.72517974,-68.39781825,-162.54422781
-64.27975208,-9.84576168,3.60658251,19.29778768,1.95983994,0.66575089,-1.77389969

>  <Name>
lig.pdb

>  <RI>
0

>  <Rbt.Current_Directory>
/home/afrankz/demos/rdock_decoys_rna/rnas/3wru

>  <Rbt.Executable>
rbdock ($Id: //depot/dev/client3/rdock/2013.1/src/exe/rbdock.cxx#4 $)

>  <Rbt.Library>
libRbt.so (2013.1, Build901 2013/11/27)

>  <Rbt.Parameter_File>
/export/apps/rDock/src/rDock_2013.1_src/data/scripts/dock_solv.prm

>  <Rbt.Receptor>
prm/blind_docking_80.prm

>  <SCORE>
29.9467

>  <SCORE.INTER>
5.17523

>  <SCORE.INTER.CONST>
1

>  <SCORE.INTER.POLAR>
0

>  <SCORE.INTER.ROT>
13

>  <SCORE.INTER.SOLV>
36.9883

>  <SCORE.INTER.VDW>
-21.1459

>  <SCORE.INTER.norm>
0.112505

>  <SCORE.INTRA>
20.116

>  <SCORE.INTRA.DIHEDRAL>
15.3783

>  <SCORE.INTRA.DIHEDRAL.0>
19.7146

>  <SCORE.INTRA.POLAR>
0

>  <SCORE.INTRA.POLAR.0>
0

>  <SCORE.INTRA.REPUL>
0.0213528

>  <SCORE.INTRA.REPUL.0>
0

>  <SCORE.INTRA.SOLV>
10.2103

>  <SCORE.INTRA.SOLV.lig_0>
-116.697

>  <SCORE.INTRA.VDW>
7.21493

>  <SCORE.INTRA.VDW.0>
-7.06424

>  <SCORE.INTRA.norm>
0.437305

>  <SCORE.RESTR>
4.6555

>  <SCORE.RESTR.CAVITY>
4.6555

>  <SCORE.RESTR.norm>
0.101207

>  <SCORE.SYSTEM>
0

>  <SCORE.SYSTEM.CONST>
0

>  <SCORE.SYSTEM.DIHEDRAL>
0

>  <SCORE.SYSTEM.SOLV>
0

>  <SCORE.SYSTEM.norm>
0

>  <SCORE.heavy>
46

>  <SCORE.norm>
0.651016

>  <RMSD>
31.429

$$$$
lig.pdb
 OpenBabel03061811583D
libRbt.so/2013.1/901 2013/11/27
 46 49  0  0  0  0  0  0  0  0999 V2000
  -11.2869   -0.7682   19.5738 C   0  0  1  0  0  0  0  0  0  0  0  0
  -11.4426   -0.2141   17.1087 C   0  0  1  0  0  0  0  0  0  0  0  0
  -10.1492    0.6181   17.3623 C   0  0  1  0  0  0  0  0  0  0  0  0
   -9.8087    1.4690   16.0345 C   0  0  2  0  0  0  0  0  0  0  0  0
  -11.1961    2.5846   18.5766 C   0  0  2  0  0  0  0  0  0  0  0  0
  -10.4718    3.8702   18.0854 C   0  0  1  0  0  0  0  0  0  0  0  0
  -11.6942    4.6499   17.6652 C   0  0  1  0  0  0  0  0  0  0  0  0
  -12.5573    3.6297   16.8569 C   0  0  1  0  0  0  0  0  0  0  0  0
  -12.1709    3.4102   15.3521 C   0  0  0  0  0  0  0  0  0  0  0  0
  -12.5968    6.4977   19.0271 C   0  0  1  0  0  0  0  0  0  0  0  0
  -12.8893    6.9566   20.4246 C   0  0  1  0  0  0  0  0  0  0  0  0
  -11.6698   -1.9344   20.5154 C   0  0  1  0  0  0  0  0  0  0  0  0
  -13.1173    8.5096   20.4013 C   0  0  0  0  0  0  0  0  0  0  0  0
  -14.2090    8.9441   19.5779 C   0  0  0  0  0  0  0  0  0  0  0  0
  -13.9446    8.5491   18.2107 C   0  0  2  0  0  0  0  0  0  0  0  0
  -15.1207    8.9937   17.2546 C   0  0  0  0  0  0  0  0  0  0  0  0
   -6.7986    1.9040   11.4849 C   0  0  2  0  0  0  0  0  0  0  0  0
   -7.9058    1.8786   13.5649 C   0  0  0  0  0  0  0  0  0  0  0  0
   -7.3827    0.8185   10.8601 C   0  0  0  0  0  0  0  0  0  0  0  0
   -7.7606    2.6026   12.1373 C   0  0  1  0  0  0  0  0  0  0  0  0
  -13.2516   -2.0155   20.7133 C   0  0  0  0  0  0  0  0  0  0  0  0
  -13.7550   -0.6135   21.3076 C   0  0  0  0  0  0  0  0  0  0  0  0
  -13.3515    0.5338   20.2699 C   0  0  1  0  0  0  0  0  0  0  0  0
  -13.7816    1.9228   20.7570 C   0  0  0  0  0  0  0  0  0  0  0  0
   -9.5227    0.4443   14.8518 C   0  0  1  0  0  0  0  0  0  0  0  0
  -10.9035   -0.3713   14.6192 C   0  0  0  0  0  0  0  0  0  0  0  0
  -11.2711   -1.1887   15.9172 C   0  0  2  0  0  0  0  0  0  0  0  0
   -6.0852    2.6965   10.5089 F   0  0  0  0  0  0  0  0  0  0  0  0
  -16.5158    8.4968   17.7310 N   0  0  0  0  0  0  0  0  0  0  0  0
  -11.1011   -3.2091   19.9400 N   0  0  0  0  0  0  0  0  0  0  0  0
  -14.0581    6.4188   20.9708 N   0  0  0  0  0  0  0  0  0  0  0  0
   -8.1510   -0.2538   11.3714 N   0  0  0  0  0  0  0  0  0  0  0  0
  -15.1560    1.9457   21.0754 N   0  0  0  0  0  0  0  0  0  0  0  0
   -9.1935    1.1834   13.6198 N   0  0  0  0  0  0  0  0  0  0  0  0
  -12.5375   -1.9292   15.7238 N   0  0  0  0  0  0  0  0  0  0  0  0
  -11.7524   -1.0097   18.2455 O   0  0  0  0  0  0  0  0  0  0  0  0
  -10.4355    1.5167   18.5299 O   0  0  0  0  0  0  0  0  0  0  0  0
   -8.6644    2.1934   16.2834 O   0  0  0  0  0  0  0  0  0  0  0  0
   -9.7842    4.4248   19.1656 O   0  0  0  0  0  0  0  0  0  0  0  0
  -12.4238    2.5257   17.7674 O   0  0  0  0  0  0  0  0  0  0  0  0
  -12.5597    4.5963   14.6309 O   0  0  0  0  0  0  0  0  0  0  0  0
  -12.4244    5.1361   18.9041 O   0  0  0  0  0  0  0  0  0  0  0  0
   -7.4176    3.9924   12.3297 O   0  0  0  0  0  0  0  0  0  0  0  0
   -7.0450    1.9030   14.4599 O   0  0  0  0  0  0  0  0  0  0  0  0
  -13.7269    7.0566   18.1280 O   0  0  0  0  0  0  0  0  0  0  0  0
  -11.8453    0.5364   20.0657 O   0  0  0  0  0  0  0  0  0  0  0  0
  1 36  1  6  0  0  0
  2 36  1  1  0  0  0
  2  3  1  0  0  0  0
  3 37  1  1  0  0  0
  3  4  1  0  0  0  0
  4 38  1  1  0  0  0
  5 37  1  6  0  0  0
  5  6  1  0  0  0  0
  6  7  1  0  0  0  0
  6 39  1  1  0  0  0
  7 42  1  1  0  0  0
  8  9  1  6  0  0  0
  8  7  1  0  0  0  0
 10 42  1  1  0  0  0
 10 11  1  0  0  0  0
 11 31  1  6  0  0  0
 11 13  1  0  0  0  0
 12 30  1  6  0  0  0
 12  1  1  0  0  0  0
 14 13  1  0  0  0  0
 15 16  1  6  0  0  0
 15 14  1  0  0  0  0
 17 19  1  6  0  0  0
 17 28  1  0  0  0  0
 18 34  1  0  0  0  0
 19 32  1  0  0  0  0
 20 18  1  1  0  0  0
 20 17  1  0  0  0  0
 20 43  1  0  0  0  0
 21 12  1  0  0  0  0
 22 21  1  0  0  0  0
 22 23  1  0  0  0  0
 23 24  1  1  0  0  0
 23 46  1  0  0  0  0
 24 33  1  0  0  0  0
 25 34  1  6  0  0  0
 25  4  1  0  0  0  0
 26 25  1  0  0  0  0
 27 35  1  6  0  0  0
 27 26  1  0  0  0  0
 27  2  1  0  0  0  0
 29 16  1  0  0  0  0
 40  8  1  0  0  0  0
 40  5  1  0  0  0  0
 41  9  1  0  0  0  0
 44 18  2  0  0  0  0
 45 15  1  0  0  0  0
 45 10  1  0  0  0  0
 46  1  1  0  0  0  0
M  END
>  <CHROM.1>
-172.58431544,20.93406330,-72.80492821,-83.22940745,121.38584186,-71.92411004
-160.50211172,-53.82591853,-57.46128836,-110.02764057,85.35231725,-53.51233762
70.52984185,-11.28079142,2.62872165,17.08593528,2.90167748,0.93497890,-0.32993861

>  <Name>
lig.pdb

>  <RI>
0

>  <Rbt.Current_Directory>
/home/afrankz/demos/rdock_decoys_rna/rnas/3wru

>  <Rbt.Executable>
rbdock ($Id: //depot/dev/client3/rdock/2013.1/src/exe/rbdock.cxx#4 $)

>  <Rbt.Library>
libRbt.so (2013.1, Build901 2013/11/27)

>  <Rbt.Parameter_File>
/export/apps/rDock/src/rDock_2013.1_src/data/scripts/dock_solv.prm

>  <Rbt.Receptor>
prm/blind_docking_40.prm

>  <SCORE>
30.3118

>  <SCORE.INTER>
15.5845

>  <SCORE.INTER.CONST>
1

>  <SCORE.INTER.POLAR>
0

>  <SCORE.INTER.ROT>
13

>  <SCORE.INTER.SOLV>
31.063

>  <SCORE.INTER.VDW>
-12.2313

>  <SCORE.INTER.norm>
0.338794

>  <SCORE.INTRA>
7.053

>  <SCORE.INTRA.DIHEDRAL>
2.92019

>  <SCORE.INTRA.DIHEDRAL.0>
19.7146

>  <SCORE.INTRA.POLAR>
0

>  <SCORE.INTRA.POLAR.0>
0

>  <SCORE.INTRA.REPUL>
0

>  <SCORE.INTRA.REPUL.0>
0

>  <SCORE.INTRA.SOLV>
1.7357

>  <SCORE.INTRA.SOLV.lig_0>
-116.697

>  <SCORE.INTRA.VDW>
4.72506

>  <SCORE.INTRA.VDW.0>
-7.06424

>  <SCORE.INTRA.norm>
0.153326

>  <SCORE.RESTR>
7.67424

>  <SCORE.RESTR.CAVITY>
7.67424

>  <SCORE.RESTR.norm>
0.166831

>  <SCORE.SYSTEM>
0

>  <SCORE.SYSTEM.CONST>
0

>  <SCORE.SYSTEM.DIHEDRAL>
0

>  <SCORE.SYSTEM.SOLV>
0

>  <SCORE.SYSTEM.norm>
0

>  <SCORE.heavy>
46

>  <SCORE.norm>
0.658952

>  <RMSD>
31.430

$$$$
lig.pdb
 OpenBabel03061811583D
libRbt.so/2013.1/901 2013/11/27
 46 49  0  0  0  0  0  0  0  0999 V2000
  -11.6219   -1.4681   18.8779 C   0  0  1  0  0  0  0  0  0  0  0  0
  -10.4990   -0.0140   17.1364 C   0  0  1  0  0  0  0  0  0  0  0  0
  -10.0776    1.4836   17.2334 C   0  0  1  0  0  0  0  0  0  0  0  0
   -9.9450    2.0849   15.7421 C   0  0  2  0  0  0  0  0  0  0  0  0
  -11.1856    3.4296   18.4264 C   0  0  2  0  0  0  0  0  0  0  0  0
  -12.2258    3.6671   19.5579 C   0  0  1  0  0  0  0  0  0  0  0  0
  -11.5767    4.8764   20.1866 C   0  0  1  0  0  0  0  0  0  0  0  0
  -10.0639    4.5037   20.2947 C   0  0  1  0  0  0  0  0  0  0  0  0
   -9.6362    3.6263   21.5231 C   0  0  0  0  0  0  0  0  0  0  0  0
  -13.0479    6.6403   19.2878 C   0  0  1  0  0  0  0  0  0  0  0  0
  -13.0763    8.0890   18.9012 C   0  0  1  0  0  0  0  0  0  0  0  0
  -12.8576   -1.3816   17.9512 C   0  0  1  0  0  0  0  0  0  0  0  0
  -14.5562    8.6027   19.0034 C   0  0  0  0  0  0  0  0  0  0  0  0
  -15.1372    8.5042   20.3116 C   0  0  0  0  0  0  0  0  0  0  0  0
  -15.1596    7.1116   20.7054 C   0  0  2  0  0  0  0  0  0  0  0  0
  -15.7824    6.9400   22.1468 C   0  0  0  0  0  0  0  0  0  0  0  0
   -6.7025    2.2005   11.1625 C   0  0  2  0  0  0  0  0  0  0  0  0
   -7.4570    2.6485   13.3495 C   0  0  0  0  0  0  0  0  0  0  0  0
   -7.4967    1.1598   10.7196 C   0  0  0  0  0  0  0  0  0  0  0  0
   -7.4835    3.1021   11.8078 C   0  0  1  0  0  0  0  0  0  0  0  0
  -13.5526    0.0516   18.0549 C   0  0  0  0  0  0  0  0  0  0  0  0
  -13.9679    0.2978   19.5843 C   0  0  0  0  0  0  0  0  0  0  0  0
  -12.6406    0.2236   20.4724 C   0  0  1  0  0  0  0  0  0  0  0  0
  -12.9364    0.4358   21.9620 C   0  0  0  0  0  0  0  0  0  0  0  0
   -8.7930    1.2868   14.9892 C   0  0  1  0  0  0  0  0  0  0  0  0
   -9.2964   -0.2508   14.8981 C   0  0  0  0  0  0  0  0  0  0  0  0
   -9.4610   -0.8503   16.3478 C   0  0  2  0  0  0  0  0  0  0  0  0
   -5.9842    2.7693   10.0445 F   0  0  0  0  0  0  0  0  0  0  0  0
  -15.9615    5.4512   22.5613 N   0  0  0  0  0  0  0  0  0  0  0  0
  -12.4129   -1.6991   16.5438 N   0  0  0  0  0  0  0  0  0  0  0  0
  -12.3361    8.9214   19.7455 N   0  0  0  0  0  0  0  0  0  0  0  0
   -8.3375    0.2613   11.4177 N   0  0  0  0  0  0  0  0  0  0  0  0
  -13.8102    1.5267   22.1554 N   0  0  0  0  0  0  0  0  0  0  0  0
   -8.6302    1.8158   13.6232 N   0  0  0  0  0  0  0  0  0  0  0  0
   -9.9326   -2.2511   16.2805 N   0  0  0  0  0  0  0  0  0  0  0  0
  -10.5871   -0.5903   18.4332 O   0  0  0  0  0  0  0  0  0  0  0  0
  -11.1515    2.1851   18.0129 O   0  0  0  0  0  0  0  0  0  0  0  0
   -9.5721    3.4056   15.8548 O   0  0  0  0  0  0  0  0  0  0  0  0
  -13.4634    3.9256   18.9674 O   0  0  0  0  0  0  0  0  0  0  0  0
   -9.9239    3.9512   18.9752 O   0  0  0  0  0  0  0  0  0  0  0  0
  -10.4120    2.4122   21.4752 O   0  0  0  0  0  0  0  0  0  0  0  0
  -11.7891    6.0797   19.2859 O   0  0  0  0  0  0  0  0  0  0  0  0
   -6.9968    4.4571   11.6913 O   0  0  0  0  0  0  0  0  0  0  0  0
   -6.5665    2.9528   14.1600 O   0  0  0  0  0  0  0  0  0  0  0  0
  -13.7669    6.5288   20.6547 O   0  0  0  0  0  0  0  0  0  0  0  0
  -11.9799   -1.1340   20.2978 O   0  0  0  0  0  0  0  0  0  0  0  0
  1 36  1  6  0  0  0
  2 36  1  1  0  0  0
  2  3  1  0  0  0  0
  3 37  1  1  0  0  0
  3  4  1  0  0  0  0
  4 38  1  1  0  0  0
  5 37  1  1  0  0  0
  5  6  1  0  0  0  0
  6  7  1  0  0  0  0
  6 39  1  6  0  0  0
  7 42  1  6  0  0  0
  8  9  1  1  0  0  0
  8  7  1  0  0  0  0
 10 42  1  1  0  0  0
 10 11  1  0  0  0  0
 11 31  1  1  0  0  0
 11 13  1  0  0  0  0
 12 30  1  6  0  0  0
 12  1  1  0  0  0  0
 14 13  1  0  0  0  0
 15 16  1  1  0  0  0
 15 14  1  0  0  0  0
 17 19  1  6  0  0  0
 17 28  1  0  0  0  0
 18 34  1  0  0  0  0
 19 32  1  0  0  0  0
 20 18  1  1  0  0  0
 20 17  1  0  0  0  0
 20 43  1  0  0  0  0
 21 12  1  0  0  0  0
 22 21  1  0  0  0  0
 22 23  1  0  0  0  0
 23 24  1  1  0  0  0
 23 46  1  0  0  0  0
 24 33  1  0  0  0  0
 25 34  1  6  0  0  0
 25  4  1  0  0  0  0
 26 25  1  0  0  0  0
 27 35  1  6  0  0  0
 27 26  1  0  0  0  0
 27  2  1  0  0  0  0
 29 16  1  0  0  0  0
 40  8  1  0  0  0  0
 40  5  1  0  0  0  0
 41  9  1  0  0  0  0
 44 18  2  0  0  0  0
 45 15  1  0  0  0  0
 45 10  1  0  0  0  0
 46  1  1  0  0  0  0
M  END
>  <CHROM.1>
-17.54946310,137.66268717,174.70896845,-162.01409505,75.33291005,57.51923256
154.78095876,174.23696790,-58.77881225,-95.49912755,91.30338749,-45.38775881
105.71649569,-11.04178635,2.79680869,17.59461560,0.26812751,-0.95812129,3.01807353

>  <Name>
lig.pdb

>  <RI>
0

>  <Rbt.Current_Directory>
/home/afrankz/demos/rdock_decoys_rna/rnas/3wru

>  <Rbt.Executable>
rbdock ($Id: //depot/dev/client3/rdock/2013.1/src/exe/rbdock.cxx#4 $)

>  <Rbt.Library>
libRbt.so (2013.1, Build901 2013/11/27)

>  <Rbt.Parameter_File>
/export/apps/rDock/src/rDock_2013.1_src/data/scripts/dock_solv.prm

>  <Rbt.Receptor>
prm/blind_docking_100.prm

>  <SCORE>
8.074

>  <SCORE.INTER>
-1.75795

>  <SCORE.INTER.CONST>
1

>  <SCORE.INTER.POLAR>
0

>  <SCORE.INTER.ROT>
13

>  <SCORE.INTER.SOLV>
36.3804

>  <SCORE.INTER.VDW>
-25.5654

>  <SCORE.INTER.norm>
-0.0382164

>  <SCORE.INTRA>
8.15385

>  <SCORE.INTRA.DIHEDRAL>
3.68187

>  <SCORE.INTRA.DIHEDRAL.0>
19.7146

>  <SCORE.INTRA.POLAR>
0

>  <SCORE.INTRA.POLAR.0>
0

>  <SCORE.INTRA.REPUL>
0.0211813

>  <SCORE.INTRA.REPUL.0>
0

>  <SCORE.INTRA.SOLV>
8.61978

>  <SCORE.INTRA.SOLV.lig_0>
-116.697

>  <SCORE.INTRA.VDW>
1.89711

>  <SCORE.INTRA.VDW.0>
-7.06424

>  <SCORE.INTRA.norm>
0.177258

>  <SCORE.RESTR>
1.6781

>  <SCORE.RESTR.CAVITY>
1.6781

>  <SCORE.RESTR.norm>
0.0364805

>  <SCORE.SYSTEM>
0

>  <SCORE.SYSTEM.CONST>
0

>  <SCORE.SYSTEM.DIHEDRAL>
0

>  <SCORE.SYSTEM.SOLV>
0

>  <SCORE.SYSTEM.norm>
0

>  <SCORE.heavy>
46

>  <SCORE.norm>
0.175522

>  <RMSD>
31.473

$$$$
lig.pdb
 OpenBabel03061811583D
libRbt.so/2013.1/901 2013/11/27
 46 49  0  0  0  0  0  0  0  0999 V2000
  -12.6300    5.8853   19.9021 C   0  0  1  0  0  0  0  0  0  0  0  0
  -11.5865    4.5888   17.9947 C   0  0  1  0  0  0  0  0  0  0  0  0
  -11.0748    3.4564   18.9357 C   0  0  1  0  0  0  0  0  0  0  0  0
   -9.8893    2.6555   18.1899 C   0  0  2  0  0  0  0  0  0  0  0  0
   -9.6927    3.6943   21.0502 C   0  0  2  0  0  0  0  0  0  0  0  0
   -8.2483    4.1703   20.7248 C   0  0  1  0  0  0  0  0  0  0  0  0
   -7.6838    4.0921   22.1227 C   0  0  1  0  0  0  0  0  0  0  0  0
   -8.7671    4.7623   23.0263 C   0  0  1  0  0  0  0  0  0  0  0  0
   -8.7565    6.3294   23.1017 C   0  0  0  0  0  0  0  0  0  0  0  0
   -6.6404    2.3815   23.5611 C   0  0  1  0  0  0  0  0  0  0  0  0
   -6.5623    0.9354   23.9502 C   0  0  1  0  0  0  0  0  0  0  0  0
  -13.8028    5.3751   20.7724 C   0  0  1  0  0  0  0  0  0  0  0  0
   -5.6285    0.8071   25.2055 C   0  0  0  0  0  0  0  0  0  0  0  0
   -6.0735    1.5311   26.3616 C   0  0  0  0  0  0  0  0  0  0  0  0
   -6.1274    2.9400   26.0342 C   0  0  2  0  0  0  0  0  0  0  0  0
   -6.6216    3.7907   27.2699 C   0  0  0  0  0  0  0  0  0  0  0  0
   -7.8938    0.5305   13.9921 C   0  0  2  0  0  0  0  0  0  0  0  0
   -9.8659    0.1886   15.2358 C   0  0  0  0  0  0  0  0  0  0  0  0
   -6.5751    0.1561   13.8167 C   0  0  0  0  0  0  0  0  0  0  0  0
   -8.5628   -0.4899   14.5841 C   0  0  1  0  0  0  0  0  0  0  0  0
  -15.2043    5.8781   20.1974 C   0  0  0  0  0  0  0  0  0  0  0  0
  -15.1817    7.4812   20.1534 C   0  0  0  0  0  0  0  0  0  0  0  0
  -13.9674    7.9304   19.2155 C   0  0  1  0  0  0  0  0  0  0  0  0
  -13.8537    9.4565   19.1186 C   0  0  0  0  0  0  0  0  0  0  0  0
  -10.4949    1.9850   16.8805 C   0  0  1  0  0  0  0  0  0  0  0  0
  -10.9859    3.2064   15.9354 C   0  0  0  0  0  0  0  0  0  0  0  0
  -12.1264    4.0216   16.6584 C   0  0  2  0  0  0  0  0  0  0  0  0
   -8.4594    0.9168   12.7191 F   0  0  0  0  0  0  0  0  0  0  0  0
   -7.7504    3.0913   28.0804 N   0  0  0  0  0  0  0  0  0  0  0  0
  -13.7202    3.8689   20.8361 N   0  0  0  0  0  0  0  0  0  0  0  0
   -7.7846    0.3805   24.3395 N   0  0  0  0  0  0  0  0  0  0  0  0
   -5.9978   -1.0545   13.3665 N   0  0  0  0  0  0  0  0  0  0  0  0
  -13.3275   10.0027   20.3084 N   0  0  0  0  0  0  0  0  0  0  0  0
   -9.4439    1.2303   16.1746 N   0  0  0  0  0  0  0  0  0  0  0  0
  -12.5763    5.1487   15.8118 N   0  0  0  0  0  0  0  0  0  0  0  0
  -12.6616    5.2926   18.6033 O   0  0  0  0  0  0  0  0  0  0  0  0
  -10.5819    4.1237   20.1865 O   0  0  0  0  0  0  0  0  0  0  0  0
   -9.4557    1.6625   19.0396 O   0  0  0  0  0  0  0  0  0  0  0  0
   -7.6805    3.2643   19.8282 O   0  0  0  0  0  0  0  0  0  0  0  0
   -9.9088    4.1112   22.4447 O   0  0  0  0  0  0  0  0  0  0  0  0
   -7.4438    6.7299   23.5427 O   0  0  0  0  0  0  0  0  0  0  0  0
   -7.4746    2.6352   22.4941 O   0  0  0  0  0  0  0  0  0  0  0  0
   -8.9644   -1.5182   13.6526 O   0  0  0  0  0  0  0  0  0  0  0  0
  -11.0365   -0.1237   14.9620 O   0  0  0  0  0  0  0  0  0  0  0  0
   -7.0229    3.1677   24.8392 O   0  0  0  0  0  0  0  0  0  0  0  0
  -12.6616    7.3808   19.7660 O   0  0  0  0  0  0  0  0  0  0  0  0
  1 36  1  6  0  0  0
  2 36  1  1  0  0  0
  2  3  1  0  0  0  0
  3 37  1  1  0  0  0
  3  4  1  0  0  0  0
  4 38  1  1  0  0  0
  5 37  1  6  0  0  0
  5  6  1  0  0  0  0
  6  7  1  0  0  0  0
  6 39  1  6  0  0  0
  7 42  1  1  0  0  0
  8  9  1  6  0  0  0
  8  7  1  0  0  0  0
 10 42  1  6  0  0  0
 10 11  1  0  0  0  0
 11 31  1  1  0  0  0
 11 13  1  0  0  0  0
 12 30  1  6  0  0  0
 12  1  1  0  0  0  0
 14 13  1  0  0  0  0
 15 16  1  1  0  0  0
 15 14  1  0  0  0  0
 17 19  1  6  0  0  0
 17 28  1  0  0  0  0
 18 34  1  0  0  0  0
 19 32  1  0  0  0  0
 20 18  1  6  0  0  0
 20 17  1  0  0  0  0
 20 43  1  0  0  0  0
 21 12  1  0  0  0  0
 22 21  1  0  0  0  0
 22 23  1  0  0  0  0
 23 24  1  1  0  0  0
 23 46  1  0  0  0  0
 24 33  1  0  0  0  0
 25 34  1  6  0  0  0
 25  4  1  0  0  0  0
 26 25  1  0  0  0  0
 27 35  1  6  0  0  0
 27 26  1  0  0  0  0
 27  2  1  0  0  0  0
 29 16  1  0  0  0  0
 40  8  1  0  0  0  0
 40  5  1  0  0  0  0
 41  9  1  0  0  0  0
 44 18  2  0  0  0  0
 45 15  1  0  0  0  0
 45 10  1  0  0  0  0
 46  1  1  0  0  0  0
M  END
>  <CHROM.1>
-125.62817293,53.31417652,-155.10372828,91.73397251,162.67090840,-56.48483552
175.22381353,-38.77571964,43.27864911,-58.11698567,159.41762978,74.12655823
159.41103118,-9.73153291,3.42275275,19.85330941,1.32510402,-0.74067171,1.16841659

>  <Name>
lig.pdb

>  <RI>
0

>  <Rbt.Current_Directory>
/home/afrankz/demos/rdock_decoys_rna/rnas/3wru

>  <Rbt.Executable>
rbdock ($Id: //depot/dev/client3/rdock/2013.1/src/exe/rbdock.cxx#4 $)

>  <Rbt.Library>
libRbt.so (2013.1, Build901 2013/11/27)

>  <Rbt.Parameter_File>
/export/apps/rDock/src/rDock_2013.1_src/data/scripts/dock_solv.prm

>  <Rbt.Receptor>
prm/blind_docking_80.prm

>  <SCORE>
26.142

>  <SCORE.INTER>
14.6199

>  <SCORE.INTER.CONST>
1

>  <SCORE.INTER.POLAR>
0

>  <SCORE.INTER.ROT>
13

>  <SCORE.INTER.SOLV>
43.0546

>  <SCORE.INTER.VDW>
-16.8716

>  <SCORE.INTER.norm>
0.317824

>  <SCORE.INTRA>
4.32676

>  <SCORE.INTRA.DIHEDRAL>
1.22722

>  <SCORE.INTRA.DIHEDRAL.0>
19.7146

>  <SCORE.INTRA.POLAR>
0

>  <SCORE.INTRA.POLAR.0>
0

>  <SCORE.INTRA.REPUL>
0.00057812

>  <SCORE.INTRA.REPUL.0>
0

>  <SCORE.INTRA.SOLV>
1.59767

>  <SCORE.INTRA.SOLV.lig_0>
-116.697

>  <SCORE.INTRA.VDW>
2.91142

>  <SCORE.INTRA.VDW.0>
-7.06424

>  <SCORE.INTRA.norm>
0.09406

>  <SCORE.RESTR>
7.19538

>  <SCORE.RESTR.CAVITY>
7.19538

>  <SCORE.RESTR.norm>
0.156421

>  <SCORE.SYSTEM>
0

>  <SCORE.SYSTEM.CONST>
0

>  <SCORE.SYSTEM.DIHEDRAL>
0

>  <SCORE.SYSTEM.SOLV>
0

>  <SCORE.SYSTEM.norm>
0

>  <SCORE.heavy>
46

>  <SCORE.norm>
0.568305

>  <RMSD>
31.489

$$$$
lig.pdb
 OpenBabel03061811583D
libRbt.so/2013.1/901 2013/11/27
 46 49  0  0  0  0  0  0  0  0999 V2000
  -10.3059    3.5614   21.5141 C   0  0  1  0  0  0  0  0  0  0  0  0
  -10.9238    4.5226   19.2553 C   0  0  1  0  0  0  0  0  0  0  0  0
  -11.2526    3.4526   18.1706 C   0  0  1  0  0  0  0  0  0  0  0  0
  -12.3479    4.0610   17.1542 C   0  0  2  0  0  0  0  0  0  0  0  0
   -9.6062    2.0349   16.8602 C   0  0  2  0  0  0  0  0  0  0  0  0
  -10.7551    1.3956   16.0296 C   0  0  1  0  0  0  0  0  0  0  0  0
   -9.9010    0.6379   15.0420 C   0  0  1  0  0  0  0  0  0  0  0  0
   -8.8076    1.6602   14.5965 C   0  0  1  0  0  0  0  0  0  0  0  0
   -9.2083    2.6832   13.4764 C   0  0  0  0  0  0  0  0  0  0  0  0
   -9.0205   -1.6642   14.9483 C   0  0  1  0  0  0  0  0  0  0  0  0
   -8.0427   -1.4051   13.8413 C   0  0  1  0  0  0  0  0  0  0  0  0
   -9.0342    3.0931   22.2603 C   0  0  1  0  0  0  0  0  0  0  0  0
   -7.8823   -2.7210   13.0004 C   0  0  0  0  0  0  0  0  0  0  0  0
   -9.0917   -3.1960   12.3918 C   0  0  0  0  0  0  0  0  0  0  0  0
  -10.0507   -3.4916   13.4349 C   0  0  2  0  0  0  0  0  0  0  0  0
  -11.4110   -4.0120   12.8235 C   0  0  0  0  0  0  0  0  0  0  0  0
  -15.4896    7.6382   15.1317 C   0  0  2  0  0  0  0  0  0  0  0  0
  -14.2773    5.8260   16.0256 C   0  0  0  0  0  0  0  0  0  0  0  0
  -15.6434    8.1327   16.4130 C   0  0  0  0  0  0  0  0  0  0  0  0
  -15.5610    6.2845   15.1742 C   0  0  1  0  0  0  0  0  0  0  0  0
   -8.4269    1.7787   21.5885 C   0  0  0  0  0  0  0  0  0  0  0  0
   -9.5540    0.6379   21.6104 C   0  0  0  0  0  0  0  0  0  0  0  0
  -10.8193    1.1811   20.7981 C   0  0  1  0  0  0  0  0  0  0  0  0
  -11.9634    0.1604   20.7719 C   0  0  0  0  0  0  0  0  0  0  0  0
  -13.6737    4.3623   17.9803 C   0  0  1  0  0  0  0  0  0  0  0  0
  -13.2769    5.4930   19.0711 C   0  0  0  0  0  0  0  0  0  0  0  0
  -12.1843    4.9285   20.0588 C   0  0  2  0  0  0  0  0  0  0  0  0
  -14.2481    8.1236   14.5726 F   0  0  0  0  0  0  0  0  0  0  0  0
  -11.3193   -5.4671   12.2808 N   0  0  0  0  0  0  0  0  0  0  0  0
   -8.0478    4.2359   22.2708 N   0  0  0  0  0  0  0  0  0  0  0  0
   -8.4562   -0.4305   12.9288 N   0  0  0  0  0  0  0  0  0  0  0  0
  -14.7362    8.2289   17.4943 N   0  0  0  0  0  0  0  0  0  0  0  0
  -11.5373   -1.0654   20.2182 N   0  0  0  0  0  0  0  0  0  0  0  0
  -14.7074    4.9088   17.0831 N   0  0  0  0  0  0  0  0  0  0  0  0
  -11.8027    5.9552   21.0536 N   0  0  0  0  0  0  0  0  0  0  0  0
   -9.9896    4.0069   20.1948 O   0  0  0  0  0  0  0  0  0  0  0  0
   -9.9644    3.1423   17.4654 O   0  0  0  0  0  0  0  0  0  0  0  0
  -12.6212    3.0986   16.2080 O   0  0  0  0  0  0  0  0  0  0  0  0
  -11.5070    0.5811   16.8772 O   0  0  0  0  0  0  0  0  0  0  0  0
   -8.4940    2.1642   15.9055 O   0  0  0  0  0  0  0  0  0  0  0  0
   -9.4480    1.9293   12.2713 O   0  0  0  0  0  0  0  0  0  0  0  0
   -9.2871   -0.5650   15.7353 O   0  0  0  0  0  0  0  0  0  0  0  0
  -16.7644    5.8018   15.8108 O   0  0  0  0  0  0  0  0  0  0  0  0
  -13.1119    6.1900   15.7976 O   0  0  0  0  0  0  0  0  0  0  0  0
  -10.2856   -2.2712   14.2936 O   0  0  0  0  0  0  0  0  0  0  0  0
  -11.3280    2.4636   21.4355 O   0  0  0  0  0  0  0  0  0  0  0  0
  1 36  1  6  0  0  0
  2 36  1  1  0  0  0
  2  3  1  0  0  0  0
  3 37  1  6  0  0  0
  3  4  1  0  0  0  0
  4 38  1  6  0  0  0
  5 37  1  6  0  0  0
  5  6  1  0  0  0  0
  6  7  1  0  0  0  0
  6 39  1  1  0  0  0
  7 42  1  1  0  0  0
  8  9  1  6  0  0  0
  8  7  1  0  0  0  0
 10 42  1  6  0  0  0
 10 11  1  0  0  0  0
 11 31  1  6  0  0  0
 11 13  1  0  0  0  0
 12 30  1  6  0  0  0
 12  1  1  0  0  0  0
 14 13  1  0  0  0  0
 15 16  1  6  0  0  0
 15 14  1  0  0  0  0
 17 19  1  1  0  0  0
 17 28  1  0  0  0  0
 18 34  1  0  0  0  0
 19 32  1  0  0  0  0
 20 18  1  1  0  0  0
 20 17  1  0  0  0  0
 20 43  1  0  0  0  0
 21 12  1  0  0  0  0
 22 21  1  0  0  0  0
 22 23  1  0  0  0  0
 23 24  1  1  0  0  0
 23 46  1  0  0  0  0
 24 33  1  0  0  0  0
 25 34  1  6  0  0  0
 25  4  1  0  0  0  0
 26 25  1  0  0  0  0
 27 35  1  1  0  0  0
 27 26  1  0  0  0  0
 27  2  1  0  0  0  0
 29 16  1  0  0  0  0
 40  8  1  0  0  0  0
 40  5  1  0  0  0  0
 41  9  1  0  0  0  0
 44 18  2  0  0  0  0
 45 15  1  0  0  0  0
 45 10  1  0  0  0  0
 46  1  1  0  0  0  0
M  END
>  <CHROM.1>
-178.82941844,-103.62051828,152.52502177,40.82616108,150.73076127,-65.36157497
61.02639165,73.74138231,79.00036176,129.33180891,-65.18487774,-57.20474116
-37.69186421,-11.23728880,2.38106504,16.90662927,-2.31519598,0.93840610,-2.02809148

>  <Name>
lig.pdb

>  <RI>
0

>  <Rbt.Current_Directory>
/home/afrankz/demos/rdock_decoys_rna/rnas/3wru

>  <Rbt.Executable>
rbdock ($Id: //depot/dev/client3/rdock/2013.1/src/exe/rbdock.cxx#4 $)

>  <Rbt.Library>
libRbt.so (2013.1, Build901 2013/11/27)

>  <Rbt.Parameter_File>
/export/apps/rDock/src/rDock_2013.1_src/data/scripts/dock_solv.prm

>  <Rbt.Receptor>
prm/blind_docking_100.prm

>  <SCORE>
21.0877

>  <SCORE.INTER>
4.53273

>  <SCORE.INTER.CONST>
1

>  <SCORE.INTER.POLAR>
0

>  <SCORE.INTER.ROT>
13

>  <SCORE.INTER.SOLV>
34.8086

>  <SCORE.INTER.VDW>
-20.8477

>  <SCORE.INTER.norm>
0.0985377

>  <SCORE.INTRA>
13.6388

>  <SCORE.INTRA.DIHEDRAL>
-0.524953

>  <SCORE.INTRA.DIHEDRAL.0>
19.7146

>  <SCORE.INTRA.POLAR>
0

>  <SCORE.INTRA.POLAR.0>
0

>  <SCORE.INTRA.REPUL>
0

>  <SCORE.INTRA.REPUL.0>
0

>  <SCORE.INTRA.SOLV>
8.15189

>  <SCORE.INTRA.SOLV.lig_0>
-116.697

>  <SCORE.INTRA.VDW>
9.82534

>  <SCORE.INTRA.VDW.0>
-7.06424

>  <SCORE.INTRA.norm>
0.296496

>  <SCORE.RESTR>
2.91616

>  <SCORE.RESTR.CAVITY>
2.91616

>  <SCORE.RESTR.norm>
0.0633947

>  <SCORE.SYSTEM>
0

>  <SCORE.SYSTEM.CONST>
0

>  <SCORE.SYSTEM.DIHEDRAL>
0

>  <SCORE.SYSTEM.SOLV>
0

>  <SCORE.SYSTEM.norm>
0

>  <SCORE.heavy>
46

>  <SCORE.norm>
0.458428

>  <RMSD>
31.526

$$$$
lig.pdb
 OpenBabel03061811583D
libRbt.so/2013.1/901 2013/11/27
 46 49  0  0  0  0  0  0  0  0999 V2000
   -8.9782    2.3072   20.0154 C   0  0  1  0  0  0  0  0  0  0  0  0
  -10.7096    3.9207   19.1171 C   0  0  1  0  0  0  0  0  0  0  0  0
  -11.1321    3.2897   17.7559 C   0  0  1  0  0  0  0  0  0  0  0  0
  -11.6639    4.4608   16.7818 C   0  0  2  0  0  0  0  0  0  0  0  0
   -9.7564    2.0488   16.0222 C   0  0  2  0  0  0  0  0  0  0  0  0
   -8.2947    1.5870   15.7598 C   0  0  1  0  0  0  0  0  0  0  0  0
   -8.5979    0.4925   14.7652 C   0  0  1  0  0  0  0  0  0  0  0  0
   -9.7879   -0.2983   15.3957 C   0  0  1  0  0  0  0  0  0  0  0  0
   -9.4288   -1.3733   16.4806 C   0  0  0  0  0  0  0  0  0  0  0  0
   -8.5993    0.4503   12.2991 C   0  0  1  0  0  0  0  0  0  0  0  0
   -9.1336    1.0395   11.0277 C   0  0  1  0  0  0  0  0  0  0  0  0
   -8.8736    1.2180   21.1089 C   0  0  1  0  0  0  0  0  0  0  0  0
   -8.6594    0.1461    9.8271 C   0  0  0  0  0  0  0  0  0  0  0  0
   -9.1050   -1.2167    9.8798 C   0  0  0  0  0  0  0  0  0  0  0  0
   -8.5778   -1.8309   11.0797 C   0  0  2  0  0  0  0  0  0  0  0  0
   -9.0438   -3.3355   11.1982 C   0  0  0  0  0  0  0  0  0  0  0  0
  -16.3893    8.1452   16.0318 C   0  0  2  0  0  0  0  0  0  0  0  0
  -14.6516    6.9228   17.0511 C   0  0  0  0  0  0  0  0  0  0  0  0
  -16.7692    9.3491   15.4694 C   0  0  0  0  0  0  0  0  0  0  0  0
  -15.0397    8.0345   15.9571 C   0  0  1  0  0  0  0  0  0  0  0  0
   -8.9512    1.8611   22.5677 C   0  0  0  0  0  0  0  0  0  0  0  0
   -7.7619    2.9278   22.7092 C   0  0  0  0  0  0  0  0  0  0  0  0
   -7.9541    4.0326   21.5698 C   0  0  1  0  0  0  0  0  0  0  0  0
   -6.8519    5.0978   21.6141 C   0  0  0  0  0  0  0  0  0  0  0  0
  -12.9497    5.1145   17.4528 C   0  0  1  0  0  0  0  0  0  0  0  0
  -12.4454    5.7716   18.8457 C   0  0  0  0  0  0  0  0  0  0  0  0
  -11.8936    4.6462   19.8032 C   0  0  2  0  0  0  0  0  0  0  0  0
  -17.0847    7.0633   15.3718 F   0  0  0  0  0  0  0  0  0  0  0  0
  -10.5814   -3.4857   11.3812 N   0  0  0  0  0  0  0  0  0  0  0  0
   -9.9701    0.2075   20.8722 N   0  0  0  0  0  0  0  0  0  0  0  0
  -10.5288    1.0578   10.9474 N   0  0  0  0  0  0  0  0  0  0  0  0
  -17.8767   10.1922   15.7223 N   0  0  0  0  0  0  0  0  0  0  0  0
   -7.0517    5.9904   22.6886 N   0  0  0  0  0  0  0  0  0  0  0  0
  -13.4761    6.1837   16.5856 N   0  0  0  0  0  0  0  0  0  0  0  0
  -11.4176    5.2334   21.0752 N   0  0  0  0  0  0  0  0  0  0  0  0
  -10.2720    2.9116   20.0180 O   0  0  0  0  0  0  0  0  0  0  0  0
   -9.9122    2.6210   17.1924 O   0  0  0  0  0  0  0  0  0  0  0  0
  -12.0306    3.8789   15.5889 O   0  0  0  0  0  0  0  0  0  0  0  0
   -7.5849    2.6632   15.2258 O   0  0  0  0  0  0  0  0  0  0  0  0
  -10.5671    0.8426   15.7922 O   0  0  0  0  0  0  0  0  0  0  0  0
  -10.4427   -2.3966   16.4241 O   0  0  0  0  0  0  0  0  0  0  0  0
   -8.9884    1.1195   13.4390 O   0  0  0  0  0  0  0  0  0  0  0  0
  -14.5781    7.6162   14.6540 O   0  0  0  0  0  0  0  0  0  0  0  0
  -15.2551    6.7449   18.1219 O   0  0  0  0  0  0  0  0  0  0  0  0
   -8.9982   -1.0459   12.2999 O   0  0  0  0  0  0  0  0  0  0  0  0
   -7.9336    3.3702   20.2020 O   0  0  0  0  0  0  0  0  0  0  0  0
  1 36  1  1  0  0  0
  2 36  1  1  0  0  0
  2  3  1  0  0  0  0
  3 37  1  6  0  0  0
  3  4  1  0  0  0  0
  4 38  1  6  0  0  0
  5 37  1  1  0  0  0
  5  6  1  0  0  0  0
  6  7  1  0  0  0  0
  6 39  1  6  0  0  0
  7 42  1  6  0  0  0
  8  9  1  1  0  0  0
  8  7  1  0  0  0  0
 10 42  1  1  0  0  0
 10 11  1  0  0  0  0
 11 31  1  1  0  0  0
 11 13  1  0  0  0  0
 12 30  1  6  0  0  0
 12  1  1  0  0  0  0
 14 13  1  0  0  0  0
 15 16  1  1  0  0  0
 15 14  1  0  0  0  0
 17 19  1  6  0  0  0
 17 28  1  0  0  0  0
 18 34  1  0  0  0  0
 19 32  1  0  0  0  0
 20 18  1  1  0  0  0
 20 17  1  0  0  0  0
 20 43  1  0  0  0  0
 21 12  1  0  0  0  0
 22 21  1  0  0  0  0
 22 23  1  0  0  0  0
 23 24  1  6  0  0  0
 23 46  1  0  0  0  0
 24 33  1  0  0  0  0
 25 34  1  6  0  0  0
 25  4  1  0  0  0  0
 26 25  1  0  0  0  0
 27 35  1  1  0  0  0
 27 26  1  0  0  0  0
 27  2  1  0  0  0  0
 29 16  1  0  0  0  0
 40  8  1  0  0  0  0
 40  5  1  0  0  0  0
 41  9  1  0  0  0  0
 44 18  2  0  0  0  0
 45 15  1  0  0  0  0
 45 10  1  0  0  0  0
 46  1  1  0  0  0  0
M  END
>  <CHROM.1>
-178.20359168,80.26179400,-174.20590925,174.52710722,145.21390408,-150.99480313
173.98766835,-65.03321923,-151.58900829,147.83541097,160.59111268,-75.09647596
-178.89374505,-10.83180368,2.95610806,16.52672231,-2.22292775,0.76998216
-2.03753462

>  <Name>
lig.pdb

>  <RI>
0

>  <Rbt.Current_Directory>
/home/afrankz/demos/rdock_decoys_rna/rnas/3wru

>  <Rbt.Executable>
rbdock ($Id: //depot/dev/client3/rdock/2013.1/src/exe/rbdock.cxx#4 $)

>  <Rbt.Library>
libRbt.so (2013.1, Build901 2013/11/27)

>  <Rbt.Parameter_File>
/export/apps/rDock/src/rDock_2013.1_src/data/scripts/dock_solv.prm

>  <Rbt.Receptor>
prm/blind_docking_80.prm

>  <SCORE>
10.3397

>  <SCORE.INTER>
5.7785

>  <SCORE.INTER.CONST>
1

>  <SCORE.INTER.POLAR>
0

>  <SCORE.INTER.ROT>
13

>  <SCORE.INTER.SOLV>
36.0866

>  <SCORE.INTER.VDW>
-20.4432

>  <SCORE.INTER.norm>
0.12562

>  <SCORE.INTRA>
-1.86164

>  <SCORE.INTRA.DIHEDRAL>
-4.14755

>  <SCORE.INTRA.DIHEDRAL.0>
19.7146

>  <SCORE.INTRA.POLAR>
0

>  <SCORE.INTRA.POLAR.0>
0

>  <SCORE.INTRA.REPUL>
0

>  <SCORE.INTRA.REPUL.0>
0

>  <SCORE.INTRA.SOLV>
-3.28544

>  <SCORE.INTRA.SOLV.lig_0>
-116.697

>  <SCORE.INTRA.VDW>
1.85486

>  <SCORE.INTRA.VDW.0>
-7.06424

>  <SCORE.INTRA.norm>
-0.0404704

>  <SCORE.RESTR>
6.42282

>  <SCORE.RESTR.CAVITY>
6.42282

>  <SCORE.RESTR.norm>
0.139626

>  <SCORE.SYSTEM>
0

>  <SCORE.SYSTEM.CONST>
0

>  <SCORE.SYSTEM.DIHEDRAL>
0

>  <SCORE.SYSTEM.SOLV>
0

>  <SCORE.SYSTEM.norm>
0

>  <SCORE.heavy>
46

>  <SCORE.norm>
0.224776

>  <RMSD>
31.596

$$$$
lig.pdb
 OpenBabel03061811583D
libRbt.so/2013.1/901 2013/11/27
 46 49  0  0  0  0  0  0  0  0999 V2000
  -13.7521    5.4293   18.9514 C   0  0  1  0  0  0  0  0  0  0  0  0
  -11.5452    4.2396   18.6017 C   0  0  1  0  0  0  0  0  0  0  0  0
  -10.5729    3.4057   19.4899 C   0  0  1  0  0  0  0  0  0  0  0  0
   -9.5356    2.6231   18.5336 C   0  0  2  0  0  0  0  0  0  0  0  0
   -9.0665    4.1324   21.3980 C   0  0  2  0  0  0  0  0  0  0  0  0
   -7.7026    4.8724   21.2934 C   0  0  1  0  0  0  0  0  0  0  0  0
   -7.3742    4.9122   22.7663 C   0  0  1  0  0  0  0  0  0  0  0  0
   -8.6986    5.3699   23.4560 C   0  0  1  0  0  0  0  0  0  0  0  0
   -8.9932    6.9109   23.4724 C   0  0  0  0  0  0  0  0  0  0  0  0
   -7.8813    2.8179   23.9665 C   0  0  1  0  0  0  0  0  0  0  0  0
   -7.2767    1.9652   25.0418 C   0  0  1  0  0  0  0  0  0  0  0  0
  -13.5668    6.8056   18.2697 C   0  0  1  0  0  0  0  0  0  0  0  0
   -8.4300    1.1817   25.7633 C   0  0  0  0  0  0  0  0  0  0  0  0
   -9.1889    0.3113   24.9119 C   0  0  0  0  0  0  0  0  0  0  0  0
   -9.8185    1.1060   23.8789 C   0  0  2  0  0  0  0  0  0  0  0  0
  -10.6639    0.1981   22.9012 C   0  0  0  0  0  0  0  0  0  0  0  0
   -8.7487   -0.6101   14.5182 C   0  0  2  0  0  0  0  0  0  0  0  0
   -9.0291    1.5169   15.4930 C   0  0  0  0  0  0  0  0  0  0  0  0
   -8.0995   -1.3939   13.5832 C   0  0  0  0  0  0  0  0  0  0  0  0
   -8.0371    0.5296   14.7028 C   0  0  1  0  0  0  0  0  0  0  0  0
  -13.1032    7.9100   19.3248 C   0  0  0  0  0  0  0  0  0  0  0  0
  -14.2090    7.9914   20.4837 C   0  0  0  0  0  0  0  0  0  0  0  0
  -14.3220    6.5463   21.1581 C   0  0  1  0  0  0  0  0  0  0  0  0
  -15.3695    6.5178   22.2776 C   0  0  0  0  0  0  0  0  0  0  0  0
  -10.3670    1.6199   17.6207 C   0  0  1  0  0  0  0  0  0  0  0  0
  -11.3379    2.5418   16.7077 C   0  0  0  0  0  0  0  0  0  0  0  0
  -12.3426    3.3392   17.6257 C   0  0  2  0  0  0  0  0  0  0  0  0
   -8.9352   -1.3661   15.7361 F   0  0  0  0  0  0  0  0  0  0  0  0
  -11.5796    1.0167   21.9465 N   0  0  0  0  0  0  0  0  0  0  0  0
  -12.5755    6.6422   17.1427 N   0  0  0  0  0  0  0  0  0  0  0  0
   -6.4013    0.9834   24.5693 N   0  0  0  0  0  0  0  0  0  0  0  0
   -7.7629   -1.1518   12.2306 N   0  0  0  0  0  0  0  0  0  0  0  0
  -15.4115    5.2527   22.9011 N   0  0  0  0  0  0  0  0  0  0  0  0
   -9.4523    0.8733   16.7385 N   0  0  0  0  0  0  0  0  0  0  0  0
  -13.2278    4.1956   16.8058 N   0  0  0  0  0  0  0  0  0  0  0  0
  -12.5019    4.9132   19.4094 O   0  0  0  0  0  0  0  0  0  0  0  0
   -9.8638    4.3791   20.3858 O   0  0  0  0  0  0  0  0  0  0  0  0
   -8.6898    1.8952   19.3403 O   0  0  0  0  0  0  0  0  0  0  0  0
   -6.8346    4.0851   20.5359 O   0  0  0  0  0  0  0  0  0  0  0  0
   -9.5858    4.5097   22.7221 O   0  0  0  0  0  0  0  0  0  0  0  0
  -10.1012    7.1273   24.3688 O   0  0  0  0  0  0  0  0  0  0  0  0
   -6.9618    3.5242   23.2218 O   0  0  0  0  0  0  0  0  0  0  0  0
   -6.8350    0.3261   15.4772 O   0  0  0  0  0  0  0  0  0  0  0  0
   -9.3595    2.6482   15.1011 O   0  0  0  0  0  0  0  0  0  0  0  0
   -8.7791    1.8895   23.1123 O   0  0  0  0  0  0  0  0  0  0  0  0
  -14.7064    5.5170   20.1079 O   0  0  0  0  0  0  0  0  0  0  0  0
  1 36  1  1  0  0  0
  2 36  1  1  0  0  0
  2  3  1  0  0  0  0
  3 37  1  1  0  0  0
  3  4  1  0  0  0  0
  4 38  1  1  0  0  0
  5 37  1  6  0  0  0
  5  6  1  0  0  0  0
  6  7  1  0  0  0  0
  6 39  1  6  0  0  0
  7 42  1  1  0  0  0
  8  9  1  6  0  0  0
  8  7  1  0  0  0  0
 10 42  1  6  0  0  0
 10 11  1  0  0  0  0
 11 31  1  6  0  0  0
 11 13  1  0  0  0  0
 12 30  1  6  0  0  0
 12  1  1  0  0  0  0
 14 13  1  0  0  0  0
 15 16  1  6  0  0  0
 15 14  1  0  0  0  0
 17 19  1  6  0  0  0
 17 28  1  0  0  0  0
 18 34  1  0  0  0  0
 19 32  1  0  0  0  0
 20 18  1  1  0  0  0
 20 17  1  0  0  0  0
 20 43  1  0  0  0  0
 21 12  1  0  0  0  0
 22 21  1  0  0  0  0
 22 23  1  0  0  0  0
 23 24  1  1  0  0  0
 23 46  1  0  0  0  0
 24 33  1  0  0  0  0
 25 34  1  6  0  0  0
 25  4  1  0  0  0  0
 26 25  1  0  0  0  0
 27 35  1  6  0  0  0
 27 26  1  0  0  0  0
 27  2  1  0  0  0  0
 29 16  1  0  0  0  0
 40  8  1  0  0  0  0
 40  5  1  0  0  0  0
 41  9  1  0  0  0  0
 44 18  2  0  0  0  0
 45 15  1  0  0  0  0
 45 10  1  0  0  0  0
 46  1  1  0  0  0  0
M  END
>  <CHROM.1>
-81.21521248,-160.39753085,171.70137476,127.57392192,-105.19848148,-168.91195178
-144.14974427,168.77645412,-60.30634194,57.54362155,166.06301937,-177.30106926
-83.25177302,-10.16105874,3.24154057,19.94912767,1.85746418,-0.73048625,1.25072233

>  <Name>
lig.pdb

>  <RI>
0

>  <Rbt.Current_Directory>
/home/afrankz/demos/rdock_decoys_rna/rnas/3wru

>  <Rbt.Executable>
rbdock ($Id: //depot/dev/client3/rdock/2013.1/src/exe/rbdock.cxx#4 $)

>  <Rbt.Library>
libRbt.so (2013.1, Build901 2013/11/27)

>  <Rbt.Parameter_File>
/export/apps/rDock/src/rDock_2013.1_src/data/scripts/dock_solv.prm

>  <Rbt.Receptor>
prm/blind_docking_80.prm

>  <SCORE>
49.3685

>  <SCORE.INTER>
28.0687

>  <SCORE.INTER.CONST>
1

>  <SCORE.INTER.POLAR>
0

>  <SCORE.INTER.ROT>
13

>  <SCORE.INTER.SOLV>
40.5381

>  <SCORE.INTER.VDW>
-7.06687

>  <SCORE.INTER.norm>
0.61019

>  <SCORE.INTRA>
15.6226

>  <SCORE.INTRA.DIHEDRAL>
4.90614

>  <SCORE.INTRA.DIHEDRAL.0>
19.7146

>  <SCORE.INTRA.POLAR>
0

>  <SCORE.INTRA.POLAR.0>
0

>  <SCORE.INTRA.REPUL>
0.120127

>  <SCORE.INTRA.REPUL.0>
0

>  <SCORE.INTRA.SOLV>
5.25432

>  <SCORE.INTRA.SOLV.lig_0>
-116.697

>  <SCORE.INTRA.VDW>
9.94177

>  <SCORE.INTRA.VDW.0>
-7.06424

>  <SCORE.INTRA.norm>
0.339623

>  <SCORE.RESTR>
5.67713

>  <SCORE.RESTR.CAVITY>
5.67713

>  <SCORE.RESTR.norm>
0.123416

>  <SCORE.SYSTEM>
0

>  <SCORE.SYSTEM.CONST>
0

>  <SCORE.SYSTEM.DIHEDRAL>
0

>  <SCORE.SYSTEM.SOLV>
0

>  <SCORE.SYSTEM.norm>
0

>  <SCORE.heavy>
46

>  <SCORE.norm>
1.07323

>  <RMSD>
31.610

$$$$
lig.pdb
 OpenBabel03061811583D
libRbt.so/2013.1/901 2013/11/27
 46 49  0  0  0  0  0  0  0  0999 V2000
  -13.0106    6.6294   19.0220 C   0  0  1  0  0  0  0  0  0  0  0  0
  -11.9646    4.7045   17.7536 C   0  0  1  0  0  0  0  0  0  0  0  0
  -11.1818    3.5474   18.4449 C   0  0  1  0  0  0  0  0  0  0  0  0
  -10.1355    2.9223   17.3879 C   0  0  2  0  0  0  0  0  0  0  0  0
   -9.8060    3.5425   20.5768 C   0  0  2  0  0  0  0  0  0  0  0  0
   -8.2649    3.6206   20.3829 C   0  0  1  0  0  0  0  0  0  0  0  0
   -7.8649    3.4589   21.8296 C   0  0  1  0  0  0  0  0  0  0  0  0
   -8.8140    4.4199   22.6136 C   0  0  1  0  0  0  0  0  0  0  0  0
   -8.4065    5.9343   22.6624 C   0  0  0  0  0  0  0  0  0  0  0  0
   -7.6461    1.6646   23.5077 C   0  0  1  0  0  0  0  0  0  0  0  0
   -8.5499    0.7006   24.2168 C   0  0  1  0  0  0  0  0  0  0  0  0
  -13.9924    6.8202   20.2023 C   0  0  1  0  0  0  0  0  0  0  0  0
   -7.9730    0.4420   25.6537 C   0  0  0  0  0  0  0  0  0  0  0  0
   -7.8724    1.6108   26.4798 C   0  0  0  0  0  0  0  0  0  0  0  0
   -6.9769    2.5531   25.8431 C   0  0  2  0  0  0  0  0  0  0  0  0
   -6.8327    3.8691   26.7046 C   0  0  0  0  0  0  0  0  0  0  0  0
   -8.3404    1.0851   13.5323 C   0  0  2  0  0  0  0  0  0  0  0  0
   -9.4094    0.4432   15.5318 C   0  0  0  0  0  0  0  0  0  0  0  0
   -7.1389    1.7057   13.8176 C   0  0  0  0  0  0  0  0  0  0  0  0
   -8.4616   -0.0143   14.3171 C   0  0  1  0  0  0  0  0  0  0  0  0
  -15.4906    6.4918   19.7603 C   0  0  0  0  0  0  0  0  0  0  0  0
  -15.8749    7.4550   18.5369 C   0  0  0  0  0  0  0  0  0  0  0  0
  -14.8394    7.1799   17.3503 C   0  0  1  0  0  0  0  0  0  0  0  0
  -15.1175    8.0674   16.1311 C   0  0  0  0  0  0  0  0  0  0  0  0
  -10.9646    2.3129   16.1746 C   0  0  1  0  0  0  0  0  0  0  0  0
  -11.7344    3.5605   15.4841 C   0  0  0  0  0  0  0  0  0  0  0  0
  -12.7430    4.2059   16.5108 C   0  0  2  0  0  0  0  0  0  0  0  0
   -8.4050    0.7839   12.1200 F   0  0  0  0  0  0  0  0  0  0  0  0
   -6.0163    4.9822   25.9871 N   0  0  0  0  0  0  0  0  0  0  0  0
  -13.5304    5.9470   21.3439 N   0  0  0  0  0  0  0  0  0  0  0  0
   -9.8484    1.1764   24.4190 N   0  0  0  0  0  0  0  0  0  0  0  0
   -6.6155    2.9589   13.4213 N   0  0  0  0  0  0  0  0  0  0  0  0
  -16.4170    7.8456   15.6280 N   0  0  0  0  0  0  0  0  0  0  0  0
  -10.0436    1.7180   15.1896 N   0  0  0  0  0  0  0  0  0  0  0  0
  -13.4446    5.3553   15.8976 N   0  0  0  0  0  0  0  0  0  0  0  0
  -12.9268    5.2548   18.6440 O   0  0  0  0  0  0  0  0  0  0  0  0
  -10.4749    4.1484   19.6247 O   0  0  0  0  0  0  0  0  0  0  0  0
   -9.4584    1.9041   18.0212 O   0  0  0  0  0  0  0  0  0  0  0  0
   -7.8731    2.5634   19.5606 O   0  0  0  0  0  0  0  0  0  0  0  0
  -10.0293    4.0581   21.9368 O   0  0  0  0  0  0  0  0  0  0  0  0
   -7.8265    6.2649   21.3847 O   0  0  0  0  0  0  0  0  0  0  0  0
   -8.0719    2.0135   22.2445 O   0  0  0  0  0  0  0  0  0  0  0  0
   -9.0587   -1.1359   13.6303 O   0  0  0  0  0  0  0  0  0  0  0  0
   -9.5766   -0.2031   16.5792 O   0  0  0  0  0  0  0  0  0  0  0  0
   -7.4616    2.8793   24.4501 O   0  0  0  0  0  0  0  0  0  0  0  0
  -13.4227    7.4472   17.8315 O   0  0  0  0  0  0  0  0  0  0  0  0
  1 36  1  6  0  0  0
  2 36  1  1  0  0  0
  2  3  1  0  0  0  0
  3 37  1  1  0  0  0
  3  4  1  0  0  0  0
  4 38  1  1  0  0  0
  5 37  1  6  0  0  0
  5  6  1  0  0  0  0
  6  7  1  0  0  0  0
  6 39  1  6  0  0  0
  7 42  1  1  0  0  0
  8  9  1  6  0  0  0
  8  7  1  0  0  0  0
 10 42  1  6  0  0  0
 10 11  1  0  0  0  0
 11 31  1  1  0  0  0
 11 13  1  0  0  0  0
 12 30  1  1  0  0  0
 12  1  1  0  0  0  0
 14 13  1  0  0  0  0
 15 16  1  1  0  0  0
 15 14  1  0  0  0  0
 17 19  1  6  0  0  0
 17 28  1  0  0  0  0
 18 34  1  0  0  0  0
 19 32  1  0  0  0  0
 20 18  1  1  0  0  0
 20 17  1  0  0  0  0
 20 43  1  0  0  0  0
 21 12  1  0  0  0  0
 22 21  1  0  0  0  0
 22 23  1  0  0  0  0
 23 24  1  6  0  0  0
 23 46  1  0  0  0  0
 24 33  1  0  0  0  0
 25 34  1  6  0  0  0
 25  4  1  0  0  0  0
 26 25  1  0  0  0  0
 27 35  1  6  0  0  0
 27 26  1  0  0  0  0
 27  2  1  0  0  0  0
 29 16  1  0  0  0  0
 40  8  1  0  0  0  0
 40  5  1  0  0  0  0
 41  9  1  0  0  0  0
 44 18  2  0  0  0  0
 45 15  1  0  0  0  0
 45 10  1  0  0  0  0
 46  1  1  0  0  0  0
M  END
>  <CHROM.1>
-169.06803276,123.73977565,172.50414201,101.55845262,174.58114939,36.66619185
141.68115108,-173.18757902,-170.45048917,13.68937258,99.14685478,-59.52737925
74.09016762,-10.18541278,3.56254516,19.27115921,2.09066885,0.71232330,-1.83806378

>  <Name>
lig.pdb

>  <RI>
0

>  <Rbt.Current_Directory>
/home/afrankz/demos/rdock_decoys_rna/rnas/3wru

>  <Rbt.Executable>
rbdock ($Id: //depot/dev/client3/rdock/2013.1/src/exe/rbdock.cxx#4 $)

>  <Rbt.Library>
libRbt.so (2013.1, Build901 2013/11/27)

>  <Rbt.Parameter_File>
/export/apps/rDock/src/rDock_2013.1_src/data/scripts/dock_solv.prm

>  <Rbt.Receptor>
prm/blind_docking_80.prm

>  <SCORE>
30.6368

>  <SCORE.INTER>
12.6339

>  <SCORE.INTER.CONST>
1

>  <SCORE.INTER.POLAR>
0

>  <SCORE.INTER.ROT>
13

>  <SCORE.INTER.SOLV>
37.7309

>  <SCORE.INTER.VDW>
-16.4211

>  <SCORE.INTER.norm>
0.27465

>  <SCORE.INTRA>
13.025

>  <SCORE.INTRA.DIHEDRAL>
7.39051

>  <SCORE.INTRA.DIHEDRAL.0>
19.7146

>  <SCORE.INTRA.POLAR>
0

>  <SCORE.INTRA.POLAR.0>
0

>  <SCORE.INTRA.REPUL>
0.116858

>  <SCORE.INTRA.REPUL.0>
0

>  <SCORE.INTRA.SOLV>
3.99043

>  <SCORE.INTRA.SOLV.lig_0>
-116.697

>  <SCORE.INTRA.VDW>
6.75027

>  <SCORE.INTRA.VDW.0>
-7.06424

>  <SCORE.INTRA.norm>
0.283153

>  <SCORE.RESTR>
4.97791

>  <SCORE.RESTR.CAVITY>
4.97791

>  <SCORE.RESTR.norm>
0.108216

>  <SCORE.SYSTEM>
0

>  <SCORE.SYSTEM.CONST>
0

>  <SCORE.SYSTEM.DIHEDRAL>
0

>  <SCORE.SYSTEM.SOLV>
0

>  <SCORE.SYSTEM.norm>
0

>  <SCORE.heavy>
46

>  <SCORE.norm>
0.666018

>  <RMSD>
31.648

$$$$
lig.pdb
 OpenBabel03061811583D
libRbt.so/2013.1/901 2013/11/27
 46 49  0  0  0  0  0  0  0  0999 V2000
  -13.4971   -1.5373   20.6519 C   0  0  1  0  0  0  0  0  0  0  0  0
  -13.1737   -0.8456   18.2384 C   0  0  1  0  0  0  0  0  0  0  0  0
  -11.7909   -0.1742   18.4967 C   0  0  1  0  0  0  0  0  0  0  0  0
  -10.9525   -0.1617   17.1183 C   0  0  2  0  0  0  0  0  0  0  0  0
  -11.9490    2.3528   18.3309 C   0  0  2  0  0  0  0  0  0  0  0  0
  -12.6575    3.5406   19.0420 C   0  0  1  0  0  0  0  0  0  0  0  0
  -11.8224    4.6573   18.4635 C   0  0  1  0  0  0  0  0  0  0  0  0
  -10.3479    4.1605   18.5973 C   0  0  1  0  0  0  0  0  0  0  0  0
   -9.6576    4.3571   19.9925 C   0  0  0  0  0  0  0  0  0  0  0  0
  -13.4439    5.4276   16.7720 C   0  0  1  0  0  0  0  0  0  0  0  0
  -13.8181    5.4974   15.3215 C   0  0  1  0  0  0  0  0  0  0  0  0
  -14.5114   -1.2909   21.7938 C   0  0  1  0  0  0  0  0  0  0  0  0
  -15.2131    6.2073   15.2007 C   0  0  0  0  0  0  0  0  0  0  0  0
  -15.2510    7.5478   15.7107 C   0  0  0  0  0  0  0  0  0  0  0  0
  -14.9288    7.5167   17.1215 C   0  0  2  0  0  0  0  0  0  0  0  0
  -14.9457    8.9703   17.7391 C   0  0  0  0  0  0  0  0  0  0  0  0
   -9.7693   -3.3713   12.2946 C   0  0  2  0  0  0  0  0  0  0  0  0
  -10.0359   -2.8991   14.5878 C   0  0  0  0  0  0  0  0  0  0  0  0
   -9.1842   -3.0521   11.0838 C   0  0  0  0  0  0  0  0  0  0  0  0
   -9.1167   -2.7104   13.2829 C   0  0  1  0  0  0  0  0  0  0  0  0
  -14.5534    0.2521   22.2000 C   0  0  0  0  0  0  0  0  0  0  0  0
  -13.0768    0.6942   22.6432 C   0  0  0  0  0  0  0  0  0  0  0  0
  -12.0953    0.4393   21.4072 C   0  0  1  0  0  0  0  0  0  0  0  0
  -10.6477    0.8221   21.7378 C   0  0  0  0  0  0  0  0  0  0  0  0
  -10.7040   -1.6702   16.6785 C   0  0  1  0  0  0  0  0  0  0  0  0
  -12.1688   -2.3057   16.4024 C   0  0  0  0  0  0  0  0  0  0  0  0
  -13.0171   -2.3010   17.7322 C   0  0  2  0  0  0  0  0  0  0  0  0
   -9.7624   -4.8060   12.4708 F   0  0  0  0  0  0  0  0  0  0  0  0
  -14.5878    8.9947   19.2529 N   0  0  0  0  0  0  0  0  0  0  0  0
  -15.8597   -1.7986   21.3424 N   0  0  0  0  0  0  0  0  0  0  0  0
  -12.9452    6.2609   14.5413 N   0  0  0  0  0  0  0  0  0  0  0  0
   -7.9740   -3.4782   10.4879 N   0  0  0  0  0  0  0  0  0  0  0  0
  -10.5214    2.2148   21.9258 N   0  0  0  0  0  0  0  0  0  0  0  0
   -9.9272   -1.7035   15.4263 N   0  0  0  0  0  0  0  0  0  0  0  0
  -14.3629   -2.8673   17.4921 N   0  0  0  0  0  0  0  0  0  0  0  0
  -13.9268   -0.9112   19.4426 O   0  0  0  0  0  0  0  0  0  0  0  0
  -12.0706    1.2191   18.9798 O   0  0  0  0  0  0  0  0  0  0  0  0
   -9.7377    0.4347   17.3725 O   0  0  0  0  0  0  0  0  0  0  0  0
  -13.9932    3.5585   18.6385 O   0  0  0  0  0  0  0  0  0  0  0  0
  -10.5696    2.8215   18.1243 O   0  0  0  0  0  0  0  0  0  0  0  0
   -8.4271    3.6064   19.9731 O   0  0  0  0  0  0  0  0  0  0  0  0
  -12.2085    4.8657   17.0103 O   0  0  0  0  0  0  0  0  0  0  0  0
   -7.7960   -3.2365   13.5382 O   0  0  0  0  0  0  0  0  0  0  0  0
  -10.7326   -3.9003   14.8221 O   0  0  0  0  0  0  0  0  0  0  0  0
  -13.5852    6.8616   17.3391 O   0  0  0  0  0  0  0  0  0  0  0  0
  -12.1314   -1.0289   21.0158 O   0  0  0  0  0  0  0  0  0  0  0  0
  1 36  1  6  0  0  0
  2 36  1  1  0  0  0
  2  3  1  0  0  0  0
  3 37  1  6  0  0  0
  3  4  1  0  0  0  0
  4 38  1  1  0  0  0
  5 37  1  1  0  0  0
  5  6  1  0  0  0  0
  6  7  1  0  0  0  0
  6 39  1  6  0  0  0
  7 42  1  6  0  0  0
  8  9  1  1  0  0  0
  8  7  1  0  0  0  0
 10 42  1  6  0  0  0
 10 11  1  0  0  0  0
 11 31  1  6  0  0  0
 11 13  1  0  0  0  0
 12 30  1  6  0  0  0
 12  1  1  0  0  0  0
 14 13  1  0  0  0  0
 15 16  1  6  0  0  0
 15 14  1  0  0  0  0
 17 19  1  6  0  0  0
 17 28  1  0  0  0  0
 18 34  1  0  0  0  0
 19 32  1  0  0  0  0
 20 18  1  1  0  0  0
 20 17  1  0  0  0  0
 20 43  1  0  0  0  0
 21 12  1  0  0  0  0
 22 21  1  0  0  0  0
 22 23  1  0  0  0  0
 23 24  1  1  0  0  0
 23 46  1  0  0  0  0
 24 33  1  0  0  0  0
 25 34  1  6  0  0  0
 25  4  1  0  0  0  0
 26 25  1  0  0  0  0
 27 35  1  6  0  0  0
 27 26  1  0  0  0  0
 27  2  1  0  0  0  0
 29 16  1  0  0  0  0
 40  8  1  0  0  0  0
 40  5  1  0  0  0  0
 41  9  1  0  0  0  0
 44 18  2  0  0  0  0
 45 15  1  0  0  0  0
 45 10  1  0  0  0  0
 46  1  1  0  0  0  0
M  END
>  <CHROM.1>
174.28988090,-56.64044970,-104.92575849,165.86534244,70.95245006,168.93213772
-174.90586363,-179.28643581,76.05657456,-147.06550559,168.81228334,-66.90601143
-156.43552437,-11.99393293,1.21523756,17.53714124,0.44246232,-1.18601487
2.47999365

>  <Name>
lig.pdb

>  <RI>
0

>  <Rbt.Current_Directory>
/home/afrankz/demos/rdock_decoys_rna/rnas/3wru

>  <Rbt.Executable>
rbdock ($Id: //depot/dev/client3/rdock/2013.1/src/exe/rbdock.cxx#4 $)

>  <Rbt.Library>
libRbt.so (2013.1, Build901 2013/11/27)

>  <Rbt.Parameter_File>
/export/apps/rDock/src/rDock_2013.1_src/data/scripts/dock_solv.prm

>  <Rbt.Receptor>
prm/blind_docking_100.prm

>  <SCORE>
6.87604

>  <SCORE.INTER>
1.24672

>  <SCORE.INTER.CONST>
1

>  <SCORE.INTER.POLAR>
0

>  <SCORE.INTER.ROT>
13

>  <SCORE.INTER.SOLV>
28.7413

>  <SCORE.INTER.VDW>
-21.0159

>  <SCORE.INTER.norm>
0.0271026

>  <SCORE.INTRA>
3.6501

>  <SCORE.INTRA.DIHEDRAL>
-7.4647

>  <SCORE.INTRA.DIHEDRAL.0>
19.7146

>  <SCORE.INTRA.POLAR>
0

>  <SCORE.INTRA.POLAR.0>
0

>  <SCORE.INTRA.REPUL>
0

>  <SCORE.INTRA.REPUL.0>
0

>  <SCORE.INTRA.SOLV>
2.76044

>  <SCORE.INTRA.SOLV.lig_0>
-116.697

>  <SCORE.INTRA.VDW>
6.00223

>  <SCORE.INTRA.VDW.0>
-7.06424

>  <SCORE.INTRA.norm>
0.07935

>  <SCORE.RESTR>
1.97922

>  <SCORE.RESTR.CAVITY>
1.97922

>  <SCORE.RESTR.norm>
0.0430265

>  <SCORE.SYSTEM>
0

>  <SCORE.SYSTEM.CONST>
0

>  <SCORE.SYSTEM.DIHEDRAL>
0

>  <SCORE.SYSTEM.SOLV>
0

>  <SCORE.SYSTEM.norm>
0

>  <SCORE.heavy>
46

>  <SCORE.norm>
0.149479

>  <RMSD>
31.671

$$$$
lig.pdb
 OpenBabel03061811583D
libRbt.so/2013.1/901 2013/11/27
 46 49  0  0  0  0  0  0  0  0999 V2000
  -12.6830    5.7918   20.2492 C   0  0  1  0  0  0  0  0  0  0  0  0
  -11.7884    4.7774   18.1094 C   0  0  1  0  0  0  0  0  0  0  0  0
  -11.1303    3.5999   18.8905 C   0  0  1  0  0  0  0  0  0  0  0  0
  -10.0062    2.9184   17.9551 C   0  0  2  0  0  0  0  0  0  0  0  0
   -9.7328    3.6199   21.0081 C   0  0  2  0  0  0  0  0  0  0  0  0
   -8.2256    3.8748   20.7214 C   0  0  1  0  0  0  0  0  0  0  0  0
   -7.7129    3.6962   22.1300 C   0  0  1  0  0  0  0  0  0  0  0  0
   -8.7034    4.5128   23.0195 C   0  0  1  0  0  0  0  0  0  0  0  0
   -8.4574    6.0593   23.1180 C   0  0  0  0  0  0  0  0  0  0  0  0
   -7.2212    1.8705   23.7139 C   0  0  1  0  0  0  0  0  0  0  0  0
   -7.9586    0.7562   24.3945 C   0  0  1  0  0  0  0  0  0  0  0  0
  -13.9634    5.4648   21.0535 C   0  0  1  0  0  0  0  0  0  0  0  0
   -7.3007    0.5078   25.7980 C   0  0  0  0  0  0  0  0  0  0  0  0
   -7.3311    1.6361   26.6838 C   0  0  0  0  0  0  0  0  0  0  0  0
   -6.5964    2.7242   26.0744 C   0  0  2  0  0  0  0  0  0  0  0  0
   -6.6026    4.0024   27.0024 C   0  0  0  0  0  0  0  0  0  0  0  0
   -8.8800   -0.6867   14.1375 C   0  0  2  0  0  0  0  0  0  0  0  0
  -10.1747    1.2558   14.4597 C   0  0  0  0  0  0  0  0  0  0  0  0
   -7.9006   -1.3663   13.4382 C   0  0  0  0  0  0  0  0  0  0  0  0
   -8.9335    0.5907   13.6848 C   0  0  1  0  0  0  0  0  0  0  0  0
  -15.1984    6.3388   20.5451 C   0  0  0  0  0  0  0  0  0  0  0  0
  -14.8112    7.8881   20.6939 C   0  0  0  0  0  0  0  0  0  0  0  0
  -13.5025    8.1545   19.8151 C   0  0  1  0  0  0  0  0  0  0  0  0
  -13.0425    9.6147   19.9020 C   0  0  0  0  0  0  0  0  0  0  0  0
  -10.7289    2.3254   16.6679 C   0  0  1  0  0  0  0  0  0  0  0  0
  -11.3703    3.5928   15.8880 C   0  0  0  0  0  0  0  0  0  0  0  0
  -12.4529    4.2926   16.7971 C   0  0  2  0  0  0  0  0  0  0  0  0
   -8.6108   -0.7755   15.5550 F   0  0  0  0  0  0  0  0  0  0  0  0
   -6.0678    5.2773   26.2891 N   0  0  0  0  0  0  0  0  0  0  0  0
  -14.2268    3.9829   20.9357 N   0  0  0  0  0  0  0  0  0  0  0  0
   -9.3019    1.0368   24.6597 N   0  0  0  0  0  0  0  0  0  0  0  0
   -6.4959   -1.2036   13.3977 N   0  0  0  0  0  0  0  0  0  0  0  0
  -14.0392   10.4901   19.4209 N   0  0  0  0  0  0  0  0  0  0  0  0
   -9.7356    1.6801   15.7907 N   0  0  0  0  0  0  0  0  0  0  0  0
  -13.0387    5.4603   16.1023 N   0  0  0  0  0  0  0  0  0  0  0  0
  -12.8145    5.3785   18.8887 O   0  0  0  0  0  0  0  0  0  0  0  0
  -10.5259    4.1890   20.1317 O   0  0  0  0  0  0  0  0  0  0  0  0
   -9.4414    1.8831   18.6660 O   0  0  0  0  0  0  0  0  0  0  0  0
   -7.7804    2.9032   19.8242 O   0  0  0  0  0  0  0  0  0  0  0  0
   -9.9165    4.0491   22.4036 O   0  0  0  0  0  0  0  0  0  0  0  0
   -7.6291    6.4350   21.9996 O   0  0  0  0  0  0  0  0  0  0  0  0
   -7.7358    2.2203   22.4844 O   0  0  0  0  0  0  0  0  0  0  0  0
   -7.7297    1.3393   13.9620 O   0  0  0  0  0  0  0  0  0  0  0  0
  -11.3132    1.3933   13.9827 O   0  0  0  0  0  0  0  0  0  0  0  0
   -7.1708    3.0500   24.7159 O   0  0  0  0  0  0  0  0  0  0  0  0
  -12.3705    7.2602   20.2938 O   0  0  0  0  0  0  0  0  0  0  0  0
  1 36  1  6  0  0  0
  2 36  1  1  0  0  0
  2  3  1  0  0  0  0
  3 37  1  1  0  0  0
  3  4  1  0  0  0  0
  4 38  1  1  0  0  0
  5 37  1  6  0  0  0
  5  6  1  0  0  0  0
  6  7  1  0  0  0  0
  6 39  1  6  0  0  0
  7 42  1  1  0  0  0
  8  9  1  6  0  0  0
  8  7  1  0  0  0  0
 10 42  1  6  0  0  0
 10 11  1  0  0  0  0
 11 31  1  1  0  0  0
 11 13  1  0  0  0  0
 12 30  1  6  0  0  0
 12  1  1  0  0  0  0
 14 13  1  0  0  0  0
 15 16  1  1  0  0  0
 15 14  1  0  0  0  0
 17 19  1  6  0  0  0
 17 28  1  0  0  0  0
 18 34  1  0  0  0  0
 19 32  1  0  0  0  0
 20 18  1  1  0  0  0
 20 17  1  0  0  0  0
 20 43  1  0  0  0  0
 21 12  1  0  0  0  0
 22 21  1  0  0  0  0
 22 23  1  0  0  0  0
 23 24  1  1  0  0  0
 23 46  1  0  0  0  0
 24 33  1  0  0  0  0
 25 34  1  6  0  0  0
 25  4  1  0  0  0  0
 26 25  1  0  0  0  0
 27 35  1  6  0  0  0
 27 26  1  0  0  0  0
 27  2  1  0  0  0  0
 29 16  1  0  0  0  0
 40  8  1  0  0  0  0
 40  5  1  0  0  0  0
 41  9  1  0  0  0  0
 44 18  2  0  0  0  0
 45 15  1  0  0  0  0
 45 10  1  0  0  0  0
 46  1  1  0  0  0  0
M  END
>  <CHROM.1>
-140.27519493,49.19420190,-170.85656460,94.56102008,176.19645587,19.09934707
143.10085141,-169.00163616,65.72050729,82.00533660,175.21572279,-60.86157638
-170.80651967,-9.93622337,3.54254387,19.88010247,1.36069704,-0.78388704,1.16546374

>  <Name>
lig.pdb

>  <RI>
0

>  <Rbt.Current_Directory>
/home/afrankz/demos/rdock_decoys_rna/rnas/3wru

>  <Rbt.Executable>
rbdock ($Id: //depot/dev/client3/rdock/2013.1/src/exe/rbdock.cxx#4 $)

>  <Rbt.Library>
libRbt.so (2013.1, Build901 2013/11/27)

>  <Rbt.Parameter_File>
/export/apps/rDock/src/rDock_2013.1_src/data/scripts/dock_solv.prm

>  <Rbt.Receptor>
prm/blind_docking_80.prm

>  <SCORE>
21.3083

>  <SCORE.INTER>
5.2713

>  <SCORE.INTER.CONST>
1

>  <SCORE.INTER.POLAR>
0

>  <SCORE.INTER.ROT>
13

>  <SCORE.INTER.SOLV>
37.4043

>  <SCORE.INTER.VDW>
-21.2205

>  <SCORE.INTER.norm>
0.114594

>  <SCORE.INTRA>
8.56439

>  <SCORE.INTRA.DIHEDRAL>
2.15361

>  <SCORE.INTRA.DIHEDRAL.0>
19.7146

>  <SCORE.INTRA.POLAR>
0

>  <SCORE.INTRA.POLAR.0>
0

>  <SCORE.INTRA.REPUL>
0.0228364

>  <SCORE.INTRA.REPUL.0>
0

>  <SCORE.INTRA.SOLV>
1.3986

>  <SCORE.INTRA.SOLV.lig_0>
-116.697

>  <SCORE.INTRA.VDW>
6.67411

>  <SCORE.INTRA.VDW.0>
-7.06424

>  <SCORE.INTRA.norm>
0.186182

>  <SCORE.RESTR>
7.47261

>  <SCORE.RESTR.CAVITY>
7.47261

>  <SCORE.RESTR.norm>
0.162448

>  <SCORE.SYSTEM>
0

>  <SCORE.SYSTEM.CONST>
0

>  <SCORE.SYSTEM.DIHEDRAL>
0

>  <SCORE.SYSTEM.SOLV>
0

>  <SCORE.SYSTEM.norm>
0

>  <SCORE.heavy>
46

>  <SCORE.norm>
0.463224

>  <RMSD>
31.700

$$$$
lig.pdb
 OpenBabel03061811583D
libRbt.so/2013.1/901 2013/11/27
 46 49  0  0  0  0  0  0  0  0999 V2000
  -13.2825    5.7989   20.9357 C   0  0  1  0  0  0  0  0  0  0  0  0
  -12.5272    5.0366   18.6430 C   0  0  1  0  0  0  0  0  0  0  0  0
  -11.5144    3.9182   19.0344 C   0  0  1  0  0  0  0  0  0  0  0  0
  -10.4497    3.7370   17.8358 C   0  0  2  0  0  0  0  0  0  0  0  0
  -10.3537    3.6357   21.2729 C   0  0  2  0  0  0  0  0  0  0  0  0
   -9.3522    2.5539   20.7777 C   0  0  1  0  0  0  0  0  0  0  0  0
   -8.5645    2.3991   22.0562 C   0  0  1  0  0  0  0  0  0  0  0  0
   -8.2878    3.8608   22.5314 C   0  0  1  0  0  0  0  0  0  0  0  0
   -7.0770    4.6050   21.8667 C   0  0  0  0  0  0  0  0  0  0  0  0
   -8.7155    0.9063   24.0138 C   0  0  1  0  0  0  0  0  0  0  0  0
   -8.8807    1.4107   25.4163 C   0  0  1  0  0  0  0  0  0  0  0  0
  -14.5581    5.7389   21.8089 C   0  0  1  0  0  0  0  0  0  0  0  0
   -8.0039    0.5248   26.3707 C   0  0  0  0  0  0  0  0  0  0  0  0
   -6.5988    0.5386   26.0807 C   0  0  0  0  0  0  0  0  0  0  0  0
   -6.3962    0.0232   24.7434 C   0  0  2  0  0  0  0  0  0  0  0  0
   -4.8633    0.0225   24.3623 C   0  0  0  0  0  0  0  0  0  0  0  0
   -7.5844    1.8005   14.4364 C   0  0  2  0  0  0  0  0  0  0  0  0
   -9.8281    1.7157   15.1516 C   0  0  0  0  0  0  0  0  0  0  0  0
   -6.8834    0.6727   14.0533 C   0  0  0  0  0  0  0  0  0  0  0  0
   -8.8267    1.7478   13.8948 C   0  0  1  0  0  0  0  0  0  0  0  0
  -15.7156    6.6514   21.1961 C   0  0  0  0  0  0  0  0  0  0  0  0
  -15.1661    8.1546   21.0911 C   0  0  0  0  0  0  0  0  0  0  0  0
  -13.8714    8.1405   20.1533 C   0  0  1  0  0  0  0  0  0  0  0  0
  -13.2613    9.5389   19.9995 C   0  0  0  0  0  0  0  0  0  0  0  0
  -11.2421    3.2656   16.5394 C   0  0  1  0  0  0  0  0  0  0  0  0
  -12.2574    4.4730   16.1687 C   0  0  0  0  0  0  0  0  0  0  0  0
  -13.2904    4.6870   17.3414 C   0  0  2  0  0  0  0  0  0  0  0  0
   -6.8467    2.9820   14.0499 F   0  0  0  0  0  0  0  0  0  0  0  0
   -4.2009    1.4240   24.4939 N   0  0  0  0  0  0  0  0  0  0  0  0
  -14.9763    4.2934   21.9313 N   0  0  0  0  0  0  0  0  0  0  0  0
   -8.4319    2.7201   25.6102 N   0  0  0  0  0  0  0  0  0  0  0  0
   -7.2761   -0.6823   13.9472 N   0  0  0  0  0  0  0  0  0  0  0  0
  -11.8573    9.4692   19.8770 N   0  0  0  0  0  0  0  0  0  0  0  0
  -10.3010    3.0752   15.4211 N   0  0  0  0  0  0  0  0  0  0  0  0
  -14.2168    5.7957   17.0221 N   0  0  0  0  0  0  0  0  0  0  0  0
  -13.5074    5.1974   19.6602 O   0  0  0  0  0  0  0  0  0  0  0  0
  -10.8430    4.3668   20.2997 O   0  0  0  0  0  0  0  0  0  0  0  0
   -9.5684    2.7455   18.2049 O   0  0  0  0  0  0  0  0  0  0  0  0
  -10.0783    1.4193   20.4135 O   0  0  0  0  0  0  0  0  0  0  0  0
   -9.6127    4.3719   22.3094 O   0  0  0  0  0  0  0  0  0  0  0  0
   -5.8873    3.8519   22.1757 O   0  0  0  0  0  0  0  0  0  0  0  0
   -9.4011    1.6355   23.0667 O   0  0  0  0  0  0  0  0  0  0  0  0
   -9.1288    2.8882   13.0615 O   0  0  0  0  0  0  0  0  0  0  0  0
  -10.1498    0.6890   15.7722 O   0  0  0  0  0  0  0  0  0  0  0  0
   -7.1927    0.8283   23.7438 O   0  0  0  0  0  0  0  0  0  0  0  0
  -12.8197    7.2146   20.7420 O   0  0  0  0  0  0  0  0  0  0  0  0
  1 36  1  6  0  0  0
  2 36  1  1  0  0  0
  2  3  1  0  0  0  0
  3 37  1  1  0  0  0
  3  4  1  0  0  0  0
  4 38  1  1  0  0  0
  5 37  1  6  0  0  0
  5  6  1  0  0  0  0
  6  7  1  0  0  0  0
  6 39  1  1  0  0  0
  7 42  1  1  0  0  0
  8  9  1  6  0  0  0
  8  7  1  0  0  0  0
 10 42  1  6  0  0  0
 10 11  1  0  0  0  0
 11 31  1  6  0  0  0
 11 13  1  0  0  0  0
 12 30  1  6  0  0  0
 12  1  1  0  0  0  0
 14 13  1  0  0  0  0
 15 16  1  6  0  0  0
 15 14  1  0  0  0  0
 17 19  1  6  0  0  0
 17 28  1  0  0  0  0
 18 34  1  0  0  0  0
 19 32  1  0  0  0  0
 20 18  1  1  0  0  0
 20 17  1  0  0  0  0
 20 43  1  0  0  0  0
 21 12  1  0  0  0  0
 22 21  1  0  0  0  0
 22 23  1  0  0  0  0
 23 24  1  1  0  0  0
 23 46  1  0  0  0  0
 24 33  1  0  0  0  0
 25 34  1  6  0  0  0
 25  4  1  0  0  0  0
 26 25  1  0  0  0  0
 27 35  1  6  0  0  0
 27 26  1  0  0  0  0
 27  2  1  0  0  0  0
 29 16  1  0  0  0  0
 40  8  1  0  0  0  0
 40  5  1  0  0  0  0
 41  9  1  0  0  0  0
 44 18  2  0  0  0  0
 45 15  1  0  0  0  0
 45 10  1  0  0  0  0
 46  1  1  0  0  0  0
M  END
>  <CHROM.1>
-177.21512728,72.77690938,150.20819410,52.86996182,152.50710999,-61.04157619
113.88022313,-55.98907750,-41.14114632,96.38706185,118.26011310,146.62709055
97.35028749,-10.03753456,3.46800846,19.95675171,2.25107455,0.69611182,-1.64714585

>  <Name>
lig.pdb

>  <RI>
0

>  <Rbt.Current_Directory>
/home/afrankz/demos/rdock_decoys_rna/rnas/3wru

>  <Rbt.Executable>
rbdock ($Id: //depot/dev/client3/rdock/2013.1/src/exe/rbdock.cxx#4 $)

>  <Rbt.Library>
libRbt.so (2013.1, Build901 2013/11/27)

>  <Rbt.Parameter_File>
/export/apps/rDock/src/rDock_2013.1_src/data/scripts/dock_solv.prm

>  <Rbt.Receptor>
prm/blind_docking_80.prm

>  <SCORE>
16.5775

>  <SCORE.INTER>
2.31342

>  <SCORE.INTER.CONST>
1

>  <SCORE.INTER.POLAR>
0

>  <SCORE.INTER.ROT>
13

>  <SCORE.INTER.SOLV>
42.405

>  <SCORE.INTER.VDW>
-24.8594

>  <SCORE.INTER.norm>
0.0502916

>  <SCORE.INTRA>
6.80443

>  <SCORE.INTRA.DIHEDRAL>
6.85062

>  <SCORE.INTRA.DIHEDRAL.0>
19.7146

>  <SCORE.INTRA.POLAR>
0

>  <SCORE.INTRA.POLAR.0>
0

>  <SCORE.INTRA.REPUL>
0

>  <SCORE.INTRA.REPUL.0>
0

>  <SCORE.INTRA.SOLV>
1.80711

>  <SCORE.INTRA.SOLV.lig_0>
-116.697

>  <SCORE.INTRA.VDW>
2.47556

>  <SCORE.INTRA.VDW.0>
-7.06424

>  <SCORE.INTRA.norm>
0.147922

>  <SCORE.RESTR>
7.45965

>  <SCORE.RESTR.CAVITY>
7.45965

>  <SCORE.RESTR.norm>
0.162166

>  <SCORE.SYSTEM>
0

>  <SCORE.SYSTEM.CONST>
0

>  <SCORE.SYSTEM.DIHEDRAL>
0

>  <SCORE.SYSTEM.SOLV>
0

>  <SCORE.SYSTEM.norm>
0

>  <SCORE.heavy>
46

>  <SCORE.norm>
0.36038

>  <RMSD>
31.751

$$$$
lig.pdb
 OpenBabel03061811583D
libRbt.so/2013.1/901 2013/11/27
 46 49  0  0  0  0  0  0  0  0999 V2000
   -9.1037    2.6675   20.3279 C   0  0  1  0  0  0  0  0  0  0  0  0
  -10.8328    4.4618   19.8823 C   0  0  1  0  0  0  0  0  0  0  0  0
  -11.4064    3.9814   18.5149 C   0  0  1  0  0  0  0  0  0  0  0  0
  -12.0205    5.2517   17.7325 C   0  0  2  0  0  0  0  0  0  0  0  0
  -10.2605    2.3058   16.9926 C   0  0  2  0  0  0  0  0  0  0  0  0
  -10.8611    2.5661   15.5819 C   0  0  1  0  0  0  0  0  0  0  0  0
  -10.1428    1.4628   14.8433 C   0  0  1  0  0  0  0  0  0  0  0  0
   -8.6597    1.5647   15.3220 C   0  0  1  0  0  0  0  0  0  0  0  0
   -7.7584    2.6360   14.6137 C   0  0  0  0  0  0  0  0  0  0  0  0
  -10.6351   -0.8934   14.3051 C   0  0  1  0  0  0  0  0  0  0  0  0
  -11.0291   -2.2418   14.8301 C   0  0  1  0  0  0  0  0  0  0  0  0
   -9.0750    1.2850   21.0215 C   0  0  1  0  0  0  0  0  0  0  0  0
  -10.7839   -3.3063   13.7027 C   0  0  0  0  0  0  0  0  0  0  0  0
   -9.4234   -3.4080   13.2584 C   0  0  0  0  0  0  0  0  0  0  0  0
   -9.0176   -2.1312   12.7106 C   0  0  2  0  0  0  0  0  0  0  0  0
   -7.5198   -2.1788   12.2114 C   0  0  0  0  0  0  0  0  0  0  0  0
  -15.8904    7.9351   15.5352 C   0  0  2  0  0  0  0  0  0  0  0  0
  -15.2346    6.9140   17.5552 C   0  0  0  0  0  0  0  0  0  0  0  0
  -14.7090    7.4703   14.9890 C   0  0  0  0  0  0  0  0  0  0  0  0
  -15.6683    8.2801   16.8279 C   0  0  1  0  0  0  0  0  0  0  0  0
   -9.0106    1.4413   22.6087 C   0  0  0  0  0  0  0  0  0  0  0  0
   -7.7009    2.2912   22.9759 C   0  0  0  0  0  0  0  0  0  0  0  0
   -7.8168    3.7112   22.2506 C   0  0  1  0  0  0  0  0  0  0  0  0
   -6.5982    4.5985   22.5321 C   0  0  0  0  0  0  0  0  0  0  0  0
  -13.2180    5.8349   18.6024 C   0  0  1  0  0  0  0  0  0  0  0  0
  -12.5595    6.3376   19.9951 C   0  0  0  0  0  0  0  0  0  0  0  0
  -11.9265    5.1143   20.7638 C   0  0  2  0  0  0  0  0  0  0  0  0
  -16.9198    6.9314   15.3847 F   0  0  0  0  0  0  0  0  0  0  0  0
   -6.4870   -2.1370   13.3741 N   0  0  0  0  0  0  0  0  0  0  0  0
  -10.2905    0.5093   20.5739 N   0  0  0  0  0  0  0  0  0  0  0  0
  -10.2700   -2.6756   15.9206 N   0  0  0  0  0  0  0  0  0  0  0  0
  -14.1031    6.1923   15.0189 N   0  0  0  0  0  0  0  0  0  0  0  0
   -6.5787    5.0215   23.8781 N   0  0  0  0  0  0  0  0  0  0  0  0
  -13.8171    6.9925   17.9143 N   0  0  0  0  0  0  0  0  0  0  0  0
  -11.3098    5.5605   22.0326 N   0  0  0  0  0  0  0  0  0  0  0  0
  -10.3177    3.3606   20.6195 O   0  0  0  0  0  0  0  0  0  0  0  0
  -10.2631    3.3721   17.7569 O   0  0  0  0  0  0  0  0  0  0  0  0
  -12.5200    4.8019   16.5308 O   0  0  0  0  0  0  0  0  0  0  0  0
  -12.2442    2.3966   15.6571 O   0  0  0  0  0  0  0  0  0  0  0  0
   -8.9375    1.7206   16.7236 O   0  0  0  0  0  0  0  0  0  0  0  0
   -8.4479    3.8994   14.6945 O   0  0  0  0  0  0  0  0  0  0  0  0
  -10.7581    0.1278   15.2221 O   0  0  0  0  0  0  0  0  0  0  0  0
  -14.6219    9.2643   16.9783 O   0  0  0  0  0  0  0  0  0  0  0  0
  -15.9985    5.9612   17.7817 O   0  0  0  0  0  0  0  0  0  0  0  0
   -9.2024   -1.0372   13.7357 O   0  0  0  0  0  0  0  0  0  0  0  0
   -7.9360    3.5134   20.7483 O   0  0  0  0  0  0  0  0  0  0  0  0
  1 36  1  1  0  0  0
  2 36  1  1  0  0  0
  2  3  1  0  0  0  0
  3 37  1  6  0  0  0
  3  4  1  0  0  0  0
  4 38  1  6  0  0  0
  5 37  1  6  0  0  0
  5  6  1  0  0  0  0
  6  7  1  0  0  0  0
  6 39  1  1  0  0  0
  7 42  1  1  0  0  0
  8  9  1  6  0  0  0
  8  7  1  0  0  0  0
 10 42  1  1  0  0  0
 10 11  1  0  0  0  0
 11 31  1  1  0  0  0
 11 13  1  0  0  0  0
 12 30  1  1  0  0  0
 12  1  1  0  0  0  0
 14 13  1  0  0  0  0
 15 16  1  1  0  0  0
 15 14  1  0  0  0  0
 17 19  1  1  0  0  0
 17 28  1  0  0  0  0
 18 34  1  0  0  0  0
 19 32  1  0  0  0  0
 20 18  1  1  0  0  0
 20 17  1  0  0  0  0
 20 43  1  0  0  0  0
 21 12  1  0  0  0  0
 22 21  1  0  0  0  0
 22 23  1  0  0  0  0
 23 24  1  6  0  0  0
 23 46  1  0  0  0  0
 24 33  1  0  0  0  0
 25 34  1  6  0  0  0
 25  4  1  0  0  0  0
 26 25  1  0  0  0  0
 27 35  1  1  0  0  0
 27 26  1  0  0  0  0
 27  2  1  0  0  0  0
 29 16  1  0  0  0  0
 40  8  1  0  0  0  0
 40  5  1  0  0  0  0
 41  9  1  0  0  0  0
 44 18  2  0  0  0  0
 45 15  1  0  0  0  0
 45 10  1  0  0  0  0
 46  1  1  0  0  0  0
M  END
>  <CHROM.1>
-161.95189087,73.43983970,141.01627345,78.01638438,154.60274510,52.82575287
169.18947281,-75.57107267,84.04108853,110.60567449,-62.56763589,-69.61010628
120.07176809,-10.90059810,3.02504423,17.38220566,-0.86994568,-0.75458731
0.94916176

>  <Name>
lig.pdb

>  <RI>
0

>  <Rbt.Current_Directory>
/home/afrankz/demos/rdock_decoys_rna/rnas/3wru

>  <Rbt.Executable>
rbdock ($Id: //depot/dev/client3/rdock/2013.1/src/exe/rbdock.cxx#4 $)

>  <Rbt.Library>
libRbt.so (2013.1, Build901 2013/11/27)

>  <Rbt.Parameter_File>
/export/apps/rDock/src/rDock_2013.1_src/data/scripts/dock_solv.prm

>  <Rbt.Receptor>
prm/blind_docking_80.prm

>  <SCORE>
13.2724

>  <SCORE.INTER>
-0.659746

>  <SCORE.INTER.CONST>
1

>  <SCORE.INTER.POLAR>
0

>  <SCORE.INTER.ROT>
13

>  <SCORE.INTER.SOLV>
37.871

>  <SCORE.INTER.VDW>
-25.3302

>  <SCORE.INTER.norm>
-0.0143423

>  <SCORE.INTRA>
6.88781

>  <SCORE.INTRA.DIHEDRAL>
-0.44627

>  <SCORE.INTRA.DIHEDRAL.0>
19.7146

>  <SCORE.INTRA.POLAR>
0

>  <SCORE.INTRA.POLAR.0>
0

>  <SCORE.INTRA.REPUL>
0.0797643

>  <SCORE.INTRA.REPUL.0>
0

>  <SCORE.INTRA.SOLV>
5.13048

>  <SCORE.INTRA.SOLV.lig_0>
-116.697

>  <SCORE.INTRA.VDW>
4.14688

>  <SCORE.INTRA.VDW.0>
-7.06424

>  <SCORE.INTRA.norm>
0.149735

>  <SCORE.RESTR>
7.0443

>  <SCORE.RESTR.CAVITY>
7.0443

>  <SCORE.RESTR.norm>
0.153137

>  <SCORE.SYSTEM>
0

>  <SCORE.SYSTEM.CONST>
0

>  <SCORE.SYSTEM.DIHEDRAL>
0

>  <SCORE.SYSTEM.SOLV>
0

>  <SCORE.SYSTEM.norm>
0

>  <SCORE.heavy>
46

>  <SCORE.norm>
0.28853

>  <RMSD>
31.767

$$$$
lig.pdb
 OpenBabel03061811583D
libRbt.so/2013.1/901 2013/11/27
 46 49  0  0  0  0  0  0  0  0999 V2000
  -10.1342    3.7286   21.3974 C   0  0  1  0  0  0  0  0  0  0  0  0
  -10.9220    4.4961   19.1174 C   0  0  1  0  0  0  0  0  0  0  0  0
  -11.3746    3.6936   17.8601 C   0  0  1  0  0  0  0  0  0  0  0  0
  -12.3054    4.6415   16.9446 C   0  0  2  0  0  0  0  0  0  0  0  0
   -9.9997    2.4912   16.0990 C   0  0  2  0  0  0  0  0  0  0  0  0
   -8.6221    1.7713   16.0480 C   0  0  1  0  0  0  0  0  0  0  0  0
   -9.0448    0.5706   15.2365 C   0  0  1  0  0  0  0  0  0  0  0  0
  -10.3834    0.1013   15.8898 C   0  0  1  0  0  0  0  0  0  0  0  0
  -10.2700   -0.7958   17.1720 C   0  0  0  0  0  0  0  0  0  0  0  0
   -8.6520    0.2109   12.8282 C   0  0  1  0  0  0  0  0  0  0  0  0
   -9.4235   -1.0254   12.4742 C   0  0  1  0  0  0  0  0  0  0  0  0
   -8.7067    3.9607   21.9467 C   0  0  1  0  0  0  0  0  0  0  0  0
   -8.6002   -1.8397   11.4143 C   0  0  0  0  0  0  0  0  0  0  0  0
   -7.3037   -2.2647   11.8582 C   0  0  0  0  0  0  0  0  0  0  0  0
   -6.5153   -1.0932   12.1762 C   0  0  2  0  0  0  0  0  0  0  0  0
   -5.0749   -1.4993   12.6816 C   0  0  0  0  0  0  0  0  0  0  0  0
  -16.5550    7.3171   16.2581 C   0  0  2  0  0  0  0  0  0  0  0  0
  -14.3763    7.3327   17.1559 C   0  0  0  0  0  0  0  0  0  0  0  0
  -17.5889    8.1269   16.6885 C   0  0  0  0  0  0  0  0  0  0  0  0
  -15.4231    8.0597   16.1766 C   0  0  1  0  0  0  0  0  0  0  0  0
   -7.7665    2.7060   21.6475 C   0  0  0  0  0  0  0  0  0  0  0  0
   -8.4320    1.4097   22.3175 C   0  0  0  0  0  0  0  0  0  0  0  0
   -9.8859    1.2186   21.6808 C   0  0  1  0  0  0  0  0  0  0  0  0
  -10.6132    0.0038   22.2697 C   0  0  0  0  0  0  0  0  0  0  0  0
  -13.5987    5.0254   17.7877 C   0  0  1  0  0  0  0  0  0  0  0  0
  -13.0692    5.8741   19.0626 C   0  0  0  0  0  0  0  0  0  0  0  0
  -12.1325    4.9740   19.9572 C   0  0  2  0  0  0  0  0  0  0  0  0
  -16.9179    6.6964   15.0040 F   0  0  0  0  0  0  0  0  0  0  0  0
   -4.5013   -0.5178   13.7436 N   0  0  0  0  0  0  0  0  0  0  0  0
   -8.1699    5.2335   21.3377 N   0  0  0  0  0  0  0  0  0  0  0  0
   -9.6205   -1.9030   13.5440 N   0  0  0  0  0  0  0  0  0  0  0  0
  -18.2731    9.1890   16.0520 N   0  0  0  0  0  0  0  0  0  0  0  0
  -11.7826   -0.2916   21.5375 N   0  0  0  0  0  0  0  0  0  0  0  0
  -14.4845    5.8829   16.9801 N   0  0  0  0  0  0  0  0  0  0  0  0
  -11.6309    5.7403   21.1193 N   0  0  0  0  0  0  0  0  0  0  0  0
  -10.1309    3.6786   19.9703 O   0  0  0  0  0  0  0  0  0  0  0  0
  -10.1254    3.2874   17.1340 O   0  0  0  0  0  0  0  0  0  0  0  0
  -12.6917    3.9110   15.8432 O   0  0  0  0  0  0  0  0  0  0  0  0
   -7.7145    2.6088   15.3983 O   0  0  0  0  0  0  0  0  0  0  0  0
  -10.9844    1.4011   16.0131 O   0  0  0  0  0  0  0  0  0  0  0  0
   -9.6637   -2.0414   16.7731 O   0  0  0  0  0  0  0  0  0  0  0  0
   -9.2494    0.9928   13.7928 O   0  0  0  0  0  0  0  0  0  0  0  0
  -14.8795    8.1165   14.8397 O   0  0  0  0  0  0  0  0  0  0  0  0
  -13.5969    7.9241   17.9209 O   0  0  0  0  0  0  0  0  0  0  0  0
   -7.2231   -0.2483   13.2091 O   0  0  0  0  0  0  0  0  0  0  0  0
  -10.7269    2.4584   21.9370 O   0  0  0  0  0  0  0  0  0  0  0  0
  1 36  1  6  0  0  0
  2 36  1  1  0  0  0
  2  3  1  0  0  0  0
  3 37  1  6  0  0  0
  3  4  1  0  0  0  0
  4 38  1  6  0  0  0
  5 37  1  1  0  0  0
  5  6  1  0  0  0  0
  6  7  1  0  0  0  0
  6 39  1  6  0  0  0
  7 42  1  6  0  0  0
  8  9  1  1  0  0  0
  8  7  1  0  0  0  0
 10 42  1  1  0  0  0
 10 11  1  0  0  0  0
 11 31  1  1  0  0  0
 11 13  1  0  0  0  0
 12 30  1  6  0  0  0
 12  1  1  0  0  0  0
 14 13  1  0  0  0  0
 15 16  1  1  0  0  0
 15 14  1  0  0  0  0
 17 19  1  6  0  0  0
 17 28  1  0  0  0  0
 18 34  1  0  0  0  0
 19 32  1  0  0  0  0
 20 18  1  1  0  0  0
 20 17  1  0  0  0  0
 20 43  1  0  0  0  0
 21 12  1  0  0  0  0
 22 21  1  0  0  0  0
 22 23  1  0  0  0  0
 23 24  1  1  0  0  0
 23 46  1  0  0  0  0
 24 33  1  0  0  0  0
 25 34  1  6  0  0  0
 25  4  1  0  0  0  0
 26 25  1  0  0  0  0
 27 35  1  1  0  0  0
 27 26  1  0  0  0  0
 27  2  1  0  0  0  0
 29 16  1  0  0  0  0
 40  8  1  0  0  0  0
 40  5  1  0  0  0  0
 41  9  1  0  0  0  0
 44 18  2  0  0  0  0
 45 15  1  0  0  0  0
 45 10  1  0  0  0  0
 46  1  1  0  0  0  0
M  END
>  <CHROM.1>
-124.65345890,-144.37552653,172.64693591,-151.93219669,131.47153414,-65.63010110
81.54873095,-147.07282784,69.57940435,41.73077186,121.59354419,-169.51461359
-95.83972147,-10.88017458,2.86957517,17.01954040,-2.66368254,0.76564210,-1.78538857

>  <Name>
lig.pdb

>  <RI>
0

>  <Rbt.Current_Directory>
/home/afrankz/demos/rdock_decoys_rna/rnas/3wru

>  <Rbt.Executable>
rbdock ($Id: //depot/dev/client3/rdock/2013.1/src/exe/rbdock.cxx#4 $)

>  <Rbt.Library>
libRbt.so (2013.1, Build901 2013/11/27)

>  <Rbt.Parameter_File>
/export/apps/rDock/src/rDock_2013.1_src/data/scripts/dock_solv.prm

>  <Rbt.Receptor>
prm/blind_docking_80.prm

>  <SCORE>
39.998

>  <SCORE.INTER>
9.30092

>  <SCORE.INTER.CONST>
1

>  <SCORE.INTER.POLAR>
0

>  <SCORE.INTER.ROT>
13

>  <SCORE.INTER.SOLV>
37.6775

>  <SCORE.INTER.VDW>
-18.6252

>  <SCORE.INTER.norm>
0.202194

>  <SCORE.INTRA>
21.5705

>  <SCORE.INTRA.DIHEDRAL>
14.6023

>  <SCORE.INTRA.DIHEDRAL.0>
19.7146

>  <SCORE.INTRA.POLAR>
0

>  <SCORE.INTRA.POLAR.0>
0

>  <SCORE.INTRA.REPUL>
0

>  <SCORE.INTRA.REPUL.0>
0

>  <SCORE.INTRA.SOLV>
3.27436

>  <SCORE.INTRA.SOLV.lig_0>
-116.697

>  <SCORE.INTRA.VDW>
12.6322

>  <SCORE.INTRA.VDW.0>
-7.06424

>  <SCORE.INTRA.norm>
0.468925

>  <SCORE.RESTR>
9.12659

>  <SCORE.RESTR.CAVITY>
9.12659

>  <SCORE.RESTR.norm>
0.198404

>  <SCORE.SYSTEM>
0

>  <SCORE.SYSTEM.CONST>
0

>  <SCORE.SYSTEM.DIHEDRAL>
0

>  <SCORE.SYSTEM.SOLV>
0

>  <SCORE.SYSTEM.norm>
0

>  <SCORE.heavy>
46

>  <SCORE.norm>
0.869523

>  <RMSD>
31.789

$$$$
lig.pdb
 OpenBabel03061811583D
libRbt.so/2013.1/901 2013/11/27
 46 49  0  0  0  0  0  0  0  0999 V2000
  -12.7797   -1.5266   20.0122 C   0  0  1  0  0  0  0  0  0  0  0  0
  -12.2889   -0.3581   17.8210 C   0  0  1  0  0  0  0  0  0  0  0  0
  -11.2264    0.5924   18.4512 C   0  0  1  0  0  0  0  0  0  0  0  0
  -10.2166    1.0852   17.2935 C   0  0  2  0  0  0  0  0  0  0  0  0
  -11.9095    3.0189   18.7401 C   0  0  2  0  0  0  0  0  0  0  0  0
  -12.9313    3.8917   19.5230 C   0  0  1  0  0  0  0  0  0  0  0  0
  -12.1854    5.2020   19.4487 C   0  0  1  0  0  0  0  0  0  0  0  0
  -10.7100    4.8400   19.8111 C   0  0  1  0  0  0  0  0  0  0  0  0
  -10.3638    4.7209   21.3368 C   0  0  0  0  0  0  0  0  0  0  0  0
  -13.5448    6.1433   17.6185 C   0  0  1  0  0  0  0  0  0  0  0  0
  -13.8388    5.8208   16.1838 C   0  0  1  0  0  0  0  0  0  0  0  0
  -14.0001   -1.8044   20.9214 C   0  0  1  0  0  0  0  0  0  0  0  0
  -15.2676    6.3683   15.8330 C   0  0  0  0  0  0  0  0  0  0  0  0
  -15.4217    7.7865   15.9862 C   0  0  0  0  0  0  0  0  0  0  0  0
  -15.1797    8.1325   17.3707 C   0  0  2  0  0  0  0  0  0  0  0  0
  -15.3263    9.6884   17.6002 C   0  0  0  0  0  0  0  0  0  0  0  0
   -7.0887    0.3939   13.5974 C   0  0  2  0  0  0  0  0  0  0  0  0
   -8.9340    1.2911   14.7563 C   0  0  0  0  0  0  0  0  0  0  0  0
   -7.8253   -0.4637   12.8025 C   0  0  0  0  0  0  0  0  0  0  0  0
   -7.7533    1.5715   13.7025 C   0  0  1  0  0  0  0  0  0  0  0  0
  -14.6140   -0.4444   21.4882 C   0  0  0  0  0  0  0  0  0  0  0  0
  -13.4633    0.3261   22.2973 C   0  0  0  0  0  0  0  0  0  0  0  0
  -12.2543    0.6034   21.2886 C   0  0  1  0  0  0  0  0  0  0  0  0
  -11.0917    1.3302   21.9753 C   0  0  0  0  0  0  0  0  0  0  0  0
   -9.4667   -0.1934   16.7159 C   0  0  1  0  0  0  0  0  0  0  0  0
  -10.6142   -1.1282   16.0560 C   0  0  0  0  0  0  0  0  0  0  0  0
  -11.6305   -1.5982   17.1670 C   0  0  2  0  0  0  0  0  0  0  0  0
   -5.7596    0.5396   13.0480 F   0  0  0  0  0  0  0  0  0  0  0  0
  -15.0727   10.1145   19.0748 N   0  0  0  0  0  0  0  0  0  0  0  0
  -15.0087   -2.5969   20.1252 N   0  0  0  0  0  0  0  0  0  0  0  0
  -12.9739    6.4311   15.2710 N   0  0  0  0  0  0  0  0  0  0  0  0
   -8.1295   -0.4305   11.4213 N   0  0  0  0  0  0  0  0  0  0  0  0
   -9.9836    1.4461   21.1094 N   0  0  0  0  0  0  0  0  0  0  0  0
   -8.5219    0.2161   15.6613 N   0  0  0  0  0  0  0  0  0  0  0  0
  -12.6920   -2.4430   16.5763 N   0  0  0  0  0  0  0  0  0  0  0  0
  -13.1744   -0.8458   18.8207 O   0  0  0  0  0  0  0  0  0  0  0  0
  -11.9787    1.7457   19.0486 O   0  0  0  0  0  0  0  0  0  0  0  0
   -9.2895    1.9213   17.8745 O   0  0  0  0  0  0  0  0  0  0  0  0
  -14.1399    3.8823   18.8255 O   0  0  0  0  0  0  0  0  0  0  0  0
  -10.6109    3.6636   18.9913 O   0  0  0  0  0  0  0  0  0  0  0  0
   -8.9294    4.7947   21.4592 O   0  0  0  0  0  0  0  0  0  0  0  0
  -12.2912    5.7556   18.0392 O   0  0  0  0  0  0  0  0  0  0  0  0
   -6.9201    2.6498   14.1814 O   0  0  0  0  0  0  0  0  0  0  0  0
  -10.0107    1.9092   14.7914 O   0  0  0  0  0  0  0  0  0  0  0  0
  -13.8111    7.6580   17.7992 O   0  0  0  0  0  0  0  0  0  0  0  0
  -11.7401   -0.7123   20.7278 O   0  0  0  0  0  0  0  0  0  0  0  0
  1 36  1  6  0  0  0
  2 36  1  1  0  0  0
  2  3  1  0  0  0  0
  3 37  1  6  0  0  0
  3  4  1  0  0  0  0
  4 38  1  1  0  0  0
  5 37  1  1  0  0  0
  5  6  1  0  0  0  0
  6  7  1  0  0  0  0
  6 39  1  6  0  0  0
  7 42  1  6  0  0  0
  8  9  1  1  0  0  0
  8  7  1  0  0  0  0
 10 42  1  6  0  0  0
 10 11  1  0  0  0  0
 11 31  1  6  0  0  0
 11 13  1  0  0  0  0
 12 30  1  6  0  0  0
 12  1  1  0  0  0  0
 14 13  1  0  0  0  0
 15 16  1  6  0  0  0
 15 14  1  0  0  0  0
 17 19  1  6  0  0  0
 17 28  1  0  0  0  0
 18 34  1  0  0  0  0
 19 32  1  0  0  0  0
 20 18  1  1  0  0  0
 20 17  1  0  0  0  0
 20 43  1  0  0  0  0
 21 12  1  0  0  0  0
 22 21  1  0  0  0  0
 22 23  1  0  0  0  0
 23 24  1  1  0  0  0
 23 46  1  0  0  0  0
 24 33  1  0  0  0  0
 25 34  1  6  0  0  0
 25  4  1  0  0  0  0
 26 25  1  0  0  0  0
 27 35  1  6  0  0  0
 27 26  1  0  0  0  0
 27  2  1  0  0  0  0
 29 16  1  0  0  0  0
 40  8  1  0  0  0  0
 40  5  1  0  0  0  0
 41  9  1  0  0  0  0
 44 18  2  0  0  0  0
 45 15  1  0  0  0  0
 45 10  1  0  0  0  0
 46  1  1  0  0  0  0
M  END
>  <CHROM.1>
175.23141669,-55.13376941,-118.16202498,175.77632752,66.42119354,-162.71915064
-141.68643535,-179.88076684,68.23710313,27.18075912,76.95966274,174.06662592
-38.01139322,-11.53304344,2.42794537,17.77968757,0.55878512,-0.87426363,2.65619174

>  <Name>
lig.pdb

>  <RI>
0

>  <Rbt.Current_Directory>
/home/afrankz/demos/rdock_decoys_rna/rnas/3wru

>  <Rbt.Executable>
rbdock ($Id: //depot/dev/client3/rdock/2013.1/src/exe/rbdock.cxx#4 $)

>  <Rbt.Library>
libRbt.so (2013.1, Build901 2013/11/27)

>  <Rbt.Parameter_File>
/export/apps/rDock/src/rDock_2013.1_src/data/scripts/dock_solv.prm

>  <Rbt.Receptor>
prm/blind_docking_100.prm

>  <SCORE>
12.7393

>  <SCORE.INTER>
2.86431

>  <SCORE.INTER.CONST>
1

>  <SCORE.INTER.POLAR>
0

>  <SCORE.INTER.ROT>
13

>  <SCORE.INTER.SOLV>
23.8641

>  <SCORE.INTER.VDW>
-18.3118

>  <SCORE.INTER.norm>
0.0622677

>  <SCORE.INTRA>
8.91949

>  <SCORE.INTRA.DIHEDRAL>
-2.37772

>  <SCORE.INTRA.DIHEDRAL.0>
19.7146

>  <SCORE.INTRA.POLAR>
0

>  <SCORE.INTRA.POLAR.0>
0

>  <SCORE.INTRA.REPUL>
0

>  <SCORE.INTRA.REPUL.0>
0

>  <SCORE.INTRA.SOLV>
5.26769

>  <SCORE.INTRA.SOLV.lig_0>
-116.697

>  <SCORE.INTRA.VDW>
7.4745

>  <SCORE.INTRA.VDW.0>
-7.06424

>  <SCORE.INTRA.norm>
0.193902

>  <SCORE.RESTR>
0.955464

>  <SCORE.RESTR.CAVITY>
0.955464

>  <SCORE.RESTR.norm>
0.020771

>  <SCORE.SYSTEM>
0

>  <SCORE.SYSTEM.CONST>
0

>  <SCORE.SYSTEM.DIHEDRAL>
0

>  <SCORE.SYSTEM.SOLV>
0

>  <SCORE.SYSTEM.norm>
0

>  <SCORE.heavy>
46

>  <SCORE.norm>
0.276941

>  <RMSD>
31.802

$$$$
lig.pdb
 OpenBabel03061811583D
libRbt.so/2013.1/901 2013/11/27
 46 49  0  0  0  0  0  0  0  0999 V2000
  -11.4467    1.1682   19.1056 C   0  0  1  0  0  0  0  0  0  0  0  0
  -10.9391    0.1766   16.8325 C   0  0  1  0  0  0  0  0  0  0  0  0
  -11.0218    1.6556   16.3473 C   0  0  1  0  0  0  0  0  0  0  0  0
  -10.9054    1.6831   14.7384 C   0  0  2  0  0  0  0  0  0  0  0  0
  -12.6472    3.3982   17.2186 C   0  0  2  0  0  0  0  0  0  0  0  0
  -11.4944    4.4190   17.0003 C   0  0  1  0  0  0  0  0  0  0  0  0
  -12.3347    5.6716   16.9393 C   0  0  1  0  0  0  0  0  0  0  0  0
  -13.5248    5.3057   15.9965 C   0  0  1  0  0  0  0  0  0  0  0  0
  -13.2605    5.3988   14.4527 C   0  0  0  0  0  0  0  0  0  0  0  0
  -12.9698    7.3531   18.6284 C   0  0  1  0  0  0  0  0  0  0  0  0
  -12.9697    7.6663   20.0949 C   0  0  1  0  0  0  0  0  0  0  0  0
  -10.3619    1.5395   20.1441 C   0  0  1  0  0  0  0  0  0  0  0  0
  -13.2069    9.2077   20.2749 C   0  0  0  0  0  0  0  0  0  0  0  0
  -14.4479    9.6908   19.7409 C   0  0  0  0  0  0  0  0  0  0  0  0
  -14.4697    9.4373   18.3160 C   0  0  2  0  0  0  0  0  0  0  0  0
  -15.8207    9.9410   17.6711 C   0  0  0  0  0  0  0  0  0  0  0  0
   -9.2302   -0.2083   10.3009 C   0  0  2  0  0  0  0  0  0  0  0  0
   -8.1623    0.4459   12.2970 C   0  0  0  0  0  0  0  0  0  0  0  0
   -9.5123    0.0550    8.9738 C   0  0  0  0  0  0  0  0  0  0  0  0
   -8.2075    0.5896   10.6969 C   0  0  1  0  0  0  0  0  0  0  0  0
  -10.1181    0.3423   21.1712 C   0  0  0  0  0  0  0  0  0  0  0  0
  -11.5107    0.0110   21.8945 C   0  0  0  0  0  0  0  0  0  0  0  0
  -12.5681   -0.3912   20.7648 C   0  0  1  0  0  0  0  0  0  0  0  0
  -13.9439   -0.7164   21.3587 C   0  0  0  0  0  0  0  0  0  0  0  0
   -9.4800    1.1019   14.3369 C   0  0  1  0  0  0  0  0  0  0  0  0
   -9.4627   -0.4373   14.8435 C   0  0  0  0  0  0  0  0  0  0  0  0
   -9.6048   -0.4889   16.4136 C   0  0  2  0  0  0  0  0  0  0  0  0
   -8.9473   -1.6164   10.4642 F   0  0  0  0  0  0  0  0  0  0  0  0
  -17.0804    9.5003   18.4706 N   0  0  0  0  0  0  0  0  0  0  0  0
   -9.1047    1.9146   19.3969 N   0  0  0  0  0  0  0  0  0  0  0  0
  -13.9969    7.0472   20.8126 N   0  0  0  0  0  0  0  0  0  0  0  0
  -10.5618   -0.3873    8.1345 N   0  0  0  0  0  0  0  0  0  0  0  0
  -14.5010    0.4124   21.9963 N   0  0  0  0  0  0  0  0  0  0  0  0
   -9.3276    1.1220   12.8710 N   0  0  0  0  0  0  0  0  0  0  0  0
   -9.6032   -1.8899   16.8897 N   0  0  0  0  0  0  0  0  0  0  0  0
  -10.9979    0.1153   18.2517 O   0  0  0  0  0  0  0  0  0  0  0  0
  -12.3467    2.1885   16.8094 O   0  0  0  0  0  0  0  0  0  0  0  0
  -10.9805    2.9977   14.3355 O   0  0  0  0  0  0  0  0  0  0  0  0
  -10.6407    4.3573   18.1023 O   0  0  0  0  0  0  0  0  0  0  0  0
  -13.8118    4.0180   16.5669 O   0  0  0  0  0  0  0  0  0  0  0  0
  -13.2030    6.7978   14.1099 O   0  0  0  0  0  0  0  0  0  0  0  0
  -12.8184    6.0149   18.3366 O   0  0  0  0  0  0  0  0  0  0  0  0
   -6.9351    0.1970   10.1373 O   0  0  0  0  0  0  0  0  0  0  0  0
   -7.2798   -0.1598   12.9270 O   0  0  0  0  0  0  0  0  0  0  0  0
  -14.2647    7.9662   18.0410 O   0  0  0  0  0  0  0  0  0  0  0  0
  -12.7248    0.7526   19.7762 O   0  0  0  0  0  0  0  0  0  0  0  0
  1 36  1  1  0  0  0
  2 36  1  1  0  0  0
  2  3  1  0  0  0  0
  3 37  1  6  0  0  0
  3  4  1  0  0  0  0
  4 38  1  1  0  0  0
  5 37  1  6  0  0  0
  5  6  1  0  0  0  0
  6  7  1  0  0  0  0
  6 39  1  1  0  0  0
  7 42  1  1  0  0  0
  8  9  1  6  0  0  0
  8  7  1  0  0  0  0
 10 42  1  1  0  0  0
 10 11  1  0  0  0  0
 11 31  1  1  0  0  0
 11 13  1  0  0  0  0
 12 30  1  6  0  0  0
 12  1  1  0  0  0  0
 14 13  1  0  0  0  0
 15 16  1  1  0  0  0
 15 14  1  0  0  0  0
 17 19  1  6  0  0  0
 17 28  1  0  0  0  0
 18 34  1  0  0  0  0
 19 32  1  0  0  0  0
 20 18  1  1  0  0  0
 20 17  1  0  0  0  0
 20 43  1  0  0  0  0
 21 12  1  0  0  0  0
 22 21  1  0  0  0  0
 22 23  1  0  0  0  0
 23 24  1  1  0  0  0
 23 46  1  0  0  0  0
 24 33  1  0  0  0  0
 25 34  1  6  0  0  0
 25  4  1  0  0  0  0
 26 25  1  0  0  0  0
 27 35  1  6  0  0  0
 27 26  1  0  0  0  0
 27  2  1  0  0  0  0
 29 16  1  0  0  0  0
 40  8  1  0  0  0  0
 40  5  1  0  0  0  0
 41  9  1  0  0  0  0
 44 18  2  0  0  0  0
 45 15  1  0  0  0  0
 45 10  1  0  0  0  0
 46  1  1  0  0  0  0
M  END
>  <CHROM.1>
-123.79687634,16.73493979,144.71807600,8.72639806,147.41522374,-72.99638795
-159.49262772,-47.04983535,-172.21807085,-70.90427491,168.28040696,62.96835637
-171.21829868,-11.57185640,2.92439709,16.53489548,-2.91845175,1.10160183
-1.03252601

>  <Name>
lig.pdb

>  <RI>
0

>  <Rbt.Current_Directory>
/home/afrankz/demos/rdock_decoys_rna/rnas/3wru

>  <Rbt.Executable>
rbdock ($Id: //depot/dev/client3/rdock/2013.1/src/exe/rbdock.cxx#4 $)

>  <Rbt.Library>
libRbt.so (2013.1, Build901 2013/11/27)

>  <Rbt.Parameter_File>
/export/apps/rDock/src/rDock_2013.1_src/data/scripts/dock_solv.prm

>  <Rbt.Receptor>
prm/blind_docking_100.prm

>  <SCORE>
18.1721

>  <SCORE.INTER>
3.78343

>  <SCORE.INTER.CONST>
1

>  <SCORE.INTER.POLAR>
0

>  <SCORE.INTER.ROT>
13

>  <SCORE.INTER.SOLV>
28.8069

>  <SCORE.INTER.VDW>
-19.3467

>  <SCORE.INTER.norm>
0.0822484

>  <SCORE.INTRA>
10.1941

>  <SCORE.INTRA.DIHEDRAL>
13.6433

>  <SCORE.INTRA.DIHEDRAL.0>
19.7146

>  <SCORE.INTRA.POLAR>
0

>  <SCORE.INTRA.POLAR.0>
0

>  <SCORE.INTRA.REPUL>
0

>  <SCORE.INTRA.REPUL.0>
0

>  <SCORE.INTRA.SOLV>
0.459424

>  <SCORE.INTRA.SOLV.lig_0>
-116.697

>  <SCORE.INTRA.VDW>
3.14274

>  <SCORE.INTRA.VDW.0>
-7.06424

>  <SCORE.INTRA.norm>
0.221611

>  <SCORE.RESTR>
4.19454

>  <SCORE.RESTR.CAVITY>
4.19454

>  <SCORE.RESTR.norm>
0.0911855

>  <SCORE.SYSTEM>
0

>  <SCORE.SYSTEM.CONST>
0

>  <SCORE.SYSTEM.DIHEDRAL>
0

>  <SCORE.SYSTEM.SOLV>
0

>  <SCORE.SYSTEM.norm>
0

>  <SCORE.heavy>
46

>  <SCORE.norm>
0.395045

>  <RMSD>
31.805

$$$$
lig.pdb
 OpenBabel03061811583D
libRbt.so/2013.1/901 2013/11/27
 46 49  0  0  0  0  0  0  0  0999 V2000
  -12.5762   -0.7869   17.6054 C   0  0  1  0  0  0  0  0  0  0  0  0
  -12.3382    1.1119   19.2625 C   0  0  1  0  0  0  0  0  0  0  0  0
  -11.3456    2.0387   18.4973 C   0  0  1  0  0  0  0  0  0  0  0  0
  -11.6052    3.5656   18.9491 C   0  0  2  0  0  0  0  0  0  0  0  0
   -9.4438    1.4171   20.0575 C   0  0  2  0  0  0  0  0  0  0  0  0
   -9.6365    2.6495   20.9863 C   0  0  1  0  0  0  0  0  0  0  0  0
   -9.5564    1.9272   22.3095 C   0  0  1  0  0  0  0  0  0  0  0  0
  -10.4658    0.6701   22.1312 C   0  0  1  0  0  0  0  0  0  0  0  0
  -12.0083    0.8775   22.3293 C   0  0  0  0  0  0  0  0  0  0  0  0
   -7.8702    0.8151   23.7250 C   0  0  1  0  0  0  0  0  0  0  0  0
   -8.2458    1.5281   24.9897 C   0  0  1  0  0  0  0  0  0  0  0  0
  -12.4663   -2.3300   17.6110 C   0  0  1  0  0  0  0  0  0  0  0  0
   -7.8608    0.6166   26.2084 C   0  0  0  0  0  0  0  0  0  0  0  0
   -6.4650    0.2980   26.3029 C   0  0  0  0  0  0  0  0  0  0  0  0
   -6.0725   -0.4245   25.1117 C   0  0  2  0  0  0  0  0  0  0  0  0
   -4.5378   -0.7960   25.1538 C   0  0  0  0  0  0  0  0  0  0  0  0
  -12.6750    7.9711   19.5802 C   0  0  2  0  0  0  0  0  0  0  0  0
  -13.1604    6.3943   17.8977 C   0  0  0  0  0  0  0  0  0  0  0  0
  -12.7639    9.2684   20.0482 C   0  0  0  0  0  0  0  0  0  0  0  0
  -13.5243    7.8251   18.5330 C   0  0  1  0  0  0  0  0  0  0  0  0
  -10.9427   -2.7956   17.7087 C   0  0  0  0  0  0  0  0  0  0  0  0
  -10.1469   -2.1713   16.4640 C   0  0  0  0  0  0  0  0  0  0  0  0
  -10.2804   -0.5801   16.5430 C   0  0  1  0  0  0  0  0  0  0  0  0
   -9.5583    0.1129   15.3813 C   0  0  0  0  0  0  0  0  0  0  0  0
  -13.0874    3.9598   18.5267 C   0  0  1  0  0  0  0  0  0  0  0  0
  -14.0698    2.9836   19.3681 C   0  0  0  0  0  0  0  0  0  0  0  0
  -13.8122    1.4812   18.9627 C   0  0  2  0  0  0  0  0  0  0  0  0
  -12.9425    7.0486   20.6606 F   0  0  0  0  0  0  0  0  0  0  0  0
   -3.6111    0.3931   24.7698 N   0  0  0  0  0  0  0  0  0  0  0  0
  -13.2978   -2.8563   18.7559 N   0  0  0  0  0  0  0  0  0  0  0  0
   -7.5611    2.7292   25.1946 N   0  0  0  0  0  0  0  0  0  0  0  0
  -13.8643   10.0168   20.5282 N   0  0  0  0  0  0  0  0  0  0  0  0
   -8.1874   -0.2209   15.3646 N   0  0  0  0  0  0  0  0  0  0  0  0
  -13.3612    5.3561   18.9109 N   0  0  0  0  0  0  0  0  0  0  0  0
  -14.6942    0.5765   19.7328 N   0  0  0  0  0  0  0  0  0  0  0  0
  -12.1662   -0.2407   18.8595 O   0  0  0  0  0  0  0  0  0  0  0  0
   -9.9622    1.5868   18.8644 O   0  0  0  0  0  0  0  0  0  0  0  0
  -10.7183    4.3626   18.2603 O   0  0  0  0  0  0  0  0  0  0  0  0
   -8.5860    3.5389   20.7568 O   0  0  0  0  0  0  0  0  0  0  0  0
   -9.9863    0.2889   20.8310 O   0  0  0  0  0  0  0  0  0  0  0  0
  -12.6784   -0.2000   21.6451 O   0  0  0  0  0  0  0  0  0  0  0  0
   -8.1141    1.5360   22.5763 O   0  0  0  0  0  0  0  0  0  0  0  0
  -14.9141    7.8434   18.9258 O   0  0  0  0  0  0  0  0  0  0  0  0
  -12.7857    6.2161   16.7271 O   0  0  0  0  0  0  0  0  0  0  0  0
   -6.3902    0.3859   23.8771 O   0  0  0  0  0  0  0  0  0  0  0  0
  -11.7475   -0.1845   16.5071 O   0  0  0  0  0  0  0  0  0  0  0  0
  1 36  1  1  0  0  0
  2 36  1  6  0  0  0
  2  3  1  0  0  0  0
  3 37  1  1  0  0  0
  3  4  1  0  0  0  0
  4 38  1  6  0  0  0
  5 37  1  6  0  0  0
  5  6  1  0  0  0  0
  6  7  1  0  0  0  0
  6 39  1  1  0  0  0
  7 42  1  6  0  0  0
  8  9  1  6  0  0  0
  8  7  1  0  0  0  0
 10 42  1  6  0  0  0
 10 11  1  0  0  0  0
 11 31  1  1  0  0  0
 11 13  1  0  0  0  0
 12 30  1  1  0  0  0
 12  1  1  0  0  0  0
 14 13  1  0  0  0  0
 15 16  1  1  0  0  0
 15 14  1  0  0  0  0
 17 19  1  1  0  0  0
 17 28  1  0  0  0  0
 18 34  1  0  0  0  0
 19 32  1  0  0  0  0
 20 18  1  1  0  0  0
 20 17  1  0  0  0  0
 20 43  1  0  0  0  0
 21 12  1  0  0  0  0
 22 21  1  0  0  0  0
 22 23  1  0  0  0  0
 23 24  1  6  0  0  0
 23 46  1  0  0  0  0
 24 33  1  0  0  0  0
 25 34  1  1  0  0  0
 25  4  1  0  0  0  0
 26 25  1  0  0  0  0
 27 35  1  1  0  0  0
 27 26  1  0  0  0  0
 27  2  1  0  0  0  0
 29 16  1  0  0  0  0
 40  8  1  0  0  0  0
 40  5  1  0  0  0  0
 41  9  1  0  0  0  0
 44 18  2  0  0  0  0
 45 15  1  0  0  0  0
 45 10  1  0  0  0  0
 46  1  1  0  0  0  0
M  END
>  <CHROM.1>
-169.67114865,-73.04914603,-52.78050951,-51.00604605,-177.40980687,158.39952769
-60.87156759,-79.40998467,57.50503309,59.97588467,170.05518041,-58.57982634
95.09300493,-10.70326940,2.11783600,20.25739184,2.88147336,-0.86726121,0.48919852

>  <Name>
lig.pdb

>  <RI>
0

>  <Rbt.Current_Directory>
/home/afrankz/demos/rdock_decoys_rna/rnas/3wru

>  <Rbt.Executable>
rbdock ($Id: //depot/dev/client3/rdock/2013.1/src/exe/rbdock.cxx#4 $)

>  <Rbt.Library>
libRbt.so (2013.1, Build901 2013/11/27)

>  <Rbt.Parameter_File>
/export/apps/rDock/src/rDock_2013.1_src/data/scripts/dock_solv.prm

>  <Rbt.Receptor>
prm/blind_docking_100.prm

>  <SCORE>
-0.161067

>  <SCORE.INTER>
-3.56298

>  <SCORE.INTER.CONST>
1

>  <SCORE.INTER.POLAR>
0

>  <SCORE.INTER.ROT>
13

>  <SCORE.INTER.SOLV>
31.8101

>  <SCORE.INTER.VDW>
-25.2454

>  <SCORE.INTER.norm>
-0.0774562

>  <SCORE.INTRA>
-2.93398

>  <SCORE.INTRA.DIHEDRAL>
-12.7924

>  <SCORE.INTRA.DIHEDRAL.0>
19.7146

>  <SCORE.INTRA.POLAR>
0

>  <SCORE.INTRA.POLAR.0>
0

>  <SCORE.INTRA.REPUL>
0

>  <SCORE.INTRA.REPUL.0>
0

>  <SCORE.INTRA.SOLV>
3.90529

>  <SCORE.INTRA.SOLV.lig_0>
-116.697

>  <SCORE.INTRA.VDW>
1.5096

>  <SCORE.INTRA.VDW.0>
-7.06424

>  <SCORE.INTRA.norm>
-0.0637821

>  <SCORE.RESTR>
6.33589

>  <SCORE.RESTR.CAVITY>
6.33589

>  <SCORE.RESTR.norm>
0.137737

>  <SCORE.SYSTEM>
0

>  <SCORE.SYSTEM.CONST>
0

>  <SCORE.SYSTEM.DIHEDRAL>
0

>  <SCORE.SYSTEM.SOLV>
0

>  <SCORE.SYSTEM.norm>
0

>  <SCORE.heavy>
46

>  <SCORE.norm>
-0.00350146

>  <RMSD>
31.942

$$$$
lig.pdb
 OpenBabel03061811583D
libRbt.so/2013.1/901 2013/11/27
 46 49  0  0  0  0  0  0  0  0999 V2000
  -12.7477    6.2505   20.5031 C   0  0  1  0  0  0  0  0  0  0  0  0
  -11.7081    5.0817   18.5128 C   0  0  1  0  0  0  0  0  0  0  0  0
  -11.0250    4.1397   19.5499 C   0  0  1  0  0  0  0  0  0  0  0  0
   -9.9002    3.2630   18.7954 C   0  0  2  0  0  0  0  0  0  0  0  0
   -9.5244    4.7179   21.5125 C   0  0  2  0  0  0  0  0  0  0  0  0
   -8.2146    5.5464   21.3830 C   0  0  1  0  0  0  0  0  0  0  0  0
   -7.7637    5.4485   22.8204 C   0  0  1  0  0  0  0  0  0  0  0  0
   -9.0461    5.7484   23.6600 C   0  0  1  0  0  0  0  0  0  0  0  0
   -9.4176    7.2580   23.8715 C   0  0  0  0  0  0  0  0  0  0  0  0
   -8.0749    3.1974   23.7793 C   0  0  1  0  0  0  0  0  0  0  0  0
   -7.3695    2.3212   24.7710 C   0  0  1  0  0  0  0  0  0  0  0  0
  -14.0546    5.8058   21.2013 C   0  0  1  0  0  0  0  0  0  0  0  0
   -8.4277    1.3740   25.4399 C   0  0  0  0  0  0  0  0  0  0  0  0
   -9.1191    0.5076   24.5289 C   0  0  0  0  0  0  0  0  0  0  0  0
   -9.8430    1.3204   23.5747 C   0  0  2  0  0  0  0  0  0  0  0  0
  -10.6196    0.4190   22.5359 C   0  0  0  0  0  0  0  0  0  0  0  0
   -9.3034   -0.5898   14.0871 C   0  0  2  0  0  0  0  0  0  0  0  0
  -10.1031    0.7002   15.8897 C   0  0  0  0  0  0  0  0  0  0  0  0
   -8.2252   -1.0653   13.3650 C   0  0  0  0  0  0  0  0  0  0  0  0
   -8.8558   -0.1027   15.2711 C   0  0  1  0  0  0  0  0  0  0  0  0
  -15.3164    6.5768   20.6003 C   0  0  0  0  0  0  0  0  0  0  0  0
  -15.0771    8.1517   20.7869 C   0  0  0  0  0  0  0  0  0  0  0  0
  -13.7310    8.5393   20.0164 C   0  0  1  0  0  0  0  0  0  0  0  0
  -13.4070   10.0324   20.1466 C   0  0  0  0  0  0  0  0  0  0  0  0
  -10.6267    2.3639   17.7024 C   0  0  1  0  0  0  0  0  0  0  0  0
  -11.2945    3.3935   16.6442 C   0  0  0  0  0  0  0  0  0  0  0  0
  -12.3783    4.2820   17.3682 C   0  0  2  0  0  0  0  0  0  0  0  0
  -10.2835   -1.6412   14.2402 F   0  0  0  0  0  0  0  0  0  0  0  0
   -9.7233   -0.0708   21.3625 N   0  0  0  0  0  0  0  0  0  0  0  0
  -14.1791    4.3083   21.0558 N   0  0  0  0  0  0  0  0  0  0  0  0
   -6.4155    1.4701   24.2060 N   0  0  0  0  0  0  0  0  0  0  0  0
   -8.1534   -1.7260   12.1161 N   0  0  0  0  0  0  0  0  0  0  0  0
  -12.0172   10.2596   20.0579 N   0  0  0  0  0  0  0  0  0  0  0  0
   -9.6327    1.5350   16.9971 N   0  0  0  0  0  0  0  0  0  0  0  0
  -12.9881    5.2365   16.4162 N   0  0  0  0  0  0  0  0  0  0  0  0
  -12.7353    5.8433   19.1344 O   0  0  0  0  0  0  0  0  0  0  0  0
  -10.4171    5.0224   20.6008 O   0  0  0  0  0  0  0  0  0  0  0  0
   -9.3131    2.4406   19.7308 O   0  0  0  0  0  0  0  0  0  0  0  0
   -7.3750    4.8989   20.4759 O   0  0  0  0  0  0  0  0  0  0  0  0
   -9.9471    4.9191   22.9075 O   0  0  0  0  0  0  0  0  0  0  0  0
   -8.2102    7.9492   24.2491 O   0  0  0  0  0  0  0  0  0  0  0  0
   -7.2425    4.0474   23.0840 O   0  0  0  0  0  0  0  0  0  0  0  0
   -8.4416   -1.1390   16.1881 O   0  0  0  0  0  0  0  0  0  0  0  0
  -11.2700    0.6237   15.4711 O   0  0  0  0  0  0  0  0  0  0  0  0
   -8.8991    2.2604   22.8625 O   0  0  0  0  0  0  0  0  0  0  0  0
  -12.5675    7.7397   20.5794 O   0  0  0  0  0  0  0  0  0  0  0  0
  1 36  1  6  0  0  0
  2 36  1  1  0  0  0
  2  3  1  0  0  0  0
  3 37  1  1  0  0  0
  3  4  1  0  0  0  0
  4 38  1  1  0  0  0
  5 37  1  6  0  0  0
  5  6  1  0  0  0  0
  6  7  1  0  0  0  0
  6 39  1  6  0  0  0
  7 42  1  1  0  0  0
  8  9  1  6  0  0  0
  8  7  1  0  0  0  0
 10 42  1  6  0  0  0
 10 11  1  0  0  0  0
 11 31  1  6  0  0  0
 11 13  1  0  0  0  0
 12 30  1  6  0  0  0
 12  1  1  0  0  0  0
 14 13  1  0  0  0  0
 15 16  1  6  0  0  0
 15 14  1  0  0  0  0
 17 19  1  1  0  0  0
 17 28  1  0  0  0  0
 18 34  1  0  0  0  0
 19 32  1  0  0  0  0
 20 18  1  1  0  0  0
 20 17  1  0  0  0  0
 20 43  1  0  0  0  0
 21 12  1  0  0  0  0
 22 21  1  0  0  0  0
 22 23  1  0  0  0  0
 23 24  1  1  0  0  0
 23 46  1  0  0  0  0
 24 33  1  0  0  0  0
 25 34  1  6  0  0  0
 25  4  1  0  0  0  0
 26 25  1  0  0  0  0
 27 35  1  6  0  0  0
 27 26  1  0  0  0  0
 27  2  1  0  0  0  0
 29 16  1  0  0  0  0
 40  8  1  0  0  0  0
 40  5  1  0  0  0  0
 41  9  1  0  0  0  0
 44 18  2  0  0  0  0
 45 15  1  0  0  0  0
 45 10  1  0  0  0  0
 46  1  1  0  0  0  0
M  END
>  <CHROM.1>
-125.90095627,29.78960091,-164.76178974,119.27972698,-103.19532139,-46.18437272
-140.80155034,-82.73293511,176.33903188,-166.12556156,168.17346546,152.01327453
-176.10781066,-10.30656906,3.64056530,19.97921231,1.78853343,-0.87912634
0.99031435

>  <Name>
lig.pdb

>  <RI>
0

>  <Rbt.Current_Directory>
/home/afrankz/demos/rdock_decoys_rna/rnas/3wru

>  <Rbt.Executable>
rbdock ($Id: //depot/dev/client3/rdock/2013.1/src/exe/rbdock.cxx#4 $)

>  <Rbt.Library>
libRbt.so (2013.1, Build901 2013/11/27)

>  <Rbt.Parameter_File>
/export/apps/rDock/src/rDock_2013.1_src/data/scripts/dock_solv.prm

>  <Rbt.Receptor>
prm/blind_docking_80.prm

>  <SCORE>
56.6106

>  <SCORE.INTER>
37.482

>  <SCORE.INTER.CONST>
1

>  <SCORE.INTER.POLAR>
0

>  <SCORE.INTER.ROT>
13

>  <SCORE.INTER.SOLV>
50.1743

>  <SCORE.INTER.VDW>
-4.00346

>  <SCORE.INTER.norm>
0.814826

>  <SCORE.INTRA>
17.0061

>  <SCORE.INTRA.DIHEDRAL>
16.5715

>  <SCORE.INTRA.DIHEDRAL.0>
19.7146

>  <SCORE.INTRA.POLAR>
0

>  <SCORE.INTRA.POLAR.0>
0

>  <SCORE.INTRA.REPUL>
0.655202

>  <SCORE.INTRA.REPUL.0>
0

>  <SCORE.INTRA.SOLV>
0.914968

>  <SCORE.INTRA.SOLV.lig_0>
-116.697

>  <SCORE.INTRA.VDW>
4.9869

>  <SCORE.INTRA.VDW.0>
-7.06424

>  <SCORE.INTRA.norm>
0.369698

>  <SCORE.RESTR>
2.1225

>  <SCORE.RESTR.CAVITY>
2.1225

>  <SCORE.RESTR.norm>
0.0461413

>  <SCORE.SYSTEM>
0

>  <SCORE.SYSTEM.CONST>
0

>  <SCORE.SYSTEM.DIHEDRAL>
0

>  <SCORE.SYSTEM.SOLV>
0

>  <SCORE.SYSTEM.norm>
0

>  <SCORE.heavy>
46

>  <SCORE.norm>
1.23067

>  <RMSD>
31.966

$$$$
lig.pdb
 OpenBabel03061811583D
libRbt.so/2013.1/901 2013/11/27
 46 49  0  0  0  0  0  0  0  0999 V2000
  -10.8314    0.9628   19.5784 C   0  0  1  0  0  0  0  0  0  0  0  0
  -11.9509    3.2259   19.3970 C   0  0  1  0  0  0  0  0  0  0  0  0
  -11.9635    3.3539   17.8435 C   0  0  1  0  0  0  0  0  0  0  0  0
  -12.0390    4.9169   17.4505 C   0  0  2  0  0  0  0  0  0  0  0  0
  -10.5147    1.9483   16.3063 C   0  0  2  0  0  0  0  0  0  0  0  0
   -9.1051    1.2921   16.2712 C   0  0  1  0  0  0  0  0  0  0  0  0
   -9.4592    0.0833   15.4391 C   0  0  1  0  0  0  0  0  0  0  0  0
  -10.7859   -0.4538   16.0639 C   0  0  1  0  0  0  0  0  0  0  0  0
  -10.6534   -1.3601   17.3378 C   0  0  0  0  0  0  0  0  0  0  0  0
   -9.7506   -0.4917   13.0584 C   0  0  1  0  0  0  0  0  0  0  0  0
   -8.6127   -1.4679   13.0891 C   0  0  1  0  0  0  0  0  0  0  0  0
  -10.9084   -0.2371   20.5519 C   0  0  1  0  0  0  0  0  0  0  0  0
   -8.8218   -2.5129   11.9365 C   0  0  0  0  0  0  0  0  0  0  0  0
   -8.8600   -1.9517   10.6166 C   0  0  0  0  0  0  0  0  0  0  0  0
   -9.9713   -1.0277   10.5374 C   0  0  2  0  0  0  0  0  0  0  0  0
  -10.0595   -0.3684    9.1047 C   0  0  0  0  0  0  0  0  0  0  0  0
  -14.8661   10.0328   18.9359 C   0  0  2  0  0  0  0  0  0  0  0  0
  -14.3855    7.7682   18.4962 C   0  0  0  0  0  0  0  0  0  0  0  0
  -14.5099   11.3512   18.7234 C   0  0  0  0  0  0  0  0  0  0  0  0
  -14.3510    9.2744   17.9365 C   0  0  1  0  0  0  0  0  0  0  0  0
  -10.6915    0.2347   22.0613 C   0  0  0  0  0  0  0  0  0  0  0  0
   -9.2638    0.9588   22.1599 C   0  0  0  0  0  0  0  0  0  0  0  0
   -9.2713    2.2001   21.1524 C   0  0  1  0  0  0  0  0  0  0  0  0
   -7.9366    2.9549   21.1647 C   0  0  0  0  0  0  0  0  0  0  0  0
  -13.4071    5.5015   18.0136 C   0  0  1  0  0  0  0  0  0  0  0  0
  -13.3255    5.3638   19.6262 C   0  0  0  0  0  0  0  0  0  0  0  0
  -13.2216    3.8431   20.0320 C   0  0  2  0  0  0  0  0  0  0  0  0
  -16.3043    9.9322   19.0410 F   0  0  0  0  0  0  0  0  0  0  0  0
   -8.7625    0.3898    8.7007 N   0  0  0  0  0  0  0  0  0  0  0  0
  -12.2409   -0.9186   20.3535 N   0  0  0  0  0  0  0  0  0  0  0  0
   -7.3607   -0.8955   12.8475 N   0  0  0  0  0  0  0  0  0  0  0  0
  -14.8376   12.2534   17.6842 N   0  0  0  0  0  0  0  0  0  0  0  0
   -7.7431    3.6235   22.3921 N   0  0  0  0  0  0  0  0  0  0  0  0
  -13.5217    6.9286   17.6633 N   0  0  0  0  0  0  0  0  0  0  0  0
  -13.1336    3.7024   21.5023 N   0  0  0  0  0  0  0  0  0  0  0  0
  -11.9253    1.8576   19.7825 O   0  0  0  0  0  0  0  0  0  0  0  0
  -10.6937    2.7256   17.3479 O   0  0  0  0  0  0  0  0  0  0  0  0
  -12.0494    5.0030   16.0762 O   0  0  0  0  0  0  0  0  0  0  0  0
   -8.2257    2.1775   15.6467 O   0  0  0  0  0  0  0  0  0  0  0  0
  -11.4473    0.8159   16.1913 O   0  0  0  0  0  0  0  0  0  0  0  0
  -10.1043   -2.6231   16.9117 O   0  0  0  0  0  0  0  0  0  0  0  0
   -9.6586    0.5130   13.9970 O   0  0  0  0  0  0  0  0  0  0  0  0
  -15.1152    9.3564   16.7136 O   0  0  0  0  0  0  0  0  0  0  0  0
  -15.0350    7.3981   19.4880 O   0  0  0  0  0  0  0  0  0  0  0  0
   -9.8489    0.0338   11.6051 O   0  0  0  0  0  0  0  0  0  0  0  0
   -9.5401    1.7131   19.7380 O   0  0  0  0  0  0  0  0  0  0  0  0
  1 36  1  1  0  0  0
  2 36  1  6  0  0  0
  2  3  1  0  0  0  0
  3 37  1  6  0  0  0
  3  4  1  0  0  0  0
  4 38  1  6  0  0  0
  5 37  1  1  0  0  0
  5  6  1  0  0  0  0
  6  7  1  0  0  0  0
  6 39  1  6  0  0  0
  7 42  1  6  0  0  0
  8  9  1  1  0  0  0
  8  7  1  0  0  0  0
 10 42  1  1  0  0  0
 10 11  1  0  0  0  0
 11 31  1  6  0  0  0
 11 13  1  0  0  0  0
 12 30  1  1  0  0  0
 12  1  1  0  0  0  0
 14 13  1  0  0  0  0
 15 16  1  6  0  0  0
 15 14  1  0  0  0  0
 17 19  1  6  0  0  0
 17 28  1  0  0  0  0
 18 34  1  0  0  0  0
 19 32  1  0  0  0  0
 20 18  1  1  0  0  0
 20 17  1  0  0  0  0
 20 43  1  0  0  0  0
 21 12  1  0  0  0  0
 22 21  1  0  0  0  0
 22 23  1  0  0  0  0
 23 24  1  6  0  0  0
 23 46  1  0  0  0  0
 24 33  1  0  0  0  0
 25 34  1  1  0  0  0
 25  4  1  0  0  0  0
 26 25  1  0  0  0  0
 27 35  1  1  0  0  0
 27 26  1  0  0  0  0
 27  2  1  0  0  0  0
 29 16  1  0  0  0  0
 40  8  1  0  0  0  0
 40  5  1  0  0  0  0
 41  9  1  0  0  0  0
 44 18  2  0  0  0  0
 45 15  1  0  0  0  0
 45 10  1  0  0  0  0
 46  1  1  0  0  0  0
M  END
>  <CHROM.1>
158.56444486,67.97361186,138.70722665,-169.52978748,168.70311960,-71.14275270
-53.22781296,-57.94816660,64.11440651,-164.35202504,161.99047195,-68.66050211
-156.15888792,-11.26954177,2.85296077,17.09432867,-0.51326924,-1.07907578
1.57787106

>  <Name>
lig.pdb

>  <RI>
0

>  <Rbt.Current_Directory>
/home/afrankz/demos/rdock_decoys_rna/rnas/3wru

>  <Rbt.Executable>
rbdock ($Id: //depot/dev/client3/rdock/2013.1/src/exe/rbdock.cxx#4 $)

>  <Rbt.Library>
libRbt.so (2013.1, Build901 2013/11/27)

>  <Rbt.Parameter_File>
/export/apps/rDock/src/rDock_2013.1_src/data/scripts/dock_solv.prm

>  <Rbt.Receptor>
prm/blind_docking_40.prm

>  <SCORE>
24.9158

>  <SCORE.INTER>
22.297

>  <SCORE.INTER.CONST>
1

>  <SCORE.INTER.POLAR>
0

>  <SCORE.INTER.ROT>
13

>  <SCORE.INTER.SOLV>
25.8222

>  <SCORE.INTER.VDW>
-6.00939

>  <SCORE.INTER.norm>
0.484718

>  <SCORE.INTRA>
-0.331886

>  <SCORE.INTRA.DIHEDRAL>
-6.96681

>  <SCORE.INTRA.DIHEDRAL.0>
19.7146

>  <SCORE.INTRA.POLAR>
0

>  <SCORE.INTRA.POLAR.0>
0

>  <SCORE.INTRA.REPUL>
0

>  <SCORE.INTRA.REPUL.0>
0

>  <SCORE.INTRA.SOLV>
-0.251044

>  <SCORE.INTRA.SOLV.lig_0>
-116.697

>  <SCORE.INTRA.VDW>
3.27704

>  <SCORE.INTRA.VDW.0>
-7.06424

>  <SCORE.INTRA.norm>
-0.00721492

>  <SCORE.RESTR>
2.95068

>  <SCORE.RESTR.CAVITY>
2.95068

>  <SCORE.RESTR.norm>
0.0641452

>  <SCORE.SYSTEM>
0

>  <SCORE.SYSTEM.CONST>
0

>  <SCORE.SYSTEM.DIHEDRAL>
0

>  <SCORE.SYSTEM.SOLV>
0

>  <SCORE.SYSTEM.norm>
0

>  <SCORE.heavy>
46

>  <SCORE.norm>
0.541648

>  <RMSD>
31.976

$$$$
lig.pdb
 OpenBabel03061811583D
libRbt.so/2013.1/901 2013/11/27
 46 49  0  0  0  0  0  0  0  0999 V2000
   -9.7253    0.5226   20.2801 C   0  0  1  0  0  0  0  0  0  0  0  0
  -10.9801    1.3088   18.2269 C   0  0  1  0  0  0  0  0  0  0  0  0
  -10.0227    2.4368   17.7364 C   0  0  1  0  0  0  0  0  0  0  0  0
  -10.1708    2.5865   16.1369 C   0  0  2  0  0  0  0  0  0  0  0  0
  -11.4462    4.4896   18.1807 C   0  0  2  0  0  0  0  0  0  0  0  0
  -12.8292    3.8198   18.4201 C   0  0  1  0  0  0  0  0  0  0  0  0
  -13.6293    5.0763   18.6647 C   0  0  1  0  0  0  0  0  0  0  0  0
  -12.7544    5.9191   19.6462 C   0  0  1  0  0  0  0  0  0  0  0  0
  -12.8469    5.5546   21.1695 C   0  0  0  0  0  0  0  0  0  0  0  0
  -14.7505    6.8303   17.3418 C   0  0  1  0  0  0  0  0  0  0  0  0
  -15.2992    7.1602   15.9858 C   0  0  1  0  0  0  0  0  0  0  0  0
  -10.0960    0.0562   21.7078 C   0  0  1  0  0  0  0  0  0  0  0  0
  -16.2747    8.3820   16.1270 C   0  0  0  0  0  0  0  0  0  0  0  0
  -15.6693    9.5779   16.6390 C   0  0  0  0  0  0  0  0  0  0  0  0
  -15.1578    9.3074   17.9658 C   0  0  2  0  0  0  0  0  0  0  0  0
  -14.4689   10.5892   18.5800 C   0  0  0  0  0  0  0  0  0  0  0  0
   -9.4924   -0.2370   11.2040 C   0  0  2  0  0  0  0  0  0  0  0  0
   -8.7324    0.7608   13.1989 C   0  0  0  0  0  0  0  0  0  0  0  0
  -10.1548   -0.0690   10.0027 C   0  0  0  0  0  0  0  0  0  0  0  0
   -9.0665    0.9741   11.6413 C   0  0  1  0  0  0  0  0  0  0  0  0
  -10.4190    1.3021   22.6519 C   0  0  0  0  0  0  0  0  0  0  0  0
   -9.1308    2.2570   22.6800 C   0  0  0  0  0  0  0  0  0  0  0  0
   -8.8291    2.7201   21.1798 C   0  0  1  0  0  0  0  0  0  0  0  0
   -7.5996    3.6330   21.0993 C   0  0  0  0  0  0  0  0  0  0  0  0
   -9.7158    1.2162   15.4690 C   0  0  1  0  0  0  0  0  0  0  0  0
  -10.7574    0.0917   15.9950 C   0  0  0  0  0  0  0  0  0  0  0  0
  -10.6500   -0.0507   17.5622 C   0  0  2  0  0  0  0  0  0  0  0  0
   -8.4178   -1.1889   11.0338 F   0  0  0  0  0  0  0  0  0  0  0  0
  -15.4528   11.7791   18.7703 N   0  0  0  0  0  0  0  0  0  0  0  0
  -11.2620   -0.8971   21.6029 N   0  0  0  0  0  0  0  0  0  0  0  0
  -14.3329    7.5630   15.0597 N   0  0  0  0  0  0  0  0  0  0  0  0
  -10.7699   -1.0014    9.1347 N   0  0  0  0  0  0  0  0  0  0  0  0
   -7.7391    4.7485   21.9521 N   0  0  0  0  0  0  0  0  0  0  0  0
   -9.8238    1.3157   14.0024 N   0  0  0  0  0  0  0  0  0  0  0  0
  -11.6051   -1.0660   18.0585 N   0  0  0  0  0  0  0  0  0  0  0  0
  -10.8476    1.1199   19.6299 O   0  0  0  0  0  0  0  0  0  0  0  0
  -10.4373    3.6936   18.4445 O   0  0  0  0  0  0  0  0  0  0  0  0
   -9.3165    3.5865   15.7290 O   0  0  0  0  0  0  0  0  0  0  0  0
  -13.1882    3.1309   17.2608 O   0  0  0  0  0  0  0  0  0  0  0  0
  -11.4999    5.7299   18.9707 O   0  0  0  0  0  0  0  0  0  0  0  0
  -11.6415    6.0317   21.7998 O   0  0  0  0  0  0  0  0  0  0  0  0
  -13.8369    5.7987   17.3459 O   0  0  0  0  0  0  0  0  0  0  0  0
   -7.8871    1.4415   10.9507 O   0  0  0  0  0  0  0  0  0  0  0  0
   -7.7133    0.1983   13.6321 O   0  0  0  0  0  0  0  0  0  0  0  0
  -14.1895    8.1486   17.9293 O   0  0  0  0  0  0  0  0  0  0  0  0
   -8.5867    1.5018   20.3041 O   0  0  0  0  0  0  0  0  0  0  0  0
  1 36  1  1  0  0  0
  2 36  1  1  0  0  0
  2  3  1  0  0  0  0
  3 37  1  1  0  0  0
  3  4  1  0  0  0  0
  4 38  1  6  0  0  0
  5 37  1  1  0  0  0
  5  6  1  0  0  0  0
  6  7  1  0  0  0  0
  6 39  1  6  0  0  0
  7 42  1  6  0  0  0
  8  9  1  1  0  0  0
  8  7  1  0  0  0  0
 10 42  1  6  0  0  0
 10 11  1  0  0  0  0
 11 31  1  6  0  0  0
 11 13  1  0  0  0  0
 12 30  1  6  0  0  0
 12  1  1  0  0  0  0
 14 13  1  0  0  0  0
 15 16  1  6  0  0  0
 15 14  1  0  0  0  0
 17 19  1  6  0  0  0
 17 28  1  0  0  0  0
 18 34  1  0  0  0  0
 19 32  1  0  0  0  0
 20 18  1  1  0  0  0
 20 17  1  0  0  0  0
 20 43  1  0  0  0  0
 21 12  1  0  0  0  0
 22 21  1  0  0  0  0
 22 23  1  0  0  0  0
 23 24  1  1  0  0  0
 23 46  1  0  0  0  0
 24 33  1  0  0  0  0
 25 34  1  6  0  0  0
 25  4  1  0  0  0  0
 26 25  1  0  0  0  0
 27 35  1  1  0  0  0
 27 26  1  0  0  0  0
 27  2  1  0  0  0  0
 29 16  1  0  0  0  0
 40  8  1  0  0  0  0
 40  5  1  0  0  0  0
 41  9  1  0  0  0  0
 44 18  2  0  0  0  0
 45 15  1  0  0  0  0
 45 10  1  0  0  0  0
 46  1  1  0  0  0  0
M  END
>  <CHROM.1>
-161.24171845,-71.80486875,-78.41174059,66.39502031,168.40425874,157.57006944
-158.12704873,62.59627109,179.23252510,-102.43609740,163.04607637,-55.45749551
137.32238730,-11.25391038,3.41908413,17.29315745,-0.69575049,-0.96860093
1.41721266

>  <Name>
lig.pdb

>  <RI>
0

>  <Rbt.Current_Directory>
/home/afrankz/demos/rdock_decoys_rna/rnas/3wru

>  <Rbt.Executable>
rbdock ($Id: //depot/dev/client3/rdock/2013.1/src/exe/rbdock.cxx#4 $)

>  <Rbt.Library>
libRbt.so (2013.1, Build901 2013/11/27)

>  <Rbt.Parameter_File>
/export/apps/rDock/src/rDock_2013.1_src/data/scripts/dock_solv.prm

>  <Rbt.Receptor>
prm/blind_docking_40.prm

>  <SCORE>
13.4703

>  <SCORE.INTER>
9.5461

>  <SCORE.INTER.CONST>
1

>  <SCORE.INTER.POLAR>
0

>  <SCORE.INTER.ROT>
13

>  <SCORE.INTER.SOLV>
33.4573

>  <SCORE.INTER.VDW>
-17.055

>  <SCORE.INTER.norm>
0.207524

>  <SCORE.INTRA>
-3.5224

>  <SCORE.INTRA.DIHEDRAL>
-7.04061

>  <SCORE.INTRA.DIHEDRAL.0>
19.7146

>  <SCORE.INTRA.POLAR>
0

>  <SCORE.INTRA.POLAR.0>
0

>  <SCORE.INTRA.REPUL>
0

>  <SCORE.INTRA.REPUL.0>
0

>  <SCORE.INTRA.SOLV>
-1.43043

>  <SCORE.INTRA.SOLV.lig_0>
-116.697

>  <SCORE.INTRA.VDW>
0.71312

>  <SCORE.INTRA.VDW.0>
-7.06424

>  <SCORE.INTRA.norm>
-0.0765739

>  <SCORE.RESTR>
7.44661

>  <SCORE.RESTR.CAVITY>
7.44661

>  <SCORE.RESTR.norm>
0.161883

>  <SCORE.SYSTEM>
0

>  <SCORE.SYSTEM.CONST>
0

>  <SCORE.SYSTEM.DIHEDRAL>
0

>  <SCORE.SYSTEM.SOLV>
0

>  <SCORE.SYSTEM.norm>
0

>  <SCORE.heavy>
46

>  <SCORE.norm>
0.292833

>  <RMSD>
32.087

$$$$
lig.pdb
 OpenBabel03061811583D
libRbt.so/2013.1/901 2013/11/27
 46 49  0  0  0  0  0  0  0  0999 V2000
  -11.3568   -0.6289   19.5635 C   0  0  1  0  0  0  0  0  0  0  0  0
  -11.5814    0.5988   17.3612 C   0  0  1  0  0  0  0  0  0  0  0  0
  -11.1119    2.0670   17.5930 C   0  0  1  0  0  0  0  0  0  0  0  0
  -10.4755    2.6327   16.2226 C   0  0  2  0  0  0  0  0  0  0  0  0
  -12.3924    4.0524   18.5185 C   0  0  2  0  0  0  0  0  0  0  0  0
  -13.7171    4.7927   18.1782 C   0  0  1  0  0  0  0  0  0  0  0  0
  -13.7440    5.7265   19.3640 C   0  0  1  0  0  0  0  0  0  0  0  0
  -13.4025    4.8212   20.5899 C   0  0  1  0  0  0  0  0  0  0  0  0
  -14.5815    3.9906   21.2078 C   0  0  0  0  0  0  0  0  0  0  0  0
  -13.1680    8.0778   18.8913 C   0  0  1  0  0  0  0  0  0  0  0  0
  -13.5791    8.8586   20.1038 C   0  0  1  0  0  0  0  0  0  0  0  0
  -12.2407   -0.9724   20.7858 C   0  0  1  0  0  0  0  0  0  0  0  0
  -14.1399   10.2478   19.6349 C   0  0  0  0  0  0  0  0  0  0  0  0
  -15.2848   10.1736   18.7733 C   0  0  0  0  0  0  0  0  0  0  0  0
  -14.9156    9.4551   17.5722 C   0  0  2  0  0  0  0  0  0  0  0  0
  -16.1426    9.3326   16.5851 C   0  0  0  0  0  0  0  0  0  0  0  0
   -6.0569    3.1221   13.1367 C   0  0  2  0  0  0  0  0  0  0  0  0
   -7.4615    1.4773   14.0721 C   0  0  0  0  0  0  0  0  0  0  0  0
   -4.7873    2.5813   13.0606 C   0  0  0  0  0  0  0  0  0  0  0  0
   -6.9536    2.1916   12.7249 C   0  0  1  0  0  0  0  0  0  0  0  0
  -12.7079    0.3515   21.5453 C   0  0  0  0  0  0  0  0  0  0  0  0
  -11.3979    1.1588   21.9974 C   0  0  0  0  0  0  0  0  0  0  0  0
  -10.5544    1.5027   20.6836 C   0  0  1  0  0  0  0  0  0  0  0  0
   -9.2678    2.2688   21.0140 C   0  0  0  0  0  0  0  0  0  0  0  0
   -9.2016    1.7481   15.8684 C   0  0  1  0  0  0  0  0  0  0  0  0
   -9.7532    0.2455   15.6161 C   0  0  0  0  0  0  0  0  0  0  0  0
  -10.4066   -0.3170   16.9369 C   0  0  2  0  0  0  0  0  0  0  0  0
   -6.1093    4.3421   12.3631 F   0  0  0  0  0  0  0  0  0  0  0  0
  -15.8969    8.3216   15.4284 N   0  0  0  0  0  0  0  0  0  0  0  0
  -13.4106   -1.7958   20.3033 N   0  0  0  0  0  0  0  0  0  0  0  0
  -14.6122    8.2714   20.8396 N   0  0  0  0  0  0  0  0  0  0  0  0
   -3.5258    3.0979   13.4387 N   0  0  0  0  0  0  0  0  0  0  0  0
   -8.5613    2.6045   19.8396 N   0  0  0  0  0  0  0  0  0  0  0  0
   -8.5810    2.2419   14.6260 N   0  0  0  0  0  0  0  0  0  0  0  0
  -10.9265   -1.6849   16.7178 N   0  0  0  0  0  0  0  0  0  0  0  0
  -12.1126    0.0518   18.5612 O   0  0  0  0  0  0  0  0  0  0  0  0
  -12.3268    2.8505   17.9966 O   0  0  0  0  0  0  0  0  0  0  0  0
  -10.0689    3.9279   16.4532 O   0  0  0  0  0  0  0  0  0  0  0  0
  -13.5566    5.4344   16.9495 O   0  0  0  0  0  0  0  0  0  0  0  0
  -12.3072    4.1129   19.9862 O   0  0  0  0  0  0  0  0  0  0  0  0
  -15.4498    4.9178   21.8894 O   0  0  0  0  0  0  0  0  0  0  0  0
  -12.7005    6.8112   19.1669 O   0  0  0  0  0  0  0  0  0  0  0  0
   -8.0795    2.7634   12.0236 O   0  0  0  0  0  0  0  0  0  0  0  0
   -6.9789    0.4346   14.5437 O   0  0  0  0  0  0  0  0  0  0  0  0
  -14.3760    8.0884   17.9226 O   0  0  0  0  0  0  0  0  0  0  0  0
  -10.1821    0.2188   19.9604 O   0  0  0  0  0  0  0  0  0  0  0  0
  1 36  1  6  0  0  0
  2 36  1  1  0  0  0
  2  3  1  0  0  0  0
  3 37  1  6  0  0  0
  3  4  1  0  0  0  0
  4 38  1  1  0  0  0
  5 37  1  1  0  0  0
  5  6  1  0  0  0  0
  6  7  1  0  0  0  0
  6 39  1  6  0  0  0
  7 42  1  6  0  0  0
  8  9  1  6  0  0  0
  8  7  1  0  0  0  0
 10 42  1  1  0  0  0
 10 11  1  0  0  0  0
 11 31  1  6  0  0  0
 11 13  1  0  0  0  0
 12 30  1  6  0  0  0
 12  1  1  0  0  0  0
 14 13  1  0  0  0  0
 15 16  1  6  0  0  0
 15 14  1  0  0  0  0
 17 19  1  6  0  0  0
 17 28  1  0  0  0  0
 18 34  1  0  0  0  0
 19 32  1  0  0  0  0
 20 18  1  1  0  0  0
 20 17  1  0  0  0  0
 20 43  1  0  0  0  0
 21 12  1  0  0  0  0
 22 21  1  0  0  0  0
 22 23  1  0  0  0  0
 23 24  1  1  0  0  0
 23 46  1  0  0  0  0
 24 33  1  0  0  0  0
 25 34  1  6  0  0  0
 25  4  1  0  0  0  0
 26 25  1  0  0  0  0
 27 35  1  6  0  0  0
 27 26  1  0  0  0  0
 27  2  1  0  0  0  0
 29 16  1  0  0  0  0
 40  8  1  0  0  0  0
 40  5  1  0  0  0  0
 41  9  1  0  0  0  0
 44 18  2  0  0  0  0
 45 15  1  0  0  0  0
 45 10  1  0  0  0  0
 46  1  1  0  0  0  0
M  END
>  <CHROM.1>
174.83109843,-88.73595160,166.64735761,152.05291993,108.67299678,-71.64837168
82.54793020,-167.74579654,-175.94762943,86.71546930,94.95888279,-177.91622296
-174.61292579,-11.28718401,3.59553096,17.71979907,0.26963847,-0.77765130
2.62139850

>  <Name>
lig.pdb

>  <RI>
0

>  <Rbt.Current_Directory>
/home/afrankz/demos/rdock_decoys_rna/rnas/3wru

>  <Rbt.Executable>
rbdock ($Id: //depot/dev/client3/rdock/2013.1/src/exe/rbdock.cxx#4 $)

>  <Rbt.Library>
libRbt.so (2013.1, Build901 2013/11/27)

>  <Rbt.Parameter_File>
/export/apps/rDock/src/rDock_2013.1_src/data/scripts/dock_solv.prm

>  <Rbt.Receptor>
prm/blind_docking_100.prm

>  <SCORE>
-2.60399

>  <SCORE.INTER>
-5.20086

>  <SCORE.INTER.CONST>
1

>  <SCORE.INTER.POLAR>
0

>  <SCORE.INTER.ROT>
13

>  <SCORE.INTER.SOLV>
38.2385

>  <SCORE.INTER.VDW>
-28.4801

>  <SCORE.INTER.norm>
-0.113062

>  <SCORE.INTRA>
2.52557

>  <SCORE.INTRA.DIHEDRAL>
2.20931

>  <SCORE.INTRA.DIHEDRAL.0>
19.7146

>  <SCORE.INTRA.POLAR>
0

>  <SCORE.INTRA.POLAR.0>
0

>  <SCORE.INTRA.REPUL>
0

>  <SCORE.INTRA.REPUL.0>
0

>  <SCORE.INTRA.SOLV>
2.05611

>  <SCORE.INTRA.SOLV.lig_0>
-116.697

>  <SCORE.INTRA.VDW>
0.392865

>  <SCORE.INTRA.VDW.0>
-7.06424

>  <SCORE.INTRA.norm>
0.0549038

>  <SCORE.RESTR>
0.0712973

>  <SCORE.RESTR.CAVITY>
0.0712973

>  <SCORE.RESTR.norm>
0.00154994

>  <SCORE.SYSTEM>
0

>  <SCORE.SYSTEM.CONST>
0

>  <SCORE.SYSTEM.DIHEDRAL>
0

>  <SCORE.SYSTEM.SOLV>
0

>  <SCORE.SYSTEM.norm>
0

>  <SCORE.heavy>
46

>  <SCORE.norm>
-0.0566085

>  <RMSD>
32.089

$$$$
lig.pdb
 OpenBabel03061811583D
libRbt.so/2013.1/901 2013/11/27
 46 49  0  0  0  0  0  0  0  0999 V2000
   -8.6313    3.5885   20.6133 C   0  0  1  0  0  0  0  0  0  0  0  0
  -10.8483    4.5672   19.8817 C   0  0  1  0  0  0  0  0  0  0  0  0
  -11.4433    3.8557   18.6289 C   0  0  1  0  0  0  0  0  0  0  0  0
  -12.3687    4.9045   17.8248 C   0  0  2  0  0  0  0  0  0  0  0  0
  -10.1242    2.2711   17.1500 C   0  0  2  0  0  0  0  0  0  0  0  0
  -10.8324    2.2585   15.7655 C   0  0  1  0  0  0  0  0  0  0  0  0
   -9.9659    1.2179   15.0982 C   0  0  1  0  0  0  0  0  0  0  0  0
   -8.5029    1.6295   15.4583 C   0  0  1  0  0  0  0  0  0  0  0  0
   -7.8456    2.7510   14.5797 C   0  0  0  0  0  0  0  0  0  0  0  0
   -9.6888   -1.2329   15.0751 C   0  0  1  0  0  0  0  0  0  0  0  0
   -8.5897   -0.8702   14.1214 C   0  0  1  0  0  0  0  0  0  0  0  0
   -8.1265    2.3335   21.3639 C   0  0  1  0  0  0  0  0  0  0  0  0
   -8.0163   -2.1914   13.4968 C   0  0  0  0  0  0  0  0  0  0  0  0
   -8.9704   -2.9723   12.7630 C   0  0  0  0  0  0  0  0  0  0  0  0
  -10.0320   -3.3722   13.6620 C   0  0  2  0  0  0  0  0  0  0  0  0
  -11.1217   -4.2303   12.9063 C   0  0  0  0  0  0  0  0  0  0  0  0
  -15.2478    8.7413   17.1509 C   0  0  2  0  0  0  0  0  0  0  0  0
  -15.3092    7.1468   18.8849 C   0  0  0  0  0  0  0  0  0  0  0  0
  -14.3247    9.3468   17.9823 C   0  0  0  0  0  0  0  0  0  0  0  0
  -16.1665    8.0976   17.9132 C   0  0  1  0  0  0  0  0  0  0  0  0
   -8.4386    2.4358   22.9259 C   0  0  0  0  0  0  0  0  0  0  0  0
   -7.7347    3.7610   23.4921 C   0  0  0  0  0  0  0  0  0  0  0  0
   -8.3266    5.0123   22.6922 C   0  0  1  0  0  0  0  0  0  0  0  0
   -7.7029    6.3343   23.1555 C   0  0  0  0  0  0  0  0  0  0  0  0
  -13.5694    5.3332   18.7763 C   0  0  1  0  0  0  0  0  0  0  0  0
  -12.8935    6.0850   20.0429 C   0  0  0  0  0  0  0  0  0  0  0  0
  -11.9604    5.0844   20.8277 C   0  0  2  0  0  0  0  0  0  0  0  0
  -14.5636    7.8655   16.2265 F   0  0  0  0  0  0  0  0  0  0  0  0
  -10.5835   -5.6046   12.4147 N   0  0  0  0  0  0  0  0  0  0  0  0
   -8.7654    1.1198   20.7330 N   0  0  0  0  0  0  0  0  0  0  0  0
   -9.0071   -0.0973   13.0343 N   0  0  0  0  0  0  0  0  0  0  0  0
  -14.4872   10.2328   19.0732 N   0  0  0  0  0  0  0  0  0  0  0  0
   -8.0307    6.6061   24.5008 N   0  0  0  0  0  0  0  0  0  0  0  0
  -14.4488    6.2840   18.0726 N   0  0  0  0  0  0  0  0  0  0  0  0
  -11.3260    5.7610   21.9805 N   0  0  0  0  0  0  0  0  0  0  0  0
  -10.0573    3.6605   20.6391 O   0  0  0  0  0  0  0  0  0  0  0  0
  -10.2797    3.4021   17.7963 O   0  0  0  0  0  0  0  0  0  0  0  0
  -12.8817    4.2531   16.7255 O   0  0  0  0  0  0  0  0  0  0  0  0
  -12.1569    1.8623   15.9550 O   0  0  0  0  0  0  0  0  0  0  0  0
   -8.7329    1.8962   16.8517 O   0  0  0  0  0  0  0  0  0  0  0  0
   -8.5580    3.9763   14.8430 O   0  0  0  0  0  0  0  0  0  0  0  0
  -10.3114   -0.1503   15.6575 O   0  0  0  0  0  0  0  0  0  0  0  0
  -16.9757    8.9967   18.7026 O   0  0  0  0  0  0  0  0  0  0  0  0
  -15.3692    7.1667   20.1253 O   0  0  0  0  0  0  0  0  0  0  0  0
  -10.6617   -2.1584   14.3040 O   0  0  0  0  0  0  0  0  0  0  0  0
   -8.0602    4.8452   21.2052 O   0  0  0  0  0  0  0  0  0  0  0  0
  1 36  1  1  0  0  0
  2 36  1  1  0  0  0
  2  3  1  0  0  0  0
  3 37  1  6  0  0  0
  3  4  1  0  0  0  0
  4 38  1  6  0  0  0
  5 37  1  6  0  0  0
  5  6  1  0  0  0  0
  6  7  1  0  0  0  0
  6 39  1  1  0  0  0
  7 42  1  1  0  0  0
  8  9  1  6  0  0  0
  8  7  1  0  0  0  0
 10 42  1  6  0  0  0
 10 11  1  0  0  0  0
 11 31  1  6  0  0  0
 11 13  1  0  0  0  0
 12 30  1  6  0  0  0
 12  1  1  0  0  0  0
 14 13  1  0  0  0  0
 15 16  1  6  0  0  0
 15 14  1  0  0  0  0
 17 19  1  1  0  0  0
 17 28  1  0  0  0  0
 18 34  1  0  0  0  0
 19 32  1  0  0  0  0
 20 18  1  1  0  0  0
 20 17  1  0  0  0  0
 20 43  1  0  0  0  0
 21 12  1  0  0  0  0
 22 21  1  0  0  0  0
 22 23  1  0  0  0  0
 23 24  1  1  0  0  0
 23 46  1  0  0  0  0
 24 33  1  0  0  0  0
 25 34  1  6  0  0  0
 25  4  1  0  0  0  0
 26 25  1  0  0  0  0
 27 35  1  1  0  0  0
 27 26  1  0  0  0  0
 27  2  1  0  0  0  0
 29 16  1  0  0  0  0
 40  8  1  0  0  0  0
 40  5  1  0  0  0  0
 41  9  1  0  0  0  0
 44 18  2  0  0  0  0
 45 15  1  0  0  0  0
 45 10  1  0  0  0  0
 46  1  1  0  0  0  0
M  END
>  <CHROM.1>
-170.03713851,100.67136601,139.03407901,81.85274465,174.74699449,67.08662651
9.57283620,66.17163280,-53.00561931,-55.67280763,-53.45938328,-64.38095169
-158.79587780,-10.94189427,3.33147322,17.82524449,-1.97679266,0.68596584
-2.29022301

>  <Name>
lig.pdb

>  <RI>
0

>  <Rbt.Current_Directory>
/home/afrankz/demos/rdock_decoys_rna/rnas/3wru

>  <Rbt.Executable>
rbdock ($Id: //depot/dev/client3/rdock/2013.1/src/exe/rbdock.cxx#4 $)

>  <Rbt.Library>
libRbt.so (2013.1, Build901 2013/11/27)

>  <Rbt.Parameter_File>
/export/apps/rDock/src/rDock_2013.1_src/data/scripts/dock_solv.prm

>  <Rbt.Receptor>
prm/blind_docking_80.prm

>  <SCORE>
33.0491

>  <SCORE.INTER>
7.63307

>  <SCORE.INTER.CONST>
1

>  <SCORE.INTER.POLAR>
0

>  <SCORE.INTER.ROT>
13

>  <SCORE.INTER.SOLV>
42.5375

>  <SCORE.INTER.VDW>
-21.3571

>  <SCORE.INTER.norm>
0.165936

>  <SCORE.INTRA>
16.676

>  <SCORE.INTRA.DIHEDRAL>
2.84693

>  <SCORE.INTRA.DIHEDRAL.0>
19.7146

>  <SCORE.INTRA.POLAR>
0

>  <SCORE.INTRA.POLAR.0>
0

>  <SCORE.INTRA.REPUL>
0

>  <SCORE.INTRA.REPUL.0>
0

>  <SCORE.INTRA.SOLV>
6.36886

>  <SCORE.INTRA.SOLV.lig_0>
-116.697

>  <SCORE.INTRA.VDW>
12.0681

>  <SCORE.INTRA.VDW.0>
-7.06424

>  <SCORE.INTRA.norm>
0.362522

>  <SCORE.RESTR>
8.74

>  <SCORE.RESTR.CAVITY>
8.74

>  <SCORE.RESTR.norm>
0.19

>  <SCORE.SYSTEM>
0

>  <SCORE.SYSTEM.CONST>
0

>  <SCORE.SYSTEM.DIHEDRAL>
0

>  <SCORE.SYSTEM.SOLV>
0

>  <SCORE.SYSTEM.norm>
0

>  <SCORE.heavy>
46

>  <SCORE.norm>
0.718459

>  <RMSD>
32.103

$$$$
lig.pdb
 OpenBabel03061811583D
libRbt.so/2013.1/901 2013/11/27
 46 49  0  0  0  0  0  0  0  0999 V2000
  -11.9010   -1.2744   19.5952 C   0  0  1  0  0  0  0  0  0  0  0  0
  -12.1099   -0.0461   17.3916 C   0  0  1  0  0  0  0  0  0  0  0  0
  -11.4063    1.2965   17.7548 C   0  0  1  0  0  0  0  0  0  0  0  0
  -10.7615    1.9252   16.4161 C   0  0  2  0  0  0  0  0  0  0  0  0
  -12.4904    3.5072   18.3677 C   0  0  2  0  0  0  0  0  0  0  0  0
  -13.4670    4.0633   19.4427 C   0  0  1  0  0  0  0  0  0  0  0  0
  -12.8006    5.4008   19.6570 C   0  0  1  0  0  0  0  0  0  0  0  0
  -11.2787    5.0712   19.7777 C   0  0  1  0  0  0  0  0  0  0  0  0
  -10.7682    4.5839   21.1790 C   0  0  0  0  0  0  0  0  0  0  0  0
  -13.1531    7.6487   18.7049 C   0  0  1  0  0  0  0  0  0  0  0  0
  -13.3957    8.0042   20.1415 C   0  0  1  0  0  0  0  0  0  0  0  0
  -12.7761   -1.5166   20.8477 C   0  0  1  0  0  0  0  0  0  0  0  0
  -13.5095    9.5657   20.2557 C   0  0  0  0  0  0  0  0  0  0  0  0
  -14.5755   10.1477   19.4917 C   0  0  0  0  0  0  0  0  0  0  0  0
  -14.3560    9.8550   18.0913 C   0  0  2  0  0  0  0  0  0  0  0  0
  -15.5068   10.4645   17.1975 C   0  0  0  0  0  0  0  0  0  0  0  0
   -7.0759    3.0518   13.2881 C   0  0  2  0  0  0  0  0  0  0  0  0
   -7.6716    1.0293   14.3406 C   0  0  0  0  0  0  0  0  0  0  0  0
   -6.5781    3.7245   12.1882 C   0  0  0  0  0  0  0  0  0  0  0  0
   -7.2029    1.7380   12.9763 C   0  0  1  0  0  0  0  0  0  0  0  0
  -13.2115   -0.1351   21.5184 C   0  0  0  0  0  0  0  0  0  0  0  0
  -11.8826    0.6779   21.8994 C   0  0  0  0  0  0  0  0  0  0  0  0
  -11.0489    0.9149   20.5560 C   0  0  1  0  0  0  0  0  0  0  0  0
   -9.7455    1.6788   20.8188 C   0  0  0  0  0  0  0  0  0  0  0  0
   -9.6609    0.9116   15.8758 C   0  0  1  0  0  0  0  0  0  0  0  0
  -10.4519   -0.4502   15.4941 C   0  0  0  0  0  0  0  0  0  0  0  0
  -11.1156   -1.0672   16.7852 C   0  0  2  0  0  0  0  0  0  0  0  0
   -8.3202    3.6592   13.7032 F   0  0  0  0  0  0  0  0  0  0  0  0
  -15.5528   12.0190   17.2379 N   0  0  0  0  0  0  0  0  0  0  0  0
  -13.9656   -2.3503   20.4359 N   0  0  0  0  0  0  0  0  0  0  0  0
  -14.5945    7.5065   20.6597 N   0  0  0  0  0  0  0  0  0  0  0  0
   -6.4199    5.1061   11.9289 N   0  0  0  0  0  0  0  0  0  0  0  0
   -9.0706    1.9609   19.6122 N   0  0  0  0  0  0  0  0  0  0  0  0
   -9.0362    1.4564   14.6570 N   0  0  0  0  0  0  0  0  0  0  0  0
  -11.8526   -2.3055   16.4495 N   0  0  0  0  0  0  0  0  0  0  0  0
  -12.6568   -0.6513   18.5561 O   0  0  0  0  0  0  0  0  0  0  0  0
  -12.4619    2.1962   18.3285 O   0  0  0  0  0  0  0  0  0  0  0  0
  -10.1469    3.1076   16.7629 O   0  0  0  0  0  0  0  0  0  0  0  0
  -14.7402    4.1438   18.8774 O   0  0  0  0  0  0  0  0  0  0  0  0
  -11.2069    4.1616   18.6672 O   0  0  0  0  0  0  0  0  0  0  0  0
   -9.3276    4.6312   21.1520 O   0  0  0  0  0  0  0  0  0  0  0  0
  -13.0822    6.2941   18.4624 O   0  0  0  0  0  0  0  0  0  0  0  0
   -8.1805    1.4948   11.9413 O   0  0  0  0  0  0  0  0  0  0  0  0
   -6.9784    0.2363   14.9988 O   0  0  0  0  0  0  0  0  0  0  0  0
  -14.2490    8.3635   17.8769 O   0  0  0  0  0  0  0  0  0  0  0  0
  -10.7073   -0.4225   19.9197 O   0  0  0  0  0  0  0  0  0  0  0  0
  1 36  1  6  0  0  0
  2 36  1  1  0  0  0
  2  3  1  0  0  0  0
  3 37  1  6  0  0  0
  3  4  1  0  0  0  0
  4 38  1  1  0  0  0
  5 37  1  1  0  0  0
  5  6  1  0  0  0  0
  6  7  1  0  0  0  0
  6 39  1  6  0  0  0
  7 42  1  6  0  0  0
  8  9  1  1  0  0  0
  8  7  1  0  0  0  0
 10 42  1  1  0  0  0
 10 11  1  0  0  0  0
 11 31  1  6  0  0  0
 11 13  1  0  0  0  0
 12 30  1  6  0  0  0
 12  1  1  0  0  0  0
 14 13  1  0  0  0  0
 15 16  1  6  0  0  0
 15 14  1  0  0  0  0
 17 19  1  6  0  0  0
 17 28  1  0  0  0  0
 18 34  1  0  0  0  0
 19 32  1  0  0  0  0
 20 18  1  1  0  0  0
 20 17  1  0  0  0  0
 20 43  1  0  0  0  0
 21 12  1  0  0  0  0
 22 21  1  0  0  0  0
 22 23  1  0  0  0  0
 23 24  1  1  0  0  0
 23 46  1  0  0  0  0
 24 33  1  0  0  0  0
 25 34  1  6  0  0  0
 25  4  1  0  0  0  0
 26 25  1  0  0  0  0
 27 35  1  6  0  0  0
 27 26  1  0  0  0  0
 27  2  1  0  0  0  0
 29 16  1  0  0  0  0
 40  8  1  0  0  0  0
 40  5  1  0  0  0  0
 41  9  1  0  0  0  0
 44 18  2  0  0  0  0
 45 15  1  0  0  0  0
 45 10  1  0  0  0  0
 46  1  1  0  0  0  0
M  END
>  <CHROM.1>
166.36475435,-72.12953943,-155.13444842,-160.15922062,149.33370083,-167.26483470
-19.37555342,64.28344288,171.04769867,68.83342798,175.65047689,-175.84875927
153.65639440,-11.33774326,3.30260503,17.80589547,0.68774114,-0.90005264,2.76970119

>  <Name>
lig.pdb

>  <RI>
0

>  <Rbt.Current_Directory>
/home/afrankz/demos/rdock_decoys_rna/rnas/3wru

>  <Rbt.Executable>
rbdock ($Id: //depot/dev/client3/rdock/2013.1/src/exe/rbdock.cxx#4 $)

>  <Rbt.Library>
libRbt.so (2013.1, Build901 2013/11/27)

>  <Rbt.Parameter_File>
/export/apps/rDock/src/rDock_2013.1_src/data/scripts/dock_solv.prm

>  <Rbt.Receptor>
prm/blind_docking_100.prm

>  <SCORE>
4.33118

>  <SCORE.INTER>
-2.94705

>  <SCORE.INTER.CONST>
1

>  <SCORE.INTER.POLAR>
0

>  <SCORE.INTER.ROT>
13

>  <SCORE.INTER.SOLV>
38.6328

>  <SCORE.INTER.VDW>
-27.109

>  <SCORE.INTER.norm>
-0.0640664

>  <SCORE.INTRA>
6.21109

>  <SCORE.INTRA.DIHEDRAL>
-1.99627

>  <SCORE.INTRA.DIHEDRAL.0>
19.7146

>  <SCORE.INTRA.POLAR>
0

>  <SCORE.INTRA.POLAR.0>
0

>  <SCORE.INTRA.REPUL>
0

>  <SCORE.INTRA.REPUL.0>
0

>  <SCORE.INTRA.SOLV>
5.44852

>  <SCORE.INTRA.SOLV.lig_0>
-116.697

>  <SCORE.INTRA.VDW>
4.48497

>  <SCORE.INTRA.VDW.0>
-7.06424

>  <SCORE.INTRA.norm>
0.135024

>  <SCORE.RESTR>
1.06715

>  <SCORE.RESTR.CAVITY>
1.06715

>  <SCORE.RESTR.norm>
0.0231988

>  <SCORE.SYSTEM>
0

>  <SCORE.SYSTEM.CONST>
0

>  <SCORE.SYSTEM.DIHEDRAL>
0

>  <SCORE.SYSTEM.SOLV>
0

>  <SCORE.SYSTEM.norm>
0

>  <SCORE.heavy>
46

>  <SCORE.norm>
0.0941561

>  <RMSD>
32.108

$$$$
lig.pdb
 OpenBabel03061811583D
libRbt.so/2013.1/901 2013/11/27
 46 49  0  0  0  0  0  0  0  0999 V2000
   -9.4848    1.3077   16.6424 C   0  0  1  0  0  0  0  0  0  0  0  0
  -11.4161    2.9118   16.9661 C   0  0  1  0  0  0  0  0  0  0  0  0
  -10.6985    3.5844   18.1754 C   0  0  1  0  0  0  0  0  0  0  0  0
  -11.7885    4.4037   19.0378 C   0  0  2  0  0  0  0  0  0  0  0  0
   -9.9076    2.4081   20.2798 C   0  0  2  0  0  0  0  0  0  0  0  0
   -8.9395    1.2670   20.7033 C   0  0  1  0  0  0  0  0  0  0  0  0
   -8.4853    1.8565   22.0168 C   0  0  1  0  0  0  0  0  0  0  0  0
   -8.1717    3.3519   21.6934 C   0  0  1  0  0  0  0  0  0  0  0  0
   -6.7694    3.6612   21.0611 C   0  0  0  0  0  0  0  0  0  0  0  0
   -9.2605    1.8787   24.3582 C   0  0  1  0  0  0  0  0  0  0  0  0
   -8.0226    2.6946   24.5835 C   0  0  1  0  0  0  0  0  0  0  0  0
   -8.3982    1.0538   15.5710 C   0  0  1  0  0  0  0  0  0  0  0  0
   -7.7216    2.7279   26.1238 C   0  0  0  0  0  0  0  0  0  0  0  0
   -7.4933    1.4425   26.7191 C   0  0  0  0  0  0  0  0  0  0  0  0
   -8.6836    0.6361   26.5523 C   0  0  2  0  0  0  0  0  0  0  0  0
   -8.4888   -0.7993   27.1820 C   0  0  0  0  0  0  0  0  0  0  0  0
  -15.2091    7.3928   20.0885 C   0  0  2  0  0  0  0  0  0  0  0  0
  -13.0405    7.7095   19.2227 C   0  0  0  0  0  0  0  0  0  0  0  0
  -14.9289    6.5633   21.1578 C   0  0  0  0  0  0  0  0  0  0  0  0
  -14.2654    8.3651   20.0307 C   0  0  1  0  0  0  0  0  0  0  0  0
   -9.0002    0.2675   14.3192 C   0  0  0  0  0  0  0  0  0  0  0  0
   -9.6167   -1.1163   14.8457 C   0  0  0  0  0  0  0  0  0  0  0  0
  -10.7477   -0.7728   15.9222 C   0  0  1  0  0  0  0  0  0  0  0  0
  -11.3933   -2.0392   16.4976 C   0  0  0  0  0  0  0  0  0  0  0  0
  -12.3911    5.5482   18.1115 C   0  0  1  0  0  0  0  0  0  0  0  0
  -13.1413    4.7909   16.8910 C   0  0  0  0  0  0  0  0  0  0  0  0
  -12.0973    3.9591   16.0506 C   0  0  2  0  0  0  0  0  0  0  0  0
  -16.5518    7.9123   20.2192 F   0  0  0  0  0  0  0  0  0  0  0  0
   -9.7800   -1.3535   27.8498 N   0  0  0  0  0  0  0  0  0  0  0  0
   -7.8065    2.3857   15.1767 N   0  0  0  0  0  0  0  0  0  0  0  0
   -6.8722    2.1645   23.9927 N   0  0  0  0  0  0  0  0  0  0  0  0
  -13.8505    5.6803   21.3999 N   0  0  0  0  0  0  0  0  0  0  0  0
  -10.4235   -2.8848   17.0767 N   0  0  0  0  0  0  0  0  0  0  0  0
  -13.3847    6.3310   18.8681 N   0  0  0  0  0  0  0  0  0  0  0  0
  -12.7705    3.2514   14.9392 N   0  0  0  0  0  0  0  0  0  0  0  0
  -10.4784    2.2120   16.1585 O   0  0  0  0  0  0  0  0  0  0  0  0
  -10.0818    2.4786   18.9815 O   0  0  0  0  0  0  0  0  0  0  0  0
  -11.1309    4.9877   20.0974 O   0  0  0  0  0  0  0  0  0  0  0  0
   -9.6790    0.0905   20.8308 O   0  0  0  0  0  0  0  0  0  0  0  0
   -9.3493    3.6138   20.9121 O   0  0  0  0  0  0  0  0  0  0  0  0
   -5.8227    3.7629   22.1434 O   0  0  0  0  0  0  0  0  0  0  0  0
   -9.6064    1.7313   23.0325 O   0  0  0  0  0  0  0  0  0  0  0  0
  -14.7192    9.5531   19.3459 O   0  0  0  0  0  0  0  0  0  0  0  0
  -11.9847    8.2994   18.9399 O   0  0  0  0  0  0  0  0  0  0  0  0
   -9.0461    0.5309   25.0897 O   0  0  0  0  0  0  0  0  0  0  0  0
  -10.1441    0.0262   17.0656 O   0  0  0  0  0  0  0  0  0  0  0  0
  1 36  1  6  0  0  0
  2 36  1  6  0  0  0
  2  3  1  0  0  0  0
  3 37  1  1  0  0  0
  3  4  1  0  0  0  0
  4 38  1  1  0  0  0
  5 37  1  6  0  0  0
  5  6  1  0  0  0  0
  6  7  1  0  0  0  0
  6 39  1  1  0  0  0
  7 42  1  1  0  0  0
  8  9  1  6  0  0  0
  8  7  1  0  0  0  0
 10 42  1  6  0  0  0
 10 11  1  0  0  0  0
 11 31  1  6  0  0  0
 11 13  1  0  0  0  0
 12 30  1  6  0  0  0
 12  1  1  0  0  0  0
 14 13  1  0  0  0  0
 15 16  1  6  0  0  0
 15 14  1  0  0  0  0
 17 19  1  1  0  0  0
 17 28  1  0  0  0  0
 18 34  1  0  0  0  0
 19 32  1  0  0  0  0
 20 18  1  6  0  0  0
 20 17  1  0  0  0  0
 20 43  1  0  0  0  0
 21 12  1  0  0  0  0
 22 21  1  0  0  0  0
 22 23  1  0  0  0  0
 23 24  1  1  0  0  0
 23 46  1  0  0  0  0
 24 33  1  0  0  0  0
 25 34  1  1  0  0  0
 25  4  1  0  0  0  0
 26 25  1  0  0  0  0
 27 35  1  6  0  0  0
 27 26  1  0  0  0  0
 27  2  1  0  0  0  0
 29 16  1  0  0  0  0
 40  8  1  0  0  0  0
 40  5  1  0  0  0  0
 41  9  1  0  0  0  0
 44 18  2  0  0  0  0
 45 15  1  0  0  0  0
 45 10  1  0  0  0  0
 46  1  1  0  0  0  0
M  END
>  <CHROM.1>
-163.51533872,47.96207105,-146.86530444,-166.36226531,162.98974912,-83.87890861
25.02060103,143.56656877,-65.98905029,-0.55852709,84.10561390,56.89916699
110.34257681,-10.52951933,2.98799890,20.07974456,-2.53012066,-0.93443506
1.25424794

>  <Name>
lig.pdb

>  <RI>
0

>  <Rbt.Current_Directory>
/home/afrankz/demos/rdock_decoys_rna/rnas/3wru

>  <Rbt.Executable>
rbdock ($Id: //depot/dev/client3/rdock/2013.1/src/exe/rbdock.cxx#4 $)

>  <Rbt.Library>
libRbt.so (2013.1, Build901 2013/11/27)

>  <Rbt.Parameter_File>
/export/apps/rDock/src/rDock_2013.1_src/data/scripts/dock_solv.prm

>  <Rbt.Receptor>
prm/blind_docking_80.prm

>  <SCORE>
45.1114

>  <SCORE.INTER>
23.8235

>  <SCORE.INTER.CONST>
1

>  <SCORE.INTER.POLAR>
0

>  <SCORE.INTER.ROT>
13

>  <SCORE.INTER.SOLV>
42.7219

>  <SCORE.INTER.VDW>
-10.625

>  <SCORE.INTER.norm>
0.517903

>  <SCORE.INTRA>
15.1319

>  <SCORE.INTRA.DIHEDRAL>
3.96619

>  <SCORE.INTRA.DIHEDRAL.0>
19.7146

>  <SCORE.INTRA.POLAR>
0

>  <SCORE.INTRA.POLAR.0>
0

>  <SCORE.INTRA.REPUL>
0

>  <SCORE.INTRA.REPUL.0>
0

>  <SCORE.INTRA.SOLV>
5.32172

>  <SCORE.INTRA.SOLV.lig_0>
-116.697

>  <SCORE.INTRA.VDW>
10.4879

>  <SCORE.INTRA.VDW.0>
-7.06424

>  <SCORE.INTRA.norm>
0.328954

>  <SCORE.RESTR>
6.15601

>  <SCORE.RESTR.CAVITY>
6.15601

>  <SCORE.RESTR.norm>
0.133826

>  <SCORE.SYSTEM>
0

>  <SCORE.SYSTEM.CONST>
0

>  <SCORE.SYSTEM.DIHEDRAL>
0

>  <SCORE.SYSTEM.SOLV>
0

>  <SCORE.SYSTEM.norm>
0

>  <SCORE.heavy>
46

>  <SCORE.norm>
0.980683

>  <RMSD>
32.145

$$$$
lig.pdb
 OpenBabel03061811583D
libRbt.so/2013.1/901 2013/11/27
 46 49  0  0  0  0  0  0  0  0999 V2000
  -11.7999    1.6368   21.4194 C   0  0  1  0  0  0  0  0  0  0  0  0
  -11.2549    3.3989   19.6856 C   0  0  1  0  0  0  0  0  0  0  0  0
  -12.3638    3.0538   18.6459 C   0  0  1  0  0  0  0  0  0  0  0  0
  -12.7299    4.3863   17.8134 C   0  0  2  0  0  0  0  0  0  0  0  0
  -10.6835    1.9971   17.0655 C   0  0  2  0  0  0  0  0  0  0  0  0
  -10.6068    0.8571   16.0104 C   0  0  1  0  0  0  0  0  0  0  0  0
   -9.6368    1.5177   15.0608 C   0  0  1  0  0  0  0  0  0  0  0  0
  -10.1675    2.9781   14.9035 C   0  0  1  0  0  0  0  0  0  0  0  0
  -11.3345    3.2016   13.8789 C   0  0  0  0  0  0  0  0  0  0  0  0
   -7.2341    0.9873   14.8887 C   0  0  1  0  0  0  0  0  0  0  0  0
   -6.8682    1.8535   13.7205 C   0  0  1  0  0  0  0  0  0  0  0  0
  -11.0213    0.6411   22.3113 C   0  0  1  0  0  0  0  0  0  0  0  0
   -5.7495    1.1268   12.8929 C   0  0  0  0  0  0  0  0  0  0  0  0
   -6.1276   -0.1531   12.3664 C   0  0  0  0  0  0  0  0  0  0  0  0
   -6.4548   -1.0305   13.4701 C   0  0  2  0  0  0  0  0  0  0  0  0
   -6.8893   -2.4575   12.9506 C   0  0  0  0  0  0  0  0  0  0  0  0
  -15.2293    9.9078   18.6391 C   0  0  2  0  0  0  0  0  0  0  0  0
  -14.5222    7.6655   18.7974 C   0  0  0  0  0  0  0  0  0  0  0  0
  -14.1601   10.4334   19.3395 C   0  0  0  0  0  0  0  0  0  0  0  0
  -14.7767    8.9208   17.8265 C   0  0  1  0  0  0  0  0  0  0  0  0
  -10.4988   -0.6037   21.4596 C   0  0  0  0  0  0  0  0  0  0  0  0
  -11.7665   -1.3152   20.7823 C   0  0  0  0  0  0  0  0  0  0  0  0
  -12.4994   -0.2371   19.8568 C   0  0  1  0  0  0  0  0  0  0  0  0
  -13.7397   -0.8214   19.1701 C   0  0  0  0  0  0  0  0  0  0  0  0
  -13.3134    5.4598   18.8322 C   0  0  1  0  0  0  0  0  0  0  0  0
  -12.1136    5.7950   19.8687 C   0  0  0  0  0  0  0  0  0  0  0  0
  -11.7194    4.4973   20.6739 C   0  0  2  0  0  0  0  0  0  0  0  0
  -15.9053   10.9665   17.9237 F   0  0  0  0  0  0  0  0  0  0  0  0
   -8.1645   -2.4208   12.0602 N   0  0  0  0  0  0  0  0  0  0  0  0
   -9.8924    1.3903   22.9774 N   0  0  0  0  0  0  0  0  0  0  0  0
   -7.9140    2.0704   12.8190 N   0  0  0  0  0  0  0  0  0  0  0  0
  -13.2627    9.8425   20.2597 N   0  0  0  0  0  0  0  0  0  0  0  0
  -13.3917   -1.8920   18.3194 N   0  0  0  0  0  0  0  0  0  0  0  0
  -13.6739    6.6915   18.1074 N   0  0  0  0  0  0  0  0  0  0  0  0
  -10.6155    4.7856   21.6160 N   0  0  0  0  0  0  0  0  0  0  0  0
  -10.9338    2.2557   20.4675 O   0  0  0  0  0  0  0  0  0  0  0  0
  -11.8013    1.9872   17.7522 O   0  0  0  0  0  0  0  0  0  0  0  0
  -13.7098    4.0560   16.9041 O   0  0  0  0  0  0  0  0  0  0  0  0
  -10.1053   -0.2850   16.6359 O   0  0  0  0  0  0  0  0  0  0  0  0
  -10.4214    3.2241   16.2967 O   0  0  0  0  0  0  0  0  0  0  0  0
  -10.8227    2.8859   12.5687 O   0  0  0  0  0  0  0  0  0  0  0  0
   -8.2477    1.4945   15.6725 O   0  0  0  0  0  0  0  0  0  0  0  0
  -15.7237    8.5563   16.7986 O   0  0  0  0  0  0  0  0  0  0  0  0
  -14.9693    7.5634   19.9517 O   0  0  0  0  0  0  0  0  0  0  0  0
   -7.5430   -0.4201   14.3216 O   0  0  0  0  0  0  0  0  0  0  0  0
  -12.9265    0.9559   20.6960 O   0  0  0  0  0  0  0  0  0  0  0  0
  1 36  1  6  0  0  0
  2 36  1  1  0  0  0
  2  3  1  0  0  0  0
  3 37  1  6  0  0  0
  3  4  1  0  0  0  0
  4 38  1  6  0  0  0
  5 37  1  6  0  0  0
  5  6  1  0  0  0  0
  6  7  1  0  0  0  0
  6 39  1  1  0  0  0
  7 42  1  1  0  0  0
  8  9  1  6  0  0  0
  8  7  1  0  0  0  0
 10 42  1  6  0  0  0
 10 11  1  0  0  0  0
 11 31  1  6  0  0  0
 11 13  1  0  0  0  0
 12 30  1  6  0  0  0
 12  1  1  0  0  0  0
 14 13  1  0  0  0  0
 15 16  1  6  0  0  0
 15 14  1  0  0  0  0
 17 19  1  6  0  0  0
 17 28  1  0  0  0  0
 18 34  1  0  0  0  0
 19 32  1  0  0  0  0
 20 18  1  1  0  0  0
 20 17  1  0  0  0  0
 20 43  1  0  0  0  0
 21 12  1  0  0  0  0
 22 21  1  0  0  0  0
 22 23  1  0  0  0  0
 23 24  1  1  0  0  0
 23 46  1  0  0  0  0
 24 33  1  0  0  0  0
 25 34  1  6  0  0  0
 25  4  1  0  0  0  0
 26 25  1  0  0  0  0
 27 35  1  1  0  0  0
 27 26  1  0  0  0  0
 27  2  1  0  0  0  0
 29 16  1  0  0  0  0
 40  8  1  0  0  0  0
 40  5  1  0  0  0  0
 41  9  1  0  0  0  0
 44 18  2  0  0  0  0
 45 15  1  0  0  0  0
 45 10  1  0  0  0  0
 46  1  1  0  0  0  0
M  END
>  <CHROM.1>
-166.65581249,-68.12289458,-54.03121439,-166.62926527,128.20980764,-64.34617261
69.61859783,-61.75156295,-61.46684474,-163.44937249,76.38945173,-61.74094769
165.28802981,-11.24272584,3.03157132,17.46935099,2.94538747,0.97842962,-0.80173835

>  <Name>
lig.pdb

>  <RI>
0

>  <Rbt.Current_Directory>
/home/afrankz/demos/rdock_decoys_rna/rnas/3wru

>  <Rbt.Executable>
rbdock ($Id: //depot/dev/client3/rdock/2013.1/src/exe/rbdock.cxx#4 $)

>  <Rbt.Library>
libRbt.so (2013.1, Build901 2013/11/27)

>  <Rbt.Parameter_File>
/export/apps/rDock/src/rDock_2013.1_src/data/scripts/dock_solv.prm

>  <Rbt.Receptor>
prm/blind_docking_100.prm

>  <SCORE>
6.0351

>  <SCORE.INTER>
2.60079

>  <SCORE.INTER.CONST>
1

>  <SCORE.INTER.POLAR>
0

>  <SCORE.INTER.ROT>
13

>  <SCORE.INTER.SOLV>
31.9502

>  <SCORE.INTER.VDW>
-21.1829

>  <SCORE.INTER.norm>
0.056539

>  <SCORE.INTRA>
0.185301

>  <SCORE.INTRA.DIHEDRAL>
-7.96881

>  <SCORE.INTRA.DIHEDRAL.0>
19.7146

>  <SCORE.INTRA.POLAR>
0

>  <SCORE.INTRA.POLAR.0>
0

>  <SCORE.INTRA.REPUL>
0

>  <SCORE.INTRA.REPUL.0>
0

>  <SCORE.INTRA.SOLV>
4.80083

>  <SCORE.INTRA.SOLV.lig_0>
-116.697

>  <SCORE.INTRA.VDW>
1.76929

>  <SCORE.INTRA.VDW.0>
-7.06424

>  <SCORE.INTRA.norm>
0.00402829

>  <SCORE.RESTR>
3.24901

>  <SCORE.RESTR.CAVITY>
3.24901

>  <SCORE.RESTR.norm>
0.0706306

>  <SCORE.SYSTEM>
0

>  <SCORE.SYSTEM.CONST>
0

>  <SCORE.SYSTEM.DIHEDRAL>
0

>  <SCORE.SYSTEM.SOLV>
0

>  <SCORE.SYSTEM.norm>
0

>  <SCORE.heavy>
46

>  <SCORE.norm>
0.131198

>  <RMSD>
32.158

$$$$
lig.pdb
 OpenBabel03061811583D
libRbt.so/2013.1/901 2013/11/27
 46 49  0  0  0  0  0  0  0  0999 V2000
  -11.0749    0.7352   18.8222 C   0  0  1  0  0  0  0  0  0  0  0  0
  -12.1895    2.9811   19.1709 C   0  0  1  0  0  0  0  0  0  0  0  0
  -12.1152    3.7062   17.7931 C   0  0  1  0  0  0  0  0  0  0  0  0
  -12.1287    5.3002   18.0420 C   0  0  2  0  0  0  0  0  0  0  0  0
  -10.6531    2.7989   15.9284 C   0  0  2  0  0  0  0  0  0  0  0  0
   -9.1513    2.6159   15.5681 C   0  0  1  0  0  0  0  0  0  0  0  0
   -9.3188    1.5460   14.5163 C   0  0  1  0  0  0  0  0  0  0  0  0
  -10.3176    0.5235   15.1457 C   0  0  1  0  0  0  0  0  0  0  0  0
   -9.7180   -0.5344   16.1371 C   0  0  0  0  0  0  0  0  0  0  0  0
   -9.3014    1.8035   12.0633 C   0  0  1  0  0  0  0  0  0  0  0  0
   -9.4940    0.3602   11.7047 C   0  0  1  0  0  0  0  0  0  0  0  0
  -11.2656   -0.6171   19.5490 C   0  0  1  0  0  0  0  0  0  0  0  0
   -8.7308    0.0744   10.3630 C   0  0  0  0  0  0  0  0  0  0  0  0
   -7.3165    0.3107   10.4144 C   0  0  0  0  0  0  0  0  0  0  0  0
   -7.0904    1.7064   10.7241 C   0  0  2  0  0  0  0  0  0  0  0  0
   -5.5457    2.0265   10.8036 C   0  0  0  0  0  0  0  0  0  0  0  0
  -15.2151    9.7502   18.8305 C   0  0  2  0  0  0  0  0  0  0  0  0
  -14.6830    7.6526   19.7633 C   0  0  0  0  0  0  0  0  0  0  0  0
  -15.1726   11.1304   18.8872 C   0  0  0  0  0  0  0  0  0  0  0  0
  -14.5375    9.2481   19.8926 C   0  0  1  0  0  0  0  0  0  0  0  0
  -11.3174   -0.4150   21.1315 C   0  0  0  0  0  0  0  0  0  0  0  0
   -9.9535    0.2927   21.5913 C   0  0  0  0  0  0  0  0  0  0  0  0
   -9.8422    1.6910   20.8244 C   0  0  1  0  0  0  0  0  0  0  0  0
   -8.5569    2.4432   21.1900 C   0  0  0  0  0  0  0  0  0  0  0  0
  -13.5094    5.6794   18.7353 C   0  0  1  0  0  0  0  0  0  0  0  0
  -13.5181    4.9192   20.1664 C   0  0  0  0  0  0  0  0  0  0  0  0
  -13.4759    3.3578   19.9468 C   0  0  2  0  0  0  0  0  0  0  0  0
  -14.6908    9.3027   17.5599 F   0  0  0  0  0  0  0  0  0  0  0  0
   -5.0333    2.8657    9.5980 N   0  0  0  0  0  0  0  0  0  0  0  0
  -12.5208   -1.2645   19.0155 N   0  0  0  0  0  0  0  0  0  0  0  0
   -8.9589   -0.5367   12.6335 N   0  0  0  0  0  0  0  0  0  0  0  0
  -15.4617   12.0333   19.9372 N   0  0  0  0  0  0  0  0  0  0  0  0
   -8.7867    3.8333   21.2660 N   0  0  0  0  0  0  0  0  0  0  0  0
  -13.5677    7.1336   18.9688 N   0  0  0  0  0  0  0  0  0  0  0  0
  -13.4707    2.6502   21.2463 N   0  0  0  0  0  0  0  0  0  0  0  0
  -12.2204    1.5713   18.9894 O   0  0  0  0  0  0  0  0  0  0  0  0
  -10.8375    3.2648   17.1408 O   0  0  0  0  0  0  0  0  0  0  0  0
  -12.0629    5.9166   16.8125 O   0  0  0  0  0  0  0  0  0  0  0  0
   -8.6683    3.8292   15.0765 O   0  0  0  0  0  0  0  0  0  0  0  0
  -11.2568    1.4852   15.6544 O   0  0  0  0  0  0  0  0  0  0  0  0
   -8.3826   -0.8374   15.6867 O   0  0  0  0  0  0  0  0  0  0  0  0
   -9.8861    2.1723   13.2553 O   0  0  0  0  0  0  0  0  0  0  0  0
  -13.1393    9.6103   19.8934 O   0  0  0  0  0  0  0  0  0  0  0  0
  -15.5945    6.9827   20.2762 O   0  0  0  0  0  0  0  0  0  0  0  0
   -7.7776    2.0754   12.0177 O   0  0  0  0  0  0  0  0  0  0  0  0
   -9.8565    1.4568   19.3227 O   0  0  0  0  0  0  0  0  0  0  0  0
  1 36  1  1  0  0  0
  2 36  1  6  0  0  0
  2  3  1  0  0  0  0
  3 37  1  1  0  0  0
  3  4  1  0  0  0  0
  4 38  1  6  0  0  0
  5 37  1  1  0  0  0
  5  6  1  0  0  0  0
  6  7  1  0  0  0  0
  6 39  1  6  0  0  0
  7 42  1  6  0  0  0
  8  9  1  1  0  0  0
  8  7  1  0  0  0  0
 10 42  1  1  0  0  0
 10 11  1  0  0  0  0
 11 31  1  1  0  0  0
 11 13  1  0  0  0  0
 12 30  1  6  0  0  0
 12  1  1  0  0  0  0
 14 13  1  0  0  0  0
 15 16  1  1  0  0  0
 15 14  1  0  0  0  0
 17 19  1  6  0  0  0
 17 28  1  0  0  0  0
 18 34  1  0  0  0  0
 19 32  1  0  0  0  0
 20 18  1  6  0  0  0
 20 17  1  0  0  0  0
 20 43  1  0  0  0  0
 21 12  1  0  0  0  0
 22 21  1  0  0  0  0
 22 23  1  0  0  0  0
 23 24  1  1  0  0  0
 23 46  1  0  0  0  0
 24 33  1  0  0  0  0
 25 34  1  1  0  0  0
 25  4  1  0  0  0  0
 26 25  1  0  0  0  0
 27 35  1  1  0  0  0
 27 26  1  0  0  0  0
 27  2  1  0  0  0  0
 29 16  1  0  0  0  0
 40  8  1  0  0  0  0
 40  5  1  0  0  0  0
 41  9  1  0  0  0  0
 44 18  2  0  0  0  0
 45 15  1  0  0  0  0
 45 10  1  0  0  0  0
 46  1  1  0  0  0  0
M  END
>  <CHROM.1>
142.26354148,84.64832211,129.80546296,172.92024870,135.11581708,-32.83513435
65.74350468,107.97377544,-50.03615073,90.13630619,178.27718774,-142.88560669
-171.84207496,-11.03640337,3.40123428,16.99082497,-0.02841340,-1.02494946
2.33880499

>  <Name>
lig.pdb

>  <RI>
0

>  <Rbt.Current_Directory>
/home/afrankz/demos/rdock_decoys_rna/rnas/3wru

>  <Rbt.Executable>
rbdock ($Id: //depot/dev/client3/rdock/2013.1/src/exe/rbdock.cxx#4 $)

>  <Rbt.Library>
libRbt.so (2013.1, Build901 2013/11/27)

>  <Rbt.Parameter_File>
/export/apps/rDock/src/rDock_2013.1_src/data/scripts/dock_solv.prm

>  <Rbt.Receptor>
prm/blind_docking_40.prm

>  <SCORE>
17.7416

>  <SCORE.INTER>
2.93376

>  <SCORE.INTER.CONST>
1

>  <SCORE.INTER.POLAR>
0

>  <SCORE.INTER.ROT>
13

>  <SCORE.INTER.SOLV>
30.6637

>  <SCORE.INTER.VDW>
-20.5321

>  <SCORE.INTER.norm>
0.0637774

>  <SCORE.INTRA>
8.86805

>  <SCORE.INTRA.DIHEDRAL>
13.7955

>  <SCORE.INTRA.DIHEDRAL.0>
19.7146

>  <SCORE.INTRA.POLAR>
0

>  <SCORE.INTRA.POLAR.0>
0

>  <SCORE.INTRA.REPUL>
0

>  <SCORE.INTRA.REPUL.0>
0

>  <SCORE.INTRA.SOLV>
1.83628

>  <SCORE.INTRA.SOLV.lig_0>
-116.697

>  <SCORE.INTRA.VDW>
1.05215

>  <SCORE.INTRA.VDW.0>
-7.06424

>  <SCORE.INTRA.norm>
0.192784

>  <SCORE.RESTR>
5.93974

>  <SCORE.RESTR.CAVITY>
5.93974

>  <SCORE.RESTR.norm>
0.129125

>  <SCORE.SYSTEM>
0

>  <SCORE.SYSTEM.CONST>
0

>  <SCORE.SYSTEM.DIHEDRAL>
0

>  <SCORE.SYSTEM.SOLV>
0

>  <SCORE.SYSTEM.norm>
0

>  <SCORE.heavy>
46

>  <SCORE.norm>
0.385686

>  <RMSD>
32.161

$$$$
lig.pdb
 OpenBabel03061811583D
libRbt.so/2013.1/901 2013/11/27
 46 49  0  0  0  0  0  0  0  0999 V2000
   -9.5609    2.3366   19.9291 C   0  0  1  0  0  0  0  0  0  0  0  0
  -11.1745    4.1999   19.3525 C   0  0  1  0  0  0  0  0  0  0  0  0
  -11.5925    3.8745   17.8865 C   0  0  1  0  0  0  0  0  0  0  0  0
  -12.0354    5.2428   17.1554 C   0  0  2  0  0  0  0  0  0  0  0  0
  -10.3302    2.6110   16.0842 C   0  0  2  0  0  0  0  0  0  0  0  0
   -8.8815    2.1937   15.7023 C   0  0  1  0  0  0  0  0  0  0  0  0
   -9.2291    1.0162   14.8239 C   0  0  1  0  0  0  0  0  0  0  0  0
  -10.3074    0.2245   15.6299 C   0  0  1  0  0  0  0  0  0  0  0  0
   -9.7860   -0.7503   16.7433 C   0  0  0  0  0  0  0  0  0  0  0  0
   -9.7390    0.6555   12.4378 C   0  0  1  0  0  0  0  0  0  0  0  0
   -8.3871    0.0560   12.1893 C   0  0  1  0  0  0  0  0  0  0  0  0
   -9.5716    1.0084   20.7221 C   0  0  1  0  0  0  0  0  0  0  0  0
   -8.4749   -0.8607   10.9179 C   0  0  0  0  0  0  0  0  0  0  0  0
   -8.8631   -0.1829    9.7144 C   0  0  0  0  0  0  0  0  0  0  0  0
  -10.1827    0.3805    9.9043 C   0  0  2  0  0  0  0  0  0  0  0  0
  -10.6621    1.1501    8.6109 C   0  0  0  0  0  0  0  0  0  0  0  0
  -15.7802   10.0098   17.9251 C   0  0  2  0  0  0  0  0  0  0  0  0
  -14.5815    7.9854   18.0590 C   0  0  0  0  0  0  0  0  0  0  0  0
  -15.0367   10.7158   18.8519 C   0  0  0  0  0  0  0  0  0  0  0  0
  -14.9383    9.2701   17.1614 C   0  0  1  0  0  0  0  0  0  0  0  0
   -9.6777    1.2788   22.2916 C   0  0  0  0  0  0  0  0  0  0  0  0
   -8.4347    2.1937   22.7278 C   0  0  0  0  0  0  0  0  0  0  0  0
   -8.5082    3.5543   21.8916 C   0  0  1  0  0  0  0  0  0  0  0  0
   -7.3477    4.4976   22.2306 C   0  0  0  0  0  0  0  0  0  0  0  0
  -13.3028    5.8235   17.9217 C   0  0  1  0  0  0  0  0  0  0  0  0
  -12.8028    6.1636   19.4252 C   0  0  0  0  0  0  0  0  0  0  0  0
  -12.3370    4.8420   20.1494 C   0  0  2  0  0  0  0  0  0  0  0  0
  -16.5876   10.9277   17.1536 F   0  0  0  0  0  0  0  0  0  0  0  0
  -10.7282    0.2421    7.3495 N   0  0  0  0  0  0  0  0  0  0  0  0
  -10.7144    0.1647   20.2104 N   0  0  0  0  0  0  0  0  0  0  0  0
   -7.3897    0.9923   11.9026 N   0  0  0  0  0  0  0  0  0  0  0  0
  -15.4251   11.6001   19.8856 N   0  0  0  0  0  0  0  0  0  0  0  0
   -6.1032    3.8792   21.9859 N   0  0  0  0  0  0  0  0  0  0  0  0
  -13.7487    7.0708   17.2752 N   0  0  0  0  0  0  0  0  0  0  0  0
  -11.8655    5.1391   21.5201 N   0  0  0  0  0  0  0  0  0  0  0  0
  -10.8151    3.0098   20.0424 O   0  0  0  0  0  0  0  0  0  0  0  0
  -10.3945    3.2617   17.2216 O   0  0  0  0  0  0  0  0  0  0  0  0
  -12.3996    4.9291   15.8650 O   0  0  0  0  0  0  0  0  0  0  0  0
   -8.2848    3.2565   15.0227 O   0  0  0  0  0  0  0  0  0  0  0  0
  -11.0985    1.3574   16.0255 O   0  0  0  0  0  0  0  0  0  0  0  0
  -10.9019   -1.5617   17.1613 O   0  0  0  0  0  0  0  0  0  0  0  0
   -9.7837    1.5252   13.5057 O   0  0  0  0  0  0  0  0  0  0  0  0
  -15.5326    8.8433   15.9161 O   0  0  0  0  0  0  0  0  0  0  0  0
  -14.9497    7.8204   19.2336 O   0  0  0  0  0  0  0  0  0  0  0  0
  -10.1946    1.2977   11.1044 O   0  0  0  0  0  0  0  0  0  0  0  0
   -8.4645    3.2469   20.4037 O   0  0  0  0  0  0  0  0  0  0  0  0
  1 36  1  1  0  0  0
  2 36  1  1  0  0  0
  2  3  1  0  0  0  0
  3 37  1  6  0  0  0
  3  4  1  0  0  0  0
  4 38  1  6  0  0  0
  5 37  1  1  0  0  0
  5  6  1  0  0  0  0
  6  7  1  0  0  0  0
  6 39  1  6  0  0  0
  7 42  1  6  0  0  0
  8  9  1  1  0  0  0
  8  7  1  0  0  0  0
 10 42  1  1  0  0  0
 10 11  1  0  0  0  0
 11 31  1  6  0  0  0
 11 13  1  0  0  0  0
 12 30  1  6  0  0  0
 12  1  1  0  0  0  0
 14 13  1  0  0  0  0
 15 16  1  6  0  0  0
 15 14  1  0  0  0  0
 17 19  1  1  0  0  0
 17 28  1  0  0  0  0
 18 34  1  0  0  0  0
 19 32  1  0  0  0  0
 20 18  1  1  0  0  0
 20 17  1  0  0  0  0
 20 43  1  0  0  0  0
 21 12  1  0  0  0  0
 22 21  1  0  0  0  0
 22 23  1  0  0  0  0
 23 24  1  1  0  0  0
 23 46  1  0  0  0  0
 24 33  1  0  0  0  0
 25 34  1  6  0  0  0
 25  4  1  0  0  0  0
 26 25  1  0  0  0  0
 27 35  1  1  0  0  0
 27 26  1  0  0  0  0
 27  2  1  0  0  0  0
 29 16  1  0  0  0  0
 40  8  1  0  0  0  0
 40  5  1  0  0  0  0
 41  9  1  0  0  0  0
 44 18  2  0  0  0  0
 45 15  1  0  0  0  0
 45 10  1  0  0  0  0
 46  1  1  0  0  0  0
M  END
>  <CHROM.1>
-174.77026891,79.48403815,166.24638461,177.00168733,159.10363659,-168.57103505
-51.80441704,59.49779709,-178.54577651,175.84173996,79.34067035,58.13760455
-159.75540685,-11.05829015,3.65944946,16.83890365,-2.22801518,0.89822987
-1.83874495

>  <Name>
lig.pdb

>  <RI>
0

>  <Rbt.Current_Directory>
/home/afrankz/demos/rdock_decoys_rna/rnas/3wru

>  <Rbt.Executable>
rbdock ($Id: //depot/dev/client3/rdock/2013.1/src/exe/rbdock.cxx#4 $)

>  <Rbt.Library>
libRbt.so (2013.1, Build901 2013/11/27)

>  <Rbt.Parameter_File>
/export/apps/rDock/src/rDock_2013.1_src/data/scripts/dock_solv.prm

>  <Rbt.Receptor>
prm/blind_docking_40.prm

>  <SCORE>
4.5544

>  <SCORE.INTER>
1.9535

>  <SCORE.INTER.CONST>
1

>  <SCORE.INTER.POLAR>
0

>  <SCORE.INTER.ROT>
13

>  <SCORE.INTER.SOLV>
32.6987

>  <SCORE.INTER.VDW>
-21.8639

>  <SCORE.INTER.norm>
0.0424674

>  <SCORE.INTRA>
-1.53421

>  <SCORE.INTRA.DIHEDRAL>
-11.7758

>  <SCORE.INTRA.DIHEDRAL.0>
19.7146

>  <SCORE.INTRA.POLAR>
0

>  <SCORE.INTRA.POLAR.0>
0

>  <SCORE.INTRA.REPUL>
0

>  <SCORE.INTRA.REPUL.0>
0

>  <SCORE.INTRA.SOLV>
-0.157243

>  <SCORE.INTRA.SOLV.lig_0>
-116.697

>  <SCORE.INTRA.VDW>
4.43233

>  <SCORE.INTRA.VDW.0>
-7.06424

>  <SCORE.INTRA.norm>
-0.0333524

>  <SCORE.RESTR>
4.13511

>  <SCORE.RESTR.CAVITY>
4.13511

>  <SCORE.RESTR.norm>
0.0898937

>  <SCORE.SYSTEM>
0

>  <SCORE.SYSTEM.CONST>
0

>  <SCORE.SYSTEM.DIHEDRAL>
0

>  <SCORE.SYSTEM.SOLV>
0

>  <SCORE.SYSTEM.norm>
0

>  <SCORE.heavy>
46

>  <SCORE.norm>
0.0990087

>  <RMSD>
32.213

$$$$
lig.pdb
 OpenBabel03061811583D
libRbt.so/2013.1/901 2013/11/27
 46 49  0  0  0  0  0  0  0  0999 V2000
  -14.3874    7.0846   17.3432 C   0  0  1  0  0  0  0  0  0  0  0  0
  -13.1036    5.1467   16.3409 C   0  0  1  0  0  0  0  0  0  0  0  0
  -13.0727    3.6246   16.6756 C   0  0  1  0  0  0  0  0  0  0  0  0
  -11.7424    2.9769   16.0324 C   0  0  2  0  0  0  0  0  0  0  0  0
  -12.0936    3.7700   19.0119 C   0  0  2  0  0  0  0  0  0  0  0  0
  -12.3922    3.2854   20.4592 C   0  0  1  0  0  0  0  0  0  0  0  0
  -10.9647    3.1320   20.9257 C   0  0  1  0  0  0  0  0  0  0  0  0
  -10.2443    2.3832   19.7598 C   0  0  1  0  0  0  0  0  0  0  0  0
  -10.4046    0.8231   19.7134 C   0  0  0  0  0  0  0  0  0  0  0  0
   -9.5988    4.6678   22.2894 C   0  0  1  0  0  0  0  0  0  0  0  0
   -8.7612    5.9117   22.2944 C   0  0  1  0  0  0  0  0  0  0  0  0
  -13.3035    7.3722   18.4089 C   0  0  1  0  0  0  0  0  0  0  0  0
   -7.9049    5.9302   23.6099 C   0  0  0  0  0  0  0  0  0  0  0  0
   -7.0098    4.8189   23.7597 C   0  0  0  0  0  0  0  0  0  0  0  0
   -7.7874    3.5985   23.7949 C   0  0  2  0  0  0  0  0  0  0  0  0
   -6.8525    2.3348   23.9497 C   0  0  0  0  0  0  0  0  0  0  0  0
   -8.1725    2.7379   12.3285 C   0  0  2  0  0  0  0  0  0  0  0  0
   -9.3249    2.9022   14.3773 C   0  0  0  0  0  0  0  0  0  0  0  0
   -6.8621    2.9630   11.9512 C   0  0  0  0  0  0  0  0  0  0  0  0
   -8.1803    2.1398   13.5456 C   0  0  1  0  0  0  0  0  0  0  0  0
  -13.5524    6.5078   19.7274 C   0  0  0  0  0  0  0  0  0  0  0  0
  -15.0128    6.8599   20.2893 C   0  0  0  0  0  0  0  0  0  0  0  0
  -16.0764    6.5095   19.1484 C   0  0  1  0  0  0  0  0  0  0  0  0
  -17.5114    6.8247   19.5877 C   0  0  0  0  0  0  0  0  0  0  0  0
  -11.8279    3.1419   14.4524 C   0  0  1  0  0  0  0  0  0  0  0  0
  -11.8327    4.7369   14.1662 C   0  0  0  0  0  0  0  0  0  0  0  0
  -13.1118    5.3960   14.8123 C   0  0  2  0  0  0  0  0  0  0  0  0
   -8.8414    1.9604   11.3099 F   0  0  0  0  0  0  0  0  0  0  0  0
   -6.5368    1.9869   25.4328 N   0  0  0  0  0  0  0  0  0  0  0  0
  -11.9533    7.0958   17.7925 N   0  0  0  0  0  0  0  0  0  0  0  0
   -7.8360    5.9830   21.2492 N   0  0  0  0  0  0  0  0  0  0  0  0
   -5.7469    2.0955   11.8785 N   0  0  0  0  0  0  0  0  0  0  0  0
  -17.6515    8.1882   19.9227 N   0  0  0  0  0  0  0  0  0  0  0  0
  -10.6339    2.5493   13.8234 N   0  0  0  0  0  0  0  0  0  0  0  0
  -13.1232    6.8556   14.5695 N   0  0  0  0  0  0  0  0  0  0  0  0
  -14.2849    5.7453   16.8583 O   0  0  0  0  0  0  0  0  0  0  0  0
  -13.0679    3.5114   18.1723 O   0  0  0  0  0  0  0  0  0  0  0  0
  -11.7388    1.6350   16.3410 O   0  0  0  0  0  0  0  0  0  0  0  0
  -13.1037    4.2885   21.1185 O   0  0  0  0  0  0  0  0  0  0  0  0
  -10.7946    3.1616   18.6840 O   0  0  0  0  0  0  0  0  0  0  0  0
   -9.7534    0.2890   20.8832 O   0  0  0  0  0  0  0  0  0  0  0  0
  -10.3659    4.5078   21.1559 O   0  0  0  0  0  0  0  0  0  0  0  0
   -8.4845    0.7293   13.4803 O   0  0  0  0  0  0  0  0  0  0  0  0
   -9.1140    3.6543   15.3430 O   0  0  0  0  0  0  0  0  0  0  0  0
   -8.6385    3.4819   22.5524 O   0  0  0  0  0  0  0  0  0  0  0  0
  -15.7668    7.3089   17.8933 O   0  0  0  0  0  0  0  0  0  0  0  0
  1 36  1  1  0  0  0
  2 36  1  1  0  0  0
  2  3  1  0  0  0  0
  3 37  1  1  0  0  0
  3  4  1  0  0  0  0
  4 38  1  6  0  0  0
  5 37  1  6  0  0  0
  5  6  1  0  0  0  0
  6  7  1  0  0  0  0
  6 39  1  1  0  0  0
  7 42  1  6  0  0  0
  8  9  1  6  0  0  0
  8  7  1  0  0  0  0
 10 42  1  6  0  0  0
 10 11  1  0  0  0  0
 11 31  1  6  0  0  0
 11 13  1  0  0  0  0
 12 30  1  6  0  0  0
 12  1  1  0  0  0  0
 14 13  1  0  0  0  0
 15 16  1  6  0  0  0
 15 14  1  0  0  0  0
 17 19  1  6  0  0  0
 17 28  1  0  0  0  0
 18 34  1  0  0  0  0
 19 32  1  0  0  0  0
 20 18  1  1  0  0  0
 20 17  1  0  0  0  0
 20 43  1  0  0  0  0
 21 12  1  0  0  0  0
 22 21  1  0  0  0  0
 22 23  1  0  0  0  0
 23 24  1  1  0  0  0
 23 46  1  0  0  0  0
 24 33  1  0  0  0  0
 25 34  1  6  0  0  0
 25  4  1  0  0  0  0
 26 25  1  0  0  0  0
 27 35  1  1  0  0  0
 27 26  1  0  0  0  0
 27  2  1  0  0  0  0
 29 16  1  0  0  0  0
 40  8  1  0  0  0  0
 40  5  1  0  0  0  0
 41  9  1  0  0  0  0
 44 18  2  0  0  0  0
 45 15  1  0  0  0  0
 45 10  1  0  0  0  0
 46  1  1  0  0  0  0
M  END
>  <CHROM.1>
-52.85625906,147.15027207,-72.84291060,-169.53164549,137.42845699,-65.39368799
165.36055307,87.45705428,52.42004609,69.96747020,135.82352009,58.73728763
-48.07376303,-11.04346298,4.14793033,18.16939869,1.66227066,-0.50411057,1.42832212

>  <Name>
lig.pdb

>  <RI>
0

>  <Rbt.Current_Directory>
/home/afrankz/demos/rdock_decoys_rna/rnas/3wru

>  <Rbt.Executable>
rbdock ($Id: //depot/dev/client3/rdock/2013.1/src/exe/rbdock.cxx#4 $)

>  <Rbt.Library>
libRbt.so (2013.1, Build901 2013/11/27)

>  <Rbt.Parameter_File>
/export/apps/rDock/src/rDock_2013.1_src/data/scripts/dock_solv.prm

>  <Rbt.Receptor>
prm/blind_docking_80.prm

>  <SCORE>
64.3708

>  <SCORE.INTER>
45.0418

>  <SCORE.INTER.CONST>
1

>  <SCORE.INTER.POLAR>
0

>  <SCORE.INTER.ROT>
13

>  <SCORE.INTER.SOLV>
33.9642

>  <SCORE.INTER.VDW>
6.43981

>  <SCORE.INTER.norm>
0.97917

>  <SCORE.INTRA>
5.13568

>  <SCORE.INTRA.DIHEDRAL>
0.383767

>  <SCORE.INTRA.DIHEDRAL.0>
19.7146

>  <SCORE.INTRA.POLAR>
0

>  <SCORE.INTRA.POLAR.0>
0

>  <SCORE.INTRA.REPUL>
0.0558237

>  <SCORE.INTRA.REPUL.0>
0

>  <SCORE.INTRA.SOLV>
4.38286

>  <SCORE.INTRA.SOLV.lig_0>
-116.697

>  <SCORE.INTRA.VDW>
2.47325

>  <SCORE.INTRA.VDW.0>
-7.06424

>  <SCORE.INTRA.norm>
0.111645

>  <SCORE.RESTR>
14.1933

>  <SCORE.RESTR.CAVITY>
14.1933

>  <SCORE.RESTR.norm>
0.30855

>  <SCORE.SYSTEM>
0

>  <SCORE.SYSTEM.CONST>
0

>  <SCORE.SYSTEM.DIHEDRAL>
0

>  <SCORE.SYSTEM.SOLV>
0

>  <SCORE.SYSTEM.norm>
0

>  <SCORE.heavy>
46

>  <SCORE.norm>
1.39936

>  <RMSD>
32.217

$$$$
lig.pdb
 OpenBabel03061811583D
libRbt.so/2013.1/901 2013/11/27
 46 49  0  0  0  0  0  0  0  0999 V2000
   -9.6561    2.2559   20.1645 C   0  0  1  0  0  0  0  0  0  0  0  0
  -11.0459    4.3495   19.8593 C   0  0  1  0  0  0  0  0  0  0  0  0
  -11.6239    3.9935   18.4561 C   0  0  1  0  0  0  0  0  0  0  0  0
  -12.0668    5.3561   17.7144 C   0  0  2  0  0  0  0  0  0  0  0  0
  -10.6109    2.6110   16.5853 C   0  0  2  0  0  0  0  0  0  0  0  0
   -9.2469    2.0127   16.1377 C   0  0  1  0  0  0  0  0  0  0  0  0
   -9.7827    0.8654   15.3158 C   0  0  1  0  0  0  0  0  0  0  0  0
  -10.8995    0.2292   16.2030 C   0  0  1  0  0  0  0  0  0  0  0  0
  -10.4348   -0.7750   17.3154 C   0  0  0  0  0  0  0  0  0  0  0  0
   -9.4589    1.5736   12.9754 C   0  0  1  0  0  0  0  0  0  0  0  0
   -9.4125    0.4226   12.0152 C   0  0  1  0  0  0  0  0  0  0  0  0
   -9.8633    0.8706   20.8211 C   0  0  1  0  0  0  0  0  0  0  0  0
   -8.3236    0.7264   10.9260 C   0  0  0  0  0  0  0  0  0  0  0  0
   -6.9947    0.9020   11.4378 C   0  0  0  0  0  0  0  0  0  0  0  0
   -6.9922    2.0303   12.3444 C   0  0  2  0  0  0  0  0  0  0  0  0
   -5.5527    2.2683   12.9494 C   0  0  0  0  0  0  0  0  0  0  0  0
  -14.6592   10.4133   18.4855 C   0  0  2  0  0  0  0  0  0  0  0  0
  -14.7116    8.0595   18.5842 C   0  0  0  0  0  0  0  0  0  0  0  0
  -14.9527   11.5894   17.8216 C   0  0  0  0  0  0  0  0  0  0  0  0
  -15.0263    9.3672   17.7044 C   0  0  1  0  0  0  0  0  0  0  0  0
   -9.6622    0.9501   22.4026 C   0  0  0  0  0  0  0  0  0  0  0  0
   -8.1853    1.5039   22.6928 C   0  0  0  0  0  0  0  0  0  0  0  0
   -8.0577    2.9447   22.0119 C   0  0  1  0  0  0  0  0  0  0  0  0
   -6.6679    3.5568   22.2242 C   0  0  0  0  0  0  0  0  0  0  0  0
  -13.2201    6.0339   18.5753 C   0  0  1  0  0  0  0  0  0  0  0  0
  -12.5561    6.4014   20.0071 C   0  0  0  0  0  0  0  0  0  0  0  0
  -12.0888    5.0840   20.7378 C   0  0  2  0  0  0  0  0  0  0  0  0
  -15.3089   10.4127   19.7768 F   0  0  0  0  0  0  0  0  0  0  0  0
   -4.4518    2.4269   11.8617 N   0  0  0  0  0  0  0  0  0  0  0  0
  -11.2385    0.3734   20.4456 N   0  0  0  0  0  0  0  0  0  0  0  0
   -9.0292   -0.7905   12.5939 N   0  0  0  0  0  0  0  0  0  0  0  0
  -14.3466   12.2095   16.7038 N   0  0  0  0  0  0  0  0  0  0  0  0
   -6.5403    4.7789   21.5304 N   0  0  0  0  0  0  0  0  0  0  0  0
  -13.6637    7.2790   17.9231 N   0  0  0  0  0  0  0  0  0  0  0  0
  -11.4685    5.4052   22.0422 N   0  0  0  0  0  0  0  0  0  0  0  0
  -10.6811    3.1678   20.5607 O   0  0  0  0  0  0  0  0  0  0  0  0
  -10.5311    3.2913   17.7041 O   0  0  0  0  0  0  0  0  0  0  0  0
  -12.5733    5.0154   16.4801 O   0  0  0  0  0  0  0  0  0  0  0  0
   -8.5678    2.9791   15.3947 O   0  0  0  0  0  0  0  0  0  0  0  0
  -11.5254    1.4584   16.6066 O   0  0  0  0  0  0  0  0  0  0  0  0
  -11.6096   -1.4590   17.7951 O   0  0  0  0  0  0  0  0  0  0  0  0
  -10.3478    1.4065   14.0150 O   0  0  0  0  0  0  0  0  0  0  0  0
  -16.4265    9.3900   17.3508 O   0  0  0  0  0  0  0  0  0  0  0  0
  -15.2681    7.7809   19.6591 O   0  0  0  0  0  0  0  0  0  0  0  0
   -8.0045    1.8214   13.4459 O   0  0  0  0  0  0  0  0  0  0  0  0
   -8.3151    2.8325   20.5181 O   0  0  0  0  0  0  0  0  0  0  0  0
  1 36  1  1  0  0  0
  2 36  1  1  0  0  0
  2  3  1  0  0  0  0
  3 37  1  6  0  0  0
  3  4  1  0  0  0  0
  4 38  1  6  0  0  0
  5 37  1  1  0  0  0
  5  6  1  0  0  0  0
  6  7  1  0  0  0  0
  6 39  1  6  0  0  0
  7 42  1  6  0  0  0
  8  9  1  1  0  0  0
  8  7  1  0  0  0  0
 10 42  1  1  0  0  0
 10 11  1  0  0  0  0
 11 31  1  1  0  0  0
 11 13  1  0  0  0  0
 12 30  1  1  0  0  0
 12  1  1  0  0  0  0
 14 13  1  0  0  0  0
 15 16  1  1  0  0  0
 15 14  1  0  0  0  0
 17 19  1  6  0  0  0
 17 28  1  0  0  0  0
 18 34  1  0  0  0  0
 19 32  1  0  0  0  0
 20 18  1  1  0  0  0
 20 17  1  0  0  0  0
 20 43  1  0  0  0  0
 21 12  1  0  0  0  0
 22 21  1  0  0  0  0
 22 23  1  0  0  0  0
 23 24  1  6  0  0  0
 23 46  1  0  0  0  0
 24 33  1  0  0  0  0
 25 34  1  6  0  0  0
 25  4  1  0  0  0  0
 26 25  1  0  0  0  0
 27 35  1  1  0  0  0
 27 26  1  0  0  0  0
 27  2  1  0  0  0  0
 29 16  1  0  0  0  0
 40  8  1  0  0  0  0
 40  5  1  0  0  0  0
 41  9  1  0  0  0  0
 44 18  2  0  0  0  0
 45 15  1  0  0  0  0
 45 10  1  0  0  0  0
 46  1  1  0  0  0  0
M  END
>  <CHROM.1>
-159.22172604,64.30927475,167.23236004,-179.06989954,86.07621676,-167.18737765
95.58658487,54.53238327,-72.43699173,-115.48437245,-177.42826748,175.44667467
-179.01588971,-10.72683851,3.84346009,17.50448008,-0.39822608,-0.93256679
1.63259075

>  <Name>
lig.pdb

>  <RI>
0

>  <Rbt.Current_Directory>
/home/afrankz/demos/rdock_decoys_rna/rnas/3wru

>  <Rbt.Executable>
rbdock ($Id: //depot/dev/client3/rdock/2013.1/src/exe/rbdock.cxx#4 $)

>  <Rbt.Library>
libRbt.so (2013.1, Build901 2013/11/27)

>  <Rbt.Parameter_File>
/export/apps/rDock/src/rDock_2013.1_src/data/scripts/dock_solv.prm

>  <Rbt.Receptor>
prm/blind_docking_40.prm

>  <SCORE>
6.05118

>  <SCORE.INTER>
1.23593

>  <SCORE.INTER.CONST>
1

>  <SCORE.INTER.POLAR>
0

>  <SCORE.INTER.ROT>
13

>  <SCORE.INTER.SOLV>
35.1698

>  <SCORE.INTER.VDW>
-23.166

>  <SCORE.INTER.norm>
0.0268681

>  <SCORE.INTRA>
1.45627

>  <SCORE.INTRA.DIHEDRAL>
-5.55669

>  <SCORE.INTRA.DIHEDRAL.0>
19.7146

>  <SCORE.INTRA.POLAR>
0

>  <SCORE.INTRA.POLAR.0>
0

>  <SCORE.INTRA.REPUL>
0

>  <SCORE.INTRA.REPUL.0>
0

>  <SCORE.INTRA.SOLV>
0.454962

>  <SCORE.INTRA.SOLV.lig_0>
-116.697

>  <SCORE.INTRA.VDW>
4.00713

>  <SCORE.INTRA.VDW.0>
-7.06424

>  <SCORE.INTRA.norm>
0.031658

>  <SCORE.RESTR>
3.35898

>  <SCORE.RESTR.CAVITY>
3.35898

>  <SCORE.RESTR.norm>
0.0730212

>  <SCORE.SYSTEM>
0

>  <SCORE.SYSTEM.CONST>
0

>  <SCORE.SYSTEM.DIHEDRAL>
0

>  <SCORE.SYSTEM.SOLV>
0

>  <SCORE.SYSTEM.norm>
0

>  <SCORE.heavy>
46

>  <SCORE.norm>
0.131547

>  <RMSD>
32.273

$$$$
lig.pdb
 OpenBabel03061811583D
libRbt.so/2013.1/901 2013/11/27
 46 49  0  0  0  0  0  0  0  0999 V2000
  -10.5230    3.0556   20.5604 C   0  0  1  0  0  0  0  0  0  0  0  0
  -11.4646    4.6554   18.8394 C   0  0  1  0  0  0  0  0  0  0  0  0
  -11.8832    4.6067   17.3387 C   0  0  1  0  0  0  0  0  0  0  0  0
  -12.6247    5.9885   16.9598 C   0  0  2  0  0  0  0  0  0  0  0  0
  -10.0100    3.3129   16.2182 C   0  0  2  0  0  0  0  0  0  0  0  0
  -10.9878    2.1856   15.7803 C   0  0  1  0  0  0  0  0  0  0  0  0
  -10.0277    1.4003   14.9198 C   0  0  1  0  0  0  0  0  0  0  0  0
   -9.3038    2.4762   14.0494 C   0  0  1  0  0  0  0  0  0  0  0  0
  -10.0576    2.9746   12.7668 C   0  0  0  0  0  0  0  0  0  0  0  0
   -8.1969   -0.2293   15.1962 C   0  0  1  0  0  0  0  0  0  0  0  0
   -6.8730    0.3582   14.8077 C   0  0  1  0  0  0  0  0  0  0  0  0
   -9.3997    1.9921   20.5815 C   0  0  1  0  0  0  0  0  0  0  0  0
   -6.0360   -0.7455   14.0690 C   0  0  0  0  0  0  0  0  0  0  0  0
   -6.6389   -1.2551   12.8709 C   0  0  0  0  0  0  0  0  0  0  0  0
   -7.9070   -1.8636   13.2123 C   0  0  2  0  0  0  0  0  0  0  0  0
   -8.6250   -2.4368   11.9274 C   0  0  0  0  0  0  0  0  0  0  0  0
  -15.0745   10.6909   18.6232 C   0  0  2  0  0  0  0  0  0  0  0  0
  -14.1407    8.5970   18.0789 C   0  0  0  0  0  0  0  0  0  0  0  0
  -15.6478   10.0780   19.7213 C   0  0  0  0  0  0  0  0  0  0  0  0
  -15.0675    9.8149   17.5879 C   0  0  1  0  0  0  0  0  0  0  0  0
   -9.8998    0.6175   19.9426 C   0  0  0  0  0  0  0  0  0  0  0  0
  -11.1772    0.1147   20.7718 C   0  0  0  0  0  0  0  0  0  0  0  0
  -12.3010    1.2481   20.6791 C   0  0  1  0  0  0  0  0  0  0  0  0
  -13.5661    0.8642   21.4558 C   0  0  0  0  0  0  0  0  0  0  0  0
  -13.9418    6.1003   17.8451 C   0  0  1  0  0  0  0  0  0  0  0  0
  -13.4439    6.1709   19.3856 C   0  0  0  0  0  0  0  0  0  0  0  0
  -12.6896    4.8397   19.7691 C   0  0  2  0  0  0  0  0  0  0  0  0
  -13.7554   11.1689   18.9710 F   0  0  0  0  0  0  0  0  0  0  0  0
  -10.0633   -2.9565   12.2125 N   0  0  0  0  0  0  0  0  0  0  0  0
   -8.2037    2.5573   19.8538 N   0  0  0  0  0  0  0  0  0  0  0  0
   -6.9614    1.4219   13.9054 N   0  0  0  0  0  0  0  0  0  0  0  0
  -15.0841    9.2982   20.7583 N   0  0  0  0  0  0  0  0  0  0  0  0
  -14.4870    1.9329   21.4858 N   0  0  0  0  0  0  0  0  0  0  0  0
  -14.6580    7.3465   17.5190 N   0  0  0  0  0  0  0  0  0  0  0  0
  -12.2177    4.8950   21.1704 N   0  0  0  0  0  0  0  0  0  0  0  0
  -10.8422    3.4355   19.2214 O   0  0  0  0  0  0  0  0  0  0  0  0
  -10.6226    4.4263   16.5441 O   0  0  0  0  0  0  0  0  0  0  0  0
  -12.9842    5.9205   15.6323 O   0  0  0  0  0  0  0  0  0  0  0  0
  -11.4150    1.5085   16.9233 O   0  0  0  0  0  0  0  0  0  0  0  0
   -9.0520    3.4173   15.1062 O   0  0  0  0  0  0  0  0  0  0  0  0
   -9.6851    2.1008   11.6824 O   0  0  0  0  0  0  0  0  0  0  0  0
   -9.0499    0.6595   15.8138 O   0  0  0  0  0  0  0  0  0  0  0  0
  -16.3838    9.3212   17.2564 O   0  0  0  0  0  0  0  0  0  0  0  0
  -13.1400    8.7190   18.8044 O   0  0  0  0  0  0  0  0  0  0  0  0
   -8.7952   -0.8661   13.9179 O   0  0  0  0  0  0  0  0  0  0  0  0
  -11.7632    2.5532   21.2427 O   0  0  0  0  0  0  0  0  0  0  0  0
  1 36  1  6  0  0  0
  2 36  1  1  0  0  0
  2  3  1  0  0  0  0
  3 37  1  6  0  0  0
  3  4  1  0  0  0  0
  4 38  1  6  0  0  0
  5 37  1  6  0  0  0
  5  6  1  0  0  0  0
  6  7  1  0  0  0  0
  6 39  1  1  0  0  0
  7 42  1  1  0  0  0
  8  9  1  6  0  0  0
  8  7  1  0  0  0  0
 10 42  1  6  0  0  0
 10 11  1  0  0  0  0
 11 31  1  6  0  0  0
 11 13  1  0  0  0  0
 12 30  1  6  0  0  0
 12  1  1  0  0  0  0
 14 13  1  0  0  0  0
 15 16  1  6  0  0  0
 15 14  1  0  0  0  0
 17 19  1  1  0  0  0
 17 28  1  0  0  0  0
 18 34  1  0  0  0  0
 19 32  1  0  0  0  0
 20 18  1  1  0  0  0
 20 17  1  0  0  0  0
 20 43  1  0  0  0  0
 21 12  1  0  0  0  0
 22 21  1  0  0  0  0
 22 23  1  0  0  0  0
 23 24  1  1  0  0  0
 23 46  1  0  0  0  0
 24 33  1  0  0  0  0
 25 34  1  6  0  0  0
 25  4  1  0  0  0  0
 26 25  1  0  0  0  0
 27 35  1  1  0  0  0
 27 26  1  0  0  0  0
 27  2  1  0  0  0  0
 29 16  1  0  0  0  0
 40  8  1  0  0  0  0
 40  5  1  0  0  0  0
 41  9  1  0  0  0  0
 44 18  2  0  0  0  0
 45 15  1  0  0  0  0
 45 10  1  0  0  0  0
 46  1  1  0  0  0  0
M  END
>  <CHROM.1>
-157.59916053,-169.80410883,86.94913914,41.58666393,172.81944791,-89.10175996
92.85753626,-173.43246750,89.05197959,146.00769144,-62.43476589,173.55366357
-77.69589727,-11.24682252,3.58069188,17.20511533,-3.11590212,1.03198005,-1.07694270

>  <Name>
lig.pdb

>  <RI>
0

>  <Rbt.Current_Directory>
/home/afrankz/demos/rdock_decoys_rna/rnas/3wru

>  <Rbt.Executable>
rbdock ($Id: //depot/dev/client3/rdock/2013.1/src/exe/rbdock.cxx#4 $)

>  <Rbt.Library>
libRbt.so (2013.1, Build901 2013/11/27)

>  <Rbt.Parameter_File>
/export/apps/rDock/src/rDock_2013.1_src/data/scripts/dock_solv.prm

>  <Rbt.Receptor>
prm/blind_docking_40.prm

>  <SCORE>
28.2757

>  <SCORE.INTER>
10.3712

>  <SCORE.INTER.CONST>
1

>  <SCORE.INTER.POLAR>
0

>  <SCORE.INTER.ROT>
13

>  <SCORE.INTER.SOLV>
31.0807

>  <SCORE.INTER.VDW>
-15.7128

>  <SCORE.INTER.norm>
0.225461

>  <SCORE.INTRA>
15.1535

>  <SCORE.INTRA.DIHEDRAL>
-0.47434

>  <SCORE.INTRA.DIHEDRAL.0>
19.7146

>  <SCORE.INTRA.POLAR>
0

>  <SCORE.INTRA.POLAR.0>
0

>  <SCORE.INTRA.REPUL>
0

>  <SCORE.INTRA.REPUL.0>
0

>  <SCORE.INTRA.SOLV>
9.22449

>  <SCORE.INTRA.SOLV.lig_0>
-116.697

>  <SCORE.INTRA.VDW>
10.7784

>  <SCORE.INTRA.VDW.0>
-7.06424

>  <SCORE.INTRA.norm>
0.329424

>  <SCORE.RESTR>
2.75096

>  <SCORE.RESTR.CAVITY>
2.75096

>  <SCORE.RESTR.norm>
0.0598035

>  <SCORE.SYSTEM>
0

>  <SCORE.SYSTEM.CONST>
0

>  <SCORE.SYSTEM.DIHEDRAL>
0

>  <SCORE.SYSTEM.SOLV>
0

>  <SCORE.SYSTEM.norm>
0

>  <SCORE.heavy>
46

>  <SCORE.norm>
0.614688

>  <RMSD>
32.287

$$$$
lig.pdb
 OpenBabel03061811583D
libRbt.so/2013.1/901 2013/11/27
 46 49  0  0  0  0  0  0  0  0999 V2000
   -9.6503    2.5090   20.4960 C   0  0  1  0  0  0  0  0  0  0  0  0
  -11.0010    4.6171   20.1227 C   0  0  1  0  0  0  0  0  0  0  0  0
  -11.5127    4.1471   18.7273 C   0  0  1  0  0  0  0  0  0  0  0  0
  -12.0079    5.4361   17.8930 C   0  0  2  0  0  0  0  0  0  0  0  0
  -10.3518    2.3489   17.3647 C   0  0  2  0  0  0  0  0  0  0  0  0
  -11.1228    2.4553   16.0183 C   0  0  1  0  0  0  0  0  0  0  0  0
  -10.4015    1.3550   15.2781 C   0  0  1  0  0  0  0  0  0  0  0  0
   -8.8883    1.6030   15.5747 C   0  0  1  0  0  0  0  0  0  0  0  0
   -8.1612    2.6807   14.6963 C   0  0  0  0  0  0  0  0  0  0  0  0
  -10.9030   -1.0326   14.9159 C   0  0  1  0  0  0  0  0  0  0  0  0
  -11.3510   -2.3356   15.5080 C   0  0  1  0  0  0  0  0  0  0  0  0
  -10.1613    1.0884   20.8335 C   0  0  1  0  0  0  0  0  0  0  0  0
  -11.2960   -3.4358   14.3896 C   0  0  0  0  0  0  0  0  0  0  0  0
   -9.9949   -3.6544   13.8256 C   0  0  0  0  0  0  0  0  0  0  0  0
   -9.5429   -2.4241   13.2115 C   0  0  2  0  0  0  0  0  0  0  0  0
   -8.1064   -2.6007   12.5789 C   0  0  0  0  0  0  0  0  0  0  0  0
  -14.5646   10.4060   18.1748 C   0  0  2  0  0  0  0  0  0  0  0  0
  -14.7509    8.0913   18.5753 C   0  0  0  0  0  0  0  0  0  0  0  0
  -14.7905   11.5013   17.3628 C   0  0  0  0  0  0  0  0  0  0  0  0
  -15.1247    9.3128   17.5999 C   0  0  1  0  0  0  0  0  0  0  0  0
  -10.2353    0.8661   22.4124 C   0  0  0  0  0  0  0  0  0  0  0  0
   -8.7711    1.1055   23.0215 C   0  0  0  0  0  0  0  0  0  0  0  0
   -8.3257    2.5976   22.6592 C   0  0  1  0  0  0  0  0  0  0  0  0
   -6.9243    2.9213   23.1910 C   0  0  0  0  0  0  0  0  0  0  0  0
  -13.2247    6.0943   18.6784 C   0  0  1  0  0  0  0  0  0  0  0  0
  -12.6288    6.5824   20.1041 C   0  0  0  0  0  0  0  0  0  0  0  0
  -12.1114    5.3392   20.9254 C   0  0  2  0  0  0  0  0  0  0  0  0
  -15.0751   10.6742   19.5004 F   0  0  0  0  0  0  0  0  0  0  0  0
   -7.5498   -1.2899   11.9526 N   0  0  0  0  0  0  0  0  0  0  0  0
  -11.5034    0.9012   20.1679 N   0  0  0  0  0  0  0  0  0  0  0  0
  -10.5302   -2.8100   16.5350 N   0  0  0  0  0  0  0  0  0  0  0  0
  -14.4003   12.8553   17.4877 N   0  0  0  0  0  0  0  0  0  0  0  0
   -6.8785    2.8157   24.5974 N   0  0  0  0  0  0  0  0  0  0  0  0
  -13.7169    7.2714   17.9404 N   0  0  0  0  0  0  0  0  0  0  0  0
  -11.5524    5.7714   22.2255 N   0  0  0  0  0  0  0  0  0  0  0  0
  -10.5926    3.5015   20.9037 O   0  0  0  0  0  0  0  0  0  0  0  0
  -10.3583    3.4673   18.0503 O   0  0  0  0  0  0  0  0  0  0  0  0
  -12.4545    4.9952   16.6673 O   0  0  0  0  0  0  0  0  0  0  0  0
  -12.4706    2.1900   16.2637 O   0  0  0  0  0  0  0  0  0  0  0  0
   -9.0226    1.8445   16.9852 O   0  0  0  0  0  0  0  0  0  0  0  0
   -8.3564    2.3135   13.3161 O   0  0  0  0  0  0  0  0  0  0  0  0
  -10.8596    0.0110   15.8147 O   0  0  0  0  0  0  0  0  0  0  0  0
  -16.5601    9.4130   17.4744 O   0  0  0  0  0  0  0  0  0  0  0  0
  -15.2579    7.8993   19.6928 O   0  0  0  0  0  0  0  0  0  0  0  0
   -9.5451   -1.3011   14.2217 O   0  0  0  0  0  0  0  0  0  0  0  0
   -8.3265    2.7828   21.1506 O   0  0  0  0  0  0  0  0  0  0  0  0
  1 36  1  1  0  0  0
  2 36  1  1  0  0  0
  2  3  1  0  0  0  0
  3 37  1  6  0  0  0
  3  4  1  0  0  0  0
  4 38  1  6  0  0  0
  5 37  1  6  0  0  0
  5  6  1  0  0  0  0
  6  7  1  0  0  0  0
  6 39  1  1  0  0  0
  7 42  1  1  0  0  0
  8  9  1  6  0  0  0
  8  7  1  0  0  0  0
 10 42  1  1  0  0  0
 10 11  1  0  0  0  0
 11 31  1  1  0  0  0
 11 13  1  0  0  0  0
 12 30  1  1  0  0  0
 12  1  1  0  0  0  0
 14 13  1  0  0  0  0
 15 16  1  1  0  0  0
 15 14  1  0  0  0  0
 17 19  1  6  0  0  0
 17 28  1  0  0  0  0
 18 34  1  0  0  0  0
 19 32  1  0  0  0  0
 20 18  1  1  0  0  0
 20 17  1  0  0  0  0
 20 43  1  0  0  0  0
 21 12  1  0  0  0  0
 22 21  1  0  0  0  0
 22 23  1  0  0  0  0
 23 24  1  6  0  0  0
 23 46  1  0  0  0  0
 24 33  1  0  0  0  0
 25 34  1  6  0  0  0
 25  4  1  0  0  0  0
 26 25  1  0  0  0  0
 27 35  1  1  0  0  0
 27 26  1  0  0  0  0
 27  2  1  0  0  0  0
 29 16  1  0  0  0  0
 40  8  1  0  0  0  0
 40  5  1  0  0  0  0
 41  9  1  0  0  0  0
 44 18  2  0  0  0  0
 45 15  1  0  0  0  0
 45 10  1  0  0  0  0
 46  1  1  0  0  0  0
M  END
>  <CHROM.1>
-134.98371902,53.88871219,136.63835822,68.17790002,147.20867445,-55.01901339
179.47677371,-177.78078006,-178.63358003,-106.47378972,177.40265090,-60.91753310
-174.00176818,-11.12860337,3.32800851,17.92744310,-0.77652642,-0.98583205
1.05987673

>  <Name>
lig.pdb

>  <RI>
0

>  <Rbt.Current_Directory>
/home/afrankz/demos/rdock_decoys_rna/rnas/3wru

>  <Rbt.Executable>
rbdock ($Id: //depot/dev/client3/rdock/2013.1/src/exe/rbdock.cxx#4 $)

>  <Rbt.Library>
libRbt.so (2013.1, Build901 2013/11/27)

>  <Rbt.Parameter_File>
/export/apps/rDock/src/rDock_2013.1_src/data/scripts/dock_solv.prm

>  <Rbt.Receptor>
prm/blind_docking_40.prm

>  <SCORE>
-0.292212

>  <SCORE.INTER>
-4.61707

>  <SCORE.INTER.CONST>
1

>  <SCORE.INTER.POLAR>
0

>  <SCORE.INTER.ROT>
13

>  <SCORE.INTER.SOLV>
31.3162

>  <SCORE.INTER.VDW>
-25.7834

>  <SCORE.INTER.norm>
-0.100371

>  <SCORE.INTRA>
1.39147

>  <SCORE.INTRA.DIHEDRAL>
-0.475587

>  <SCORE.INTRA.DIHEDRAL.0>
19.7146

>  <SCORE.INTRA.POLAR>
0

>  <SCORE.INTRA.POLAR.0>
0

>  <SCORE.INTRA.REPUL>
0.00661229

>  <SCORE.INTRA.REPUL.0>
0

>  <SCORE.INTRA.SOLV>
-1.13369

>  <SCORE.INTRA.SOLV.lig_0>
-116.697

>  <SCORE.INTRA.VDW>
2.16304

>  <SCORE.INTRA.VDW.0>
-7.06424

>  <SCORE.INTRA.norm>
0.0302493

>  <SCORE.RESTR>
2.93339

>  <SCORE.RESTR.CAVITY>
2.93339

>  <SCORE.RESTR.norm>
0.0637694

>  <SCORE.SYSTEM>
0

>  <SCORE.SYSTEM.CONST>
0

>  <SCORE.SYSTEM.DIHEDRAL>
0

>  <SCORE.SYSTEM.SOLV>
0

>  <SCORE.SYSTEM.norm>
0

>  <SCORE.heavy>
46

>  <SCORE.norm>
-0.00635242

>  <RMSD>
32.301

$$$$
lig.pdb
 OpenBabel03061811583D
libRbt.so/2013.1/901 2013/11/27
 46 49  0  0  0  0  0  0  0  0999 V2000
  -10.1808    1.5663   15.6542 C   0  0  1  0  0  0  0  0  0  0  0  0
  -12.3999    2.7530   15.9282 C   0  0  1  0  0  0  0  0  0  0  0  0
  -11.9982    2.8483   17.4313 C   0  0  1  0  0  0  0  0  0  0  0  0
  -13.0140    3.8543   18.1790 C   0  0  2  0  0  0  0  0  0  0  0  0
  -11.8805    1.0550   19.2224 C   0  0  2  0  0  0  0  0  0  0  0  0
  -13.1673    0.5296   19.9201 C   0  0  1  0  0  0  0  0  0  0  0  0
  -12.5026   -0.3816   20.9234 C   0  0  1  0  0  0  0  0  0  0  0  0
  -11.4325   -1.1659   20.0994 C   0  0  1  0  0  0  0  0  0  0  0  0
  -11.9353   -2.4121   19.2895 C   0  0  0  0  0  0  0  0  0  0  0  0
  -10.7102    1.1402   21.6685 C   0  0  1  0  0  0  0  0  0  0  0  0
   -9.4853    0.6869   22.4054 C   0  0  1  0  0  0  0  0  0  0  0  0
   -9.2077    2.7489   15.4355 C   0  0  1  0  0  0  0  0  0  0  0  0
   -8.2757    1.5824   21.9590 C   0  0  0  0  0  0  0  0  0  0  0  0
   -8.4343    2.9830   22.2267 C   0  0  0  0  0  0  0  0  0  0  0  0
   -9.5901    3.4659   21.5015 C   0  0  2  0  0  0  0  0  0  0  0  0
   -9.8221    5.0059   21.7650 C   0  0  0  0  0  0  0  0  0  0  0  0
  -13.7890    9.5948   19.5677 C   0  0  2  0  0  0  0  0  0  0  0  0
  -13.1738    7.4824   18.7239 C   0  0  0  0  0  0  0  0  0  0  0  0
  -14.8021   10.5063   19.7975 C   0  0  0  0  0  0  0  0  0  0  0  0
  -14.3374    8.3669   19.3923 C   0  0  1  0  0  0  0  0  0  0  0  0
   -9.0020    3.0416   13.8799 C   0  0  0  0  0  0  0  0  0  0  0  0
   -8.4426    1.7070   13.1884 C   0  0  0  0  0  0  0  0  0  0  0  0
   -9.5114    0.5428   13.4301 C   0  0  1  0  0  0  0  0  0  0  0  0
   -9.0591   -0.7861   12.8130 C   0  0  0  0  0  0  0  0  0  0  0  0
  -12.8528    5.2950   17.5239 C   0  0  1  0  0  0  0  0  0  0  0  0
  -13.3053    5.1385   15.9757 C   0  0  0  0  0  0  0  0  0  0  0  0
  -12.3418    4.1353   15.2320 C   0  0  2  0  0  0  0  0  0  0  0  0
  -12.8405    9.6422   20.6575 F   0  0  0  0  0  0  0  0  0  0  0  0
  -11.3013    5.4437   21.5639 N   0  0  0  0  0  0  0  0  0  0  0  0
   -9.7517    3.9480   16.1741 N   0  0  0  0  0  0  0  0  0  0  0  0
   -9.5641    0.8357   23.7929 N   0  0  0  0  0  0  0  0  0  0  0  0
  -15.6636   10.6886   20.9048 N   0  0  0  0  0  0  0  0  0  0  0  0
   -7.9259   -1.2963   13.4812 N   0  0  0  0  0  0  0  0  0  0  0  0
  -13.7569    6.2499   18.1895 N   0  0  0  0  0  0  0  0  0  0  0  0
  -12.7508    3.9727   13.8193 N   0  0  0  0  0  0  0  0  0  0  0  0
  -11.5006    1.9044   15.2264 O   0  0  0  0  0  0  0  0  0  0  0  0
  -12.0915    1.4593   17.9923 O   0  0  0  0  0  0  0  0  0  0  0  0
  -12.6385    3.9216   19.5021 O   0  0  0  0  0  0  0  0  0  0  0  0
  -13.8319    1.6169   20.4887 O   0  0  0  0  0  0  0  0  0  0  0  0
  -10.9103   -0.0410   19.3731 O   0  0  0  0  0  0  0  0  0  0  0  0
  -10.9227   -2.7274   18.3130 O   0  0  0  0  0  0  0  0  0  0  0  0
  -11.8590    0.4604   22.0103 O   0  0  0  0  0  0  0  0  0  0  0  0
  -14.7626    7.7558   20.6300 O   0  0  0  0  0  0  0  0  0  0  0  0
  -11.9787    7.8155   18.6657 O   0  0  0  0  0  0  0  0  0  0  0  0
  -10.8174    2.6705   21.8796 O   0  0  0  0  0  0  0  0  0  0  0  0
   -9.7210    0.3384   14.9216 O   0  0  0  0  0  0  0  0  0  0  0  0
  1 36  1  6  0  0  0
  2 36  1  6  0  0  0
  2  3  1  0  0  0  0
  3 37  1  1  0  0  0
  3  4  1  0  0  0  0
  4 38  1  1  0  0  0
  5 37  1  6  0  0  0
  5  6  1  0  0  0  0
  6  7  1  0  0  0  0
  6 39  1  1  0  0  0
  7 42  1  1  0  0  0
  8  9  1  6  0  0  0
  8  7  1  0  0  0  0
 10 42  1  1  0  0  0
 10 11  1  0  0  0  0
 11 31  1  1  0  0  0
 11 13  1  0  0  0  0
 12 30  1  1  0  0  0
 12  1  1  0  0  0  0
 14 13  1  0  0  0  0
 15 16  1  1  0  0  0
 15 14  1  0  0  0  0
 17 19  1  1  0  0  0
 17 28  1  0  0  0  0
 18 34  1  0  0  0  0
 19 32  1  0  0  0  0
 20 18  1  1  0  0  0
 20 17  1  0  0  0  0
 20 43  1  0  0  0  0
 21 12  1  0  0  0  0
 22 21  1  0  0  0  0
 22 23  1  0  0  0  0
 23 24  1  1  0  0  0
 23 46  1  0  0  0  0
 24 33  1  0  0  0  0
 25 34  1  1  0  0  0
 25  4  1  0  0  0  0
 26 25  1  0  0  0  0
 27 35  1  6  0  0  0
 27 26  1  0  0  0  0
 27  2  1  0  0  0  0
 29 16  1  0  0  0  0
 40  8  1  0  0  0  0
 40  5  1  0  0  0  0
 41  9  1  0  0  0  0
 44 18  2  0  0  0  0
 45 15  1  0  0  0  0
 45 10  1  0  0  0  0
 46  1  1  0  0  0  0
M  END
>  <CHROM.1>
-75.12901669,-20.82685677,-178.10689446,113.54659879,-73.27349238,162.85338166
-115.13994640,-154.84723991,70.11243240,-165.94665221,164.10290782,67.15389337
126.43536564,-11.51947942,3.18967245,18.52791782,0.16853907,1.18715475,-1.34966247

>  <Name>
lig.pdb

>  <RI>
0

>  <Rbt.Current_Directory>
/home/afrankz/demos/rdock_decoys_rna/rnas/3wru

>  <Rbt.Executable>
rbdock ($Id: //depot/dev/client3/rdock/2013.1/src/exe/rbdock.cxx#4 $)

>  <Rbt.Library>
libRbt.so (2013.1, Build901 2013/11/27)

>  <Rbt.Parameter_File>
/export/apps/rDock/src/rDock_2013.1_src/data/scripts/dock_solv.prm

>  <Rbt.Receptor>
prm/blind_docking_100.prm

>  <SCORE>
19.1054

>  <SCORE.INTER>
3.87664

>  <SCORE.INTER.CONST>
1

>  <SCORE.INTER.POLAR>
0

>  <SCORE.INTER.ROT>
13

>  <SCORE.INTER.SOLV>
39.4309

>  <SCORE.INTER.VDW>
-22.8259

>  <SCORE.INTER.norm>
0.0842747

>  <SCORE.INTRA>
13.0846

>  <SCORE.INTRA.DIHEDRAL>
8.15289

>  <SCORE.INTRA.DIHEDRAL.0>
19.7146

>  <SCORE.INTRA.POLAR>
0

>  <SCORE.INTRA.POLAR.0>
0

>  <SCORE.INTRA.REPUL>
0

>  <SCORE.INTRA.REPUL.0>
0

>  <SCORE.INTRA.SOLV>
8.07817

>  <SCORE.INTRA.SOLV.lig_0>
-116.697

>  <SCORE.INTRA.VDW>
4.96904

>  <SCORE.INTRA.VDW.0>
-7.06424

>  <SCORE.INTRA.norm>
0.284447

>  <SCORE.RESTR>
2.14424

>  <SCORE.RESTR.CAVITY>
2.14424

>  <SCORE.RESTR.norm>
0.0466139

>  <SCORE.SYSTEM>
0

>  <SCORE.SYSTEM.CONST>
0

>  <SCORE.SYSTEM.DIHEDRAL>
0

>  <SCORE.SYSTEM.SOLV>
0

>  <SCORE.SYSTEM.norm>
0

>  <SCORE.heavy>
46

>  <SCORE.norm>
0.415336

>  <RMSD>
32.323

$$$$
lig.pdb
 OpenBabel03061811583D
libRbt.so/2013.1/901 2013/11/27
 46 49  0  0  0  0  0  0  0  0999 V2000
  -10.2442    3.0578   20.9782 C   0  0  1  0  0  0  0  0  0  0  0  0
  -11.0900    4.5313   19.1018 C   0  0  1  0  0  0  0  0  0  0  0  0
  -11.6963    4.2377   17.6961 C   0  0  1  0  0  0  0  0  0  0  0  0
  -12.4968    5.5442   17.1910 C   0  0  2  0  0  0  0  0  0  0  0  0
  -10.4844    3.0289   15.8231 C   0  0  2  0  0  0  0  0  0  0  0  0
   -9.0396    2.5205   15.5536 C   0  0  1  0  0  0  0  0  0  0  0  0
   -9.3984    1.1820   14.9549 C   0  0  1  0  0  0  0  0  0  0  0  0
  -10.4907    0.6009   15.9079 C   0  0  1  0  0  0  0  0  0  0  0  0
   -9.9873   -0.1095   17.2132 C   0  0  0  0  0  0  0  0  0  0  0  0
   -9.2568    0.7793   12.5256 C   0  0  1  0  0  0  0  0  0  0  0  0
   -9.6922    1.2067   11.1557 C   0  0  1  0  0  0  0  0  0  0  0  0
   -9.1552    1.9746   21.1632 C   0  0  1  0  0  0  0  0  0  0  0  0
   -8.8736    0.3885   10.0951 C   0  0  0  0  0  0  0  0  0  0  0  0
   -9.0485   -1.0337   10.1683 C   0  0  0  0  0  0  0  0  0  0  0  0
   -8.6040   -1.4894   11.4682 C   0  0  2  0  0  0  0  0  0  0  0  0
   -8.7814   -3.0524   11.6123 C   0  0  0  0  0  0  0  0  0  0  0  0
  -16.0181    9.4141   18.3728 C   0  0  2  0  0  0  0  0  0  0  0  0
  -13.9457    8.3159   18.1445 C   0  0  0  0  0  0  0  0  0  0  0  0
  -15.9205   10.4455   19.2876 C   0  0  0  0  0  0  0  0  0  0  0  0
  -14.9310    9.4445   17.5624 C   0  0  1  0  0  0  0  0  0  0  0  0
   -9.6169    0.5839   20.5304 C   0  0  0  0  0  0  0  0  0  0  0  0
  -10.9872    0.1419   21.2369 C   0  0  0  0  0  0  0  0  0  0  0  0
  -12.0672    1.2918   20.9779 C   0  0  1  0  0  0  0  0  0  0  0  0
  -13.4169    0.9662   21.6288 C   0  0  0  0  0  0  0  0  0  0  0  0
  -13.6912    5.8141   18.2065 C   0  0  1  0  0  0  0  0  0  0  0  0
  -13.0015    6.1352   19.6373 C   0  0  0  0  0  0  0  0  0  0  0  0
  -12.1884    4.8793   20.1369 C   0  0  2  0  0  0  0  0  0  0  0  0
  -17.2663    9.5244   17.6521 F   0  0  0  0  0  0  0  0  0  0  0  0
   -8.0385   -3.8556   10.5063 N   0  0  0  0  0  0  0  0  0  0  0  0
   -7.8752    2.4848   20.5463 N   0  0  0  0  0  0  0  0  0  0  0  0
  -11.0349    0.9407   10.8728 N   0  0  0  0  0  0  0  0  0  0  0  0
  -15.0618   10.6357   20.3956 N   0  0  0  0  0  0  0  0  0  0  0  0
  -14.3440    2.0100   21.4240 N   0  0  0  0  0  0  0  0  0  0  0  0
  -14.4581    6.9955   17.7723 N   0  0  0  0  0  0  0  0  0  0  0  0
  -11.5421    5.1624   21.4375 N   0  0  0  0  0  0  0  0  0  0  0  0
  -10.4093    3.3861   19.5984 O   0  0  0  0  0  0  0  0  0  0  0  0
  -10.5455    3.9157   16.7879 O   0  0  0  0  0  0  0  0  0  0  0  0
  -13.0220    5.2597   15.9503 O   0  0  0  0  0  0  0  0  0  0  0  0
   -8.4259    3.3996   14.6604 O   0  0  0  0  0  0  0  0  0  0  0  0
  -11.2687    1.8024   16.0374 O   0  0  0  0  0  0  0  0  0  0  0  0
   -9.1865   -1.2374   16.8073 O   0  0  0  0  0  0  0  0  0  0  0  0
   -9.9401    1.3933   13.5527 O   0  0  0  0  0  0  0  0  0  0  0  0
  -15.2456    9.1511   16.1836 O   0  0  0  0  0  0  0  0  0  0  0  0
  -12.9107    8.5472   18.7910 O   0  0  0  0  0  0  0  0  0  0  0  0
   -9.3525   -0.7658   12.5627 O   0  0  0  0  0  0  0  0  0  0  0  0
  -11.5617    2.6092   21.5428 O   0  0  0  0  0  0  0  0  0  0  0  0
  1 36  1  6  0  0  0
  2 36  1  1  0  0  0
  2  3  1  0  0  0  0
  3 37  1  6  0  0  0
  3  4  1  0  0  0  0
  4 38  1  6  0  0  0
  5 37  1  1  0  0  0
  5  6  1  0  0  0  0
  6  7  1  0  0  0  0
  6 39  1  6  0  0  0
  7 42  1  6  0  0  0
  8  9  1  1  0  0  0
  8  7  1  0  0  0  0
 10 42  1  1  0  0  0
 10 11  1  0  0  0  0
 11 31  1  1  0  0  0
 11 13  1  0  0  0  0
 12 30  1  6  0  0  0
 12  1  1  0  0  0  0
 14 13  1  0  0  0  0
 15 16  1  6  0  0  0
 15 14  1  0  0  0  0
 17 19  1  1  0  0  0
 17 28  1  0  0  0  0
 18 34  1  0  0  0  0
 19 32  1  0  0  0  0
 20 18  1  1  0  0  0
 20 17  1  0  0  0  0
 20 43  1  0  0  0  0
 21 12  1  0  0  0  0
 22 21  1  0  0  0  0
 22 23  1  0  0  0  0
 23 24  1  1  0  0  0
 23 46  1  0  0  0  0
 24 33  1  0  0  0  0
 25 34  1  6  0  0  0
 25  4  1  0  0  0  0
 26 25  1  0  0  0  0
 27 35  1  1  0  0  0
 27 26  1  0  0  0  0
 27  2  1  0  0  0  0
 29 16  1  0  0  0  0
 40  8  1  0  0  0  0
 40  5  1  0  0  0  0
 41  9  1  0  0  0  0
 44 18  2  0  0  0  0
 45 15  1  0  0  0  0
 45 10  1  0  0  0  0
 46  1  1  0  0  0  0
M  END
>  <CHROM.1>
-164.96076521,-151.37230431,142.45636747,-153.48003957,120.27883109,-61.68123733
-170.17907669,56.79452503,-70.69292330,75.18183978,99.92018023,178.21505289
-82.74103564,-11.45717503,3.34013212,16.97532739,-2.60230554,1.02749227,-1.52189897

>  <Name>
lig.pdb

>  <RI>
0

>  <Rbt.Current_Directory>
/home/afrankz/demos/rdock_decoys_rna/rnas/3wru

>  <Rbt.Executable>
rbdock ($Id: //depot/dev/client3/rdock/2013.1/src/exe/rbdock.cxx#4 $)

>  <Rbt.Library>
libRbt.so (2013.1, Build901 2013/11/27)

>  <Rbt.Parameter_File>
/export/apps/rDock/src/rDock_2013.1_src/data/scripts/dock_solv.prm

>  <Rbt.Receptor>
prm/blind_docking_100.prm

>  <SCORE>
22.8652

>  <SCORE.INTER>
9.21666

>  <SCORE.INTER.CONST>
1

>  <SCORE.INTER.POLAR>
0

>  <SCORE.INTER.ROT>
13

>  <SCORE.INTER.SOLV>
35.759

>  <SCORE.INTER.VDW>
-18.0419

>  <SCORE.INTER.norm>
0.200362

>  <SCORE.INTRA>
11.1592

>  <SCORE.INTRA.DIHEDRAL>
5.67146

>  <SCORE.INTRA.DIHEDRAL.0>
19.7146

>  <SCORE.INTRA.POLAR>
0

>  <SCORE.INTRA.POLAR.0>
0

>  <SCORE.INTRA.REPUL>
0

>  <SCORE.INTRA.REPUL.0>
0

>  <SCORE.INTRA.SOLV>
1.00073

>  <SCORE.INTRA.SOLV.lig_0>
-116.697

>  <SCORE.INTRA.VDW>
7.82311

>  <SCORE.INTRA.VDW.0>
-7.06424

>  <SCORE.INTRA.norm>
0.242591

>  <SCORE.RESTR>
2.4893

>  <SCORE.RESTR.CAVITY>
2.4893

>  <SCORE.RESTR.norm>
0.0541153

>  <SCORE.SYSTEM>
0

>  <SCORE.SYSTEM.CONST>
0

>  <SCORE.SYSTEM.DIHEDRAL>
0

>  <SCORE.SYSTEM.SOLV>
0

>  <SCORE.SYSTEM.norm>
0

>  <SCORE.heavy>
46

>  <SCORE.norm>
0.497069

>  <RMSD>
32.356

$$$$
lig.pdb
 OpenBabel03061811583D
libRbt.so/2013.1/901 2013/11/27
 46 49  0  0  0  0  0  0  0  0999 V2000
   -9.6829    2.3261   19.5310 C   0  0  1  0  0  0  0  0  0  0  0  0
  -11.1930    4.3488   19.3417 C   0  0  1  0  0  0  0  0  0  0  0  0
  -11.6784    4.1608   17.8724 C   0  0  1  0  0  0  0  0  0  0  0  0
  -12.1295    5.5943   17.2855 C   0  0  2  0  0  0  0  0  0  0  0  0
  -10.5105    3.0714   15.9008 C   0  0  2  0  0  0  0  0  0  0  0  0
   -9.0764    2.7750   15.3770 C   0  0  1  0  0  0  0  0  0  0  0  0
   -9.4336    1.6792   14.4020 C   0  0  1  0  0  0  0  0  0  0  0  0
  -10.4115    0.7504   15.1895 C   0  0  1  0  0  0  0  0  0  0  0  0
   -9.7647   -0.3064   16.1520 C   0  0  0  0  0  0  0  0  0  0  0  0
   -9.8699    1.6857   11.9744 C   0  0  1  0  0  0  0  0  0  0  0  0
  -10.8574    2.0438   10.9042 C   0  0  1  0  0  0  0  0  0  0  0  0
   -9.8164    0.8647   20.0209 C   0  0  1  0  0  0  0  0  0  0  0  0
  -10.4978    1.2389    9.6053 C   0  0  0  0  0  0  0  0  0  0  0  0
  -10.5353   -0.1878    9.7530 C   0  0  0  0  0  0  0  0  0  0  0  0
   -9.5666   -0.5759   10.7560 C   0  0  2  0  0  0  0  0  0  0  0  0
   -9.5682   -2.1408   10.9702 C   0  0  0  0  0  0  0  0  0  0  0  0
  -14.7343   10.5286   18.5686 C   0  0  2  0  0  0  0  0  0  0  0  0
  -14.7744    8.1758   18.4443 C   0  0  0  0  0  0  0  0  0  0  0  0
  -15.6542   10.5886   19.5984 C   0  0  0  0  0  0  0  0  0  0  0  0
  -15.1139    9.5590   17.6996 C   0  0  1  0  0  0  0  0  0  0  0  0
   -9.7746    0.7885   21.6147 C   0  0  0  0  0  0  0  0  0  0  0  0
   -8.3924    1.4328   22.1113 C   0  0  0  0  0  0  0  0  0  0  0  0
   -8.3409    2.9448   21.5946 C   0  0  1  0  0  0  0  0  0  0  0  0
   -7.0432    3.6478   22.0109 C   0  0  0  0  0  0  0  0  0  0  0  0
  -13.3534    6.1203   18.1552 C   0  0  1  0  0  0  0  0  0  0  0  0
  -12.7841    6.3186   19.6594 C   0  0  0  0  0  0  0  0  0  0  0  0
  -12.3097    4.9320   20.2427 C   0  0  2  0  0  0  0  0  0  0  0  0
  -13.4124   10.3163   19.1137 F   0  0  0  0  0  0  0  0  0  0  0  0
   -8.7656   -2.9071    9.8798 N   0  0  0  0  0  0  0  0  0  0  0  0
  -11.0952    0.2947   19.4561 N   0  0  0  0  0  0  0  0  0  0  0  0
  -12.1773    1.6942   11.2030 N   0  0  0  0  0  0  0  0  0  0  0  0
  -15.6472   11.3036   20.8191 N   0  0  0  0  0  0  0  0  0  0  0  0
   -6.4720    3.0295   23.1433 N   0  0  0  0  0  0  0  0  0  0  0  0
  -13.8058    7.4258   17.6419 N   0  0  0  0  0  0  0  0  0  0  0  0
  -11.7754    5.0997   21.6122 N   0  0  0  0  0  0  0  0  0  0  0  0
  -10.8242    3.0975   19.9071 O   0  0  0  0  0  0  0  0  0  0  0  0
  -10.5201    3.5946   17.1038 O   0  0  0  0  0  0  0  0  0  0  0  0
  -12.5536    5.4016   15.9897 O   0  0  0  0  0  0  0  0  0  0  0  0
   -8.5814    3.9337   14.7775 O   0  0  0  0  0  0  0  0  0  0  0  0
  -11.2224    1.7914   15.7594 O   0  0  0  0  0  0  0  0  0  0  0  0
  -10.8314   -1.1263   16.6696 O   0  0  0  0  0  0  0  0  0  0  0  0
  -10.1073    2.2933   13.1882 O   0  0  0  0  0  0  0  0  0  0  0  0
  -16.5216    9.6062   17.3798 O   0  0  0  0  0  0  0  0  0  0  0  0
  -15.2551    7.8240   19.5342 O   0  0  0  0  0  0  0  0  0  0  0  0
   -9.8425    0.1397   12.0574 O   0  0  0  0  0  0  0  0  0  0  0  0
   -8.4435    2.9742   20.0784 O   0  0  0  0  0  0  0  0  0  0  0  0
  1 36  1  1  0  0  0
  2 36  1  1  0  0  0
  2  3  1  0  0  0  0
  3 37  1  6  0  0  0
  3  4  1  0  0  0  0
  4 38  1  6  0  0  0
  5 37  1  1  0  0  0
  5  6  1  0  0  0  0
  6  7  1  0  0  0  0
  6 39  1  6  0  0  0
  7 42  1  6  0  0  0
  8  9  1  1  0  0  0
  8  7  1  0  0  0  0
 10 42  1  1  0  0  0
 10 11  1  0  0  0  0
 11 31  1  1  0  0  0
 11 13  1  0  0  0  0
 12 30  1  1  0  0  0
 12  1  1  0  0  0  0
 14 13  1  0  0  0  0
 15 16  1  1  0  0  0
 15 14  1  0  0  0  0
 17 19  1  1  0  0  0
 17 28  1  0  0  0  0
 18 34  1  0  0  0  0
 19 32  1  0  0  0  0
 20 18  1  1  0  0  0
 20 17  1  0  0  0  0
 20 43  1  0  0  0  0
 21 12  1  0  0  0  0
 22 21  1  0  0  0  0
 22 23  1  0  0  0  0
 23 24  1  6  0  0  0
 23 46  1  0  0  0  0
 24 33  1  0  0  0  0
 25 34  1  6  0  0  0
 25  4  1  0  0  0  0
 26 25  1  0  0  0  0
 27 35  1  1  0  0  0
 27 26  1  0  0  0  0
 27  2  1  0  0  0  0
 29 16  1  0  0  0  0
 40  8  1  0  0  0  0
 40  5  1  0  0  0  0
 41  9  1  0  0  0  0
 44 18  2  0  0  0  0
 45 15  1  0  0  0  0
 45 10  1  0  0  0  0
 46  1  1  0  0  0  0
M  END
>  <CHROM.1>
-162.82945532,69.59796319,167.75007277,172.05614418,146.15180690,-174.70273617
162.08356956,79.99041505,171.68814407,-119.35477597,-74.07565953,-23.33295112
-170.00699081,-11.20360849,3.68914165,16.96226603,-2.15144549,0.91774537
-1.93112258

>  <Name>
lig.pdb

>  <RI>
0

>  <Rbt.Current_Directory>
/home/afrankz/demos/rdock_decoys_rna/rnas/3wru

>  <Rbt.Executable>
rbdock ($Id: //depot/dev/client3/rdock/2013.1/src/exe/rbdock.cxx#4 $)

>  <Rbt.Library>
libRbt.so (2013.1, Build901 2013/11/27)

>  <Rbt.Parameter_File>
/export/apps/rDock/src/rDock_2013.1_src/data/scripts/dock_solv.prm

>  <Rbt.Receptor>
prm/blind_docking_40.prm

>  <SCORE>
13.5454

>  <SCORE.INTER>
3.49769

>  <SCORE.INTER.CONST>
1

>  <SCORE.INTER.POLAR>
0

>  <SCORE.INTER.ROT>
13

>  <SCORE.INTER.SOLV>
28.7461

>  <SCORE.INTER.VDW>
-19.5169

>  <SCORE.INTER.norm>
0.0760367

>  <SCORE.INTRA>
4.8116

>  <SCORE.INTRA.DIHEDRAL>
-2.64087

>  <SCORE.INTRA.DIHEDRAL.0>
19.7146

>  <SCORE.INTRA.POLAR>
0

>  <SCORE.INTRA.POLAR.0>
0

>  <SCORE.INTRA.REPUL>
0

>  <SCORE.INTRA.REPUL.0>
0

>  <SCORE.INTRA.SOLV>
-0.135707

>  <SCORE.INTRA.SOLV.lig_0>
-116.697

>  <SCORE.INTRA.VDW>
6.19989

>  <SCORE.INTRA.VDW.0>
-7.06424

>  <SCORE.INTRA.norm>
0.1046

>  <SCORE.RESTR>
5.23614

>  <SCORE.RESTR.CAVITY>
5.23614

>  <SCORE.RESTR.norm>
0.113829

>  <SCORE.SYSTEM>
0

>  <SCORE.SYSTEM.CONST>
0

>  <SCORE.SYSTEM.DIHEDRAL>
0

>  <SCORE.SYSTEM.SOLV>
0

>  <SCORE.SYSTEM.norm>
0

>  <SCORE.heavy>
46

>  <SCORE.norm>
0.294466

>  <RMSD>
32.357

$$$$
lig.pdb
 OpenBabel03061811583D
libRbt.so/2013.1/901 2013/11/27
 46 49  0  0  0  0  0  0  0  0999 V2000
  -11.6987   -0.4940   19.6668 C   0  0  1  0  0  0  0  0  0  0  0  0
  -12.1537    0.9881   17.6658 C   0  0  1  0  0  0  0  0  0  0  0  0
  -11.3099    2.2588   17.9863 C   0  0  1  0  0  0  0  0  0  0  0  0
  -10.8511    2.9429   16.5990 C   0  0  2  0  0  0  0  0  0  0  0  0
  -12.9314    4.1741   18.3609 C   0  0  2  0  0  0  0  0  0  0  0  0
  -12.0911    5.3906   17.8784 C   0  0  1  0  0  0  0  0  0  0  0  0
  -13.1089    5.9853   16.9353 C   0  0  1  0  0  0  0  0  0  0  0  0
  -13.6506    4.7697   16.1180 C   0  0  1  0  0  0  0  0  0  0  0  0
  -12.7865    4.2944   14.8977 C   0  0  0  0  0  0  0  0  0  0  0  0
  -13.9740    7.9321   18.1783 C   0  0  1  0  0  0  0  0  0  0  0  0
  -14.1939    8.1351   19.6478 C   0  0  1  0  0  0  0  0  0  0  0  0
  -12.3722   -0.8297   21.0185 C   0  0  1  0  0  0  0  0  0  0  0  0
  -13.9447    9.6481   19.9843 C   0  0  0  0  0  0  0  0  0  0  0  0
  -14.8080   10.5661   19.2982 C   0  0  0  0  0  0  0  0  0  0  0  0
  -14.5975   10.4240   17.8732 C   0  0  2  0  0  0  0  0  0  0  0  0
  -15.5307   11.4065   17.0615 C   0  0  0  0  0  0  0  0  0  0  0  0
   -7.3712    1.8099   11.7385 C   0  0  2  0  0  0  0  0  0  0  0  0
   -8.3001    1.9111   13.9018 C   0  0  0  0  0  0  0  0  0  0  0  0
   -8.2940    0.8731   11.3133 C   0  0  0  0  0  0  0  0  0  0  0  0
   -7.9972    2.7079   12.5392 C   0  0  1  0  0  0  0  0  0  0  0  0
  -12.5289    0.4775   21.9210 C   0  0  0  0  0  0  0  0  0  0  0  0
  -11.0713    1.1060   22.1503 C   0  0  0  0  0  0  0  0  0  0  0  0
  -10.4543    1.4531   20.7169 C   0  0  1  0  0  0  0  0  0  0  0  0
   -9.0472    2.0520   20.8295 C   0  0  0  0  0  0  0  0  0  0  0  0
   -9.9256    1.9086   15.8215 C   0  0  1  0  0  0  0  0  0  0  0  0
  -10.8598    0.6250   15.4963 C   0  0  0  0  0  0  0  0  0  0  0  0
  -11.3442   -0.0428   16.8406 C   0  0  2  0  0  0  0  0  0  0  0  0
   -6.7370    2.4184   10.5908 F   0  0  0  0  0  0  0  0  0  0  0  0
  -15.1608   12.9043   17.2612 N   0  0  0  0  0  0  0  0  0  0  0  0
  -13.7008   -1.4868   20.7312 N   0  0  0  0  0  0  0  0  0  0  0  0
  -15.4988    7.8712   20.0731 N   0  0  0  0  0  0  0  0  0  0  0  0
   -9.5375    1.0164   10.6542 N   0  0  0  0  0  0  0  0  0  0  0  0
   -8.6199    2.5797   19.5926 N   0  0  0  0  0  0  0  0  0  0  0  0
   -9.4728    2.5016   14.5505 N   0  0  0  0  0  0  0  0  0  0  0  0
  -12.2093   -1.2097   16.5590 N   0  0  0  0  0  0  0  0  0  0  0  0
  -12.5431    0.3342   18.8667 O   0  0  0  0  0  0  0  0  0  0  0  0
  -12.1934    3.1747   18.7823 O   0  0  0  0  0  0  0  0  0  0  0  0
  -10.1085    4.0604   16.9087 O   0  0  0  0  0  0  0  0  0  0  0  0
  -11.8028    6.1900   18.9853 O   0  0  0  0  0  0  0  0  0  0  0  0
  -13.8213    3.8731   17.2283 O   0  0  0  0  0  0  0  0  0  0  0  0
  -12.9320    5.2816   13.8573 O   0  0  0  0  0  0  0  0  0  0  0  0
  -14.2105    6.6459   17.7441 O   0  0  0  0  0  0  0  0  0  0  0  0
   -7.1888    3.8702   12.8250 O   0  0  0  0  0  0  0  0  0  0  0  0
   -7.6425    0.9415   14.3139 O   0  0  0  0  0  0  0  0  0  0  0  0
  -14.8323    8.9938   17.4476 O   0  0  0  0  0  0  0  0  0  0  0  0
  -10.3786    0.1929   19.8705 O   0  0  0  0  0  0  0  0  0  0  0  0
  1 36  1  6  0  0  0
  2 36  1  1  0  0  0
  2  3  1  0  0  0  0
  3 37  1  6  0  0  0
  3  4  1  0  0  0  0
  4 38  1  1  0  0  0
  5 37  1  6  0  0  0
  5  6  1  0  0  0  0
  6  7  1  0  0  0  0
  6 39  1  1  0  0  0
  7 42  1  1  0  0  0
  8  9  1  6  0  0  0
  8  7  1  0  0  0  0
 10 42  1  6  0  0  0
 10 11  1  0  0  0  0
 11 31  1  6  0  0  0
 11 13  1  0  0  0  0
 12 30  1  6  0  0  0
 12  1  1  0  0  0  0
 14 13  1  0  0  0  0
 15 16  1  6  0  0  0
 15 14  1  0  0  0  0
 17 19  1  6  0  0  0
 17 28  1  0  0  0  0
 18 34  1  0  0  0  0
 19 32  1  0  0  0  0
 20 18  1  1  0  0  0
 20 17  1  0  0  0  0
 20 43  1  0  0  0  0
 21 12  1  0  0  0  0
 22 21  1  0  0  0  0
 22 23  1  0  0  0  0
 23 24  1  1  0  0  0
 23 46  1  0  0  0  0
 24 33  1  0  0  0  0
 25 34  1  6  0  0  0
 25  4  1  0  0  0  0
 26 25  1  0  0  0  0
 27 35  1  6  0  0  0
 27 26  1  0  0  0  0
 27  2  1  0  0  0  0
 29 16  1  0  0  0  0
 40  8  1  0  0  0  0
 40  5  1  0  0  0  0
 41  9  1  0  0  0  0
 44 18  2  0  0  0  0
 45 15  1  0  0  0  0
 45 10  1  0  0  0  0
 46  1  1  0  0  0  0
M  END
>  <CHROM.1>
169.90431737,-77.57526508,-95.40597519,-69.59497808,83.72476007,-72.57080185
-128.14005597,67.59854687,54.62572677,-153.01340515,71.86364143,-169.01960520
160.89504226,-11.61587395,3.76184888,17.10655291,0.36187517,-0.98358754,2.43316490

>  <Name>
lig.pdb

>  <RI>
0

>  <Rbt.Current_Directory>
/home/afrankz/demos/rdock_decoys_rna/rnas/3wru

>  <Rbt.Executable>
rbdock ($Id: //depot/dev/client3/rdock/2013.1/src/exe/rbdock.cxx#4 $)

>  <Rbt.Library>
libRbt.so (2013.1, Build901 2013/11/27)

>  <Rbt.Parameter_File>
/export/apps/rDock/src/rDock_2013.1_src/data/scripts/dock_solv.prm

>  <Rbt.Receptor>
prm/blind_docking_100.prm

>  <SCORE>
7.27577

>  <SCORE.INTER>
0.143263

>  <SCORE.INTER.CONST>
1

>  <SCORE.INTER.POLAR>
0

>  <SCORE.INTER.ROT>
13

>  <SCORE.INTER.SOLV>
27.9741

>  <SCORE.INTER.VDW>
-21.4959

>  <SCORE.INTER.norm>
0.00311441

>  <SCORE.INTRA>
5.35578

>  <SCORE.INTRA.DIHEDRAL>
0.168479

>  <SCORE.INTRA.DIHEDRAL.0>
19.7146

>  <SCORE.INTRA.POLAR>
0

>  <SCORE.INTRA.POLAR.0>
0

>  <SCORE.INTRA.REPUL>
0

>  <SCORE.INTRA.REPUL.0>
0

>  <SCORE.INTRA.SOLV>
2.3472

>  <SCORE.INTRA.SOLV.lig_0>
-116.697

>  <SCORE.INTRA.VDW>
4.09794

>  <SCORE.INTRA.VDW.0>
-7.06424

>  <SCORE.INTRA.norm>
0.11643

>  <SCORE.RESTR>
1.77673

>  <SCORE.RESTR.CAVITY>
1.77673

>  <SCORE.RESTR.norm>
0.0386245

>  <SCORE.SYSTEM>
0

>  <SCORE.SYSTEM.CONST>
0

>  <SCORE.SYSTEM.DIHEDRAL>
0

>  <SCORE.SYSTEM.SOLV>
0

>  <SCORE.SYSTEM.norm>
0

>  <SCORE.heavy>
46

>  <SCORE.norm>
0.158169

>  <RMSD>
32.376

$$$$
lig.pdb
 OpenBabel03061811583D
libRbt.so/2013.1/901 2013/11/27
 46 49  0  0  0  0  0  0  0  0999 V2000
  -11.9265    1.4659   21.4664 C   0  0  1  0  0  0  0  0  0  0  0  0
  -11.4163    3.1953   19.6896 C   0  0  1  0  0  0  0  0  0  0  0  0
  -12.6779    2.8614   18.8372 C   0  0  1  0  0  0  0  0  0  0  0  0
  -13.0670    4.1546   17.9545 C   0  0  2  0  0  0  0  0  0  0  0  0
  -11.3450    1.5950   17.0886 C   0  0  2  0  0  0  0  0  0  0  0  0
   -9.9998    1.1310   17.7163 C   0  0  1  0  0  0  0  0  0  0  0  0
   -9.3881    0.5281   16.4748 C   0  0  1  0  0  0  0  0  0  0  0  0
  -10.5327   -0.3264   15.8432 C   0  0  1  0  0  0  0  0  0  0  0  0
  -10.7573   -1.7607   16.4383 C   0  0  0  0  0  0  0  0  0  0  0  0
   -8.3639    1.2651   14.3555 C   0  0  1  0  0  0  0  0  0  0  0  0
   -8.0487    2.4056   13.4343 C   0  0  1  0  0  0  0  0  0  0  0  0
  -11.1478    0.4458   22.3304 C   0  0  1  0  0  0  0  0  0  0  0  0
   -7.4440    1.8223   12.1082 C   0  0  0  0  0  0  0  0  0  0  0  0
   -8.3119    0.9308   11.3936 C   0  0  0  0  0  0  0  0  0  0  0  0
   -8.6106   -0.2041   12.2408 C   0  0  2  0  0  0  0  0  0  0  0  0
   -9.5736   -1.2200   11.5089 C   0  0  0  0  0  0  0  0  0  0  0  0
  -14.7377   10.0142   18.6641 C   0  0  2  0  0  0  0  0  0  0  0  0
  -14.1977    7.7361   18.9316 C   0  0  0  0  0  0  0  0  0  0  0  0
  -14.7565   11.1287   17.8469 C   0  0  0  0  0  0  0  0  0  0  0  0
  -14.5548    8.9119   17.8955 C   0  0  1  0  0  0  0  0  0  0  0  0
  -10.6528   -0.7906   21.4506 C   0  0  0  0  0  0  0  0  0  0  0  0
  -11.9387   -1.4751   20.7796 C   0  0  0  0  0  0  0  0  0  0  0  0
  -12.6710   -0.3726   19.8828 C   0  0  1  0  0  0  0  0  0  0  0  0
  -13.9280   -0.9300   19.2041 C   0  0  0  0  0  0  0  0  0  0  0  0
  -13.4333    5.3396   18.9506 C   0  0  1  0  0  0  0  0  0  0  0  0
  -12.0831    5.6566   19.7887 C   0  0  0  0  0  0  0  0  0  0  0  0
  -11.6676    4.3940   20.6378 C   0  0  2  0  0  0  0  0  0  0  0  0
  -15.9540    9.9668   19.4439 F   0  0  0  0  0  0  0  0  0  0  0  0
   -8.9280   -1.8786   10.2561 N   0  0  0  0  0  0  0  0  0  0  0  0
  -10.0005    1.1699   22.9928 N   0  0  0  0  0  0  0  0  0  0  0  0
   -9.1655    3.1465   13.0375 N   0  0  0  0  0  0  0  0  0  0  0  0
  -14.8913   12.5052   18.1444 N   0  0  0  0  0  0  0  0  0  0  0  0
  -13.6364   -2.1094   18.4863 N   0  0  0  0  0  0  0  0  0  0  0  0
  -13.8088    6.5398   18.1818 N   0  0  0  0  0  0  0  0  0  0  0  0
  -10.4281    4.6647   21.3992 N   0  0  0  0  0  0  0  0  0  0  0  0
  -11.0662    2.0902   20.5128 O   0  0  0  0  0  0  0  0  0  0  0  0
  -12.3146    1.6938   17.9668 O   0  0  0  0  0  0  0  0  0  0  0  0
  -14.1822    3.8349   17.2126 O   0  0  0  0  0  0  0  0  0  0  0  0
   -9.3286    2.2572   18.1943 O   0  0  0  0  0  0  0  0  0  0  0  0
  -11.5797    0.6477   15.9874 O   0  0  0  0  0  0  0  0  0  0  0  0
  -10.9447   -1.6120   17.8598 O   0  0  0  0  0  0  0  0  0  0  0  0
   -8.9497    1.6440   15.5437 O   0  0  0  0  0  0  0  0  0  0  0  0
  -15.7294    8.5509   17.1364 O   0  0  0  0  0  0  0  0  0  0  0  0
  -14.2362    7.8485   20.1679 O   0  0  0  0  0  0  0  0  0  0  0  0
   -9.2170    0.2589   13.5445 O   0  0  0  0  0  0  0  0  0  0  0  0
  -13.0715    0.8112   20.7479 O   0  0  0  0  0  0  0  0  0  0  0  0
  1 36  1  6  0  0  0
  2 36  1  1  0  0  0
  2  3  1  0  0  0  0
  3 37  1  6  0  0  0
  3  4  1  0  0  0  0
  4 38  1  6  0  0  0
  5 37  1  1  0  0  0
  5  6  1  0  0  0  0
  6  7  1  0  0  0  0
  6 39  1  6  0  0  0
  7 42  1  6  0  0  0
  8  9  1  1  0  0  0
  8  7  1  0  0  0  0
 10 42  1  1  0  0  0
 10 11  1  0  0  0  0
 11 31  1  6  0  0  0
 11 13  1  0  0  0  0
 12 30  1  6  0  0  0
 12  1  1  0  0  0  0
 14 13  1  0  0  0  0
 15 16  1  6  0  0  0
 15 14  1  0  0  0  0
 17 19  1  6  0  0  0
 17 28  1  0  0  0  0
 18 34  1  0  0  0  0
 19 32  1  0  0  0  0
 20 18  1  1  0  0  0
 20 17  1  0  0  0  0
 20 43  1  0  0  0  0
 21 12  1  0  0  0  0
 22 21  1  0  0  0  0
 22 23  1  0  0  0  0
 23 24  1  1  0  0  0
 23 46  1  0  0  0  0
 24 33  1  0  0  0  0
 25 34  1  6  0  0  0
 25  4  1  0  0  0  0
 26 25  1  0  0  0  0
 27 35  1  6  0  0  0
 27 26  1  0  0  0  0
 27  2  1  0  0  0  0
 29 16  1  0  0  0  0
 40  8  1  0  0  0  0
 40  5  1  0  0  0  0
 41  9  1  0  0  0  0
 44 18  2  0  0  0  0
 45 15  1  0  0  0  0
 45 10  1  0  0  0  0
 46  1  1  0  0  0  0
M  END
>  <CHROM.1>
-171.16147045,-56.85211485,-57.98623091,86.99585837,179.87683439,54.48699844
175.55489115,64.76778931,-178.68200149,-172.61896539,166.89508277,-53.10013481
179.21996180,-11.66273432,2.85638509,17.60999555,2.87693239,1.09476616,-0.81199374

>  <Name>
lig.pdb

>  <RI>
0

>  <Rbt.Current_Directory>
/home/afrankz/demos/rdock_decoys_rna/rnas/3wru

>  <Rbt.Executable>
rbdock ($Id: //depot/dev/client3/rdock/2013.1/src/exe/rbdock.cxx#4 $)

>  <Rbt.Library>
libRbt.so (2013.1, Build901 2013/11/27)

>  <Rbt.Parameter_File>
/export/apps/rDock/src/rDock_2013.1_src/data/scripts/dock_solv.prm

>  <Rbt.Receptor>
prm/blind_docking_100.prm

>  <SCORE>
0.689781

>  <SCORE.INTER>
3.14867

>  <SCORE.INTER.CONST>
1

>  <SCORE.INTER.POLAR>
0

>  <SCORE.INTER.ROT>
13

>  <SCORE.INTER.SOLV>
27.0687

>  <SCORE.INTER.VDW>
-19.1905

>  <SCORE.INTER.norm>
0.0684494

>  <SCORE.INTRA>
-4.43243

>  <SCORE.INTRA.DIHEDRAL>
-14.1088

>  <SCORE.INTRA.DIHEDRAL.0>
19.7146

>  <SCORE.INTRA.POLAR>
0

>  <SCORE.INTRA.POLAR.0>
0

>  <SCORE.INTRA.REPUL>
0

>  <SCORE.INTRA.REPUL.0>
0

>  <SCORE.INTRA.SOLV>
1.76974

>  <SCORE.INTRA.SOLV.lig_0>
-116.697

>  <SCORE.INTRA.VDW>
1.73712

>  <SCORE.INTRA.VDW.0>
-7.06424

>  <SCORE.INTRA.norm>
-0.0963571

>  <SCORE.RESTR>
1.97353

>  <SCORE.RESTR.CAVITY>
1.97353

>  <SCORE.RESTR.norm>
0.0429029

>  <SCORE.SYSTEM>
0

>  <SCORE.SYSTEM.CONST>
0

>  <SCORE.SYSTEM.DIHEDRAL>
0

>  <SCORE.SYSTEM.SOLV>
0

>  <SCORE.SYSTEM.norm>
0

>  <SCORE.heavy>
46

>  <SCORE.norm>
0.0149952

>  <RMSD>
32.425

$$$$
lig.pdb
 OpenBabel03061811583D
libRbt.so/2013.1/901 2013/11/27
 46 49  0  0  0  0  0  0  0  0999 V2000
   -8.9608    2.8954   22.4898 C   0  0  1  0  0  0  0  0  0  0  0  0
  -10.0229    1.3368   20.8015 C   0  0  1  0  0  0  0  0  0  0  0  0
   -9.7453    1.2847   19.2685 C   0  0  1  0  0  0  0  0  0  0  0  0
  -11.0196    0.6254   18.5306 C   0  0  2  0  0  0  0  0  0  0  0  0
  -10.3708    3.7039   18.8277 C   0  0  2  0  0  0  0  0  0  0  0  0
  -11.5685    3.4980   17.8572 C   0  0  1  0  0  0  0  0  0  0  0  0
  -12.5603    4.3949   18.5578 C   0  0  1  0  0  0  0  0  0  0  0  0
  -12.4350    4.0212   20.0690 C   0  0  1  0  0  0  0  0  0  0  0  0
  -13.2255    2.7556   20.5540 C   0  0  0  0  0  0  0  0  0  0  0  0
  -12.9367    6.5327   17.3865 C   0  0  1  0  0  0  0  0  0  0  0  0
  -14.3282    6.8524   17.8449 C   0  0  1  0  0  0  0  0  0  0  0  0
   -7.6259    3.6736   22.5650 C   0  0  1  0  0  0  0  0  0  0  0  0
  -15.0825    7.5806   16.6764 C   0  0  0  0  0  0  0  0  0  0  0  0
  -15.2021    6.8144   15.4692 C   0  0  0  0  0  0  0  0  0  0  0  0
  -13.8745    6.5161   14.9758 C   0  0  2  0  0  0  0  0  0  0  0  0
  -13.9415    5.6631   13.6480 C   0  0  0  0  0  0  0  0  0  0  0  0
  -14.0928   -3.9422   18.0644 C   0  0  2  0  0  0  0  0  0  0  0  0
  -12.0884   -2.7631   17.6835 C   0  0  0  0  0  0  0  0  0  0  0  0
  -14.5600   -3.0179   18.9795 C   0  0  0  0  0  0  0  0  0  0  0  0
  -13.4732   -3.2824   17.0543 C   0  0  1  0  0  0  0  0  0  0  0  0
   -6.4461    2.7380   23.0947 C   0  0  0  0  0  0  0  0  0  0  0  0
   -6.8614    2.1766   24.5385 C   0  0  0  0  0  0  0  0  0  0  0  0
   -8.2277    1.3626   24.3753 C   0  0  1  0  0  0  0  0  0  0  0  0
   -8.7171    0.7924   25.7120 C   0  0  0  0  0  0  0  0  0  0  0  0
  -11.1808   -0.8652   19.0626 C   0  0  1  0  0  0  0  0  0  0  0  0
  -11.4898   -0.7459   20.6489 C   0  0  0  0  0  0  0  0  0  0  0  0
  -10.2670   -0.0763   21.3867 C   0  0  2  0  0  0  0  0  0  0  0  0
  -15.1879   -4.7709   17.6131 F   0  0  0  0  0  0  0  0  0  0  0  0
  -14.9929    4.5181   13.7104 N   0  0  0  0  0  0  0  0  0  0  0  0
   -7.3339    4.2394   21.1960 N   0  0  0  0  0  0  0  0  0  0  0  0
  -15.1047    5.7293   18.1438 N   0  0  0  0  0  0  0  0  0  0  0  0
  -15.8718   -2.5876   19.2887 N   0  0  0  0  0  0  0  0  0  0  0  0
   -7.7118    0.0214   26.3333 N   0  0  0  0  0  0  0  0  0  0  0  0
  -12.3296   -1.5096   18.4013 N   0  0  0  0  0  0  0  0  0  0  0  0
  -10.5403    0.0507   22.8354 N   0  0  0  0  0  0  0  0  0  0  0  0
   -8.9028    1.8763   21.4912 O   0  0  0  0  0  0  0  0  0  0  0  0
   -9.5257    2.7005   18.8209 O   0  0  0  0  0  0  0  0  0  0  0  0
  -10.7499    0.5904   17.1808 O   0  0  0  0  0  0  0  0  0  0  0  0
  -11.1883    3.9460   16.5915 O   0  0  0  0  0  0  0  0  0  0  0  0
  -10.9990    3.9964   20.1257 O   0  0  0  0  0  0  0  0  0  0  0  0
  -14.6071    3.1409   20.6985 O   0  0  0  0  0  0  0  0  0  0  0  0
  -12.1816    5.8440   18.3108 O   0  0  0  0  0  0  0  0  0  0  0  0
  -13.2029   -4.1237   15.9118 O   0  0  0  0  0  0  0  0  0  0  0  0
  -11.0005   -3.3532   17.5800 O   0  0  0  0  0  0  0  0  0  0  0  0
  -13.0714    5.7942   16.0321 O   0  0  0  0  0  0  0  0  0  0  0  0
   -9.3059    2.2744   23.8131 O   0  0  0  0  0  0  0  0  0  0  0  0
  1 36  1  6  0  0  0
  2 36  1  1  0  0  0
  2  3  1  0  0  0  0
  3 37  1  6  0  0  0
  3  4  1  0  0  0  0
  4 38  1  6  0  0  0
  5 37  1  1  0  0  0
  5  6  1  0  0  0  0
  6  7  1  0  0  0  0
  6 39  1  6  0  0  0
  7 42  1  1  0  0  0
  8  9  1  6  0  0  0
  8  7  1  0  0  0  0
 10 42  1  1  0  0  0
 10 11  1  0  0  0  0
 11 31  1  6  0  0  0
 11 13  1  0  0  0  0
 12 30  1  6  0  0  0
 12  1  1  0  0  0  0
 14 13  1  0  0  0  0
 15 16  1  6  0  0  0
 15 14  1  0  0  0  0
 17 19  1  1  0  0  0
 17 28  1  0  0  0  0
 18 34  1  0  0  0  0
 19 32  1  0  0  0  0
 20 18  1  1  0  0  0
 20 17  1  0  0  0  0
 20 43  1  0  0  0  0
 21 12  1  0  0  0  0
 22 21  1  0  0  0  0
 22 23  1  0  0  0  0
 23 24  1  1  0  0  0
 23 46  1  0  0  0  0
 24 33  1  0  0  0  0
 25 34  1  6  0  0  0
 25  4  1  0  0  0  0
 26 25  1  0  0  0  0
 27 35  1  1  0  0  0
 27 26  1  0  0  0  0
 27  2  1  0  0  0  0
 29 16  1  0  0  0  0
 40  8  1  0  0  0  0
 40  5  1  0  0  0  0
 41  9  1  0  0  0  0
 44 18  2  0  0  0  0
 45 15  1  0  0  0  0
 45 10  1  0  0  0  0
 46  1  1  0  0  0  0
M  END
>  <CHROM.1>
-154.43912350,132.52645408,-64.17974062,-65.60043358,103.58762225,-77.89051006
71.24505363,-43.50105651,108.49966660,-83.17202096,72.98116392,-53.93315427
123.84267641,-11.63505574,1.89173939,19.32466218,-0.57924887,-0.87487914
-0.14096109

>  <Name>
lig.pdb

>  <RI>
0

>  <Rbt.Current_Directory>
/home/afrankz/demos/rdock_decoys_rna/rnas/3wru

>  <Rbt.Executable>
rbdock ($Id: //depot/dev/client3/rdock/2013.1/src/exe/rbdock.cxx#4 $)

>  <Rbt.Library>
libRbt.so (2013.1, Build901 2013/11/27)

>  <Rbt.Parameter_File>
/export/apps/rDock/src/rDock_2013.1_src/data/scripts/dock_solv.prm

>  <Rbt.Receptor>
prm/blind_docking_100.prm

>  <SCORE>
23.6534

>  <SCORE.INTER>
13.4425

>  <SCORE.INTER.CONST>
1

>  <SCORE.INTER.POLAR>
0

>  <SCORE.INTER.ROT>
13

>  <SCORE.INTER.SOLV>
32.34

>  <SCORE.INTER.VDW>
-14.085

>  <SCORE.INTER.norm>
0.292228

>  <SCORE.INTRA>
7.1446

>  <SCORE.INTRA.DIHEDRAL>
6.30567

>  <SCORE.INTRA.DIHEDRAL.0>
19.7146

>  <SCORE.INTRA.POLAR>
0

>  <SCORE.INTRA.POLAR.0>
0

>  <SCORE.INTRA.REPUL>
0

>  <SCORE.INTRA.REPUL.0>
0

>  <SCORE.INTRA.SOLV>
5.59936

>  <SCORE.INTRA.SOLV.lig_0>
-116.697

>  <SCORE.INTRA.VDW>
1.19208

>  <SCORE.INTRA.VDW.0>
-7.06424

>  <SCORE.INTRA.norm>
0.155317

>  <SCORE.RESTR>
3.0663

>  <SCORE.RESTR.CAVITY>
3.0663

>  <SCORE.RESTR.norm>
0.0666587

>  <SCORE.SYSTEM>
0

>  <SCORE.SYSTEM.CONST>
0

>  <SCORE.SYSTEM.DIHEDRAL>
0

>  <SCORE.SYSTEM.SOLV>
0

>  <SCORE.SYSTEM.norm>
0

>  <SCORE.heavy>
46

>  <SCORE.norm>
0.514204

>  <RMSD>
32.436

$$$$
lig.pdb
 OpenBabel03061811583D
libRbt.so/2013.1/901 2013/11/27
 46 49  0  0  0  0  0  0  0  0999 V2000
   -7.7144    3.3831   24.0510 C   0  0  1  0  0  0  0  0  0  0  0  0
   -9.1609    3.9173   22.0434 C   0  0  1  0  0  0  0  0  0  0  0  0
  -10.3981    3.1359   21.5063 C   0  0  1  0  0  0  0  0  0  0  0  0
  -11.3476    4.1577   20.6956 C   0  0  2  0  0  0  0  0  0  0  0  0
   -9.5707    2.1149   19.3358 C   0  0  2  0  0  0  0  0  0  0  0  0
  -10.5982    1.3753   18.4325 C   0  0  1  0  0  0  0  0  0  0  0  0
  -10.3549    2.1525   17.1614 C   0  0  1  0  0  0  0  0  0  0  0  0
  -10.3274    3.6483   17.6099 C   0  0  1  0  0  0  0  0  0  0  0  0
  -11.7141    4.3602   17.7887 C   0  0  0  0  0  0  0  0  0  0  0  0
   -8.9462    1.6935   15.1895 C   0  0  1  0  0  0  0  0  0  0  0  0
   -8.7061    0.3269   14.6207 C   0  0  1  0  0  0  0  0  0  0  0  0
   -6.1863    3.1464   24.0062 C   0  0  1  0  0  0  0  0  0  0  0  0
   -8.5819    0.4515   13.0608 C   0  0  0  0  0  0  0  0  0  0  0  0
   -7.5093    1.2905   12.6088 C   0  0  0  0  0  0  0  0  0  0  0  0
   -7.7260    2.6309   13.1102 C   0  0  2  0  0  0  0  0  0  0  0  0
   -6.5679    3.6020   12.6512 C   0  0  0  0  0  0  0  0  0  0  0  0
  -14.5579    8.2716   20.8192 C   0  0  2  0  0  0  0  0  0  0  0  0
  -14.1831    5.9557   21.0406 C   0  0  0  0  0  0  0  0  0  0  0  0
  -13.6567    8.9164   19.9932 C   0  0  0  0  0  0  0  0  0  0  0  0
  -14.9433    7.1143   20.2263 C   0  0  1  0  0  0  0  0  0  0  0  0
   -5.8510    1.5931   23.8561 C   0  0  0  0  0  0  0  0  0  0  0  0
   -6.5128    0.8157   25.0930 C   0  0  0  0  0  0  0  0  0  0  0  0
   -8.0887    1.0822   25.0551 C   0  0  1  0  0  0  0  0  0  0  0  0
   -8.8147    0.3862   26.2127 C   0  0  0  0  0  0  0  0  0  0  0  0
  -11.8585    5.2689   21.7129 C   0  0  1  0  0  0  0  0  0  0  0  0
  -10.5367    6.0596   22.2166 C   0  0  0  0  0  0  0  0  0  0  0  0
   -9.5793    5.0714   22.9878 C   0  0  2  0  0  0  0  0  0  0  0  0
  -15.6639    9.1556   21.1105 F   0  0  0  0  0  0  0  0  0  0  0  0
   -5.1583    2.9477   12.7225 N   0  0  0  0  0  0  0  0  0  0  0  0
   -5.6170    3.9647   22.8722 N   0  0  0  0  0  0  0  0  0  0  0  0
   -7.5124   -0.2665   15.0411 N   0  0  0  0  0  0  0  0  0  0  0  0
  -13.8292    9.5756   18.7535 N   0  0  0  0  0  0  0  0  0  0  0  0
   -8.2228    0.7116   27.4516 N   0  0  0  0  0  0  0  0  0  0  0  0
  -12.7426    6.2178   21.0128 N   0  0  0  0  0  0  0  0  0  0  0  0
   -8.3612    5.7773   23.4431 N   0  0  0  0  0  0  0  0  0  0  0  0
   -8.3192    3.0561   22.7994 O   0  0  0  0  0  0  0  0  0  0  0  0
   -9.8698    2.0526   20.6116 O   0  0  0  0  0  0  0  0  0  0  0  0
  -12.4310    3.4448   20.2328 O   0  0  0  0  0  0  0  0  0  0  0  0
  -10.2292    0.0315   18.3596 O   0  0  0  0  0  0  0  0  0  0  0  0
   -9.4937    3.4698   18.7671 O   0  0  0  0  0  0  0  0  0  0  0  0
  -12.3831    4.3252   16.5123 O   0  0  0  0  0  0  0  0  0  0  0  0
   -9.0255    1.7271   16.5648 O   0  0  0  0  0  0  0  0  0  0  0  0
  -16.3697    6.8958   20.2875 O   0  0  0  0  0  0  0  0  0  0  0  0
  -14.7465    5.0061   21.6094 O   0  0  0  0  0  0  0  0  0  0  0  0
   -7.8425    2.6160   14.6161 O   0  0  0  0  0  0  0  0  0  0  0  0
   -8.3602    2.5753   25.1402 O   0  0  0  0  0  0  0  0  0  0  0  0
  1 36  1  6  0  0  0
  2 36  1  1  0  0  0
  2  3  1  0  0  0  0
  3 37  1  6  0  0  0
  3  4  1  0  0  0  0
  4 38  1  1  0  0  0
  5 37  1  1  0  0  0
  5  6  1  0  0  0  0
  6  7  1  0  0  0  0
  6 39  1  6  0  0  0
  7 42  1  1  0  0  0
  8  9  1  1  0  0  0
  8  7  1  0  0  0  0
 10 42  1  1  0  0  0
 10 11  1  0  0  0  0
 11 31  1  1  0  0  0
 11 13  1  0  0  0  0
 12 30  1  6  0  0  0
 12  1  1  0  0  0  0
 14 13  1  0  0  0  0
 15 16  1  1  0  0  0
 15 14  1  0  0  0  0
 17 19  1  6  0  0  0
 17 28  1  0  0  0  0
 18 34  1  0  0  0  0
 19 32  1  0  0  0  0
 20 18  1  1  0  0  0
 20 17  1  0  0  0  0
 20 43  1  0  0  0  0
 21 12  1  0  0  0  0
 22 21  1  0  0  0  0
 22 23  1  0  0  0  0
 23 24  1  1  0  0  0
 23 46  1  0  0  0  0
 24 33  1  0  0  0  0
 25 34  1  6  0  0  0
 25  4  1  0  0  0  0
 26 25  1  0  0  0  0
 27 35  1  6  0  0  0
 27 26  1  0  0  0  0
 27  2  1  0  0  0  0
 29 16  1  0  0  0  0
 40  8  1  0  0  0  0
 40  5  1  0  0  0  0
 41  9  1  0  0  0  0
 44 18  2  0  0  0  0
 45 15  1  0  0  0  0
 45 10  1  0  0  0  0
 46  1  1  0  0  0  0
M  END
>  <CHROM.1>
-126.67689638,-136.10510325,-86.17964892,-107.17052740,144.81611656,-60.41178136
-116.25471264,-40.77052511,70.81574928,-56.13267232,105.68127323,52.25451158
93.11542485,-10.06146339,3.61734179,19.80024705,-1.99047645,0.69201630,-1.62674694

>  <Name>
lig.pdb

>  <RI>
0

>  <Rbt.Current_Directory>
/home/afrankz/demos/rdock_decoys_rna/rnas/3wru

>  <Rbt.Executable>
rbdock ($Id: //depot/dev/client3/rdock/2013.1/src/exe/rbdock.cxx#4 $)

>  <Rbt.Library>
libRbt.so (2013.1, Build901 2013/11/27)

>  <Rbt.Parameter_File>
/export/apps/rDock/src/rDock_2013.1_src/data/scripts/dock_solv.prm

>  <Rbt.Receptor>
prm/blind_docking_80.prm

>  <SCORE>
65.5507

>  <SCORE.INTER>
39.4763

>  <SCORE.INTER.CONST>
1

>  <SCORE.INTER.POLAR>
0

>  <SCORE.INTER.ROT>
13

>  <SCORE.INTER.SOLV>
42.9187

>  <SCORE.INTER.VDW>
-0.255396

>  <SCORE.INTER.norm>
0.858179

>  <SCORE.INTRA>
19.1218

>  <SCORE.INTRA.DIHEDRAL>
21.6417

>  <SCORE.INTRA.DIHEDRAL.0>
19.7146

>  <SCORE.INTRA.POLAR>
0

>  <SCORE.INTRA.POLAR.0>
0

>  <SCORE.INTRA.REPUL>
0

>  <SCORE.INTRA.REPUL.0>
0

>  <SCORE.INTRA.SOLV>
3.17743

>  <SCORE.INTRA.SOLV.lig_0>
-116.697

>  <SCORE.INTRA.VDW>
6.71222

>  <SCORE.INTRA.VDW.0>
-7.06424

>  <SCORE.INTRA.norm>
0.415691

>  <SCORE.RESTR>
6.95262

>  <SCORE.RESTR.CAVITY>
6.95262

>  <SCORE.RESTR.norm>
0.151144

>  <SCORE.SYSTEM>
0

>  <SCORE.SYSTEM.CONST>
0

>  <SCORE.SYSTEM.DIHEDRAL>
0

>  <SCORE.SYSTEM.SOLV>
0

>  <SCORE.SYSTEM.norm>
0

>  <SCORE.heavy>
46

>  <SCORE.norm>
1.42501

>  <RMSD>
32.473

$$$$
lig.pdb
 OpenBabel03061811583D
libRbt.so/2013.1/901 2013/11/27
 46 49  0  0  0  0  0  0  0  0999 V2000
  -10.5977    2.9491   20.6336 C   0  0  1  0  0  0  0  0  0  0  0  0
  -11.3703    4.6393   18.9148 C   0  0  1  0  0  0  0  0  0  0  0  0
  -11.8283    4.6258   17.4249 C   0  0  1  0  0  0  0  0  0  0  0  0
  -12.4189    6.0791   17.0484 C   0  0  2  0  0  0  0  0  0  0  0  0
  -10.1574    3.1207   16.2498 C   0  0  2  0  0  0  0  0  0  0  0  0
  -11.2379    2.2208   15.5854 C   0  0  1  0  0  0  0  0  0  0  0  0
  -10.3107    1.3432   14.7796 C   0  0  1  0  0  0  0  0  0  0  0  0
   -9.3031    2.3346   14.1156 C   0  0  1  0  0  0  0  0  0  0  0  0
   -9.7760    3.0528   12.8032 C   0  0  0  0  0  0  0  0  0  0  0  0
   -9.0829   -0.7648   15.1432 C   0  0  1  0  0  0  0  0  0  0  0  0
   -8.0121   -0.5090   14.1250 C   0  0  1  0  0  0  0  0  0  0  0  0
   -9.5293    1.8305   20.6556 C   0  0  1  0  0  0  0  0  0  0  0  0
   -7.5565   -1.8861   13.5247 C   0  0  0  0  0  0  0  0  0  0  0  0
   -8.5942   -2.6277   12.8676 C   0  0  0  0  0  0  0  0  0  0  0  0
   -9.6329   -2.9250   13.8309 C   0  0  2  0  0  0  0  0  0  0  0  0
  -10.8119   -3.7355   13.1614 C   0  0  0  0  0  0  0  0  0  0  0  0
  -14.5273   10.3877   17.7908 C   0  0  2  0  0  0  0  0  0  0  0  0
  -15.1592    8.2781   18.6294 C   0  0  0  0  0  0  0  0  0  0  0  0
  -14.8265   11.3898   16.8873 C   0  0  0  0  0  0  0  0  0  0  0  0
  -15.6616    9.6991   18.0711 C   0  0  1  0  0  0  0  0  0  0  0  0
  -10.0889    0.4903   19.9934 C   0  0  0  0  0  0  0  0  0  0  0  0
  -11.4007    0.0424   20.8002 C   0  0  0  0  0  0  0  0  0  0  0  0
  -12.4651    1.2317   20.7074 C   0  0  1  0  0  0  0  0  0  0  0  0
  -13.7580    0.9025   21.4634 C   0  0  0  0  0  0  0  0  0  0  0  0
  -13.6930    6.3458   17.9629 C   0  0  1  0  0  0  0  0  0  0  0  0
  -13.1528    6.3725   19.4905 C   0  0  0  0  0  0  0  0  0  0  0  0
  -12.5437    4.9681   19.8708 C   0  0  2  0  0  0  0  0  0  0  0  0
  -13.9089   10.9638   18.9635 F   0  0  0  0  0  0  0  0  0  0  0  0
  -12.1409   -3.6569   13.9662 N   0  0  0  0  0  0  0  0  0  0  0  0
   -8.2970    2.3436   19.9501 N   0  0  0  0  0  0  0  0  0  0  0  0
   -8.4331    0.2512   13.0302 N   0  0  0  0  0  0  0  0  0  0  0  0
  -15.5535   12.5946   17.0327 N   0  0  0  0  0  0  0  0  0  0  0  0
  -13.5443    0.9027   22.8582 N   0  0  0  0  0  0  0  0  0  0  0  0
  -14.2724    7.6621   17.6402 N   0  0  0  0  0  0  0  0  0  0  0  0
  -12.0345    4.9814   21.2600 N   0  0  0  0  0  0  0  0  0  0  0  0
  -10.8798    3.3603   19.2955 O   0  0  0  0  0  0  0  0  0  0  0  0
  -10.6158    4.2980   16.6031 O   0  0  0  0  0  0  0  0  0  0  0  0
  -12.8161    6.0411   15.7305 O   0  0  0  0  0  0  0  0  0  0  0  0
  -11.9277    1.5477   16.5945 O   0  0  0  0  0  0  0  0  0  0  0  0
   -9.0490    3.1350   15.2821 O   0  0  0  0  0  0  0  0  0  0  0  0
   -9.6418    2.1072   11.7234 O   0  0  0  0  0  0  0  0  0  0  0  0
   -9.6050    0.3761   15.7128 O   0  0  0  0  0  0  0  0  0  0  0  0
  -16.4857   10.3478   19.0642 O   0  0  0  0  0  0  0  0  0  0  0  0
  -15.4718    7.8025   19.7334 O   0  0  0  0  0  0  0  0  0  0  0  0
  -10.1505   -1.6507   14.4554 O   0  0  0  0  0  0  0  0  0  0  0  0
  -11.8703    2.5015   21.2939 O   0  0  0  0  0  0  0  0  0  0  0  0
  1 36  1  6  0  0  0
  2 36  1  1  0  0  0
  2  3  1  0  0  0  0
  3 37  1  6  0  0  0
  3  4  1  0  0  0  0
  4 38  1  6  0  0  0
  5 37  1  6  0  0  0
  5  6  1  0  0  0  0
  6  7  1  0  0  0  0
  6 39  1  1  0  0  0
  7 42  1  1  0  0  0
  8  9  1  6  0  0  0
  8  7  1  0  0  0  0
 10 42  1  6  0  0  0
 10 11  1  0  0  0  0
 11 31  1  6  0  0  0
 11 13  1  0  0  0  0
 12 30  1  6  0  0  0
 12  1  1  0  0  0  0
 14 13  1  0  0  0  0
 15 16  1  6  0  0  0
 15 14  1  0  0  0  0
 17 19  1  6  0  0  0
 17 28  1  0  0  0  0
 18 34  1  0  0  0  0
 19 32  1  0  0  0  0
 20 18  1  1  0  0  0
 20 17  1  0  0  0  0
 20 43  1  0  0  0  0
 21 12  1  0  0  0  0
 22 21  1  0  0  0  0
 22 23  1  0  0  0  0
 23 24  1  1  0  0  0
 23 46  1  0  0  0  0
 24 33  1  0  0  0  0
 25 34  1  6  0  0  0
 25  4  1  0  0  0  0
 26 25  1  0  0  0  0
 27 35  1  1  0  0  0
 27 26  1  0  0  0  0
 27  2  1  0  0  0  0
 29 16  1  0  0  0  0
 40  8  1  0  0  0  0
 40  5  1  0  0  0  0
 41  9  1  0  0  0  0
 44 18  2  0  0  0  0
 45 15  1  0  0  0  0
 45 10  1  0  0  0  0
 46  1  1  0  0  0  0
M  END
>  <CHROM.1>
-154.13971408,-168.49618658,88.65795002,51.58548015,158.89665845,-78.30997271
62.32384885,-159.87402538,70.94673947,-55.48933515,158.76864638,70.27098018
-160.76451098,-11.62950647,3.43665749,17.22953120,3.02382438,1.13480347,-1.05388988

>  <Name>
lig.pdb

>  <RI>
0

>  <Rbt.Current_Directory>
/home/afrankz/demos/rdock_decoys_rna/rnas/3wru

>  <Rbt.Executable>
rbdock ($Id: //depot/dev/client3/rdock/2013.1/src/exe/rbdock.cxx#4 $)

>  <Rbt.Library>
libRbt.so (2013.1, Build901 2013/11/27)

>  <Rbt.Parameter_File>
/export/apps/rDock/src/rDock_2013.1_src/data/scripts/dock_solv.prm

>  <Rbt.Receptor>
prm/blind_docking_40.prm

>  <SCORE>
20.5667

>  <SCORE.INTER>
8.27644

>  <SCORE.INTER.CONST>
1

>  <SCORE.INTER.POLAR>
0

>  <SCORE.INTER.ROT>
13

>  <SCORE.INTER.SOLV>
33.1955

>  <SCORE.INTER.VDW>
-17.8142

>  <SCORE.INTER.norm>
0.179923

>  <SCORE.INTRA>
8.36541

>  <SCORE.INTRA.DIHEDRAL>
-4.72258

>  <SCORE.INTRA.DIHEDRAL.0>
19.7146

>  <SCORE.INTRA.POLAR>
0

>  <SCORE.INTRA.POLAR.0>
0

>  <SCORE.INTRA.REPUL>
0

>  <SCORE.INTRA.REPUL.0>
0

>  <SCORE.INTRA.SOLV>
5.52438

>  <SCORE.INTRA.SOLV.lig_0>
-116.697

>  <SCORE.INTRA.VDW>
7.96451

>  <SCORE.INTRA.VDW.0>
-7.06424

>  <SCORE.INTRA.norm>
0.181857

>  <SCORE.RESTR>
3.92487

>  <SCORE.RESTR.CAVITY>
3.92487

>  <SCORE.RESTR.norm>
0.0853232

>  <SCORE.SYSTEM>
0

>  <SCORE.SYSTEM.CONST>
0

>  <SCORE.SYSTEM.DIHEDRAL>
0

>  <SCORE.SYSTEM.SOLV>
0

>  <SCORE.SYSTEM.norm>
0

>  <SCORE.heavy>
46

>  <SCORE.norm>
0.447103

>  <RMSD>
32.491

$$$$
lig.pdb
 OpenBabel03061811583D
libRbt.so/2013.1/901 2013/11/27
 46 49  0  0  0  0  0  0  0  0999 V2000
   -9.6725    2.8854   20.1163 C   0  0  1  0  0  0  0  0  0  0  0  0
  -11.2020    4.9021   20.0792 C   0  0  1  0  0  0  0  0  0  0  0  0
  -11.6774    4.5970   18.6264 C   0  0  1  0  0  0  0  0  0  0  0  0
  -12.3104    5.9391   17.9930 C   0  0  2  0  0  0  0  0  0  0  0  0
  -10.4092    3.5210   16.7103 C   0  0  2  0  0  0  0  0  0  0  0  0
  -10.6106    1.9847   16.8439 C   0  0  1  0  0  0  0  0  0  0  0  0
  -11.1210    1.7197   15.4481 C   0  0  1  0  0  0  0  0  0  0  0  0
  -12.1804    2.8387   15.1938 C   0  0  1  0  0  0  0  0  0  0  0  0
  -13.6184    2.5982   15.7733 C   0  0  0  0  0  0  0  0  0  0  0  0
   -9.0256    0.8096   14.5183 C   0  0  1  0  0  0  0  0  0  0  0  0
   -7.6610    1.2185   14.0496 C   0  0  1  0  0  0  0  0  0  0  0  0
   -9.7073    1.4768   20.7551 C   0  0  1  0  0  0  0  0  0  0  0  0
   -6.7183   -0.0354   14.1068 C   0  0  0  0  0  0  0  0  0  0  0  0
   -7.1333   -1.1368   13.2863 C   0  0  0  0  0  0  0  0  0  0  0  0
   -8.4355   -1.5834   13.7332 C   0  0  2  0  0  0  0  0  0  0  0  0
   -8.9511   -2.7932   12.8583 C   0  0  0  0  0  0  0  0  0  0  0  0
  -14.3093   11.1128   18.7877 C   0  0  2  0  0  0  0  0  0  0  0  0
  -13.6423    8.8539   18.7145 C   0  0  0  0  0  0  0  0  0  0  0  0
  -14.2973   12.2500   18.0024 C   0  0  0  0  0  0  0  0  0  0  0  0
  -14.4607   10.0296   17.9858 C   0  0  1  0  0  0  0  0  0  0  0  0
   -9.2781    1.5335   22.2914 C   0  0  0  0  0  0  0  0  0  0  0  0
   -7.8055    2.1630   22.3777 C   0  0  0  0  0  0  0  0  0  0  0  0
   -7.8559    3.6230   21.7282 C   0  0  1  0  0  0  0  0  0  0  0  0
   -6.4839    4.3073   21.7520 C   0  0  0  0  0  0  0  0  0  0  0  0
  -13.5799    6.3435   18.8623 C   0  0  1  0  0  0  0  0  0  0  0  0
  -13.0222    6.6705   20.3482 C   0  0  0  0  0  0  0  0  0  0  0  0
  -12.3720    5.3777   20.9758 C   0  0  2  0  0  0  0  0  0  0  0  0
  -15.3465   11.2277   19.7880 F   0  0  0  0  0  0  0  0  0  0  0  0
   -9.1825   -2.4135   11.3675 N   0  0  0  0  0  0  0  0  0  0  0  0
  -11.0951    0.9115   20.5712 N   0  0  0  0  0  0  0  0  0  0  0  0
   -7.6184    1.6536   12.7220 N   0  0  0  0  0  0  0  0  0  0  0  0
  -15.1981   12.7158   17.0160 N   0  0  0  0  0  0  0  0  0  0  0  0
   -5.9370    4.3027   23.0527 N   0  0  0  0  0  0  0  0  0  0  0  0
  -14.1973    7.5613   18.3073 N   0  0  0  0  0  0  0  0  0  0  0  0
  -11.8466    5.6647   22.3290 N   0  0  0  0  0  0  0  0  0  0  0  0
  -10.6736    3.7297   20.6856 O   0  0  0  0  0  0  0  0  0  0  0  0
  -10.4667    4.1487   17.8608 O   0  0  0  0  0  0  0  0  0  0  0  0
  -12.7223    5.6439   16.7127 O   0  0  0  0  0  0  0  0  0  0  0  0
   -9.3723    1.4033   17.1191 O   0  0  0  0  0  0  0  0  0  0  0  0
  -11.4069    3.9343   15.7108 O   0  0  0  0  0  0  0  0  0  0  0  0
  -13.5503    2.8158   17.1967 O   0  0  0  0  0  0  0  0  0  0  0  0
   -9.9651    1.8164   14.4690 O   0  0  0  0  0  0  0  0  0  0  0  0
  -15.8406    9.6340   17.8249 O   0  0  0  0  0  0  0  0  0  0  0  0
  -12.6844    9.0326   19.4847 O   0  0  0  0  0  0  0  0  0  0  0  0
   -9.4235   -0.4414   13.6970 O   0  0  0  0  0  0  0  0  0  0  0  0
   -8.3258    3.5285   20.2859 O   0  0  0  0  0  0  0  0  0  0  0  0
  1 36  1  1  0  0  0
  2 36  1  1  0  0  0
  2  3  1  0  0  0  0
  3 37  1  6  0  0  0
  3  4  1  0  0  0  0
  4 38  1  6  0  0  0
  5 37  1  1  0  0  0
  5  6  1  0  0  0  0
  6  7  1  0  0  0  0
  6 39  1  6  0  0  0
  7 42  1  6  0  0  0
  8  9  1  1  0  0  0
  8  7  1  0  0  0  0
 10 42  1  6  0  0  0
 10 11  1  0  0  0  0
 11 31  1  6  0  0  0
 11 13  1  0  0  0  0
 12 30  1  1  0  0  0
 12  1  1  0  0  0  0
 14 13  1  0  0  0  0
 15 16  1  6  0  0  0
 15 14  1  0  0  0  0
 17 19  1  6  0  0  0
 17 28  1  0  0  0  0
 18 34  1  0  0  0  0
 19 32  1  0  0  0  0
 20 18  1  1  0  0  0
 20 17  1  0  0  0  0
 20 43  1  0  0  0  0
 21 12  1  0  0  0  0
 22 21  1  0  0  0  0
 22 23  1  0  0  0  0
 23 24  1  6  0  0  0
 23 46  1  0  0  0  0
 24 33  1  0  0  0  0
 25 34  1  6  0  0  0
 25  4  1  0  0  0  0
 26 25  1  0  0  0  0
 27 35  1  1  0  0  0
 27 26  1  0  0  0  0
 27  2  1  0  0  0  0
 29 16  1  0  0  0  0
 40  8  1  0  0  0  0
 40  5  1  0  0  0  0
 41  9  1  0  0  0  0
 44 18  2  0  0  0  0
 45 15  1  0  0  0  0
 45 10  1  0  0  0  0
 46  1  1  0  0  0  0
M  END
>  <CHROM.1>
-159.06812402,51.54646358,163.83708213,-82.13155466,70.42738109,75.06923332
-153.25616493,-63.85734159,52.35459657,154.95689354,147.55787014,-52.76243107
-84.22298116,-10.95851149,4.13322461,17.78358211,-0.76950859,-0.88366923
1.09777681

>  <Name>
lig.pdb

>  <RI>
0

>  <Rbt.Current_Directory>
/home/afrankz/demos/rdock_decoys_rna/rnas/3wru

>  <Rbt.Executable>
rbdock ($Id: //depot/dev/client3/rdock/2013.1/src/exe/rbdock.cxx#4 $)

>  <Rbt.Library>
libRbt.so (2013.1, Build901 2013/11/27)

>  <Rbt.Parameter_File>
/export/apps/rDock/src/rDock_2013.1_src/data/scripts/dock_solv.prm

>  <Rbt.Receptor>
prm/blind_docking_40.prm

>  <SCORE>
13.2683

>  <SCORE.INTER>
1.62256

>  <SCORE.INTER.CONST>
1

>  <SCORE.INTER.POLAR>
0

>  <SCORE.INTER.ROT>
13

>  <SCORE.INTER.SOLV>
30.4532

>  <SCORE.INTER.VDW>
-21.336

>  <SCORE.INTER.norm>
0.035273

>  <SCORE.INTRA>
5.03819

>  <SCORE.INTRA.DIHEDRAL>
-4.64282

>  <SCORE.INTRA.DIHEDRAL.0>
19.7146

>  <SCORE.INTRA.POLAR>
0

>  <SCORE.INTRA.POLAR.0>
0

>  <SCORE.INTRA.REPUL>
0

>  <SCORE.INTRA.REPUL.0>
0

>  <SCORE.INTRA.SOLV>
1.56167

>  <SCORE.INTRA.SOLV.lig_0>
-116.697

>  <SCORE.INTRA.VDW>
6.57876

>  <SCORE.INTRA.VDW.0>
-7.06424

>  <SCORE.INTRA.norm>
0.109526

>  <SCORE.RESTR>
6.60752

>  <SCORE.RESTR.CAVITY>
6.60752

>  <SCORE.RESTR.norm>
0.143642

>  <SCORE.SYSTEM>
0

>  <SCORE.SYSTEM.CONST>
0

>  <SCORE.SYSTEM.DIHEDRAL>
0

>  <SCORE.SYSTEM.SOLV>
0

>  <SCORE.SYSTEM.norm>
0

>  <SCORE.heavy>
46

>  <SCORE.norm>
0.28844

>  <RMSD>
32.518

$$$$
lig.pdb
 OpenBabel03061811583D
libRbt.so/2013.1/901 2013/11/27
 46 49  0  0  0  0  0  0  0  0999 V2000
  -12.2404    0.9101   21.3104 C   0  0  1  0  0  0  0  0  0  0  0  0
  -11.5790    2.8773   19.8610 C   0  0  1  0  0  0  0  0  0  0  0  0
  -12.9056    3.3158   19.1700 C   0  0  1  0  0  0  0  0  0  0  0  0
  -12.8441    4.9024   18.8840 C   0  0  2  0  0  0  0  0  0  0  0  0
  -12.0413    2.0600   17.1417 C   0  0  2  0  0  0  0  0  0  0  0  0
  -11.0616    3.1607   16.6445 C   0  0  1  0  0  0  0  0  0  0  0  0
   -9.8525    2.2823   16.4320 C   0  0  1  0  0  0  0  0  0  0  0  0
   -9.7760    1.3950   17.7149 C   0  0  1  0  0  0  0  0  0  0  0  0
   -9.0996    2.0330   18.9787 C   0  0  0  0  0  0  0  0  0  0  0  0
   -9.0452    0.5749   14.8455 C   0  0  1  0  0  0  0  0  0  0  0  0
   -7.7610    1.2522   14.4700 C   0  0  1  0  0  0  0  0  0  0  0  0
  -11.2718   -0.0423   22.0507 C   0  0  1  0  0  0  0  0  0  0  0  0
   -6.7211    0.1524   14.0537 C   0  0  0  0  0  0  0  0  0  0  0  0
   -7.1153   -0.6539   12.9342 C   0  0  0  0  0  0  0  0  0  0  0  0
   -8.3365   -1.3531   13.2733 C   0  0  2  0  0  0  0  0  0  0  0  0
   -8.8267   -2.2534   12.0716 C   0  0  0  0  0  0  0  0  0  0  0  0
  -14.5203    9.8013   19.3862 C   0  0  2  0  0  0  0  0  0  0  0  0
  -13.7953    7.9118   20.5933 C   0  0  0  0  0  0  0  0  0  0  0  0
  -15.2960   10.7871   19.9665 C   0  0  0  0  0  0  0  0  0  0  0  0
  -13.5311    9.4593   20.2487 C   0  0  1  0  0  0  0  0  0  0  0  0
  -10.9330   -1.3219   21.1587 C   0  0  0  0  0  0  0  0  0  0  0  0
  -12.3092   -2.0671   20.8082 C   0  0  0  0  0  0  0  0  0  0  0  0
  -13.2416   -1.0337   20.0216 C   0  0  1  0  0  0  0  0  0  0  0  0
  -14.5948   -1.6521   19.6504 C   0  0  0  0  0  0  0  0  0  0  0  0
  -12.7351    5.6518   20.2830 C   0  0  1  0  0  0  0  0  0  0  0  0
  -11.3321    5.1768   20.9399 C   0  0  0  0  0  0  0  0  0  0  0  0
  -11.3593    3.6215   21.2015 C   0  0  2  0  0  0  0  0  0  0  0  0
  -14.0250   10.2654   18.1100 F   0  0  0  0  0  0  0  0  0  0  0  0
  -10.0890   -3.0954   12.4149 N   0  0  0  0  0  0  0  0  0  0  0  0
  -10.0340    0.7396   22.4193 N   0  0  0  0  0  0  0  0  0  0  0  0
   -7.8638    2.1019   13.3650 N   0  0  0  0  0  0  0  0  0  0  0  0
  -16.3663   11.5580   19.4552 N   0  0  0  0  0  0  0  0  0  0  0  0
  -14.4244   -2.8921   18.9989 N   0  0  0  0  0  0  0  0  0  0  0  0
  -12.6897    7.1090   20.0663 N   0  0  0  0  0  0  0  0  0  0  0  0
  -10.0787    3.1710   21.7901 N   0  0  0  0  0  0  0  0  0  0  0  0
  -11.6128    1.4890   20.1657 O   0  0  0  0  0  0  0  0  0  0  0  0
  -13.0069    2.5330   17.8933 O   0  0  0  0  0  0  0  0  0  0  0  0
  -14.0250    5.2641   18.2750 O   0  0  0  0  0  0  0  0  0  0  0  0
  -11.5806    3.7114   15.4720 O   0  0  0  0  0  0  0  0  0  0  0  0
  -11.1720    1.0590   17.7800 O   0  0  0  0  0  0  0  0  0  0  0  0
   -9.3967    3.4435   18.9594 O   0  0  0  0  0  0  0  0  0  0  0  0
  -10.0618    1.4405   15.1862 O   0  0  0  0  0  0  0  0  0  0  0  0
  -12.2107    9.6131   19.6839 O   0  0  0  0  0  0  0  0  0  0  0  0
  -14.7785    7.4861   21.2215 O   0  0  0  0  0  0  0  0  0  0  0  0
   -9.4108   -0.3697   13.6743 O   0  0  0  0  0  0  0  0  0  0  0  0
  -13.4894    0.1940   20.8826 O   0  0  0  0  0  0  0  0  0  0  0  0
  1 36  1  6  0  0  0
  2 36  1  1  0  0  0
  2  3  1  0  0  0  0
  3 37  1  6  0  0  0
  3  4  1  0  0  0  0
  4 38  1  1  0  0  0
  5 37  1  1  0  0  0
  5  6  1  0  0  0  0
  6  7  1  0  0  0  0
  6 39  1  6  0  0  0
  7 42  1  6  0  0  0
  8  9  1  1  0  0  0
  8  7  1  0  0  0  0
 10 42  1  6  0  0  0
 10 11  1  0  0  0  0
 11 31  1  6  0  0  0
 11 13  1  0  0  0  0
 12 30  1  6  0  0  0
 12  1  1  0  0  0  0
 14 13  1  0  0  0  0
 15 16  1  6  0  0  0
 15 14  1  0  0  0  0
 17 19  1  1  0  0  0
 17 28  1  0  0  0  0
 18 34  1  0  0  0  0
 19 32  1  0  0  0  0
 20 18  1  6  0  0  0
 20 17  1  0  0  0  0
 20 43  1  0  0  0  0
 21 12  1  0  0  0  0
 22 21  1  0  0  0  0
 22 23  1  0  0  0  0
 23 24  1  1  0  0  0
 23 46  1  0  0  0  0
 24 33  1  0  0  0  0
 25 34  1  6  0  0  0
 25  4  1  0  0  0  0
 26 25  1  0  0  0  0
 27 35  1  6  0  0  0
 27 26  1  0  0  0  0
 27  2  1  0  0  0  0
 29 16  1  0  0  0  0
 40  8  1  0  0  0  0
 40  5  1  0  0  0  0
 41  9  1  0  0  0  0
 44 18  2  0  0  0  0
 45 15  1  0  0  0  0
 45 10  1  0  0  0  0
 46  1  1  0  0  0  0
M  END
>  <CHROM.1>
-129.23359558,-81.98271423,-28.91519302,-57.58540685,-179.94935275,33.30263382
-64.76664929,176.44594613,173.93810607,114.27712058,117.41114103,-50.94363374
116.02665607,-11.55809190,2.91832747,18.24157604,0.62293479,-1.06194469,2.73275427

>  <Name>
lig.pdb

>  <RI>
0

>  <Rbt.Current_Directory>
/home/afrankz/demos/rdock_decoys_rna/rnas/3wru

>  <Rbt.Executable>
rbdock ($Id: //depot/dev/client3/rdock/2013.1/src/exe/rbdock.cxx#4 $)

>  <Rbt.Library>
libRbt.so (2013.1, Build901 2013/11/27)

>  <Rbt.Parameter_File>
/export/apps/rDock/src/rDock_2013.1_src/data/scripts/dock_solv.prm

>  <Rbt.Receptor>
prm/blind_docking_40.prm

>  <SCORE>
34.6048

>  <SCORE.INTER>
15.4496

>  <SCORE.INTER.CONST>
1

>  <SCORE.INTER.POLAR>
0

>  <SCORE.INTER.ROT>
13

>  <SCORE.INTER.SOLV>
30.543

>  <SCORE.INTER.VDW>
-12.1479

>  <SCORE.INTER.norm>
0.33586

>  <SCORE.INTRA>
13.3288

>  <SCORE.INTRA.DIHEDRAL>
4.16531

>  <SCORE.INTRA.DIHEDRAL.0>
19.7146

>  <SCORE.INTRA.POLAR>
0

>  <SCORE.INTRA.POLAR.0>
0

>  <SCORE.INTRA.REPUL>
0

>  <SCORE.INTRA.REPUL.0>
0

>  <SCORE.INTRA.SOLV>
5.14694

>  <SCORE.INTRA.SOLV.lig_0>
-116.697

>  <SCORE.INTRA.VDW>
8.67271

>  <SCORE.INTRA.VDW.0>
-7.06424

>  <SCORE.INTRA.norm>
0.289757

>  <SCORE.RESTR>
5.82644

>  <SCORE.RESTR.CAVITY>
5.82644

>  <SCORE.RESTR.norm>
0.126662

>  <SCORE.SYSTEM>
0

>  <SCORE.SYSTEM.CONST>
0

>  <SCORE.SYSTEM.DIHEDRAL>
0

>  <SCORE.SYSTEM.SOLV>
0

>  <SCORE.SYSTEM.norm>
0

>  <SCORE.heavy>
46

>  <SCORE.norm>
0.752279

>  <RMSD>
32.532

$$$$
lig.pdb
 OpenBabel03061811583D
libRbt.so/2013.1/901 2013/11/27
 46 49  0  0  0  0  0  0  0  0999 V2000
  -11.4148   -0.2659   20.1160 C   0  0  1  0  0  0  0  0  0  0  0  0
  -11.4675    0.9280   17.8845 C   0  0  1  0  0  0  0  0  0  0  0  0
  -11.2332    2.3869   17.3880 C   0  0  1  0  0  0  0  0  0  0  0  0
  -11.0733    2.3713   15.7826 C   0  0  2  0  0  0  0  0  0  0  0  0
  -12.4826    4.4208   18.2485 C   0  0  2  0  0  0  0  0  0  0  0  0
  -13.8596    5.0992   17.9992 C   0  0  1  0  0  0  0  0  0  0  0  0
  -13.7932    6.1188   19.1105 C   0  0  1  0  0  0  0  0  0  0  0  0
  -13.2952    5.3176   20.3551 C   0  0  1  0  0  0  0  0  0  0  0  0
  -14.3746    4.5061   21.1539 C   0  0  0  0  0  0  0  0  0  0  0  0
  -13.2493    8.5117   18.8614 C   0  0  1  0  0  0  0  0  0  0  0  0
  -13.7410    8.8541   20.2361 C   0  0  1  0  0  0  0  0  0  0  0  0
  -12.6648   -0.4996   20.9970 C   0  0  1  0  0  0  0  0  0  0  0  0
  -14.2556   10.3372   20.2259 C   0  0  0  0  0  0  0  0  0  0  0  0
  -15.3357   10.5920   19.3164 C   0  0  0  0  0  0  0  0  0  0  0  0
  -14.8862   10.3058   17.9707 C   0  0  2  0  0  0  0  0  0  0  0  0
  -16.0394   10.5598   16.9217 C   0  0  0  0  0  0  0  0  0  0  0  0
   -8.8408    0.5462   11.5766 C   0  0  2  0  0  0  0  0  0  0  0  0
   -8.2939    1.8871   13.4356 C   0  0  0  0  0  0  0  0  0  0  0  0
   -9.0799    0.4395   10.2196 C   0  0  0  0  0  0  0  0  0  0  0  0
   -8.3147    1.7697   11.8328 C   0  0  1  0  0  0  0  0  0  0  0  0
  -12.8272    0.6611   22.0807 C   0  0  0  0  0  0  0  0  0  0  0  0
  -11.4972    0.7005   22.9761 C   0  0  0  0  0  0  0  0  0  0  0  0
  -10.2579    0.9745   22.0040 C   0  0  1  0  0  0  0  0  0  0  0  0
   -8.9296    1.0183   22.7690 C   0  0  0  0  0  0  0  0  0  0  0  0
   -9.7876    1.5060   15.4234 C   0  0  1  0  0  0  0  0  0  0  0  0
  -10.0988    0.0019   15.9399 C   0  0  0  0  0  0  0  0  0  0  0  0
  -10.2878   -0.0013   17.5059 C   0  0  2  0  0  0  0  0  0  0  0  0
   -7.9869   -0.5393   12.0033 F   0  0  0  0  0  0  0  0  0  0  0  0
  -17.1495    9.4705   16.9591 N   0  0  0  0  0  0  0  0  0  0  0  0
  -13.8667   -0.6044   20.0894 N   0  0  0  0  0  0  0  0  0  0  0  0
  -14.8292    8.0875   20.6623 N   0  0  0  0  0  0  0  0  0  0  0  0
   -9.7744   -0.5353    9.4654 N   0  0  0  0  0  0  0  0  0  0  0  0
   -8.0525    1.9711   22.2087 N   0  0  0  0  0  0  0  0  0  0  0  0
   -9.5976    1.4774   13.9621 N   0  0  0  0  0  0  0  0  0  0  0  0
  -10.5853   -1.3673   17.9906 N   0  0  0  0  0  0  0  0  0  0  0  0
  -11.5733    0.8966   19.3019 O   0  0  0  0  0  0  0  0  0  0  0  0
  -12.4320    3.1850   17.8109 O   0  0  0  0  0  0  0  0  0  0  0  0
  -10.8673    3.6686   15.3697 O   0  0  0  0  0  0  0  0  0  0  0  0
  -13.8502    5.6504   16.7173 O   0  0  0  0  0  0  0  0  0  0  0  0
  -12.2461    4.5940   19.6904 O   0  0  0  0  0  0  0  0  0  0  0  0
  -15.2005    5.4599   21.8512 O   0  0  0  0  0  0  0  0  0  0  0  0
  -12.8129    7.2118   18.7250 O   0  0  0  0  0  0  0  0  0  0  0  0
   -6.9751    1.9282   11.3163 O   0  0  0  0  0  0  0  0  0  0  0  0
   -7.3135    2.2536   14.1042 O   0  0  0  0  0  0  0  0  0  0  0  0
  -14.3840    8.8843   17.8757 O   0  0  0  0  0  0  0  0  0  0  0  0
  -10.1763   -0.1205   20.9531 O   0  0  0  0  0  0  0  0  0  0  0  0
  1 36  1  1  0  0  0
  2 36  1  1  0  0  0
  2  3  1  0  0  0  0
  3 37  1  6  0  0  0
  3  4  1  0  0  0  0
  4 38  1  1  0  0  0
  5 37  1  1  0  0  0
  5  6  1  0  0  0  0
  6  7  1  0  0  0  0
  6 39  1  6  0  0  0
  7 42  1  6  0  0  0
  8  9  1  6  0  0  0
  8  7  1  0  0  0  0
 10 42  1  1  0  0  0
 10 11  1  0  0  0  0
 11 31  1  6  0  0  0
 11 13  1  0  0  0  0
 12 30  1  6  0  0  0
 12  1  1  0  0  0  0
 14 13  1  0  0  0  0
 15 16  1  6  0  0  0
 15 14  1  0  0  0  0
 17 19  1  6  0  0  0
 17 28  1  0  0  0  0
 18 34  1  0  0  0  0
 19 32  1  0  0  0  0
 20 18  1  1  0  0  0
 20 17  1  0  0  0  0
 20 43  1  0  0  0  0
 21 12  1  0  0  0  0
 22 21  1  0  0  0  0
 22 23  1  0  0  0  0
 23 24  1  1  0  0  0
 23 46  1  0  0  0  0
 24 33  1  0  0  0  0
 25 34  1  6  0  0  0
 25  4  1  0  0  0  0
 26 25  1  0  0  0  0
 27 35  1  6  0  0  0
 27 26  1  0  0  0  0
 27  2  1  0  0  0  0
 29 16  1  0  0  0  0
 40  8  1  0  0  0  0
 40  5  1  0  0  0  0
 41  9  1  0  0  0  0
 44 18  2  0  0  0  0
 45 15  1  0  0  0  0
 45 10  1  0  0  0  0
 46  1  1  0  0  0  0
M  END
>  <CHROM.1>
-123.84073748,-161.44747686,142.09116394,154.70461356,130.55500475,-71.41392055
55.24905180,-73.32149788,-170.23201151,-47.68791208,171.19515599,-144.50454608
126.11684315,-11.73820194,3.48345294,17.68871767,-0.13624056,-1.03436967
2.07221837

>  <Name>
lig.pdb

>  <RI>
0

>  <Rbt.Current_Directory>
/home/afrankz/demos/rdock_decoys_rna/rnas/3wru

>  <Rbt.Executable>
rbdock ($Id: //depot/dev/client3/rdock/2013.1/src/exe/rbdock.cxx#4 $)

>  <Rbt.Library>
libRbt.so (2013.1, Build901 2013/11/27)

>  <Rbt.Parameter_File>
/export/apps/rDock/src/rDock_2013.1_src/data/scripts/dock_solv.prm

>  <Rbt.Receptor>
prm/blind_docking_100.prm

>  <SCORE>
12.6048

>  <SCORE.INTER>
1.10935

>  <SCORE.INTER.CONST>
1

>  <SCORE.INTER.POLAR>
0

>  <SCORE.INTER.ROT>
13

>  <SCORE.INTER.SOLV>
28.7849

>  <SCORE.INTER.VDW>
-21.1221

>  <SCORE.INTER.norm>
0.0241162

>  <SCORE.INTRA>
11.087

>  <SCORE.INTRA.DIHEDRAL>
10.7551

>  <SCORE.INTRA.DIHEDRAL.0>
19.7146

>  <SCORE.INTRA.POLAR>
0

>  <SCORE.INTRA.POLAR.0>
0

>  <SCORE.INTRA.REPUL>
0

>  <SCORE.INTRA.REPUL.0>
0

>  <SCORE.INTRA.SOLV>
2.1171

>  <SCORE.INTRA.SOLV.lig_0>
-116.697

>  <SCORE.INTRA.VDW>
4.65088

>  <SCORE.INTRA.VDW.0>
-7.06424

>  <SCORE.INTRA.norm>
0.241021

>  <SCORE.RESTR>
0.408446

>  <SCORE.RESTR.CAVITY>
0.408446

>  <SCORE.RESTR.norm>
0.00887926

>  <SCORE.SYSTEM>
0

>  <SCORE.SYSTEM.CONST>
0

>  <SCORE.SYSTEM.DIHEDRAL>
0

>  <SCORE.SYSTEM.SOLV>
0

>  <SCORE.SYSTEM.norm>
0

>  <SCORE.heavy>
46

>  <SCORE.norm>
0.274017

>  <RMSD>
32.570

$$$$
lig.pdb
 OpenBabel03061811583D
libRbt.so/2013.1/901 2013/11/27
 46 49  0  0  0  0  0  0  0  0999 V2000
  -12.8018    1.7340   20.5529 C   0  0  1  0  0  0  0  0  0  0  0  0
  -12.6182    3.8000   19.1018 C   0  0  1  0  0  0  0  0  0  0  0  0
  -12.4502    4.1391   17.5897 C   0  0  1  0  0  0  0  0  0  0  0  0
  -12.4756    5.7422   17.4095 C   0  0  2  0  0  0  0  0  0  0  0  0
  -10.8699    2.7954   16.1286 C   0  0  2  0  0  0  0  0  0  0  0  0
   -9.3564    2.4685   15.9829 C   0  0  1  0  0  0  0  0  0  0  0  0
   -9.4959    1.1738   15.2192 C   0  0  1  0  0  0  0  0  0  0  0  0
  -10.6108    0.3845   15.9762 C   0  0  1  0  0  0  0  0  0  0  0  0
  -10.1722   -0.4093   17.2565 C   0  0  0  0  0  0  0  0  0  0  0  0
   -9.1803    0.8668   12.7923 C   0  0  1  0  0  0  0  0  0  0  0  0
   -9.4826    1.3718   11.4129 C   0  0  1  0  0  0  0  0  0  0  0  0
  -11.4365    1.5362   21.2529 C   0  0  1  0  0  0  0  0  0  0  0  0
   -8.6315    0.5473   10.3832 C   0  0  0  0  0  0  0  0  0  0  0  0
   -8.8920   -0.8637   10.3820 C   0  0  0  0  0  0  0  0  0  0  0  0
   -8.5768   -1.3947   11.6911 C   0  0  2  0  0  0  0  0  0  0  0  0
   -8.8533   -2.9486   11.7543 C   0  0  0  0  0  0  0  0  0  0  0  0
  -14.8769   10.2603   18.2189 C   0  0  2  0  0  0  0  0  0  0  0  0
  -15.0854    8.2822   16.9554 C   0  0  0  0  0  0  0  0  0  0  0  0
  -14.7744   11.6373   18.2785 C   0  0  0  0  0  0  0  0  0  0  0  0
  -14.9609    9.8842   16.9186 C   0  0  1  0  0  0  0  0  0  0  0  0
  -10.5197    0.5117   20.4420 C   0  0  0  0  0  0  0  0  0  0  0  0
  -11.3073   -0.8805   20.3239 C   0  0  0  0  0  0  0  0  0  0  0  0
  -12.6875   -0.6019   19.5667 C   0  0  1  0  0  0  0  0  0  0  0  0
  -13.5240   -1.8780   19.4143 C   0  0  0  0  0  0  0  0  0  0  0  0
  -13.8983    6.2698   17.8874 C   0  0  1  0  0  0  0  0  0  0  0  0
  -14.0046    5.9117   19.4643 C   0  0  0  0  0  0  0  0  0  0  0  0
  -13.9524    4.3482   19.6660 C   0  0  2  0  0  0  0  0  0  0  0  0
  -16.0064    9.8256   19.0095 F   0  0  0  0  0  0  0  0  0  0  0  0
   -8.2090   -3.7317   10.5745 N   0  0  0  0  0  0  0  0  0  0  0  0
  -10.7844    2.8897   21.4022 N   0  0  0  0  0  0  0  0  0  0  0  0
  -10.8120    1.1976   11.0182 N   0  0  0  0  0  0  0  0  0  0  0  0
  -13.8025   12.5266   17.7627 N   0  0  0  0  0  0  0  0  0  0  0  0
  -13.9351   -2.3684   20.6719 N   0  0  0  0  0  0  0  0  0  0  0  0
  -13.9678    7.7332   17.7262 N   0  0  0  0  0  0  0  0  0  0  0  0
  -14.0358    4.0066   21.1033 N   0  0  0  0  0  0  0  0  0  0  0  0
  -12.6411    2.3917   19.2956 O   0  0  0  0  0  0  0  0  0  0  0  0
  -11.1331    3.5609   17.1609 O   0  0  0  0  0  0  0  0  0  0  0  0
  -12.3263    6.0152   16.0682 O   0  0  0  0  0  0  0  0  0  0  0  0
   -8.7544    3.4974   15.2575 O   0  0  0  0  0  0  0  0  0  0  0  0
  -11.5290    1.4797   16.1292 O   0  0  0  0  0  0  0  0  0  0  0  0
   -9.4222   -1.5582   16.8142 O   0  0  0  0  0  0  0  0  0  0  0  0
   -9.9056    1.4808   13.7901 O   0  0  0  0  0  0  0  0  0  0  0  0
  -16.1063   10.4454   16.2409 O   0  0  0  0  0  0  0  0  0  0  0  0
  -16.0000    7.6325   16.4224 O   0  0  0  0  0  0  0  0  0  0  0  0
   -9.3661   -0.6700   12.7558 O   0  0  0  0  0  0  0  0  0  0  0  0
  -13.5015    0.4220   20.3407 O   0  0  0  0  0  0  0  0  0  0  0  0
  1 36  1  6  0  0  0
  2 36  1  6  0  0  0
  2  3  1  0  0  0  0
  3 37  1  1  0  0  0
  3  4  1  0  0  0  0
  4 38  1  6  0  0  0
  5 37  1  1  0  0  0
  5  6  1  0  0  0  0
  6  7  1  0  0  0  0
  6 39  1  6  0  0  0
  7 42  1  6  0  0  0
  8  9  1  1  0  0  0
  8  7  1  0  0  0  0
 10 42  1  1  0  0  0
 10 11  1  0  0  0  0
 11 31  1  6  0  0  0
 11 13  1  0  0  0  0
 12 30  1  6  0  0  0
 12  1  1  0  0  0  0
 14 13  1  0  0  0  0
 15 16  1  6  0  0  0
 15 14  1  0  0  0  0
 17 19  1  6  0  0  0
 17 28  1  0  0  0  0
 18 34  1  0  0  0  0
 19 32  1  0  0  0  0
 20 18  1  1  0  0  0
 20 17  1  0  0  0  0
 20 43  1  0  0  0  0
 21 12  1  0  0  0  0
 22 21  1  0  0  0  0
 22 23  1  0  0  0  0
 23 24  1  1  0  0  0
 23 46  1  0  0  0  0
 24 33  1  0  0  0  0
 25 34  1  1  0  0  0
 25  4  1  0  0  0  0
 26 25  1  0  0  0  0
 27 35  1  1  0  0  0
 27 26  1  0  0  0  0
 27  2  1  0  0  0  0
 29 16  1  0  0  0  0
 40  8  1  0  0  0  0
 40  5  1  0  0  0  0
 41  9  1  0  0  0  0
 44 18  2  0  0  0  0
 45 15  1  0  0  0  0
 45 10  1  0  0  0  0
 46  1  1  0  0  0  0
M  END
>  <CHROM.1>
-87.52912902,-178.98856275,129.77219858,176.77101840,130.89707604,-72.78077878
-170.72590408,49.99594227,-60.84744170,-54.30416367,-179.63833213,65.04072414
126.13593946,-11.93187371,3.10941062,16.77333246,2.84721018,1.09627954,-0.79111529

>  <Name>
lig.pdb

>  <RI>
0

>  <Rbt.Current_Directory>
/home/afrankz/demos/rdock_decoys_rna/rnas/3wru

>  <Rbt.Executable>
rbdock ($Id: //depot/dev/client3/rdock/2013.1/src/exe/rbdock.cxx#4 $)

>  <Rbt.Library>
libRbt.so (2013.1, Build901 2013/11/27)

>  <Rbt.Parameter_File>
/export/apps/rDock/src/rDock_2013.1_src/data/scripts/dock_solv.prm

>  <Rbt.Receptor>
prm/blind_docking_100.prm

>  <SCORE>
14.6373

>  <SCORE.INTER>
8.99184

>  <SCORE.INTER.CONST>
1

>  <SCORE.INTER.POLAR>
0

>  <SCORE.INTER.ROT>
13

>  <SCORE.INTER.SOLV>
30.777

>  <SCORE.INTER.VDW>
-16.5311

>  <SCORE.INTER.norm>
0.195475

>  <SCORE.INTRA>
3.69233

>  <SCORE.INTRA.DIHEDRAL>
0.359339

>  <SCORE.INTRA.DIHEDRAL.0>
19.7146

>  <SCORE.INTRA.POLAR>
0

>  <SCORE.INTRA.POLAR.0>
0

>  <SCORE.INTRA.REPUL>
0

>  <SCORE.INTRA.REPUL.0>
0

>  <SCORE.INTRA.SOLV>
1.22127

>  <SCORE.INTRA.SOLV.lig_0>
-116.697

>  <SCORE.INTRA.VDW>
2.90203

>  <SCORE.INTRA.VDW.0>
-7.06424

>  <SCORE.INTRA.norm>
0.0802681

>  <SCORE.RESTR>
1.9531

>  <SCORE.RESTR.CAVITY>
1.9531

>  <SCORE.RESTR.norm>
0.0424586

>  <SCORE.SYSTEM>
0

>  <SCORE.SYSTEM.CONST>
0

>  <SCORE.SYSTEM.DIHEDRAL>
0

>  <SCORE.SYSTEM.SOLV>
0

>  <SCORE.SYSTEM.norm>
0

>  <SCORE.heavy>
46

>  <SCORE.norm>
0.318201

>  <RMSD>
32.576

$$$$
lig.pdb
 OpenBabel03061811583D
libRbt.so/2013.1/901 2013/11/27
 46 49  0  0  0  0  0  0  0  0999 V2000
  -12.4656    2.0883   20.7868 C   0  0  1  0  0  0  0  0  0  0  0  0
  -12.5465    4.0089   19.1398 C   0  0  1  0  0  0  0  0  0  0  0  0
  -12.4612    4.2097   17.5963 C   0  0  1  0  0  0  0  0  0  0  0  0
  -12.5626    5.7864   17.2699 C   0  0  2  0  0  0  0  0  0  0  0  0
  -10.8839    2.8463   16.1502 C   0  0  2  0  0  0  0  0  0  0  0  0
   -9.3708    2.5181   16.0038 C   0  0  1  0  0  0  0  0  0  0  0  0
   -9.5128    1.1993   15.2831 C   0  0  1  0  0  0  0  0  0  0  0  0
  -10.6202    0.4323   16.0735 C   0  0  1  0  0  0  0  0  0  0  0  0
  -10.1703   -0.3190   17.3753 C   0  0  0  0  0  0  0  0  0  0  0  0
   -9.1566    0.8916   12.8620 C   0  0  1  0  0  0  0  0  0  0  0  0
   -9.5242    1.3130   11.4705 C   0  0  1  0  0  0  0  0  0  0  0  0
  -11.0094    1.8319   21.2418 C   0  0  1  0  0  0  0  0  0  0  0  0
   -8.5998    0.5484   10.4580 C   0  0  0  0  0  0  0  0  0  0  0  0
   -8.7080   -0.8815   10.5077 C   0  0  0  0  0  0  0  0  0  0  0  0
   -8.3255   -1.3299   11.8297 C   0  0  2  0  0  0  0  0  0  0  0  0
   -8.4337   -2.9012   11.9488 C   0  0  0  0  0  0  0  0  0  0  0  0
  -15.1251   10.3122   17.9085 C   0  0  2  0  0  0  0  0  0  0  0  0
  -15.3878    8.2001   16.8971 C   0  0  0  0  0  0  0  0  0  0  0  0
  -14.9975   11.6839   17.7978 C   0  0  0  0  0  0  0  0  0  0  0  0
  -15.3148    9.7897   16.6714 C   0  0  1  0  0  0  0  0  0  0  0  0
  -10.3358    0.6699   20.3794 C   0  0  0  0  0  0  0  0  0  0  0  0
  -11.2257   -0.6546   20.5410 C   0  0  0  0  0  0  0  0  0  0  0  0
  -12.7017   -0.3212   20.0250 C   0  0  1  0  0  0  0  0  0  0  0  0
  -13.6381   -1.5290   20.1509 C   0  0  0  0  0  0  0  0  0  0  0  0
  -13.9835    6.3023   17.7656 C   0  0  1  0  0  0  0  0  0  0  0  0
  -14.0036    6.0911   19.3721 C   0  0  0  0  0  0  0  0  0  0  0  0
  -13.8760    4.5568   19.7151 C   0  0  2  0  0  0  0  0  0  0  0  0
  -16.1966    9.9994   18.8269 F   0  0  0  0  0  0  0  0  0  0  0  0
   -9.8939   -3.4236   11.8259 N   0  0  0  0  0  0  0  0  0  0  0  0
  -10.2490    3.1321   21.1391 N   0  0  0  0  0  0  0  0  0  0  0  0
  -10.8312    0.9847   11.0995 N   0  0  0  0  0  0  0  0  0  0  0  0
  -14.0655   12.4835   17.0955 N   0  0  0  0  0  0  0  0  0  0  0  0
  -13.2930   -2.5372   19.2260 N   0  0  0  0  0  0  0  0  0  0  0  0
  -14.1223    7.7402   17.4730 N   0  0  0  0  0  0  0  0  0  0  0  0
  -13.8802    4.3497   21.1802 N   0  0  0  0  0  0  0  0  0  0  0  0
  -12.5008    2.6254   19.4641 O   0  0  0  0  0  0  0  0  0  0  0  0
  -11.1413    3.6440   17.1593 O   0  0  0  0  0  0  0  0  0  0  0  0
  -12.4855    5.9368   15.9033 O   0  0  0  0  0  0  0  0  0  0  0  0
   -8.7766    3.5244   15.2413 O   0  0  0  0  0  0  0  0  0  0  0  0
  -11.5398    1.5299   16.1980 O   0  0  0  0  0  0  0  0  0  0  0  0
  -11.2041   -1.2689   17.7026 O   0  0  0  0  0  0  0  0  0  0  0  0
   -9.9338    1.4593   13.8481 O   0  0  0  0  0  0  0  0  0  0  0  0
  -16.5328   10.2483   16.0450 O   0  0  0  0  0  0  0  0  0  0  0  0
  -16.3750    7.4940   16.6335 O   0  0  0  0  0  0  0  0  0  0  0  0
   -9.1775   -0.6567   12.8798 O   0  0  0  0  0  0  0  0  0  0  0  0
  -13.2818    0.8283   20.8326 O   0  0  0  0  0  0  0  0  0  0  0  0
  1 36  1  6  0  0  0
  2 36  1  6  0  0  0
  2  3  1  0  0  0  0
  3 37  1  1  0  0  0
  3  4  1  0  0  0  0
  4 38  1  6  0  0  0
  5 37  1  1  0  0  0
  5  6  1  0  0  0  0
  6  7  1  0  0  0  0
  6 39  1  6  0  0  0
  7 42  1  6  0  0  0
  8  9  1  1  0  0  0
  8  7  1  0  0  0  0
 10 42  1  1  0  0  0
 10 11  1  0  0  0  0
 11 31  1  6  0  0  0
 11 13  1  0  0  0  0
 12 30  1  6  0  0  0
 12  1  1  0  0  0  0
 14 13  1  0  0  0  0
 15 16  1  6  0  0  0
 15 14  1  0  0  0  0
 17 19  1  6  0  0  0
 17 28  1  0  0  0  0
 18 34  1  0  0  0  0
 19 32  1  0  0  0  0
 20 18  1  1  0  0  0
 20 17  1  0  0  0  0
 20 43  1  0  0  0  0
 21 12  1  0  0  0  0
 22 21  1  0  0  0  0
 22 23  1  0  0  0  0
 23 24  1  1  0  0  0
 23 46  1  0  0  0  0
 24 33  1  0  0  0  0
 25 34  1  1  0  0  0
 25  4  1  0  0  0  0
 26 25  1  0  0  0  0
 27 35  1  1  0  0  0
 27 26  1  0  0  0  0
 27  2  1  0  0  0  0
 29 16  1  0  0  0  0
 40  8  1  0  0  0  0
 40  5  1  0  0  0  0
 41  9  1  0  0  0  0
 44 18  2  0  0  0  0
 45 15  1  0  0  0  0
 45 10  1  0  0  0  0
 46  1  1  0  0  0  0
M  END
>  <CHROM.1>
-93.89173142,175.53542023,133.47005893,178.20479717,126.43001416,-162.51643236
-173.19885593,-65.42489491,-59.89189045,-60.94639032,177.65952492,-69.91172438
135.45364571,-11.99741250,3.19580498,16.80715165,2.90350059,1.09010196,-0.89948601

>  <Name>
lig.pdb

>  <RI>
0

>  <Rbt.Current_Directory>
/home/afrankz/demos/rdock_decoys_rna/rnas/3wru

>  <Rbt.Executable>
rbdock ($Id: //depot/dev/client3/rdock/2013.1/src/exe/rbdock.cxx#4 $)

>  <Rbt.Library>
libRbt.so (2013.1, Build901 2013/11/27)

>  <Rbt.Parameter_File>
/export/apps/rDock/src/rDock_2013.1_src/data/scripts/dock_solv.prm

>  <Rbt.Receptor>
prm/blind_docking_100.prm

>  <SCORE>
14.2583

>  <SCORE.INTER>
8.06124

>  <SCORE.INTER.CONST>
1

>  <SCORE.INTER.POLAR>
0

>  <SCORE.INTER.ROT>
13

>  <SCORE.INTER.SOLV>
26.4381

>  <SCORE.INTER.VDW>
-15.7052

>  <SCORE.INTER.norm>
0.175244

>  <SCORE.INTRA>
4.05551

>  <SCORE.INTRA.DIHEDRAL>
1.62386

>  <SCORE.INTRA.DIHEDRAL.0>
19.7146

>  <SCORE.INTRA.POLAR>
0

>  <SCORE.INTRA.POLAR.0>
0

>  <SCORE.INTRA.REPUL>
0

>  <SCORE.INTRA.REPUL.0>
0

>  <SCORE.INTRA.SOLV>
2.12507

>  <SCORE.INTRA.SOLV.lig_0>
-116.697

>  <SCORE.INTRA.VDW>
2.18104

>  <SCORE.INTRA.VDW.0>
-7.06424

>  <SCORE.INTRA.norm>
0.0881632

>  <SCORE.RESTR>
2.14159

>  <SCORE.RESTR.CAVITY>
2.14159

>  <SCORE.RESTR.norm>
0.0465564

>  <SCORE.SYSTEM>
0

>  <SCORE.SYSTEM.CONST>
0

>  <SCORE.SYSTEM.DIHEDRAL>
0

>  <SCORE.SYSTEM.SOLV>
0

>  <SCORE.SYSTEM.norm>
0

>  <SCORE.heavy>
46

>  <SCORE.norm>
0.309964

>  <RMSD>
32.663

$$$$
lig.pdb
 OpenBabel03061811583D
libRbt.so/2013.1/901 2013/11/27
 46 49  0  0  0  0  0  0  0  0999 V2000
  -11.8431    1.5425   21.5313 C   0  0  1  0  0  0  0  0  0  0  0  0
  -11.4847    3.4635   19.9222 C   0  0  1  0  0  0  0  0  0  0  0  0
  -12.8384    3.2822   19.1709 C   0  0  1  0  0  0  0  0  0  0  0  0
  -13.2690    4.6964   18.5249 C   0  0  2  0  0  0  0  0  0  0  0  0
  -11.8856    2.3302   17.0206 C   0  0  2  0  0  0  0  0  0  0  0  0
  -10.3893    2.6446   17.3051 C   0  0  1  0  0  0  0  0  0  0  0  0
   -9.8085    2.0488   16.0455 C   0  0  1  0  0  0  0  0  0  0  0  0
  -10.5186    0.6657   15.8967 C   0  0  1  0  0  0  0  0  0  0  0  0
   -9.9360   -0.5242   16.7372 C   0  0  0  0  0  0  0  0  0  0  0  0
   -9.2964    2.8605   13.7734 C   0  0  1  0  0  0  0  0  0  0  0  0
   -9.5822    1.6766   12.8986 C   0  0  1  0  0  0  0  0  0  0  0  0
  -10.9304    0.6044   22.3560 C   0  0  1  0  0  0  0  0  0  0  0  0
   -8.5374    1.6593   11.7271 C   0  0  0  0  0  0  0  0  0  0  0  0
   -7.1687    1.5542   12.1444 C   0  0  0  0  0  0  0  0  0  0  0  0
   -6.8445    2.7019   12.9646 C   0  0  2  0  0  0  0  0  0  0  0  0
   -5.3473    2.6374   13.4637 C   0  0  0  0  0  0  0  0  0  0  0  0
  -15.8397    8.9018   18.1963 C   0  0  2  0  0  0  0  0  0  0  0  0
  -14.7099    7.9121   20.0121 C   0  0  0  0  0  0  0  0  0  0  0  0
  -16.2553   10.0354   17.5238 C   0  0  0  0  0  0  0  0  0  0  0  0
  -15.0269    9.2723   19.2168 C   0  0  1  0  0  0  0  0  0  0  0  0
  -10.3596   -0.5805   21.4515 C   0  0  0  0  0  0  0  0  0  0  0  0
  -11.6031   -1.3875   20.8394 C   0  0  0  0  0  0  0  0  0  0  0  0
  -12.4792   -0.3630   19.9799 C   0  0  1  0  0  0  0  0  0  0  0  0
  -13.7067   -1.0408   19.3591 C   0  0  0  0  0  0  0  0  0  0  0  0
  -13.4879    5.7341   19.7108 C   0  0  1  0  0  0  0  0  0  0  0  0
  -12.0482    5.8989   20.4361 C   0  0  0  0  0  0  0  0  0  0  0  0
  -11.5938    4.5191   21.0505 C   0  0  2  0  0  0  0  0  0  0  0  0
  -15.2057    7.9942   17.2668 F   0  0  0  0  0  0  0  0  0  0  0  0
   -4.3219    2.4991   12.3018 N   0  0  0  0  0  0  0  0  0  0  0  0
   -9.8289    1.4373   22.9660 N   0  0  0  0  0  0  0  0  0  0  0  0
   -9.4397    0.4431   13.5402 N   0  0  0  0  0  0  0  0  0  0  0  0
  -16.4329   11.3696   17.9593 N   0  0  0  0  0  0  0  0  0  0  0  0
  -14.4600   -0.1245   18.5950 N   0  0  0  0  0  0  0  0  0  0  0  0
  -13.8966    7.0397   19.1624 N   0  0  0  0  0  0  0  0  0  0  0  0
  -10.2737    4.6515   21.7057 N   0  0  0  0  0  0  0  0  0  0  0  0
  -11.0923    2.2447   20.5402 O   0  0  0  0  0  0  0  0  0  0  0  0
  -12.6089    2.2438   18.1117 O   0  0  0  0  0  0  0  0  0  0  0  0
  -14.4652    4.5102   17.8688 O   0  0  0  0  0  0  0  0  0  0  0  0
  -10.2437    4.0291   17.4016 O   0  0  0  0  0  0  0  0  0  0  0  0
  -11.8515    1.1204   16.1838 O   0  0  0  0  0  0  0  0  0  0  0  0
   -8.6289   -0.8246   16.2086 O   0  0  0  0  0  0  0  0  0  0  0  0
  -10.1199    2.9619   14.8736 O   0  0  0  0  0  0  0  0  0  0  0  0
  -13.7921    9.8714   18.7667 O   0  0  0  0  0  0  0  0  0  0  0  0
  -15.0898    7.6653   21.1685 O   0  0  0  0  0  0  0  0  0  0  0  0
   -7.7926    2.7945   14.1369 O   0  0  0  0  0  0  0  0  0  0  0  0
  -12.9516    0.7786   20.8652 O   0  0  0  0  0  0  0  0  0  0  0  0
  1 36  1  6  0  0  0
  2 36  1  1  0  0  0
  2  3  1  0  0  0  0
  3 37  1  6  0  0  0
  3  4  1  0  0  0  0
  4 38  1  1  0  0  0
  5 37  1  1  0  0  0
  5  6  1  0  0  0  0
  6  7  1  0  0  0  0
  6 39  1  6  0  0  0
  7 42  1  6  0  0  0
  8  9  1  1  0  0  0
  8  7  1  0  0  0  0
 10 42  1  1  0  0  0
 10 11  1  0  0  0  0
 11 31  1  1  0  0  0
 11 13  1  0  0  0  0
 12 30  1  6  0  0  0
 12  1  1  0  0  0  0
 14 13  1  0  0  0  0
 15 16  1  1  0  0  0
 15 14  1  0  0  0  0
 17 19  1  6  0  0  0
 17 28  1  0  0  0  0
 18 34  1  0  0  0  0
 19 32  1  0  0  0  0
 20 18  1  6  0  0  0
 20 17  1  0  0  0  0
 20 43  1  0  0  0  0
 21 12  1  0  0  0  0
 22 21  1  0  0  0  0
 22 23  1  0  0  0  0
 23 24  1  1  0  0  0
 23 46  1  0  0  0  0
 24 33  1  0  0  0  0
 25 34  1  6  0  0  0
 25  4  1  0  0  0  0
 26 25  1  0  0  0  0
 27 35  1  6  0  0  0
 27 26  1  0  0  0  0
 27  2  1  0  0  0  0
 29 16  1  0  0  0  0
 40  8  1  0  0  0  0
 40  5  1  0  0  0  0
 41  9  1  0  0  0  0
 44 18  2  0  0  0  0
 45 15  1  0  0  0  0
 45 10  1  0  0  0  0
 46  1  1  0  0  0  0
M  END
>  <CHROM.1>
-158.20831555,-60.08048827,-69.16796561,59.26406969,157.16512277,-67.38107046
77.97548922,55.45040807,-27.92266830,67.37760405,174.93816780,-179.45859759
152.68225123,-11.52848616,3.40241529,17.78720830,2.96734437,0.89416693,-0.71664990

>  <Name>
lig.pdb

>  <RI>
0

>  <Rbt.Current_Directory>
/home/afrankz/demos/rdock_decoys_rna/rnas/3wru

>  <Rbt.Executable>
rbdock ($Id: //depot/dev/client3/rdock/2013.1/src/exe/rbdock.cxx#4 $)

>  <Rbt.Library>
libRbt.so (2013.1, Build901 2013/11/27)

>  <Rbt.Parameter_File>
/export/apps/rDock/src/rDock_2013.1_src/data/scripts/dock_solv.prm

>  <Rbt.Receptor>
prm/blind_docking_100.prm

>  <SCORE>
12.2662

>  <SCORE.INTER>
7.55948

>  <SCORE.INTER.CONST>
1

>  <SCORE.INTER.POLAR>
0

>  <SCORE.INTER.ROT>
13

>  <SCORE.INTER.SOLV>
28.6471

>  <SCORE.INTER.VDW>
-16.776

>  <SCORE.INTER.norm>
0.164337

>  <SCORE.INTRA>
0.911847

>  <SCORE.INTRA.DIHEDRAL>
-8.6199

>  <SCORE.INTRA.DIHEDRAL.0>
19.7146

>  <SCORE.INTRA.POLAR>
0

>  <SCORE.INTRA.POLAR.0>
0

>  <SCORE.INTRA.REPUL>
0

>  <SCORE.INTRA.REPUL.0>
0

>  <SCORE.INTRA.SOLV>
6.04812

>  <SCORE.INTRA.SOLV.lig_0>
-116.697

>  <SCORE.INTRA.VDW>
2.19774

>  <SCORE.INTRA.VDW.0>
-7.06424

>  <SCORE.INTRA.norm>
0.0198228

>  <SCORE.RESTR>
3.79486

>  <SCORE.RESTR.CAVITY>
3.79486

>  <SCORE.RESTR.norm>
0.0824971

>  <SCORE.SYSTEM>
0

>  <SCORE.SYSTEM.CONST>
0

>  <SCORE.SYSTEM.DIHEDRAL>
0

>  <SCORE.SYSTEM.SOLV>
0

>  <SCORE.SYSTEM.norm>
0

>  <SCORE.heavy>
46

>  <SCORE.norm>
0.266656

>  <RMSD>
32.751

$$$$
lig.pdb
 OpenBabel03061811583D
libRbt.so/2013.1/901 2013/11/27
 46 49  0  0  0  0  0  0  0  0999 V2000
  -11.4928    1.0367   19.5525 C   0  0  1  0  0  0  0  0  0  0  0  0
  -12.8351    3.0589   20.2714 C   0  0  1  0  0  0  0  0  0  0  0  0
  -12.5032    3.8808   18.9892 C   0  0  1  0  0  0  0  0  0  0  0  0
  -12.7303    5.4473   19.3014 C   0  0  2  0  0  0  0  0  0  0  0  0
  -10.5316    3.3787   17.4730 C   0  0  2  0  0  0  0  0  0  0  0  0
  -10.7758    1.9366   16.9445 C   0  0  1  0  0  0  0  0  0  0  0  0
  -10.6468    2.2312   15.4695 C   0  0  1  0  0  0  0  0  0  0  0  0
  -11.4945    3.5239   15.2472 C   0  0  1  0  0  0  0  0  0  0  0  0
  -13.0434    3.3359   15.0818 C   0  0  0  0  0  0  0  0  0  0  0  0
   -8.4056    1.3391   14.9547 C   0  0  1  0  0  0  0  0  0  0  0  0
   -7.1240    1.5913   14.2180 C   0  0  1  0  0  0  0  0  0  0  0  0
  -11.4411   -0.4461   19.9907 C   0  0  1  0  0  0  0  0  0  0  0  0
   -6.3751    0.2233   14.0387 C   0  0  0  0  0  0  0  0  0  0  0  0
   -7.1011   -0.7658   13.2949 C   0  0  0  0  0  0  0  0  0  0  0  0
   -8.3322   -1.0623   13.9960 C   0  0  2  0  0  0  0  0  0  0  0  0
   -9.1820   -2.1424   13.2175 C   0  0  0  0  0  0  0  0  0  0  0  0
  -14.2217   10.1143   18.8532 C   0  0  2  0  0  0  0  0  0  0  0  0
  -15.0566    7.9107   18.8458 C   0  0  0  0  0  0  0  0  0  0  0  0
  -14.6667   11.3761   18.5067 C   0  0  0  0  0  0  0  0  0  0  0  0
  -15.2581    9.4141   19.3775 C   0  0  1  0  0  0  0  0  0  0  0  0
  -11.2960   -0.5706   21.5754 C   0  0  0  0  0  0  0  0  0  0  0  0
   -9.9625    0.2023   22.0189 C   0  0  0  0  0  0  0  0  0  0  0  0
  -10.1027    1.7275   21.5606 C   0  0  1  0  0  0  0  0  0  0  0  0
   -8.8641    2.5523   21.9310 C   0  0  0  0  0  0  0  0  0  0  0  0
  -14.2670    5.6625   19.6520 C   0  0  1  0  0  0  0  0  0  0  0  0
  -14.5451    4.8075   21.0001 C   0  0  0  0  0  0  0  0  0  0  0  0
  -14.3004    3.2737   20.7250 C   0  0  2  0  0  0  0  0  0  0  0  0
  -13.0997   10.2295   19.7574 F   0  0  0  0  0  0  0  0  0  0  0  0
  -10.5077   -2.5141   13.9417 N   0  0  0  0  0  0  0  0  0  0  0  0
  -12.6839   -1.1318   19.4763 N   0  0  0  0  0  0  0  0  0  0  0  0
   -7.2963    2.0916   12.9243 N   0  0  0  0  0  0  0  0  0  0  0  0
  -15.2566   12.4050   19.2779 N   0  0  0  0  0  0  0  0  0  0  0  0
   -9.1072    3.9329   21.7701 N   0  0  0  0  0  0  0  0  0  0  0  0
  -14.5202    7.0874   19.9316 N   0  0  0  0  0  0  0  0  0  0  0  0
  -14.5385    2.4812   21.9516 N   0  0  0  0  0  0  0  0  0  0  0  0
  -12.6849    1.6672   20.0223 O   0  0  0  0  0  0  0  0  0  0  0  0
  -11.0697    3.5924   18.6502 O   0  0  0  0  0  0  0  0  0  0  0  0
  -12.4316    6.1501   18.1556 O   0  0  0  0  0  0  0  0  0  0  0  0
   -9.7731    1.1091   17.4514 O   0  0  0  0  0  0  0  0  0  0  0  0
  -11.0097    4.2507   16.3885 O   0  0  0  0  0  0  0  0  0  0  0  0
  -13.6002    3.1737   16.4016 O   0  0  0  0  0  0  0  0  0  0  0  0
   -9.1843    2.4617   15.1342 O   0  0  0  0  0  0  0  0  0  0  0  0
  -15.2719    9.4213   20.8218 O   0  0  0  0  0  0  0  0  0  0  0  0
  -15.3327    7.5246   17.6981 O   0  0  0  0  0  0  0  0  0  0  0  0
   -9.1362    0.1997   14.2024 O   0  0  0  0  0  0  0  0  0  0  0  0
  -10.2985    1.7963   20.0549 O   0  0  0  0  0  0  0  0  0  0  0  0
  1 36  1  1  0  0  0
  2 36  1  6  0  0  0
  2  3  1  0  0  0  0
  3 37  1  1  0  0  0
  3  4  1  0  0  0  0
  4 38  1  6  0  0  0
  5 37  1  1  0  0  0
  5  6  1  0  0  0  0
  6  7  1  0  0  0  0
  6 39  1  1  0  0  0
  7 42  1  1  0  0  0
  8  9  1  1  0  0  0
  8  7  1  0  0  0  0
 10 42  1  6  0  0  0
 10 11  1  0  0  0  0
 11 31  1  6  0  0  0
 11 13  1  0  0  0  0
 12 30  1  1  0  0  0
 12  1  1  0  0  0  0
 14 13  1  0  0  0  0
 15 16  1  6  0  0  0
 15 14  1  0  0  0  0
 17 19  1  1  0  0  0
 17 28  1  0  0  0  0
 18 34  1  0  0  0  0
 19 32  1  0  0  0  0
 20 18  1  1  0  0  0
 20 17  1  0  0  0  0
 20 43  1  0  0  0  0
 21 12  1  0  0  0  0
 22 21  1  0  0  0  0
 22 23  1  0  0  0  0
 23 24  1  6  0  0  0
 23 46  1  0  0  0  0
 24 33  1  0  0  0  0
 25 34  1  1  0  0  0
 25  4  1  0  0  0  0
 26 25  1  0  0  0  0
 27 35  1  1  0  0  0
 27 26  1  0  0  0  0
 27  2  1  0  0  0  0
 29 16  1  0  0  0  0
 40  8  1  0  0  0  0
 40  5  1  0  0  0  0
 41  9  1  0  0  0  0
 44 18  2  0  0  0  0
 45 15  1  0  0  0  0
 45 10  1  0  0  0  0
 46  1  1  0  0  0  0
M  END
>  <CHROM.1>
154.05995393,56.89633238,138.49784456,-78.74384599,81.09197279,79.95804801
161.60341268,179.09551504,58.87099283,103.45036912,142.75205158,-168.07791141
97.50759647,-11.60323146,3.50776657,18.04577013,0.21906157,-1.03345149,2.29004844

>  <Name>
lig.pdb

>  <RI>
0

>  <Rbt.Current_Directory>
/home/afrankz/demos/rdock_decoys_rna/rnas/3wru

>  <Rbt.Executable>
rbdock ($Id: //depot/dev/client3/rdock/2013.1/src/exe/rbdock.cxx#4 $)

>  <Rbt.Library>
libRbt.so (2013.1, Build901 2013/11/27)

>  <Rbt.Parameter_File>
/export/apps/rDock/src/rDock_2013.1_src/data/scripts/dock_solv.prm

>  <Rbt.Receptor>
prm/blind_docking_100.prm

>  <SCORE>
8.85691

>  <SCORE.INTER>
2.35813

>  <SCORE.INTER.CONST>
1

>  <SCORE.INTER.POLAR>
0

>  <SCORE.INTER.ROT>
13

>  <SCORE.INTER.SOLV>
23.6147

>  <SCORE.INTER.VDW>
-18.5661

>  <SCORE.INTER.norm>
0.0512638

>  <SCORE.INTRA>
3.49861

>  <SCORE.INTRA.DIHEDRAL>
2.0436

>  <SCORE.INTRA.DIHEDRAL.0>
19.7146

>  <SCORE.INTRA.POLAR>
0

>  <SCORE.INTRA.POLAR.0>
0

>  <SCORE.INTRA.REPUL>
0.0365037

>  <SCORE.INTRA.REPUL.0>
0

>  <SCORE.INTRA.SOLV>
0.919539

>  <SCORE.INTRA.SOLV.lig_0>
-116.697

>  <SCORE.INTRA.VDW>
1.83452

>  <SCORE.INTRA.VDW.0>
-7.06424

>  <SCORE.INTRA.norm>
0.0760568

>  <SCORE.RESTR>
3.00017

>  <SCORE.RESTR.CAVITY>
3.00017

>  <SCORE.RESTR.norm>
0.065221

>  <SCORE.SYSTEM>
0

>  <SCORE.SYSTEM.CONST>
0

>  <SCORE.SYSTEM.DIHEDRAL>
0

>  <SCORE.SYSTEM.SOLV>
0

>  <SCORE.SYSTEM.norm>
0

>  <SCORE.heavy>
46

>  <SCORE.norm>
0.192542

>  <RMSD>
32.757

$$$$
lig.pdb
 OpenBabel03061811583D
libRbt.so/2013.1/901 2013/11/27
 46 49  0  0  0  0  0  0  0  0999 V2000
  -12.5502    3.1402   13.9967 C   0  0  1  0  0  0  0  0  0  0  0  0
  -12.8734    4.7585   15.9161 C   0  0  1  0  0  0  0  0  0  0  0  0
  -11.7765    4.9450   17.0078 C   0  0  1  0  0  0  0  0  0  0  0  0
  -12.4797    5.4360   18.3742 C   0  0  2  0  0  0  0  0  0  0  0  0
  -11.6354    2.4788   17.5874 C   0  0  2  0  0  0  0  0  0  0  0  0
  -10.6848    1.2634   17.3929 C   0  0  1  0  0  0  0  0  0  0  0  0
  -11.2602    0.3750   18.4693 C   0  0  1  0  0  0  0  0  0  0  0  0
  -11.4297    1.3111   19.7079 C   0  0  1  0  0  0  0  0  0  0  0  0
  -10.1542    1.5620   20.5865 C   0  0  0  0  0  0  0  0  0  0  0  0
  -12.5698   -1.3728   17.3231 C   0  0  1  0  0  0  0  0  0  0  0  0
  -12.4458   -2.5765   18.2090 C   0  0  1  0  0  0  0  0  0  0  0  0
  -11.6262    2.9847   12.7657 C   0  0  1  0  0  0  0  0  0  0  0  0
  -12.3709   -3.8561   17.3027 C   0  0  0  0  0  0  0  0  0  0  0  0
  -11.2602   -3.8849   16.3948 C   0  0  0  0  0  0  0  0  0  0  0  0
  -11.3652   -2.7540   15.4976 C   0  0  2  0  0  0  0  0  0  0  0  0
  -10.1604   -2.7267   14.4764 C   0  0  0  0  0  0  0  0  0  0  0  0
  -15.6625    7.9136   21.0802 C   0  0  2  0  0  0  0  0  0  0  0  0
  -14.2938    8.7195   19.3395 C   0  0  0  0  0  0  0  0  0  0  0  0
  -16.3742    8.1446   22.2422 C   0  0  0  0  0  0  0  0  0  0  0  0
  -14.9594    9.0308   20.7689 C   0  0  1  0  0  0  0  0  0  0  0  0
  -11.9603    4.0822   11.6560 C   0  0  0  0  0  0  0  0  0  0  0  0
  -13.5001    3.9196   11.2378 C   0  0  0  0  0  0  0  0  0  0  0  0
  -14.3902    4.1222   12.5503 C   0  0  1  0  0  0  0  0  0  0  0  0
  -15.8875    3.9726   12.2548 C   0  0  0  0  0  0  0  0  0  0  0  0
  -13.1596    6.8477   18.0994 C   0  0  1  0  0  0  0  0  0  0  0  0
  -14.3015    6.5869   16.9795 C   0  0  0  0  0  0  0  0  0  0  0  0
  -13.6377    6.0776   15.6423 C   0  0  2  0  0  0  0  0  0  0  0  0
  -16.5695    7.5035   20.0320 F   0  0  0  0  0  0  0  0  0  0  0  0
  -10.3388   -3.7230   13.2950 N   0  0  0  0  0  0  0  0  0  0  0  0
  -10.1949    3.0696   13.2387 N   0  0  0  0  0  0  0  0  0  0  0  0
  -11.2814   -2.6011   18.9816 N   0  0  0  0  0  0  0  0  0  0  0  0
  -15.9614    8.5921   23.5192 N   0  0  0  0  0  0  0  0  0  0  0  0
  -16.1427    2.8037   11.5068 N   0  0  0  0  0  0  0  0  0  0  0  0
  -13.8041    7.3393   19.3304 N   0  0  0  0  0  0  0  0  0  0  0  0
  -14.6704    5.8229   14.6137 N   0  0  0  0  0  0  0  0  0  0  0  0
  -12.2855    4.3640   14.6832 O   0  0  0  0  0  0  0  0  0  0  0  0
  -11.1107    3.6113   17.1834 O   0  0  0  0  0  0  0  0  0  0  0  0
  -11.4918    5.5935   19.3204 O   0  0  0  0  0  0  0  0  0  0  0  0
  -10.8576    0.7756   16.0970 O   0  0  0  0  0  0  0  0  0  0  0  0
  -12.0111    2.4244   19.0090 O   0  0  0  0  0  0  0  0  0  0  0  0
  -10.5521    2.3942   21.6943 O   0  0  0  0  0  0  0  0  0  0  0  0
  -12.5959   -0.1732   18.0006 O   0  0  0  0  0  0  0  0  0  0  0  0
  -15.7868   10.2108   20.6733 O   0  0  0  0  0  0  0  0  0  0  0  0
  -14.2289    9.5286   18.3994 O   0  0  0  0  0  0  0  0  0  0  0  0
  -11.4269   -1.4648   16.2824 O   0  0  0  0  0  0  0  0  0  0  0  0
  -13.9984    3.0963   13.6011 O   0  0  0  0  0  0  0  0  0  0  0  0
  1 36  1  6  0  0  0
  2 36  1  6  0  0  0
  2  3  1  0  0  0  0
  3 37  1  1  0  0  0
  3  4  1  0  0  0  0
  4 38  1  1  0  0  0
  5 37  1  1  0  0  0
  5  6  1  0  0  0  0
  6  7  1  0  0  0  0
  6 39  1  6  0  0  0
  7 42  1  6  0  0  0
  8  9  1  6  0  0  0
  8  7  1  0  0  0  0
 10 42  1  1  0  0  0
 10 11  1  0  0  0  0
 11 31  1  6  0  0  0
 11 13  1  0  0  0  0
 12 30  1  1  0  0  0
 12  1  1  0  0  0  0
 14 13  1  0  0  0  0
 15 16  1  6  0  0  0
 15 14  1  0  0  0  0
 17 19  1  1  0  0  0
 17 28  1  0  0  0  0
 18 34  1  0  0  0  0
 19 32  1  0  0  0  0
 20 18  1  6  0  0  0
 20 17  1  0  0  0  0
 20 43  1  0  0  0  0
 21 12  1  0  0  0  0
 22 21  1  0  0  0  0
 22 23  1  0  0  0  0
 23 24  1  6  0  0  0
 23 46  1  0  0  0  0
 24 33  1  0  0  0  0
 25 34  1  1  0  0  0
 25  4  1  0  0  0  0
 26 25  1  0  0  0  0
 27 35  1  6  0  0  0
 27 26  1  0  0  0  0
 27  2  1  0  0  0  0
 29 16  1  0  0  0  0
 40  8  1  0  0  0  0
 40  5  1  0  0  0  0
 41  9  1  0  0  0  0
 44 18  2  0  0  0  0
 45 15  1  0  0  0  0
 45 10  1  0  0  0  0
 46  1  1  0  0  0  0
M  END
>  <CHROM.1>
-174.16742629,118.74004048,-62.13558323,169.55448437,90.48985035,-177.43272112
79.42438386,79.10715026,-53.94623920,-41.25894324,-174.34588194,48.50077172
170.17890044,-12.84279899,3.28506582,17.04477453,0.56327385,1.18912554,-1.74952327

>  <Name>
lig.pdb

>  <RI>
0

>  <Rbt.Current_Directory>
/home/afrankz/demos/rdock_decoys_rna/rnas/3wru

>  <Rbt.Executable>
rbdock ($Id: //depot/dev/client3/rdock/2013.1/src/exe/rbdock.cxx#4 $)

>  <Rbt.Library>
libRbt.so (2013.1, Build901 2013/11/27)

>  <Rbt.Parameter_File>
/export/apps/rDock/src/rDock_2013.1_src/data/scripts/dock_solv.prm

>  <Rbt.Receptor>
prm/blind_docking_100.prm

>  <SCORE>
18.5315

>  <SCORE.INTER>
5.48283

>  <SCORE.INTER.CONST>
1

>  <SCORE.INTER.POLAR>
0

>  <SCORE.INTER.ROT>
13

>  <SCORE.INTER.SOLV>
32.3348

>  <SCORE.INTER.VDW>
-19.3897

>  <SCORE.INTER.norm>
0.119192

>  <SCORE.INTRA>
5.4103

>  <SCORE.INTRA.DIHEDRAL>
-3.12202

>  <SCORE.INTRA.DIHEDRAL.0>
19.7146

>  <SCORE.INTRA.POLAR>
0

>  <SCORE.INTRA.POLAR.0>
0

>  <SCORE.INTRA.REPUL>
0

>  <SCORE.INTRA.REPUL.0>
0

>  <SCORE.INTRA.SOLV>
3.66203

>  <SCORE.INTRA.SOLV.lig_0>
-116.697

>  <SCORE.INTRA.VDW>
5.14029

>  <SCORE.INTRA.VDW.0>
-7.06424

>  <SCORE.INTRA.norm>
0.117615

>  <SCORE.RESTR>
7.63836

>  <SCORE.RESTR.CAVITY>
7.63836

>  <SCORE.RESTR.norm>
0.166051

>  <SCORE.SYSTEM>
0

>  <SCORE.SYSTEM.CONST>
0

>  <SCORE.SYSTEM.DIHEDRAL>
0

>  <SCORE.SYSTEM.SOLV>
0

>  <SCORE.SYSTEM.norm>
0

>  <SCORE.heavy>
46

>  <SCORE.norm>
0.402859

>  <RMSD>
32.820

$$$$
lig.pdb
 OpenBabel03061811583D
libRbt.so/2013.1/901 2013/11/27
 46 49  0  0  0  0  0  0  0  0999 V2000
  -11.2758    0.9087   20.1104 C   0  0  1  0  0  0  0  0  0  0  0  0
  -12.6279    3.0291   20.3996 C   0  0  1  0  0  0  0  0  0  0  0  0
  -12.1989    3.8259   19.1305 C   0  0  1  0  0  0  0  0  0  0  0  0
  -12.3957    5.4019   19.4138 C   0  0  2  0  0  0  0  0  0  0  0  0
  -10.1875    3.1157   17.7566 C   0  0  2  0  0  0  0  0  0  0  0  0
  -10.6849    1.7304   17.2541 C   0  0  1  0  0  0  0  0  0  0  0  0
  -10.3849    1.9214   15.7870 C   0  0  1  0  0  0  0  0  0  0  0  0
  -10.9259    3.3480   15.4537 C   0  0  1  0  0  0  0  0  0  0  0  0
  -12.4627    3.4733   15.1634 C   0  0  0  0  0  0  0  0  0  0  0  0
   -8.3935    2.3823   14.4066 C   0  0  1  0  0  0  0  0  0  0  0  0
   -8.8295    1.6739   13.1588 C   0  0  1  0  0  0  0  0  0  0  0  0
  -11.2709   -0.2656   21.1175 C   0  0  1  0  0  0  0  0  0  0  0  0
   -8.1511    2.3718   11.9271 C   0  0  0  0  0  0  0  0  0  0  0  0
   -6.7165    2.3545   11.9419 C   0  0  0  0  0  0  0  0  0  0  0  0
   -6.2563    3.0624   13.1176 C   0  0  2  0  0  0  0  0  0  0  0  0
   -4.6787    3.0691   13.1941 C   0  0  0  0  0  0  0  0  0  0  0  0
  -14.3067    9.9020   18.9543 C   0  0  2  0  0  0  0  0  0  0  0  0
  -15.2557    7.7588   19.1973 C   0  0  0  0  0  0  0  0  0  0  0  0
  -14.6790   11.1973   18.6480 C   0  0  0  0  0  0  0  0  0  0  0  0
  -15.3188    9.3050   19.6315 C   0  0  1  0  0  0  0  0  0  0  0  0
  -11.2810    0.2691   22.6214 C   0  0  0  0  0  0  0  0  0  0  0  0
   -9.9950    1.2046   22.8295 C   0  0  0  0  0  0  0  0  0  0  0  0
  -10.0858    2.4062   21.7789 C   0  0  1  0  0  0  0  0  0  0  0  0
   -8.8871    3.3559   21.8909 C   0  0  0  0  0  0  0  0  0  0  0  0
  -13.9425    5.6669   19.6740 C   0  0  1  0  0  0  0  0  0  0  0  0
  -14.3225    4.8362   21.0124 C   0  0  0  0  0  0  0  0  0  0  0  0
  -14.1094    3.2927   20.7667 C   0  0  2  0  0  0  0  0  0  0  0  0
  -13.0632    9.9185   19.6911 F   0  0  0  0  0  0  0  0  0  0  0  0
   -4.0715    1.6520   13.4029 N   0  0  0  0  0  0  0  0  0  0  0  0
  -12.4595   -1.1468   20.8177 N   0  0  0  0  0  0  0  0  0  0  0  0
   -8.4319    0.3356   13.0916 N   0  0  0  0  0  0  0  0  0  0  0  0
  -14.1082   12.1537   17.7757 N   0  0  0  0  0  0  0  0  0  0  0  0
   -9.0622    4.4926   21.0734 N   0  0  0  0  0  0  0  0  0  0  0  0
  -14.1678    7.1018   19.9248 N   0  0  0  0  0  0  0  0  0  0  0  0
  -14.4407    2.5219   21.9855 N   0  0  0  0  0  0  0  0  0  0  0  0
  -12.5062    1.6308   20.1732 O   0  0  0  0  0  0  0  0  0  0  0  0
  -10.7580    3.4911   18.8767 O   0  0  0  0  0  0  0  0  0  0  0  0
  -12.0112    6.0824   18.2801 O   0  0  0  0  0  0  0  0  0  0  0  0
   -9.9179    0.7405   17.8697 O   0  0  0  0  0  0  0  0  0  0  0  0
  -10.3895    4.0141   16.6089 O   0  0  0  0  0  0  0  0  0  0  0  0
  -13.1323    3.5900   16.4346 O   0  0  0  0  0  0  0  0  0  0  0  0
   -8.8852    1.8314   15.5700 O   0  0  0  0  0  0  0  0  0  0  0  0
  -15.1808    9.4134   21.0652 O   0  0  0  0  0  0  0  0  0  0  0  0
  -16.0260    7.2216   18.3844 O   0  0  0  0  0  0  0  0  0  0  0  0
   -6.8470    2.4485   14.3651 O   0  0  0  0  0  0  0  0  0  0  0  0
  -10.1340    1.8508   20.3649 O   0  0  0  0  0  0  0  0  0  0  0  0
  1 36  1  1  0  0  0
  2 36  1  6  0  0  0
  2  3  1  0  0  0  0
  3 37  1  1  0  0  0
  3  4  1  0  0  0  0
  4 38  1  6  0  0  0
  5 37  1  1  0  0  0
  5  6  1  0  0  0  0
  6  7  1  0  0  0  0
  6 39  1  1  0  0  0
  7 42  1  1  0  0  0
  8  9  1  1  0  0  0
  8  7  1  0  0  0  0
 10 42  1  1  0  0  0
 10 11  1  0  0  0  0
 11 31  1  1  0  0  0
 11 13  1  0  0  0  0
 12 30  1  6  0  0  0
 12  1  1  0  0  0  0
 14 13  1  0  0  0  0
 15 16  1  1  0  0  0
 15 14  1  0  0  0  0
 17 19  1  1  0  0  0
 17 28  1  0  0  0  0
 18 34  1  0  0  0  0
 19 32  1  0  0  0  0
 20 18  1  1  0  0  0
 20 17  1  0  0  0  0
 20 43  1  0  0  0  0
 21 12  1  0  0  0  0
 22 21  1  0  0  0  0
 22 23  1  0  0  0  0
 23 24  1  6  0  0  0
 23 46  1  0  0  0  0
 24 33  1  0  0  0  0
 25 34  1  1  0  0  0
 25  4  1  0  0  0  0
 26 25  1  0  0  0  0
 27 35  1  1  0  0  0
 27 26  1  0  0  0  0
 27  2  1  0  0  0  0
 29 16  1  0  0  0  0
 40  8  1  0  0  0  0
 40  5  1  0  0  0  0
 41  9  1  0  0  0  0
 44 18  2  0  0  0  0
 45 15  1  0  0  0  0
 45 10  1  0  0  0  0
 46  1  1  0  0  0  0
M  END
>  <CHROM.1>
124.92549162,73.55512623,130.83877520,-65.40507861,-160.33499278,84.06228864
-66.51863737,-65.70771109,-167.62251078,77.75956611,147.22358677,-172.89342103
132.09357809,-11.20558941,3.95243580,18.09412197,0.07512129,-0.87909221,2.42099060

>  <Name>
lig.pdb

>  <RI>
0

>  <Rbt.Current_Directory>
/home/afrankz/demos/rdock_decoys_rna/rnas/3wru

>  <Rbt.Executable>
rbdock ($Id: //depot/dev/client3/rdock/2013.1/src/exe/rbdock.cxx#4 $)

>  <Rbt.Library>
libRbt.so (2013.1, Build901 2013/11/27)

>  <Rbt.Parameter_File>
/export/apps/rDock/src/rDock_2013.1_src/data/scripts/dock_solv.prm

>  <Rbt.Receptor>
prm/blind_docking_40.prm

>  <SCORE>
14.2375

>  <SCORE.INTER>
4.14243

>  <SCORE.INTER.CONST>
1

>  <SCORE.INTER.POLAR>
0

>  <SCORE.INTER.ROT>
13

>  <SCORE.INTER.SOLV>
34.5753

>  <SCORE.INTER.VDW>
-21.0302

>  <SCORE.INTER.norm>
0.0900527

>  <SCORE.INTRA>
6.57076

>  <SCORE.INTRA.DIHEDRAL>
4.59016

>  <SCORE.INTRA.DIHEDRAL.0>
19.7146

>  <SCORE.INTRA.POLAR>
0

>  <SCORE.INTRA.POLAR.0>
0

>  <SCORE.INTRA.REPUL>
0

>  <SCORE.INTRA.REPUL.0>
0

>  <SCORE.INTRA.SOLV>
3.2003

>  <SCORE.INTRA.SOLV.lig_0>
-116.697

>  <SCORE.INTRA.VDW>
2.67553

>  <SCORE.INTRA.VDW.0>
-7.06424

>  <SCORE.INTRA.norm>
0.142843

>  <SCORE.RESTR>
3.52432

>  <SCORE.RESTR.CAVITY>
3.52432

>  <SCORE.RESTR.norm>
0.0766156

>  <SCORE.SYSTEM>
0

>  <SCORE.SYSTEM.CONST>
0

>  <SCORE.SYSTEM.DIHEDRAL>
0

>  <SCORE.SYSTEM.SOLV>
0

>  <SCORE.SYSTEM.norm>
0

>  <SCORE.heavy>
46

>  <SCORE.norm>
0.309511

>  <RMSD>
32.844

$$$$
lig.pdb
 OpenBabel03061811583D
libRbt.so/2013.1/901 2013/11/27
 46 49  0  0  0  0  0  0  0  0999 V2000
  -10.5790    1.9526   20.7203 C   0  0  1  0  0  0  0  0  0  0  0  0
  -11.7703    4.1359   20.2496 C   0  0  1  0  0  0  0  0  0  0  0  0
  -12.9652    3.7505   19.3258 C   0  0  1  0  0  0  0  0  0  0  0  0
  -13.3583    5.0282   18.4224 C   0  0  2  0  0  0  0  0  0  0  0  0
  -11.4505    2.5294   17.6971 C   0  0  2  0  0  0  0  0  0  0  0  0
  -11.4739    1.2908   16.7569 C   0  0  1  0  0  0  0  0  0  0  0  0
  -10.5893    1.8421   15.6649 C   0  0  1  0  0  0  0  0  0  0  0  0
  -11.1247    3.2872   15.4120 C   0  0  1  0  0  0  0  0  0  0  0  0
  -12.3774    3.4254   14.4774 C   0  0  0  0  0  0  0  0  0  0  0  0
   -8.1784    1.5753   15.2173 C   0  0  1  0  0  0  0  0  0  0  0  0
   -7.8869    2.7012   14.2706 C   0  0  1  0  0  0  0  0  0  0  0  0
  -10.9187    0.6871   21.5427 C   0  0  1  0  0  0  0  0  0  0  0  0
   -6.8095    2.2163   13.2369 C   0  0  0  0  0  0  0  0  0  0  0  0
   -7.2043    1.0889   12.4421 C   0  0  0  0  0  0  0  0  0  0  0  0
   -7.4606   -0.0317   13.3216 C   0  0  2  0  0  0  0  0  0  0  0  0
   -7.9099   -1.3048   12.5017 C   0  0  0  0  0  0  0  0  0  0  0  0
  -14.5684   10.9107   18.8810 C   0  0  2  0  0  0  0  0  0  0  0  0
  -14.5671    8.5987   19.3363 C   0  0  0  0  0  0  0  0  0  0  0  0
  -14.6075   11.9286   17.9470 C   0  0  0  0  0  0  0  0  0  0  0  0
  -14.9382    9.7522   18.2806 C   0  0  1  0  0  0  0  0  0  0  0  0
  -10.5592    0.8919   23.0843 C   0  0  0  0  0  0  0  0  0  0  0  0
   -8.9975    1.2407   23.1928 C   0  0  0  0  0  0  0  0  0  0  0  0
   -8.7307    2.5704   22.3464 C   0  0  1  0  0  0  0  0  0  0  0  0
   -7.2538    2.9820   22.3781 C   0  0  0  0  0  0  0  0  0  0  0  0
  -13.8319    6.1937   19.3961 C   0  0  1  0  0  0  0  0  0  0  0  0
  -12.5470    6.5661   20.3106 C   0  0  0  0  0  0  0  0  0  0  0  0
  -12.1271    5.3201   21.1820 C   0  0  2  0  0  0  0  0  0  0  0  0
  -15.4041   11.2574   20.0084 F   0  0  0  0  0  0  0  0  0  0  0  0
   -8.3346   -2.4959   13.4077 N   0  0  0  0  0  0  0  0  0  0  0  0
  -12.3802    0.3701   21.3353 N   0  0  0  0  0  0  0  0  0  0  0  0
   -8.9836    3.1015   13.5022 N   0  0  0  0  0  0  0  0  0  0  0  0
  -14.3519   13.3152   18.0626 N   0  0  0  0  0  0  0  0  0  0  0  0
   -6.8644    3.3750   23.6761 N   0  0  0  0  0  0  0  0  0  0  0  0
  -14.2138    7.3787   18.6072 N   0  0  0  0  0  0  0  0  0  0  0  0
  -10.9462    5.6418   22.0136 N   0  0  0  0  0  0  0  0  0  0  0  0
  -11.4209    3.0447   21.0913 O   0  0  0  0  0  0  0  0  0  0  0  0
  -12.5026    2.6019   18.4775 O   0  0  0  0  0  0  0  0  0  0  0  0
  -14.4141    4.6630   17.6175 O   0  0  0  0  0  0  0  0  0  0  0  0
  -10.9242    0.2085   17.4452 O   0  0  0  0  0  0  0  0  0  0  0  0
  -11.2521    3.6717   16.7910 O   0  0  0  0  0  0  0  0  0  0  0  0
  -12.7986    4.8033   14.5238 O   0  0  0  0  0  0  0  0  0  0  0  0
   -9.1513    1.8598   16.1508 O   0  0  0  0  0  0  0  0  0  0  0  0
  -16.3494    9.6982   17.9775 O   0  0  0  0  0  0  0  0  0  0  0  0
  -14.5698    8.7429   20.5699 O   0  0  0  0  0  0  0  0  0  0  0  0
   -8.5052    0.3354   14.3492 O   0  0  0  0  0  0  0  0  0  0  0  0
   -9.1419    2.3507   20.8997 O   0  0  0  0  0  0  0  0  0  0  0  0
  1 36  1  1  0  0  0
  2 36  1  1  0  0  0
  2  3  1  0  0  0  0
  3 37  1  6  0  0  0
  3  4  1  0  0  0  0
  4 38  1  6  0  0  0
  5 37  1  6  0  0  0
  5  6  1  0  0  0  0
  6  7  1  0  0  0  0
  6 39  1  1  0  0  0
  7 42  1  1  0  0  0
  8  9  1  1  0  0  0
  8  7  1  0  0  0  0
 10 42  1  1  0  0  0
 10 11  1  0  0  0  0
 11 31  1  6  0  0  0
 11 13  1  0  0  0  0
 12 30  1  1  0  0  0
 12  1  1  0  0  0  0
 14 13  1  0  0  0  0
 15 16  1  6  0  0  0
 15 14  1  0  0  0  0
 17 19  1  6  0  0  0
 17 28  1  0  0  0  0
 18 34  1  0  0  0  0
 19 32  1  0  0  0  0
 20 18  1  1  0  0  0
 20 17  1  0  0  0  0
 20 43  1  0  0  0  0
 21 12  1  0  0  0  0
 22 21  1  0  0  0  0
 22 23  1  0  0  0  0
 23 24  1  6  0  0  0
 23 46  1  0  0  0  0
 24 33  1  0  0  0  0
 25 34  1  6  0  0  0
 25  4  1  0  0  0  0
 26 25  1  0  0  0  0
 27 35  1  6  0  0  0
 27 26  1  0  0  0  0
 27  2  1  0  0  0  0
 29 16  1  0  0  0  0
 40  8  1  0  0  0  0
 40  5  1  0  0  0  0
 41  9  1  0  0  0  0
 44 18  2  0  0  0  0
 45 15  1  0  0  0  0
 45 10  1  0  0  0  0
 46  1  1  0  0  0  0
M  END
>  <CHROM.1>
-153.47164169,83.00785042,-54.98622316,-167.76435641,143.80324928,172.70751499
76.26652749,-174.26513576,178.10268963,-148.88559215,168.38566898,-66.62462416
-174.74866751,-11.28797893,4.06448902,18.13164671,-0.31292720,-0.99093873
1.61309668

>  <Name>
lig.pdb

>  <RI>
0

>  <Rbt.Current_Directory>
/home/afrankz/demos/rdock_decoys_rna/rnas/3wru

>  <Rbt.Executable>
rbdock ($Id: //depot/dev/client3/rdock/2013.1/src/exe/rbdock.cxx#4 $)

>  <Rbt.Library>
libRbt.so (2013.1, Build901 2013/11/27)

>  <Rbt.Parameter_File>
/export/apps/rDock/src/rDock_2013.1_src/data/scripts/dock_solv.prm

>  <Rbt.Receptor>
prm/blind_docking_100.prm

>  <SCORE>
-1.86339

>  <SCORE.INTER>
-2.63445

>  <SCORE.INTER.CONST>
1

>  <SCORE.INTER.POLAR>
0

>  <SCORE.INTER.ROT>
13

>  <SCORE.INTER.SOLV>
36.0732

>  <SCORE.INTER.VDW>
-26.0474

>  <SCORE.INTER.norm>
-0.0572706

>  <SCORE.INTRA>
-0.619656

>  <SCORE.INTRA.DIHEDRAL>
-4.94136

>  <SCORE.INTRA.DIHEDRAL.0>
19.7146

>  <SCORE.INTRA.POLAR>
0

>  <SCORE.INTRA.POLAR.0>
0

>  <SCORE.INTRA.REPUL>
0

>  <SCORE.INTRA.REPUL.0>
0

>  <SCORE.INTRA.SOLV>
0.781293

>  <SCORE.INTRA.SOLV.lig_0>
-116.697

>  <SCORE.INTRA.VDW>
1.46038

>  <SCORE.INTRA.VDW.0>
-7.06424

>  <SCORE.INTRA.norm>
-0.0134708

>  <SCORE.RESTR>
1.39072

>  <SCORE.RESTR.CAVITY>
1.39072

>  <SCORE.RESTR.norm>
0.030233

>  <SCORE.SYSTEM>
0

>  <SCORE.SYSTEM.CONST>
0

>  <SCORE.SYSTEM.DIHEDRAL>
0

>  <SCORE.SYSTEM.SOLV>
0

>  <SCORE.SYSTEM.norm>
0

>  <SCORE.heavy>
46

>  <SCORE.norm>
-0.0405084

>  <RMSD>
32.922

$$$$
lig.pdb
 OpenBabel03061811583D
libRbt.so/2013.1/901 2013/11/27
 46 49  0  0  0  0  0  0  0  0999 V2000
  -10.0231    4.2892   21.5659 C   0  0  1  0  0  0  0  0  0  0  0  0
  -10.5421    2.8593   19.5426 C   0  0  1  0  0  0  0  0  0  0  0  0
  -11.7188    3.1624   18.5662 C   0  0  1  0  0  0  0  0  0  0  0  0
  -12.1739    1.7870   17.8563 C   0  0  2  0  0  0  0  0  0  0  0  0
  -13.4725    4.8743   19.2234 C   0  0  2  0  0  0  0  0  0  0  0  0
  -12.5290    6.1080   19.1439 C   0  0  1  0  0  0  0  0  0  0  0  0
  -13.4364    7.0126   18.3457 C   0  0  1  0  0  0  0  0  0  0  0  0
  -13.9847    6.1099   17.1953 C   0  0  1  0  0  0  0  0  0  0  0  0
  -13.0601    5.9191   15.9421 C   0  0  0  0  0  0  0  0  0  0  0  0
  -14.5618    8.8576   19.5345 C   0  0  1  0  0  0  0  0  0  0  0  0
  -15.7470    9.3072   20.3357 C   0  0  1  0  0  0  0  0  0  0  0  0
   -8.5874    4.6672   22.0009 C   0  0  1  0  0  0  0  0  0  0  0  0
  -15.6489   10.8603   20.5415 C   0  0  0  0  0  0  0  0  0  0  0  0
  -15.6442   11.6277   19.3292 C   0  0  0  0  0  0  0  0  0  0  0  0
  -14.4906   11.2457   18.5429 C   0  0  2  0  0  0  0  0  0  0  0  0
  -14.4362   12.0534   17.1866 C   0  0  0  0  0  0  0  0  0  0  0  0
   -9.9718   -2.5506   14.1568 C   0  0  2  0  0  0  0  0  0  0  0  0
  -10.2582   -0.8057   15.7144 C   0  0  0  0  0  0  0  0  0  0  0  0
  -10.4631   -3.6670   13.5069 C   0  0  0  0  0  0  0  0  0  0  0  0
  -10.8994   -2.1199   15.0474 C   0  0  1  0  0  0  0  0  0  0  0  0
   -7.5880    3.4376   21.8087 C   0  0  0  0  0  0  0  0  0  0  0  0
   -8.1396    2.2036   22.6720 C   0  0  0  0  0  0  0  0  0  0  0  0
   -9.6084    1.8535   22.1468 C   0  0  1  0  0  0  0  0  0  0  0  0
  -10.2305    0.6865   22.9230 C   0  0  0  0  0  0  0  0  0  0  0  0
  -10.9449    1.2400   17.0071 C   0  0  1  0  0  0  0  0  0  0  0  0
   -9.7671    0.9217   18.0737 C   0  0  0  0  0  0  0  0  0  0  0  0
   -9.3264    2.2499   18.8013 C   0  0  2  0  0  0  0  0  0  0  0  0
   -9.6103   -1.5452   13.1831 F   0  0  0  0  0  0  0  0  0  0  0  0
  -15.6851   11.8227   16.2881 N   0  0  0  0  0  0  0  0  0  0  0  0
   -8.1598    5.8788   21.2082 N   0  0  0  0  0  0  0  0  0  0  0  0
  -16.9771    9.0938   19.7073 N   0  0  0  0  0  0  0  0  0  0  0  0
   -9.8315   -4.6154   12.6683 N   0  0  0  0  0  0  0  0  0  0  0  0
  -11.3689    0.1842   22.2578 N   0  0  0  0  0  0  0  0  0  0  0  0
  -11.3246   -0.0128   16.3297 N   0  0  0  0  0  0  0  0  0  0  0  0
   -8.2593    1.9724   19.7881 N   0  0  0  0  0  0  0  0  0  0  0  0
  -10.0864    4.0570   20.1584 O   0  0  0  0  0  0  0  0  0  0  0  0
  -12.8277    3.7445   19.3934 O   0  0  0  0  0  0  0  0  0  0  0  0
  -13.2117    2.0810   17.0004 O   0  0  0  0  0  0  0  0  0  0  0  0
  -12.2790    6.5522   20.4429 O   0  0  0  0  0  0  0  0  0  0  0  0
  -14.2905    4.9612   18.0033 O   0  0  0  0  0  0  0  0  0  0  0  0
  -12.2961    4.7147   16.1508 O   0  0  0  0  0  0  0  0  0  0  0  0
  -14.5556    7.5111   19.2419 O   0  0  0  0  0  0  0  0  0  0  0  0
  -12.1622   -1.7855   14.4311 O   0  0  0  0  0  0  0  0  0  0  0  0
   -9.0467   -0.5319   15.7118 O   0  0  0  0  0  0  0  0  0  0  0  0
  -14.5055    9.7588   18.2766 O   0  0  0  0  0  0  0  0  0  0  0  0
  -10.5101    3.0684   22.2927 O   0  0  0  0  0  0  0  0  0  0  0  0
  1 36  1  6  0  0  0
  2 36  1  6  0  0  0
  2  3  1  0  0  0  0
  3 37  1  1  0  0  0
  3  4  1  0  0  0  0
  4 38  1  6  0  0  0
  5 37  1  6  0  0  0
  5  6  1  0  0  0  0
  6  7  1  0  0  0  0
  6 39  1  1  0  0  0
  7 42  1  1  0  0  0
  8  9  1  6  0  0  0
  8  7  1  0  0  0  0
 10 42  1  6  0  0  0
 10 11  1  0  0  0  0
 11 31  1  6  0  0  0
 11 13  1  0  0  0  0
 12 30  1  6  0  0  0
 12  1  1  0  0  0  0
 14 13  1  0  0  0  0
 15 16  1  6  0  0  0
 15 14  1  0  0  0  0
 17 19  1  6  0  0  0
 17 28  1  0  0  0  0
 18 34  1  0  0  0  0
 19 32  1  0  0  0  0
 20 18  1  6  0  0  0
 20 17  1  0  0  0  0
 20 43  1  0  0  0  0
 21 12  1  0  0  0  0
 22 21  1  0  0  0  0
 22 23  1  0  0  0  0
 23 24  1  1  0  0  0
 23 46  1  0  0  0  0
 24 33  1  0  0  0  0
 25 34  1  1  0  0  0
 25  4  1  0  0  0  0
 26 25  1  0  0  0  0
 27 35  1  1  0  0  0
 27 26  1  0  0  0  0
 27  2  1  0  0  0  0
 29 16  1  0  0  0  0
 40  8  1  0  0  0  0
 40  5  1  0  0  0  0
 41  9  1  0  0  0  0
 44 18  2  0  0  0  0
 45 15  1  0  0  0  0
 45 10  1  0  0  0  0
 46  1  1  0  0  0  0
M  END
>  <CHROM.1>
123.28659492,123.07493112,126.04345305,-54.79866093,112.92017045,93.73929457
175.57655894,-60.11164961,-167.98182139,160.65135903,-178.39391939,-165.98532345
-168.29404661,-11.83497252,3.90623530,18.41619804,-2.23980400,0.91583786
-2.30933141

>  <Name>
lig.pdb

>  <RI>
0

>  <Rbt.Current_Directory>
/home/afrankz/demos/rdock_decoys_rna/rnas/3wru

>  <Rbt.Executable>
rbdock ($Id: //depot/dev/client3/rdock/2013.1/src/exe/rbdock.cxx#4 $)

>  <Rbt.Library>
libRbt.so (2013.1, Build901 2013/11/27)

>  <Rbt.Parameter_File>
/export/apps/rDock/src/rDock_2013.1_src/data/scripts/dock_solv.prm

>  <Rbt.Receptor>
prm/blind_docking_100.prm

>  <SCORE>
27.1598

>  <SCORE.INTER>
9.45919

>  <SCORE.INTER.CONST>
1

>  <SCORE.INTER.POLAR>
0

>  <SCORE.INTER.ROT>
13

>  <SCORE.INTER.SOLV>
40.6445

>  <SCORE.INTER.VDW>
-19.5087

>  <SCORE.INTER.norm>
0.205635

>  <SCORE.INTRA>
14.1828

>  <SCORE.INTRA.DIHEDRAL>
14.4064

>  <SCORE.INTRA.DIHEDRAL.0>
19.7146

>  <SCORE.INTRA.POLAR>
0

>  <SCORE.INTRA.POLAR.0>
0

>  <SCORE.INTRA.REPUL>
0

>  <SCORE.INTRA.REPUL.0>
0

>  <SCORE.INTRA.SOLV>
4.50024

>  <SCORE.INTRA.SOLV.lig_0>
-116.697

>  <SCORE.INTRA.VDW>
4.72951

>  <SCORE.INTRA.VDW.0>
-7.06424

>  <SCORE.INTRA.norm>
0.308322

>  <SCORE.RESTR>
3.5178

>  <SCORE.RESTR.CAVITY>
3.5178

>  <SCORE.RESTR.norm>
0.0764739

>  <SCORE.SYSTEM>
0

>  <SCORE.SYSTEM.CONST>
0

>  <SCORE.SYSTEM.DIHEDRAL>
0

>  <SCORE.SYSTEM.SOLV>
0

>  <SCORE.SYSTEM.norm>
0

>  <SCORE.heavy>
46

>  <SCORE.norm>
0.59043

>  <RMSD>
33.179

$$$$
lig.pdb
 OpenBabel03061811583D
libRbt.so/2013.1/901 2013/11/27
 46 49  0  0  0  0  0  0  0  0999 V2000
  -12.9035    1.1039   21.6589 C   0  0  1  0  0  0  0  0  0  0  0  0
  -13.0044    3.3885   20.5734 C   0  0  1  0  0  0  0  0  0  0  0  0
  -12.4784    3.9898   19.2349 C   0  0  1  0  0  0  0  0  0  0  0  0
  -12.5690    5.5986   19.3157 C   0  0  2  0  0  0  0  0  0  0  0  0
  -10.4510    3.0818   18.0090 C   0  0  2  0  0  0  0  0  0  0  0  0
  -10.9857    1.6995   17.5375 C   0  0  1  0  0  0  0  0  0  0  0  0
  -10.6055    1.8152   16.0812 C   0  0  1  0  0  0  0  0  0  0  0  0
  -11.0638    3.2487   15.6639 C   0  0  1  0  0  0  0  0  0  0  0  0
  -12.5771    3.4284   15.2908 C   0  0  0  0  0  0  0  0  0  0  0  0
   -8.6430    1.1130   14.7624 C   0  0  1  0  0  0  0  0  0  0  0  0
   -7.2337    1.4945   14.4202 C   0  0  1  0  0  0  0  0  0  0  0  0
  -11.4327    0.7865   22.0184 C   0  0  1  0  0  0  0  0  0  0  0  0
   -6.8698    0.8611   13.0306 C   0  0  0  0  0  0  0  0  0  0  0  0
   -7.6986    1.2884   11.9402 C   0  0  0  0  0  0  0  0  0  0  0  0
   -9.0661    0.9046   12.2190 C   0  0  2  0  0  0  0  0  0  0  0  0
  -10.0311    1.3582   11.0536 C   0  0  0  0  0  0  0  0  0  0  0  0
  -15.8282    9.9111   19.2628 C   0  0  2  0  0  0  0  0  0  0  0  0
  -14.5521    8.1772   18.3047 C   0  0  0  0  0  0  0  0  0  0  0  0
  -15.9383   11.2273   19.6697 C   0  0  0  0  0  0  0  0  0  0  0  0
  -14.6482    9.7515   18.6136 C   0  0  1  0  0  0  0  0  0  0  0  0
  -10.7385   -0.0848   20.8753 C   0  0  0  0  0  0  0  0  0  0  0  0
  -11.5847   -1.4346   20.6904 C   0  0  0  0  0  0  0  0  0  0  0  0
  -13.0787   -1.0278   20.2924 C   0  0  1  0  0  0  0  0  0  0  0  0
  -13.9755   -2.2573   20.1041 C   0  0  0  0  0  0  0  0  0  0  0  0
  -14.1001    5.9988   19.4786 C   0  0  1  0  0  0  0  0  0  0  0  0
  -14.5819    5.3691   20.8918 C   0  0  0  0  0  0  0  0  0  0  0  0
  -14.4737    3.7961   20.8451 C   0  0  2  0  0  0  0  0  0  0  0  0
  -16.9731    9.5585   18.4537 F   0  0  0  0  0  0  0  0  0  0  0  0
   -9.9381    0.4485    9.7951 N   0  0  0  0  0  0  0  0  0  0  0  0
  -10.7142    2.0931   22.2549 N   0  0  0  0  0  0  0  0  0  0  0  0
   -7.0345    2.8691   14.2641 N   0  0  0  0  0  0  0  0  0  0  0  0
  -15.3981   11.9106   20.7844 N   0  0  0  0  0  0  0  0  0  0  0  0
  -15.2117   -1.8998   19.5251 N   0  0  0  0  0  0  0  0  0  0  0  0
  -14.2283    7.4657   19.5431 N   0  0  0  0  0  0  0  0  0  0  0  0
  -14.8988    3.2075   22.1344 N   0  0  0  0  0  0  0  0  0  0  0  0
  -12.9774    1.9678   20.5243 O   0  0  0  0  0  0  0  0  0  0  0  0
  -11.0582    3.5285   19.0826 O   0  0  0  0  0  0  0  0  0  0  0  0
  -12.1002    6.1047   18.1240 O   0  0  0  0  0  0  0  0  0  0  0  0
  -10.2959    0.7040   18.2305 O   0  0  0  0  0  0  0  0  0  0  0  0
  -10.5551    3.9390   16.8175 O   0  0  0  0  0  0  0  0  0  0  0  0
  -12.7498    4.7856   14.8368 O   0  0  0  0  0  0  0  0  0  0  0  0
   -9.1026    1.6510   15.9448 O   0  0  0  0  0  0  0  0  0  0  0  0
  -14.5784   10.4948   17.3771 O   0  0  0  0  0  0  0  0  0  0  0  0
  -14.7412    7.6635   17.1898 O   0  0  0  0  0  0  0  0  0  0  0  0
   -9.5160    1.4855   13.5389 O   0  0  0  0  0  0  0  0  0  0  0  0
  -13.6799   -0.1509   21.3786 O   0  0  0  0  0  0  0  0  0  0  0  0
  1 36  1  6  0  0  0
  2 36  1  6  0  0  0
  2  3  1  0  0  0  0
  3 37  1  1  0  0  0
  3  4  1  0  0  0  0
  4 38  1  6  0  0  0
  5 37  1  1  0  0  0
  5  6  1  0  0  0  0
  6  7  1  0  0  0  0
  6 39  1  1  0  0  0
  7 42  1  1  0  0  0
  8  9  1  1  0  0  0
  8  7  1  0  0  0  0
 10 42  1  1  0  0  0
 10 11  1  0  0  0  0
 11 31  1  6  0  0  0
 11 13  1  0  0  0  0
 12 30  1  6  0  0  0
 12  1  1  0  0  0  0
 14 13  1  0  0  0  0
 15 16  1  6  0  0  0
 15 14  1  0  0  0  0
 17 19  1  6  0  0  0
 17 28  1  0  0  0  0
 18 34  1  0  0  0  0
 19 32  1  0  0  0  0
 20 18  1  6  0  0  0
 20 17  1  0  0  0  0
 20 43  1  0  0  0  0
 21 12  1  0  0  0  0
 22 21  1  0  0  0  0
 22 23  1  0  0  0  0
 23 24  1  1  0  0  0
 23 46  1  0  0  0  0
 24 33  1  0  0  0  0
 25 34  1  1  0  0  0
 25  4  1  0  0  0  0
 26 25  1  0  0  0  0
 27 35  1  1  0  0  0
 27 26  1  0  0  0  0
 27  2  1  0  0  0  0
 29 16  1  0  0  0  0
 40  8  1  0  0  0  0
 40  5  1  0  0  0  0
 41  9  1  0  0  0  0
 44 18  2  0  0  0  0
 45 15  1  0  0  0  0
 45 10  1  0  0  0  0
 46  1  1  0  0  0  0
M  END
>  <CHROM.1>
-90.60663744,155.58472411,137.11957888,-68.21193336,150.51116051,-175.36215634
155.12273363,76.65730851,-80.97156582,-74.75975280,174.89885738,-169.45278764
96.24951185,-12.13472508,3.57753108,17.84456908,2.83763316,0.97949562,-0.63486314

>  <Name>
lig.pdb

>  <RI>
0

>  <Rbt.Current_Directory>
/home/afrankz/demos/rdock_decoys_rna/rnas/3wru

>  <Rbt.Executable>
rbdock ($Id: //depot/dev/client3/rdock/2013.1/src/exe/rbdock.cxx#4 $)

>  <Rbt.Library>
libRbt.so (2013.1, Build901 2013/11/27)

>  <Rbt.Parameter_File>
/export/apps/rDock/src/rDock_2013.1_src/data/scripts/dock_solv.prm

>  <Rbt.Receptor>
prm/blind_docking_100.prm

>  <SCORE>
9.09304

>  <SCORE.INTER>
4.90116

>  <SCORE.INTER.CONST>
1

>  <SCORE.INTER.POLAR>
0

>  <SCORE.INTER.ROT>
13

>  <SCORE.INTER.SOLV>
29.8395

>  <SCORE.INTER.VDW>
-18.9457

>  <SCORE.INTER.norm>
0.106547

>  <SCORE.INTRA>
2.49752

>  <SCORE.INTRA.DIHEDRAL>
3.71256

>  <SCORE.INTRA.DIHEDRAL.0>
19.7146

>  <SCORE.INTRA.POLAR>
0

>  <SCORE.INTRA.POLAR.0>
0

>  <SCORE.INTRA.REPUL>
0.00570175

>  <SCORE.INTRA.REPUL.0>
0

>  <SCORE.INTRA.SOLV>
0.369375

>  <SCORE.INTRA.SOLV.lig_0>
-116.697

>  <SCORE.INTRA.VDW>
0.428046

>  <SCORE.INTRA.VDW.0>
-7.06424

>  <SCORE.INTRA.norm>
0.0542939

>  <SCORE.RESTR>
1.69436

>  <SCORE.RESTR.CAVITY>
1.69436

>  <SCORE.RESTR.norm>
0.0368339

>  <SCORE.SYSTEM>
0

>  <SCORE.SYSTEM.CONST>
0

>  <SCORE.SYSTEM.DIHEDRAL>
0

>  <SCORE.SYSTEM.SOLV>
0

>  <SCORE.SYSTEM.norm>
0

>  <SCORE.heavy>
46

>  <SCORE.norm>
0.197675

>  <RMSD>
33.255

$$$$
lig.pdb
 OpenBabel03061811583D
libRbt.so/2013.1/901 2013/11/27
 46 49  0  0  0  0  0  0  0  0999 V2000
  -13.0525    1.1072   21.4758 C   0  0  1  0  0  0  0  0  0  0  0  0
  -13.1807    3.4619   20.5554 C   0  0  1  0  0  0  0  0  0  0  0  0
  -12.7632    4.1440   19.2175 C   0  0  1  0  0  0  0  0  0  0  0  0
  -12.8096    5.7449   19.4125 C   0  0  2  0  0  0  0  0  0  0  0  0
  -10.9421    3.0322   17.8445 C   0  0  2  0  0  0  0  0  0  0  0  0
  -11.9519    1.9725   17.3190 C   0  0  1  0  0  0  0  0  0  0  0  0
  -11.4939    1.9440   15.8809 C   0  0  1  0  0  0  0  0  0  0  0  0
  -11.3391    3.4465   15.4838 C   0  0  1  0  0  0  0  0  0  0  0  0
  -12.6452    4.2059   15.0605 C   0  0  0  0  0  0  0  0  0  0  0  0
   -9.5643    1.1630   14.5578 C   0  0  1  0  0  0  0  0  0  0  0  0
   -9.2510   -0.2222   14.0763 C   0  0  1  0  0  0  0  0  0  0  0  0
  -11.5631    0.7794   21.7356 C   0  0  1  0  0  0  0  0  0  0  0  0
   -8.5182   -0.1143   12.6921 C   0  0  0  0  0  0  0  0  0  0  0  0
   -7.2807    0.6112   12.7226 C   0  0  0  0  0  0  0  0  0  0  0  0
   -7.5489    1.9678   13.1501 C   0  0  2  0  0  0  0  0  0  0  0  0
   -6.2180    2.8162   13.2121 C   0  0  0  0  0  0  0  0  0  0  0  0
  -14.2653   10.3813   18.7493 C   0  0  2  0  0  0  0  0  0  0  0  0
  -15.3896    8.3425   19.1128 C   0  0  0  0  0  0  0  0  0  0  0  0
  -14.6334   11.5772   18.1625 C   0  0  0  0  0  0  0  0  0  0  0  0
  -15.3120    9.9076   19.4699 C   0  0  1  0  0  0  0  0  0  0  0  0
  -10.9246   -0.0033   20.4997 C   0  0  0  0  0  0  0  0  0  0  0  0
  -11.7715   -1.3448   20.2644 C   0  0  0  0  0  0  0  0  0  0  0  0
  -13.2866   -0.9253   19.9738 C   0  0  1  0  0  0  0  0  0  0  0  0
  -14.1848   -2.1471   19.7462 C   0  0  0  0  0  0  0  0  0  0  0  0
  -14.3103    6.1586   19.7402 C   0  0  1  0  0  0  0  0  0  0  0  0
  -14.6777    5.4423   21.1466 C   0  0  0  0  0  0  0  0  0  0  0  0
  -14.6100    3.8746   20.9861 C   0  0  2  0  0  0  0  0  0  0  0  0
  -13.0734   10.5795   19.5429 F   0  0  0  0  0  0  0  0  0  0  0  0
   -5.3563    2.6954   11.9225 N   0  0  0  0  0  0  0  0  0  0  0  0
  -10.8408    2.0730   22.0258 N   0  0  0  0  0  0  0  0  0  0  0  0
   -8.3764   -0.9318   14.9040 N   0  0  0  0  0  0  0  0  0  0  0  0
  -14.8487   12.8626   18.7129 N   0  0  0  0  0  0  0  0  0  0  0  0
  -13.8078   -2.8435   18.5783 N   0  0  0  0  0  0  0  0  0  0  0  0
  -14.3988    7.6197   19.9131 N   0  0  0  0  0  0  0  0  0  0  0  0
  -14.9312    3.2068   22.2669 N   0  0  0  0  0  0  0  0  0  0  0  0
  -13.1906    2.0476   20.4101 O   0  0  0  0  0  0  0  0  0  0  0  0
  -11.3733    3.6705   18.9064 O   0  0  0  0  0  0  0  0  0  0  0  0
  -12.4380    6.3230   18.2193 O   0  0  0  0  0  0  0  0  0  0  0  0
  -11.7351    0.7804   18.0111 O   0  0  0  0  0  0  0  0  0  0  0  0
  -10.6523    3.8729   16.6722 O   0  0  0  0  0  0  0  0  0  0  0  0
  -12.9727    3.7846   13.7213 O   0  0  0  0  0  0  0  0  0  0  0  0
  -10.1692    1.2077   15.7951 O   0  0  0  0  0  0  0  0  0  0  0  0
  -15.1386   10.0733   20.8943 O   0  0  0  0  0  0  0  0  0  0  0  0
  -16.1814    7.8427   18.2968 O   0  0  0  0  0  0  0  0  0  0  0  0
   -8.2433    1.9682   14.4916 O   0  0  0  0  0  0  0  0  0  0  0  0
  -13.8352   -0.1322   21.1486 O   0  0  0  0  0  0  0  0  0  0  0  0
  1 36  1  6  0  0  0
  2 36  1  6  0  0  0
  2  3  1  0  0  0  0
  3 37  1  1  0  0  0
  3  4  1  0  0  0  0
  4 38  1  6  0  0  0
  5 37  1  1  0  0  0
  5  6  1  0  0  0  0
  6  7  1  0  0  0  0
  6 39  1  1  0  0  0
  7 42  1  1  0  0  0
  8  9  1  1  0  0  0
  8  7  1  0  0  0  0
 10 42  1  1  0  0  0
 10 11  1  0  0  0  0
 11 31  1  1  0  0  0
 11 13  1  0  0  0  0
 12 30  1  6  0  0  0
 12  1  1  0  0  0  0
 14 13  1  0  0  0  0
 15 16  1  1  0  0  0
 15 14  1  0  0  0  0
 17 19  1  1  0  0  0
 17 28  1  0  0  0  0
 18 34  1  0  0  0  0
 19 32  1  0  0  0  0
 20 18  1  1  0  0  0
 20 17  1  0  0  0  0
 20 43  1  0  0  0  0
 21 12  1  0  0  0  0
 22 21  1  0  0  0  0
 22 23  1  0  0  0  0
 23 24  1  1  0  0  0
 23 46  1  0  0  0  0
 24 33  1  0  0  0  0
 25 34  1  1  0  0  0
 25  4  1  0  0  0  0
 26 25  1  0  0  0  0
 27 35  1  1  0  0  0
 27 26  1  0  0  0  0
 27  2  1  0  0  0  0
 29 16  1  0  0  0  0
 40  8  1  0  0  0  0
 40  5  1  0  0  0  0
 41  9  1  0  0  0  0
 44 18  2  0  0  0  0
 45 15  1  0  0  0  0
 45 10  1  0  0  0  0
 46  1  1  0  0  0  0
M  END
>  <CHROM.1>
-88.49442211,156.45521922,121.44476943,-38.55305265,-176.01258863,-76.26563826
-124.73927420,49.18503140,71.94618920,80.92095041,135.48334590,-64.96054682
126.58813938,-12.07019654,3.61525984,17.96996693,0.63429683,-0.91424696,2.81064375

>  <Name>
lig.pdb

>  <RI>
0

>  <Rbt.Current_Directory>
/home/afrankz/demos/rdock_decoys_rna/rnas/3wru

>  <Rbt.Executable>
rbdock ($Id: //depot/dev/client3/rdock/2013.1/src/exe/rbdock.cxx#4 $)

>  <Rbt.Library>
libRbt.so (2013.1, Build901 2013/11/27)

>  <Rbt.Parameter_File>
/export/apps/rDock/src/rDock_2013.1_src/data/scripts/dock_solv.prm

>  <Rbt.Receptor>
prm/blind_docking_100.prm

>  <SCORE>
15.8171

>  <SCORE.INTER>
6.57019

>  <SCORE.INTER.CONST>
1

>  <SCORE.INTER.POLAR>
0

>  <SCORE.INTER.ROT>
13

>  <SCORE.INTER.SOLV>
27.9572

>  <SCORE.INTER.VDW>
-17.2056

>  <SCORE.INTER.norm>
0.14283

>  <SCORE.INTRA>
6.95641

>  <SCORE.INTRA.DIHEDRAL>
10.7994

>  <SCORE.INTRA.DIHEDRAL.0>
19.7146

>  <SCORE.INTRA.POLAR>
0

>  <SCORE.INTRA.POLAR.0>
0

>  <SCORE.INTRA.REPUL>
0

>  <SCORE.INTRA.REPUL.0>
0

>  <SCORE.INTRA.SOLV>
1.30991

>  <SCORE.INTRA.SOLV.lig_0>
-116.697

>  <SCORE.INTRA.VDW>
0.901782

>  <SCORE.INTRA.VDW.0>
-7.06424

>  <SCORE.INTRA.norm>
0.151226

>  <SCORE.RESTR>
2.29049

>  <SCORE.RESTR.CAVITY>
2.29049

>  <SCORE.RESTR.norm>
0.0497933

>  <SCORE.SYSTEM>
0

>  <SCORE.SYSTEM.CONST>
0

>  <SCORE.SYSTEM.DIHEDRAL>
0

>  <SCORE.SYSTEM.SOLV>
0

>  <SCORE.SYSTEM.norm>
0

>  <SCORE.heavy>
46

>  <SCORE.norm>
0.34385

>  <RMSD>
33.274

$$$$
lig.pdb
 OpenBabel03061811583D
libRbt.so/2013.1/901 2013/11/27
 46 49  0  0  0  0  0  0  0  0999 V2000
  -12.4091    1.8220   20.9760 C   0  0  1  0  0  0  0  0  0  0  0  0
  -12.0735    0.9873   18.6098 C   0  0  1  0  0  0  0  0  0  0  0  0
  -11.7327    2.4498   18.1919 C   0  0  1  0  0  0  0  0  0  0  0  0
  -10.9562    2.4199   16.7780 C   0  0  2  0  0  0  0  0  0  0  0  0
  -13.2973    4.4406   18.3555 C   0  0  2  0  0  0  0  0  0  0  0  0
  -12.0772    5.3776   18.1268 C   0  0  1  0  0  0  0  0  0  0  0  0
  -12.8402    6.6580   17.8879 C   0  0  1  0  0  0  0  0  0  0  0  0
  -13.9824    6.2609   16.8996 C   0  0  1  0  0  0  0  0  0  0  0  0
  -13.6096    6.1902   15.3772 C   0  0  0  0  0  0  0  0  0  0  0  0
  -13.8629    8.4557   19.2319 C   0  0  1  0  0  0  0  0  0  0  0  0
  -14.6225    8.8135   20.4744 C   0  0  1  0  0  0  0  0  0  0  0  0
  -12.4133    1.0310   22.3055 C   0  0  1  0  0  0  0  0  0  0  0  0
  -15.1368   10.2902   20.3358 C   0  0  0  0  0  0  0  0  0  0  0  0
  -16.0151   10.5186   19.2244 C   0  0  0  0  0  0  0  0  0  0  0  0
  -15.3031   10.2169   18.0009 C   0  0  2  0  0  0  0  0  0  0  0  0
  -16.2251   10.4415   16.7382 C   0  0  0  0  0  0  0  0  0  0  0  0
   -8.4996    2.5585   12.8832 C   0  0  2  0  0  0  0  0  0  0  0  0
   -9.5792    1.2237   14.4974 C   0  0  0  0  0  0  0  0  0  0  0  0
   -7.3553    2.7497   12.1321 C   0  0  0  0  0  0  0  0  0  0  0  0
   -8.5714    1.2536   13.2457 C   0  0  1  0  0  0  0  0  0  0  0  0
  -13.8839    0.5274   22.6681 C   0  0  0  0  0  0  0  0  0  0  0  0
  -14.8434    1.8091   22.7635 C   0  0  0  0  0  0  0  0  0  0  0  0
  -14.8103    2.5545   21.3496 C   0  0  1  0  0  0  0  0  0  0  0  0
  -15.6929    3.8085   21.3432 C   0  0  0  0  0  0  0  0  0  0  0  0
   -9.5932    1.6250   16.9806 C   0  0  1  0  0  0  0  0  0  0  0  0
  -10.0102    0.1132   17.3886 C   0  0  0  0  0  0  0  0  0  0  0  0
  -10.7972    0.1220   18.7555 C   0  0  2  0  0  0  0  0  0  0  0  0
   -9.6511    3.0025   12.1304 F   0  0  0  0  0  0  0  0  0  0  0  0
  -16.0271   11.8362   16.0780 N   0  0  0  0  0  0  0  0  0  0  0  0
  -11.4351   -0.1116   22.1757 N   0  0  0  0  0  0  0  0  0  0  0  0
  -15.7677    8.0410   20.6876 N   0  0  0  0  0  0  0  0  0  0  0  0
   -6.9294    2.1736   10.9122 N   0  0  0  0  0  0  0  0  0  0  0  0
  -15.1812    4.7935   22.2143 N   0  0  0  0  0  0  0  0  0  0  0  0
   -8.8448    1.5860   15.7114 N   0  0  0  0  0  0  0  0  0  0  0  0
  -11.1958   -1.2515   19.1347 N   0  0  0  0  0  0  0  0  0  0  0  0
  -12.7244    0.9706   19.8737 O   0  0  0  0  0  0  0  0  0  0  0  0
  -13.0377    3.1836   18.0842 O   0  0  0  0  0  0  0  0  0  0  0  0
  -10.6666    3.7208   16.4318 O   0  0  0  0  0  0  0  0  0  0  0  0
  -11.3047    5.3816   19.2889 O   0  0  0  0  0  0  0  0  0  0  0  0
  -14.3787    5.0505   17.5657 O   0  0  0  0  0  0  0  0  0  0  0  0
  -13.0242    4.8949   15.1375 O   0  0  0  0  0  0  0  0  0  0  0  0
  -13.3974    7.1590   19.2081 O   0  0  0  0  0  0  0  0  0  0  0  0
   -9.0767    0.4020   12.1942 O   0  0  0  0  0  0  0  0  0  0  0  0
  -10.7885    0.9501   14.4240 O   0  0  0  0  0  0  0  0  0  0  0  0
  -14.7804    8.8000   18.0329 O   0  0  0  0  0  0  0  0  0  0  0  0
  -13.3847    2.9631   21.0166 O   0  0  0  0  0  0  0  0  0  0  0  0
  1 36  1  6  0  0  0
  2 36  1  1  0  0  0
  2  3  1  0  0  0  0
  3 37  1  6  0  0  0
  3  4  1  0  0  0  0
  4 38  1  1  0  0  0
  5 37  1  6  0  0  0
  5  6  1  0  0  0  0
  6  7  1  0  0  0  0
  6 39  1  1  0  0  0
  7 42  1  1  0  0  0
  8  9  1  6  0  0  0
  8  7  1  0  0  0  0
 10 42  1  1  0  0  0
 10 11  1  0  0  0  0
 11 31  1  6  0  0  0
 11 13  1  0  0  0  0
 12 30  1  6  0  0  0
 12  1  1  0  0  0  0
 14 13  1  0  0  0  0
 15 16  1  6  0  0  0
 15 14  1  0  0  0  0
 17 19  1  6  0  0  0
 17 28  1  0  0  0  0
 18 34  1  0  0  0  0
 19 32  1  0  0  0  0
 20 18  1  1  0  0  0
 20 17  1  0  0  0  0
 20 43  1  0  0  0  0
 21 12  1  0  0  0  0
 22 21  1  0  0  0  0
 22 23  1  0  0  0  0
 23 24  1  1  0  0  0
 23 46  1  0  0  0  0
 24 33  1  0  0  0  0
 25 34  1  6  0  0  0
 25  4  1  0  0  0  0
 26 25  1  0  0  0  0
 27 35  1  6  0  0  0
 27 26  1  0  0  0  0
 27  2  1  0  0  0  0
 29 16  1  0  0  0  0
 40  8  1  0  0  0  0
 40  5  1  0  0  0  0
 41  9  1  0  0  0  0
 44 18  2  0  0  0  0
 45 15  1  0  0  0  0
 45 10  1  0  0  0  0
 46  1  1  0  0  0  0
M  END
>  <CHROM.1>
-137.78836924,-37.97004860,146.11833138,29.94365733,166.01362101,83.38819833
169.44281096,96.26404865,59.66174614,-81.96383202,160.41797316,66.36040197
-46.85267447,-12.42275652,4.09255729,17.80822356,2.96879219,0.95467375,-0.73478714

>  <Name>
lig.pdb

>  <RI>
0

>  <Rbt.Current_Directory>
/home/afrankz/demos/rdock_decoys_rna/rnas/3wru

>  <Rbt.Executable>
rbdock ($Id: //depot/dev/client3/rdock/2013.1/src/exe/rbdock.cxx#4 $)

>  <Rbt.Library>
libRbt.so (2013.1, Build901 2013/11/27)

>  <Rbt.Parameter_File>
/export/apps/rDock/src/rDock_2013.1_src/data/scripts/dock_solv.prm

>  <Rbt.Receptor>
prm/blind_docking_100.prm

>  <SCORE>
14.3992

>  <SCORE.INTER>
6.04724

>  <SCORE.INTER.CONST>
1

>  <SCORE.INTER.POLAR>
0

>  <SCORE.INTER.ROT>
13

>  <SCORE.INTER.SOLV>
33.1774

>  <SCORE.INTER.VDW>
-19.2943

>  <SCORE.INTER.norm>
0.131462

>  <SCORE.INTRA>
5.63632

>  <SCORE.INTRA.DIHEDRAL>
5.60498

>  <SCORE.INTRA.DIHEDRAL.0>
19.7146

>  <SCORE.INTRA.POLAR>
0

>  <SCORE.INTRA.POLAR.0>
0

>  <SCORE.INTRA.REPUL>
0

>  <SCORE.INTRA.REPUL.0>
0

>  <SCORE.INTRA.SOLV>
4.53467

>  <SCORE.INTRA.SOLV.lig_0>
-116.697

>  <SCORE.INTRA.VDW>
0.566491

>  <SCORE.INTRA.VDW.0>
-7.06424

>  <SCORE.INTRA.norm>
0.122529

>  <SCORE.RESTR>
2.71561

>  <SCORE.RESTR.CAVITY>
2.71561

>  <SCORE.RESTR.norm>
0.0590349

>  <SCORE.SYSTEM>
0

>  <SCORE.SYSTEM.CONST>
0

>  <SCORE.SYSTEM.DIHEDRAL>
0

>  <SCORE.SYSTEM.SOLV>
0

>  <SCORE.SYSTEM.norm>
0

>  <SCORE.heavy>
46

>  <SCORE.norm>
0.313025

>  <RMSD>
33.326

$$$$
