@<TRIPOS>MOLECULE
3wru_rdock.pdb
 900 1004 0 0 0
SMALL
GASTEIGER

@<TRIPOS>ATOM
      1    P.3    -23.8460    3.7700   19.4660 Pac     3  G3          0.3942
      2  OP1      -22.8760    4.9080   19.7350 O.3     3  G3         -0.1425
      3  OP2      -23.2850    2.4120   19.8550 O.3     3  G3         -0.1425
      4  O5'      -24.0470    3.7280   17.8480 O.3     3  G3         -0.2926
      5  C5'      -25.0190    2.8520   17.2490 C.3     3  G3          0.1829
      6  C4'      -25.2050    3.1890   15.7880 C.3     3  G3          0.1774
      7  O4'      -25.6170    4.5760   15.6560 O.3     3  G3         -0.3307
      8  C3'      -23.9560    3.1110   14.9240 C.3     3  G3          0.1860
      9  O3'      -23.6490    1.7790   14.5230 O.3     3  G3         -0.3112
     10  C2'      -24.3380    3.9880   13.7390 C.3     3  G3          0.2309
     11  O2'      -25.1700    3.3320   12.8030 O.3     3  G3         -0.2156
     12  C1'      -25.1210    5.1050   14.4340 C.3     3  G3          0.2408
     13   N9      -24.2960    6.2770   14.7230 N.ar    3  G3         -0.2693
     14   C8      -23.8110    6.6810   15.9450 C.ar    3  G3          0.1817
     15   N7      -23.0920    7.7690   15.8760 N.ar    3  G3         -0.2173
     16   C5      -23.1040    8.1050   14.5290 C.ar    3  G3          0.1748
     17   C6      -22.4930    9.1900   13.8460 C.ar    3  G3          0.3023
     18   O6      -21.7950   10.1000   14.3110 O.2     3  G3         -0.2633
     19   N.1     -22.7610    9.1500   12.4820 N.ar    3  G3         -0.1709
     20   C.2     -23.5180    8.1930   11.8530 C.ar    3  G3          0.2606
     21   N.2     -23.6620    8.3280   10.5270 N.pl3   3  G3         -0.0859
     22   N.3     -24.0920    7.1790   12.4770 N.ar    3  G3         -0.1918
     23   C4      -23.8450    7.1970   13.8040 C.ar    3  G3          0.1723
     24    P.3    -22.1450    1.4040   14.0940 P.3     4  C4          0.2141
     25  OP1      -22.0890   -0.0550   13.8240 O.2     4  C4         -0.5172
     26  OP2      -21.2260    1.9990   15.0990 O.3     4  C4         -0.4373
     27  O5'      -21.9350    2.1790   12.7170 O.3     4  C4         -0.3114
     28  C5'      -22.7510    1.8880   11.5850 C.3     4  C4          0.1812
     29  C4'      -22.3700    2.7660   10.4150 C.3     4  C4          0.1773
     30  O4'      -22.6870    4.1530   10.7190 O.3     4  C4         -0.3307
     31  C3'      -20.8890    2.8110   10.0460 C.3     4  C4          0.1860
     32  O3'      -20.4080    1.7020    9.2960 O.3     4  C4         -0.3112
     33  C2'      -20.8130    4.1140    9.2630 C.3     4  C4          0.2309
     34  O2'      -21.3040    4.0020    7.9410 O.3     4  C4         -0.2156
     35  C1'      -21.7390    5.0070   10.0900 C.3     4  C4          0.2420
     36   N.1     -21.0010    5.7550   11.1290 N.ar    4  C4         -0.2535
     37   C.2     -20.4720    7.0160   10.8080 C.ar    4  C4          0.3532
     38   O.2     -20.6590    7.4800    9.6710 O.2     4  C4         -0.2443
     39   N.3     -19.7730    7.6960   11.7450 N.ar    4  C4         -0.1739
     40   C4      -19.5950    7.1690   12.9590 C.ar    4  C4          0.1759
     41   N.4     -18.8910    7.8730   13.8480 N.pl3   4  C4         -0.1070
     42   C5      -20.1280    5.8960   13.3150 C.ar    4  C4          0.0566
     43   C6      -20.8190    5.2310   12.3800 C.ar    4  C4          0.0850
     44    P.3    -18.8270    1.4250    9.2230 P.3     5  G5          0.2141
     45  OP1      -18.6200    0.1930    8.4190 O.2     5  G5         -0.5172
     46  OP2      -18.2690    1.5040   10.5990 O.3     5  G5         -0.4373
     47  O5'      -18.2690    2.6640    8.3930 O.3     5  G5         -0.3114
     48  C5'      -18.6480    2.8620    7.0330 C.3     5  G5          0.1812
     49  C4'      -17.8250    3.9660    6.4130 C.3     5  G5          0.1773
     50  O4'      -18.2290    5.2540    6.9520 O.3     5  G5         -0.3307
     51  C3'      -16.3330    3.8910    6.6990 C.3     5  G5          0.1860
     52  O3'      -15.6940    2.9920    5.8020 O.3     5  G5         -0.3112
     53  C2'      -15.9010    5.3360    6.4980 C.3     5  G5          0.2309
     54  O2'      -15.7630    5.6860    5.1360 O.3     5  G5         -0.2156
     55  C1'      -17.0860    6.0840    7.1130 C.3     5  G5          0.2408
     56   N9      -16.8990    6.3400    8.5390 N.ar    5  G5         -0.2693
     57   C8      -17.3440    5.5670    9.5860 C.ar    5  G5          0.1817
     58   N7      -17.0100    6.0440   10.7540 N.ar    5  G5         -0.2173
     59   C5      -16.3050    7.2040   10.4640 C.ar    5  G5          0.1748
     60   C6      -15.6920    8.1450   11.3290 C.ar    5  G5          0.3023
     61   O6      -15.6460    8.1410   12.5650 O.2     5  G5         -0.2633
     62   N.1     -15.0850    9.1740   10.6160 N.ar    5  G5         -0.1709
     63   C.2     -15.0670    9.2840    9.2480 C.ar    5  G5          0.2606
     64   N.2     -14.4300   10.3530    8.7490 N.pl3   5  G5         -0.0859
     65   N.3     -15.6330    8.4120    8.4300 N.ar    5  G5         -0.1918
     66   C4      -16.2300    7.4040    9.1010 C.ar    5  G5          0.1723
     67    P.3    -14.2820    2.3450    6.2100 P.3     6  U6          0.2141
     68  OP1      -13.9120    1.3820    5.1410 O.2     6  U6         -0.5172
     69  OP2      -14.3680    1.8800    7.6190 O.3     6  U6         -0.4373
     70  O5'      -13.2830    3.5850    6.1440 O.3     6  U6         -0.3114
     71  C5'      -12.2600    3.7650    7.1180 C.3     6  U6          0.1812
     72  C4'      -11.4890    5.0310    6.8270 C.3     6  U6          0.1773
     73  O4'      -12.2970    6.1890    7.1880 O.3     6  U6         -0.3307
     74  C3'      -10.2080    5.2700    7.6090 C.3     6  U6          0.1860
     75  O3'       -9.0700    4.5170    7.2140 O.3     6  U6         -0.3112
     76  C2'      -10.0080    6.7630    7.4000 C.3     6  U6          0.2309
     77  O2'       -9.5100    7.0880    6.1170 O.3     6  U6         -0.2156
     78  C1'      -11.4430    7.2690    7.5520 C.3     6  U6          0.2420
     79   N.1     -11.7200    7.6620    8.9560 N.ar    6  U6         -0.2534
     80   C.2     -11.2700    8.9010    9.3600 C.ar    6  U6          0.3546
     81   O.2     -10.7180    9.6810    8.6050 O.2     6  U6         -0.2443
     82   N.3     -11.4890    9.2020   10.6900 N.ar    6  U6         -0.1530
     83   C4      -12.0980    8.3970   11.6250 C.ar    6  U6          0.2846
     84   O4      -12.2380    8.7770   12.7940 O.2     6  U6         -0.2650
     85   C5      -12.5310    7.1200   11.1130 C.ar    6  U6          0.0814
     86   C6      -12.3410    6.7930    9.8190 C.ar    6  U6          0.0870
     87    P.3     -8.0370    4.0050    8.3340 P.3     7  C7          0.2141
     88  OP1       -6.9110    3.3330    7.6360 O.2     7  C7         -0.5172
     89  OP2       -8.8050    3.2640    9.3680 O.3     7  C7         -0.4373
     90  O5'       -7.4900    5.3490    8.9940 O.3     7  C7         -0.3114
     91  C5'       -6.8800    6.3620    8.1970 C.3     7  C7          0.1812
     92  C4'       -6.4440    7.5230    9.0610 C.3     7  C7          0.1773
     93  O4'       -7.6060    8.1460    9.6750 O.3     7  C7         -0.3307
     94  C3'       -5.5560    7.1500   10.2420 C.3     7  C7          0.1860
     95  O3'       -4.1860    6.9700    9.9090 O.3     7  C7         -0.3112
     96  C2'       -5.7830    8.3230   11.1850 C.3     7  C7          0.2309
     97  O2'       -5.0540    9.4800   10.8240 O.3     7  C7         -0.2156
     98  C1'       -7.2810    8.5690   10.9940 C.3     7  C7          0.2420
     99   N.1      -8.1060    7.8110   11.9580 N.ar    7  C7         -0.2535
    100   C.2      -8.1990    8.2710   13.2840 C.ar    7  C7          0.3532
    101   O.2      -7.5950    9.3060   13.6110 O.2     7  C7         -0.2443
    102   N.3      -8.9420    7.5730   14.1730 N.ar    7  C7         -0.1739
    103   C4       -9.5770    6.4640   13.7890 C.ar    7  C7          0.1759
    104   N.4     -10.2940    5.8080   14.7020 N.pl3   7  C7         -0.1070
    105   C5       -9.5060    5.9780   12.4510 C.ar    7  C7          0.0566
    106   C6       -8.7680    6.6740   11.5780 C.ar    7  C7          0.0850
    107    P.3     -3.2900    5.9480   10.7680 P.3     8  A8          0.2141
    108  OP1       -1.9710    5.8330   10.0960 O.2     8  A8         -0.5172
    109  OP2       -4.0920    4.7240   11.0250 O.3     8  A8         -0.4373
    110  O5'       -3.0820    6.7040   12.1550 O.3     8  A8         -0.3114
    111  C5'       -2.5820    8.0390   12.1910 C.3     8  A8          0.1812
    112  C4'       -2.7260    8.6190   13.5780 C.3     8  A8          0.1773
    113  O4'       -4.1290    8.6640   13.9500 O.3     8  A8         -0.3307
    114  C3'       -2.0800    7.7980   14.6900 C.3     8  A8          0.1860
    115  O3'       -0.6810    8.0340   14.7940 O.3     8  A8         -0.3112
    116  C2'       -2.8460    8.2810   15.9150 C.3     8  A8          0.2309
    117  O2'       -2.3890    9.5290   16.3990 O.3     8  A8         -0.2156
    118  C1'       -4.2600    8.4320   15.3450 C.3     8  A8          0.2408
    119   N9       -5.0980    7.2470   15.5480 N.ar    8  A8         -0.2693
    120   C8       -5.5400    6.3460   14.6080 C.ar    8  A8          0.1816
    121   N7       -6.2780    5.3820   15.1040 N.ar    8  A8         -0.2193
    122   C5       -6.3270    5.6660   16.4620 C.ar    8  A8          0.1518
    123   C6       -6.9530    5.0170   17.5420 C.ar    8  A8          0.1919
    124   N6       -7.6790    3.9040   17.4190 N.pl3   8  A8         -0.1054
    125   N.1      -6.8040    5.5580   18.7710 N.ar    8  A8         -0.2040
    126   C.2      -6.0750    6.6740   18.8950 C.ar    8  A8          0.2016
    127   N.3      -5.4400    7.3750   17.9590 N.ar    8  A8         -0.2048
    128   C4       -5.6070    6.8110   16.7500 C.ar    8  A8          0.1692
    129    P.3      0.3210    6.7910   14.9760 P.3     9  C9          0.2141
    130  OP1        1.7060    7.3170   14.8740 O.3     9  C9         -0.4373
    131  OP2       -0.1150    5.6970   14.0700 O.2     9  C9         -0.5172
    132  O5'        0.0690    6.3220   16.4770 O.3     9  C9         -0.3114
    133  C5'        0.2780    7.2180   17.5660 C.3     9  C9          0.1812
    134  C4'       -0.2670    6.6290   18.8450 C.3     9  C9          0.1773
    135  O4'       -1.7200    6.6400   18.8160 O.3     9  C9         -0.3307
    136  C3'        0.0800    5.1740   19.1450 C.3     9  C9          0.1860
    137  O3'        1.3880    5.0260   19.6820 O.3     9  C9         -0.3112
    138  C2'       -1.0120    4.8000   20.1380 C.3     9  C9          0.2309
    139  O2'       -0.7660    5.2900   21.4410 O.3     9  C9         -0.2156
    140  C1'       -2.2200    5.5160   19.5300 C.3     9  C9          0.2420
    141   N.1      -2.9750    4.6540   18.5970 N.ar    9  C9         -0.2535
    142   C.2      -3.9520    3.7870   19.1160 C.ar    9  C9          0.3532
    143   O.2      -4.1710    3.7830   20.3390 O.2     9  C9         -0.2443
    144   N.3      -4.6320    2.9780   18.2720 N.ar    9  C9         -0.1739
    145   C4       -4.3740    3.0110   16.9620 C.ar    9  C9          0.1759
    146   N.4      -5.0660    2.1900   16.1690 N.pl3   9  C9         -0.1070
    147   C5       -3.3960    3.8860   16.4070 C.ar    9  C9          0.0566
    148   C6       -2.7280    4.6830   17.2510 C.ar    9  C9          0.0850
    149    P.3      2.2950    3.7800   19.2250 P.3    10  G10         0.2141
    150  OP1        3.6900    4.0670   19.6470 O.3    10  G10        -0.4373
    151  OP2        2.0080    3.4880   17.7960 O.2    10  G10        -0.5172
    152  O5'        1.7420    2.5670   20.0980 O.3    10  G10        -0.3114
    153  C5'        1.7790    2.6190   21.5220 C.3    10  G10         0.1812
    154  C4'        0.9980    1.4700   22.1180 C.3    10  G10         0.1773
    155  O4'       -0.4220    1.6620   21.8770 O.3    10  G10        -0.3307
    156  C3'        1.2720    0.0830   21.5650 C.3    10  G10         0.1860
    157  O3'        2.4460   -0.4850   22.1330 O.3    10  G10        -0.3112
    158  C2'        0.0170   -0.6710   21.9840 C.3    10  G10         0.2309
    159  O2'        0.0300   -1.0680   23.3410 O.3    10  G10        -0.2156
    160  C1'       -1.0580    0.3960   21.7630 C.3    10  G10         0.2408
    161   N9       -1.6740    0.2880   20.4430 N.ar   10  G10        -0.2693
    162   C8       -1.4370    1.0710   19.3370 C.ar   10  G10         0.1817
    163   N7       -2.1340    0.7100   18.2940 N.ar   10  G10        -0.2173
    164   C5       -2.8810   -0.3730   18.7380 C.ar   10  G10         0.1748
    165   C6       -3.8210   -1.1860   18.0520 C.ar   10  G10         0.3023
    166   O6       -4.1930   -1.1100   16.8760 O.2    10  G10        -0.2633
    167   N.1      -4.3440   -2.1730   18.8820 N.ar   10  G10        -0.1709
    168   C.2      -4.0070   -2.3580   20.1990 C.ar   10  G10         0.2606
    169   N.2      -4.6230   -3.3660   20.8330 N.pl3  10  G10        -0.0859
    170   N.3      -3.1320   -1.6110   20.8480 N.ar   10  G10        -0.1918
    171   C4       -2.6110   -0.6440   20.0620 C.ar   10  G10         0.1723
    172    P.3      3.3720   -1.4520   21.2400 P.3    11  C11         0.2141
    173  OP1        4.5010   -1.9120   22.0890 O.3    11  C11        -0.4373
    174  OP2        3.6570   -0.7440   19.9650 O.2    11  C11        -0.5172
    175  O5'        2.4360   -2.7040   20.9210 O.3    11  C11        -0.3114
    176  C5'        1.9300   -3.5120   21.9800 C.3    11  C11         0.1812
    177  C4'        0.8400   -4.4450   21.4900 C.3    11  C11         0.1773
    178  O4'       -0.2220   -3.6900   20.8480 O.3    11  C11        -0.3307
    179  C3'        1.1040   -5.5490   20.4460 C.3    11  C11         0.1860
    180  O3'        1.8200   -6.6710   20.9570 O.3    11  C11        -0.3112
    181  C2'       -0.3260   -5.9420   20.0890 C.3    11  C11         0.2309
    182  O2'       -0.9250   -6.7800   21.0580 O.3    11  C11        -0.2156
    183  C1'       -1.0300   -4.5830   20.0910 C.3    11  C11         0.2420
    184   N.1      -1.2350   -4.0540   18.7270 N.ar   11  C11        -0.2535
    185   C.2      -2.3210   -4.5430   17.9780 C.ar   11  C11         0.3532
    186   O.2      -3.0870   -5.3750   18.4930 O.2    11  C11        -0.2443
    187   N.3      -2.5080   -4.0960   16.7160 N.ar   11  C11        -0.1739
    188   C4       -1.6710   -3.1980   16.1950 C.ar   11  C11         0.1759
    189   N.4      -1.8920   -2.7930   14.9420 N.pl3  11  C11        -0.1070
    190   C5       -0.5680   -2.6750   16.9340 C.ar   11  C11         0.0566
    191   C6       -0.3900   -3.1250   18.1850 C.ar   11  C11         0.0850
    192    P.3      2.4300   -7.7590   19.9380 P.3    12  C12         0.2141
    193  OP1        3.2670   -8.6910   20.7380 O.3    12  C12        -0.4373
    194  OP2        3.0320   -7.0440   18.7830 O.2    12  C12        -0.5172
    195  O5'        1.1550   -8.5610   19.4140 O.3    12  C12        -0.3114
    196  C5'        0.3990   -9.3920   20.2940 C.3    12  C12         0.1812
    197  C4'       -0.6610  -10.1540   19.5290 C.3    12  C12         0.1773
    198  O4'       -1.6430   -9.2280   18.9930 O.3    12  C12        -0.3307
    199  C3'       -0.1860  -10.9370   18.3040 C.3    12  C12         0.1860
    200  O3'        0.3430  -12.2010   18.6900 O.3    12  C12        -0.3112
    201  C2'       -1.4800  -11.0850   17.5130 C.3    12  C12         0.2309
    202  O2'       -2.3110  -12.1190   18.0010 O.3    12  C12        -0.2156
    203  C1'       -2.1420   -9.7270   17.7590 C.3    12  C12         0.2420
    204   N.1      -1.8660   -8.7420   16.6920 N.ar   12  C12        -0.2535
    205   C.2      -2.5940   -8.8210   15.4930 C.ar   12  C12         0.3532
    206   O.2      -3.4530   -9.7100   15.3620 O.2    12  C12        -0.2443
    207   N.3      -2.3440   -7.9270   14.5090 N.ar   12  C12        -0.1739
    208   C4       -1.4160   -6.9840   14.6840 C.ar   12  C12         0.1759
    209   N.4      -1.2040   -6.1240   13.6850 N.pl3  12  C12        -0.1070
    210   C5       -0.6630   -6.8790   15.8890 C.ar   12  C12         0.0566
    211   C6       -0.9170   -7.7690   16.8570 C.ar   12  C12         0.0850
    212    P.3      1.3840  -12.9570   17.7260 P.3    13  G13         0.2141
    213  OP1        1.8270  -14.1850   18.4360 O.3    13  G13        -0.4373
    214  OP2        2.3970  -11.9740   17.2620 O.2    13  G13        -0.5172
    215  O5'        0.5020  -13.3930   16.4710 O.3    13  G13        -0.3114
    216  C5'       -0.4890  -14.4110   16.5930 C.3    13  G13         0.1812
    217  C4'       -1.2740  -14.5470   15.3080 C.3    13  G13         0.1773
    218  O4'       -1.9910  -13.3110   15.0400 O.3    13  G13        -0.3307
    219  C3'       -0.4530  -14.7570   14.0400 C.3    13  G13         0.1860
    220  O3'       -0.0110  -16.0950   13.8410 O.3    13  G13        -0.3112
    221  C2'       -1.4360  -14.3210   12.9610 C.3    13  G13         0.2309
    222  O2'       -2.4020  -15.3070   12.6550 O.3    13  G13        -0.2156
    223  C1'       -2.1070  -13.1230   13.6360 C.3    13  G13         0.2408
    224   N9       -1.4750  -11.8570   13.2740 N.ar   13  G13        -0.2693
    225   C8       -0.5430  -11.1480   13.9950 C.ar   13  G13         0.1817
    226   N7       -0.1550  -10.0540   13.3960 N.ar   13  G13        -0.2173
    227   C5       -0.8760  -10.0380   12.2090 C.ar   13  G13         0.1748
    228   C6       -0.8760   -9.0970   11.1470 C.ar   13  G13         0.3023
    229   O6       -0.2170   -8.0560   11.0380 O.2    13  G13        -0.2633
    230   N.1      -1.7570   -9.4690   10.1360 N.ar   13  G13        -0.1709
    231   C.2      -2.5380  -10.5980   10.1440 C.ar   13  G13         0.2606
    232   N.2      -3.3260  -10.7820    9.0760 N.pl3  13  G13        -0.0859
    233   N.3      -2.5460  -11.4820   11.1270 N.ar   13  G13        -0.1918
    234   C4       -1.6970  -11.1410   12.1200 C.ar   13  G13         0.1723
    235    P.3      1.2250  -16.3850   12.8520 P.3    14  G14         0.2141
    236  OP1        1.5380  -17.8340   12.9440 O.2    14  G14        -0.5172
    237  OP2        2.2900  -15.3860   13.1270 O.3    14  G14        -0.4373
    238  O5'        0.6340  -16.0890   11.4010 O.3    14  G14        -0.3114
    239  C5'       -0.3260  -16.9620   10.8090 C.3    14  G14         0.1812
    240  C4'       -0.6720  -16.5010    9.4100 C.3    14  G14         0.1773
    241  O4'       -1.3310  -15.2060    9.4760 O.3    14  G14        -0.3307
    242  C3'        0.4970  -16.2730    8.4540 C.3    14  G14         0.1860
    243  O3'        0.9930  -17.4590    7.8430 O.3    14  G14        -0.3112
    244  C2'       -0.1180  -15.3190    7.4410 C.3    14  G14         0.2309
    245  O2'       -0.9570  -15.9640    6.5020 O.3    14  G14        -0.2156
    246  C1'       -0.9490  -14.4180    8.3560 C.3    14  G14         0.2408
    247   N9       -0.1800  -13.2720    8.8330 N.ar   14  G14        -0.2693
    248   C8        0.5550  -13.1850    9.9930 C.ar   14  G14         0.1817
    249   N7        1.1560  -12.0350   10.1340 N.ar   14  G14        -0.2173
    250   C5        0.7930  -11.3160    9.0040 C.ar   14  G14         0.1748
    251   C6        1.1420  -10.0020    8.6000 C.ar   14  G14         0.3023
    252   O6        1.8660   -9.1840    9.1800 O.2    14  G14        -0.2633
    253   N.1       0.5530   -9.6680    7.3850 N.ar   14  G14        -0.1709
    254   C.2      -0.2640  -10.4900    6.6510 C.ar   14  G14         0.2606
    255   N.2      -0.7340   -9.9850    5.5010 N.pl3  14  G14        -0.0859
    256   N.3      -0.5960  -11.7170    7.0140 N.ar   14  G14        -0.1918
    257   C4       -0.0350  -12.0630    8.1930 C.ar   14  G14         0.1723
    258    P.3      2.5570  -17.5710    7.4820 P.3    15  C15         0.2141
    259  OP1        2.8080  -18.9630    7.0310 O.2    15  C15        -0.5172
    260  OP2        3.3370  -17.0170    8.6190 O.3    15  C15        -0.4373
    261  O5'        2.7380  -16.5970    6.2320 O.3    15  C15        -0.3114
    262  C5'        2.0260  -16.8310    5.0190 C.3    15  C15         0.1812
    263  C4'        1.9910  -15.5800    4.1670 C.3    15  C15         0.1773
    264  O4'        1.4330  -14.4820    4.9390 O.3    15  C15        -0.3307
    265  C3'        3.3150  -15.0110    3.6640 C.3    15  C15         0.1860
    266  O3'        3.8490  -15.6880    2.5310 O.3    15  C15        -0.3112
    267  C2'        2.9140  -13.5830    3.3170 C.3    15  C15         0.2309
    268  O2'        2.2170  -13.4820    2.0900 O.3    15  C15        -0.2156
    269  C1'        1.9740  -13.2500    4.4760 C.3    15  C15         0.2420
    270   N.1       2.6870  -12.5810    5.5840 N.ar   15  C15        -0.2535
    271   C.2       2.9380  -11.2010    5.4870 C.ar   15  C15         0.3532
    272   O.2       2.5290  -10.5790    4.4930 O.2    15  C15        -0.2443
    273   N.3       3.6190  -10.5840    6.4790 N.ar   15  C15        -0.1739
    274   C4        4.0400  -11.2820    7.5360 C.ar   15  C15         0.1759
    275   N.4       4.7160  -10.6300    8.4850 N.pl3  15  C15        -0.1070
    276   C5        3.7890  -12.6790    7.6660 C.ar   15  C15         0.0566
    277   C6        3.1150  -13.2820    6.6790 C.ar   15  C15         0.0850
    278    P.3      5.4230  -15.5850    2.2150 P.3    16  G16         0.2141
    279  OP1        5.6910  -16.4110    1.0100 O.2    16  G16        -0.5172
    280  OP2        6.1710  -15.8570    3.4700 O.3    16  G16        -0.4373
    281  O5'        5.6420  -14.0520    1.8320 O.3    16  G16        -0.3114
    282  C5'        5.0480  -13.4990    0.6590 C.3    16  G16         0.1812
    283  C4'        5.4940  -12.0660    0.4620 C.3    16  G16         0.1773
    284  O4'        4.9240  -11.2220    1.4970 O.3    16  G16        -0.3307
    285  C3'        6.9920  -11.7910    0.5370 C.3    16  G16         0.1860
    286  O3'        7.6640  -12.1050   -0.6780 O.3    16  G16        -0.3112
    287  C2'        7.0160  -10.2990    0.8460 C.3    16  G16         0.2309
    288  O2'        6.7940   -9.4890   -0.2920 O.3    16  G16        -0.2156
    289  C1'        5.8320  -10.1740    1.8090 C.3    16  G16         0.2408
    290   N9        6.2270  -10.3000    3.2100 N.ar   16  G16        -0.2693
    291   C8        6.1140  -11.4120    4.0120 C.ar   16  G16         0.1817
    292   N7        6.5710  -11.2220    5.2190 N.ar   16  G16        -0.2173
    293   C5        7.0110   -9.9050    5.2180 C.ar   16  G16         0.1748
    294   C6        7.6100   -9.1360    6.2490 C.ar   16  G16         0.3023
    295   O6        7.8810   -9.4760    7.4070 O.2    16  G16        -0.2633
    296   N.1       7.8990   -7.8450    5.8190 N.ar   16  G16        -0.1709
    297   C.2       7.6490   -7.3550    4.5620 C.ar   16  G16         0.2606
    298   N.2       8.0010   -6.0800    4.3420 N.pl3  16  G16        -0.0859
    299   N.3       7.0930   -8.0620    3.5920 N.ar   16  G16        -0.1918
    300   C4        6.8020   -9.3200    3.9870 C.ar   16  G16         0.1723
    301    P.3      8.7220  -13.3200   -0.7160 P.3    17  A17         0.2141
    302  OP1        8.5180  -14.0190   -2.0110 O.2    17  A17        -0.5172
    303  OP2        8.6290  -14.0880    0.5520 O.3    17  A17        -0.4373
    304  O5'       10.1440  -12.6010   -0.7630 O.3    17  A17        -0.3114
    305  C5'       10.4230  -11.6230   -1.7590 C.3    17  A17         0.1812
    306  C4'       11.8570  -11.7260   -2.2290 C.3    17  A17         0.1773
    307  O4'       11.9280  -11.1860   -3.5740 O.3    17  A17        -0.3307
    308  C3'       12.9000  -10.9560   -1.4240 C.3    17  A17         0.1860
    309  O3'       13.4530  -11.7320   -0.3600 O.3    17  A17        -0.3112
    310  C2'       13.9560  -10.6340   -2.4740 C.3    17  A17         0.2309
    311  O2'       14.8450  -11.7090   -2.7120 O.3    17  A17        -0.2156
    312  C1'       13.0930  -10.3950   -3.7140 C.3    17  A17         0.2408
    313   N9       12.6760   -9.0030   -3.8980 N.ar   17  A17        -0.2693
    314   C8       11.4710   -8.4330   -3.5630 C.ar   17  A17         0.1816
    315   N7       11.3850   -7.1610   -3.8640 N.ar   17  A17        -0.2193
    316   C5       12.6170   -6.8700   -4.4330 C.ar   17  A17         0.1518
    317   C6       13.1560   -5.6860   -4.9630 C.ar   17  A17         0.1919
    318   N6       12.4950   -4.5270   -5.0100 N.pl3  17  A17        -0.1054
    319   N.1      14.4150   -5.7320   -5.4500 N.ar   17  A17        -0.2040
    320   C.2      15.0760   -6.8950   -5.4050 C.ar   17  A17         0.2016
    321   N.3      14.6780   -8.0740   -4.9350 N.ar   17  A17        -0.2048
    322   C4       13.4240   -7.9940   -4.4570 C.ar   17  A17         0.1692
    323    P.3     14.2090  -10.9990    0.8600 P.3    18  A18         0.2141
    324  OP1       14.8030  -12.0600    1.7150 O.3    18  A18        -0.4373
    325  OP2       13.2730  -10.0160    1.4610 O.2    18  A18        -0.5172
    326  O5'       15.3950  -10.1840    0.1730 O.3    18  A18        -0.3114
    327  C5'       16.6320  -10.8110   -0.1770 C.3    18  A18         0.1812
    328  C4'       17.6400   -9.7680   -0.6110 C.3    18  A18         0.1773
    329  O4'       17.0870   -9.0320   -1.7330 O.3    18  A18        -0.3307
    330  C3'       17.9530   -8.7150    0.4490 C.3    18  A18         0.1860
    331  O3'       19.0680   -9.1310    1.2360 O.3    18  A18        -0.3112
    332  C2'       18.3030   -7.4910   -0.3920 C.3    18  A18         0.2309
    333  O2'       19.6390   -7.4970   -0.8550 O.3    18  A18        -0.2156
    334  C1'       17.3480   -7.6480   -1.5780 C.3    18  A18         0.2408
    335   N9       16.0650   -6.9620   -1.4120 N.ar   18  A18        -0.2693
    336   C8       14.9670   -7.3910   -0.7050 C.ar   18  A18         0.1816
    337   N7       13.9530   -6.5630   -0.7490 N.ar   18  A18        -0.2193
    338   C5       14.4110   -5.5150   -1.5340 C.ar   18  A18         0.1518
    339   C6       13.8070   -4.3200   -1.9610 C.ar   18  A18         0.1919
    340   N6       12.5600   -3.9670   -1.6430 N.pl3  18  A18        -0.1054
    341   N.1      14.5380   -3.4890   -2.7350 N.ar   18  A18        -0.2040
    342   C.2      15.7880   -3.8450   -3.0550 C.ar   18  A18         0.2016
    343   N.3      16.4650   -4.9410   -2.7180 N.ar   18  A18        -0.2048
    344   C4       15.7120   -5.7450   -1.9480 C.ar   18  A18         0.1692
    345    P.3     18.8950   -9.3690    2.8190 P.3    19  G19         0.2141
    346  OP1       20.1820   -9.9130    3.3220 O.3    19  G19        -0.4373
    347  OP2       17.6420  -10.1340    3.0400 O.2    19  G19        -0.5172
    348  O5'       18.7050   -7.9100    3.4320 O.3    19  G19        -0.3114
    349  C5'       19.6140   -6.8530    3.1270 C.3    19  G19         0.1812
    350  C4'       19.6170   -5.8240    4.2370 C.3    19  G19         0.1773
    351  O4'       18.2550   -5.3470    4.4360 O.3    19  G19        -0.3307
    352  C3'       20.0620   -6.2870    5.6240 C.3    19  G19         0.1860
    353  O3'       21.4740   -6.2400    5.8050 O.3    19  G19        -0.3112
    354  C2'       19.3500   -5.2950    6.5310 C.3    19  G19         0.2309
    355  O2'       19.9870   -4.0330    6.5830 O.3    19  G19        -0.2156
    356  C1'       18.0010   -5.1740    5.8230 C.3    19  G19         0.2408
    357   N9       17.0640   -6.2110    6.2530 N.ar   19  G19        -0.2693
    358   C8       16.5100   -7.2040    5.4800 C.ar   19  G19         0.1817
    359   N7       15.7300   -8.0040    6.1540 N.ar   19  G19        -0.2173
    360   C5       15.7650   -7.5090    7.4500 C.ar   19  G19         0.1748
    361   C6       15.1190   -7.9690    8.6260 C.ar   19  G19         0.3023
    362   O6       14.3690   -8.9420    8.7630 O.2    19  G19        -0.2633
    363   N.1      15.4250   -7.1700    9.7230 N.ar   19  G19        -0.1709
    364   C.2      16.2480   -6.0710    9.6950 C.ar   19  G19         0.2606
    365   N.2      16.4160   -5.4280   10.8590 N.pl3  19  G19        -0.0859
    366   N.3      16.8600   -5.6350    8.6060 N.ar   19  G19        -0.1918
    367   C4       16.5750   -6.3960    7.5280 C.ar   19  G19         0.1723
    368    P.3     22.1730   -7.2060    6.8870 P.3    20  U20         0.2141
    369  OP1       23.6270   -6.9050    6.8730 O.3    20  U20        -0.4373
    370  OP2       21.7100   -8.5960    6.6400 O.2    20  U20        -0.5172
    371  O5'       21.5770   -6.7280    8.2880 O.3    20  U20        -0.3114
    372  C5'       21.9380   -5.4670    8.8510 C.3    20  U20         0.1812
    373  C4'       21.5080   -5.3910   10.3010 C.3    20  U20         0.1773
    374  O4'       20.0610   -5.5000   10.3800 O.3    20  U20        -0.3307
    375  C3'       22.0230   -6.4880   11.2180 C.3    20  U20         0.1860
    376  O3'       23.3290   -6.2110   11.7150 O.3    20  U20        -0.3112
    377  C2'       20.9840   -6.4940   12.3330 C.3    20  U20         0.2309
    378  O2'       21.1870   -5.4740   13.2910 O.3    20  U20        -0.2156
    379  C1'       19.6980   -6.2230   11.5480 C.3    20  U20         0.2420
    380   N.1      18.9980   -7.4550   11.1440 N.ar   20  U20        -0.2534
    381   C.2      18.1180   -8.0280   12.0520 C.ar   20  U20         0.3546
    382   O.2      17.8980   -7.5580   13.1570 O.2    20  U20        -0.2443
    383   N.3      17.5060   -9.1780   11.6170 N.ar   20  U20        -0.1530
    384   C4       17.6750   -9.8010   10.3980 C.ar   20  U20         0.2846
    385   O4       17.0590  -10.8400   10.1600 O.2    20  U20        -0.2650
    386   C5       18.5930   -9.1490    9.5160 C.ar   20  U20         0.0814
    387   C6       19.2070   -8.0290    9.9070 C.ar   20  U20         0.0870
    388    P.3     24.2920   -7.4260   12.1450 P.3    21  C21         0.2141
    389  OP1       25.6100   -6.8360   12.4980 O.3    21  C21        -0.4373
    390  OP2       24.2180   -8.4790   11.1000 O.2    21  C21        -0.5172
    391  O5'       23.6260   -7.9990   13.4760 O.3    21  C21        -0.3114
    392  C5'       23.6200   -7.2340   14.6810 C.3    21  C21         0.1812
    393  C4'       22.9680   -8.0130   15.8030 C.3    21  C21         0.1773
    394  O4'       21.5560   -8.1910   15.5120 O.3    21  C21        -0.3307
    395  C3'       23.4750   -9.4210   16.0600 C.3    21  C21         0.1860
    396  O3'       24.6560   -9.4480   16.8560 O.3    21  C21        -0.3112
    397  C2'       22.2960  -10.0580   16.7830 C.3    21  C21         0.2309
    398  O2'       22.2300   -9.7160   18.1540 O.3    21  C21        -0.2156
    399  C1'       21.1150   -9.4380   16.0330 C.3    21  C21         0.2420
    400   N.1      20.6430  -10.2850   14.9190 N.ar   21  C21        -0.2535
    401   C.2      19.7660  -11.3470   15.1990 C.ar   21  C21         0.3532
    402   O.2      19.3990  -11.5370   16.3710 O.2    21  C21        -0.2443
    403   N.3      19.3430  -12.1370   14.1870 N.ar   21  C21        -0.1739
    404   C4       19.7560  -11.9040   12.9390 C.ar   21  C21         0.1759
    405   N.4      19.3160  -12.7140   11.9750 N.pl3  21  C21        -0.1070
    406   C5       20.6390  -10.8310   12.6250 C.ar   21  C21         0.0566
    407   C6       21.0530  -10.0540   13.6330 C.ar   21  C21         0.0850
    408    P.3     25.6670  -10.6940   16.7390 P.3    22  G22         0.2141
    409  OP1       26.7920  -10.4350   17.6750 O.3    22  G22        -0.4373
    410  OP2       25.9520  -10.9330   15.3010 O.2    22  G22        -0.5172
    411  O5'       24.8280  -11.9320   17.2940 O.3    22  G22        -0.3114
    412  C5'       24.5180  -12.0390   18.6820 C.3    22  G22         0.1812
    413  C4'       23.6340  -13.2400   18.9430 C.3    22  G22         0.1773
    414  O4'       22.3930  -13.1060   18.1980 O.3    22  G22        -0.3307
    415  C3'       24.1540  -14.6080   18.5110 C.3    22  G22         0.1860
    416  O3'       25.1060  -15.1930   19.3930 O.3    22  G22        -0.3112
    417  C2'       22.8650  -15.4190   18.4640 C.3    22  G22         0.2309
    418  O2'       22.4180  -15.8320   19.7410 O.3    22  G22        -0.2156
    419  C1'       21.8900  -14.3960   17.8790 C.3    22  G22         0.2408
    420   N9       21.7740  -14.5190   16.4270 N.ar   22  G22        -0.2693
    421   C8       22.2720  -13.6690   15.4680 C.ar   22  G22         0.1817
    422   N7       22.0200  -14.0670   14.2500 N.ar   22  G22        -0.2173
    423   C5       21.3080  -15.2480   14.4140 C.ar   22  G22         0.1748
    424   C6       20.7660  -16.1380   13.4490 C.ar   22  G22         0.3023
    425   O6       20.8090  -16.0580   12.2150 O.2    22  G22        -0.2633
    426   N.1      20.1220  -17.2130   14.0520 N.ar   22  G22        -0.1709
    427   C.2      20.0110  -17.4110   15.4050 C.ar   22  G22         0.2606
    428   N.2      19.3490  -18.5100   15.7930 N.pl3  22  G22        -0.0859
    429   N.3      20.5120  -16.5910   16.3130 N.ar   22  G22        -0.1918
    430   C4       21.1430  -15.5380   15.7510 C.ar   22  G22         0.1723
    431    P.3     26.1870  -16.2380   18.8170 P.3    23  C23         0.2141
    432  OP1       27.1380  -16.5440   19.9160 O.3    23  C23        -0.4373
    433  OP2       26.7030  -15.7140   17.5260 O.2    23  C23        -0.5172
    434  O5'       25.3360  -17.5530   18.5130 O.3    23  C23        -0.3114
    435  C5'       24.6380  -18.2310   19.5570 C.3    23  C23         0.1813
    436  C4'       23.7810  -19.3420   18.9900 C.3    23  C23         0.1801
    437  O4'       22.8480  -18.7960   18.0220 O.3    23  C23        -0.3306
    438  C3'       24.4750  -20.4520   18.2270 C.3    23  C23         0.2161
    439  O3'       25.1630  -21.3890   19.0630 O.3    23  C23        -0.2175
    440  C2'       23.3340  -21.0470   17.4120 C.3    23  C23         0.2338
    441  O2'       22.5200  -21.9280   18.1610 O.3    23  C23        -0.2155
    442  C1'       22.5320  -19.7910   17.0560 C.3    23  C23         0.2421
    443   N.1      22.8220  -19.2650   15.7050 N.ar   23  C23        -0.2535
    444   C.2      22.3130  -19.9500   14.5890 C.ar   23  C23         0.3532
    445   O.2      21.6380  -20.9780   14.7650 O.2    23  C23        -0.2443
    446   N.3      22.5700  -19.4750   13.3490 N.ar   23  C23        -0.1739
    447   C4       23.3000  -18.3690   13.1950 C.ar   23  C23         0.1759
    448   N.4      23.5260  -17.9370   11.9530 N.pl3  23  C23        -0.1070
    449   C5       23.8310  -17.6540   14.3090 C.ar   23  C23         0.0566
    450   C6       23.5710  -18.1320   15.5330 C.ar   23  C23         0.0850
    451    P.3     17.6130  -22.0480    3.6520 Pac    26  G26         0.3942
    452  OP1       18.8850  -21.3120    3.2610 O.3    26  G26        -0.1425
    453  OP2       16.8410  -22.5670    2.4490 O.3    26  G26        -0.1425
    454  O5'       18.1000  -23.3620    4.4840 O.3    26  G26        -0.2926
    455  C5'       17.1560  -24.3620    4.9110 C.3    26  G26         0.1829
    456  C4'       17.3670  -24.6980    6.3700 C.3    26  G26         0.1774
    457  O4'       18.7760  -24.5560    6.6970 O.3    26  G26        -0.3307
    458  C3'       16.6920  -23.8010    7.3950 C.3    26  G26         0.1860
    459  O3'       15.3190  -24.1370    7.5800 O.3    26  G26        -0.3112
    460  C2'       17.5070  -24.0800    8.6520 C.3    26  G26         0.2309
    461  O2'       17.1270  -25.2720    9.3110 O.3    26  G26        -0.2156
    462  C1'       18.9150  -24.2350    8.0730 C.3    26  G26         0.2408
    463   N9       19.7230  -23.0240    8.2050 N.ar   26  G26        -0.2693
    464   C8       20.1660  -22.1910    7.2040 C.ar   26  G26         0.1817
    465   N7       20.8660  -21.1830    7.6480 N.ar   26  G26        -0.2173
    466   C5       20.8890  -21.3600    9.0260 C.ar   26  G26         0.1748
    467   C6       21.4980  -20.5810   10.0460 C.ar   26  G26         0.3023
    468   O6       22.1610  -19.5430    9.9320 O.2    26  G26        -0.2633
    469   N.1      21.2700  -21.1230   11.3060 N.ar   26  G26        -0.1709
    470   C.2      20.5520  -22.2650   11.5570 C.ar   26  G26         0.2606
    471   N.2      20.4450  -22.6290   12.8430 N.pl3  26  G26        -0.0859
    472   N.3      19.9820  -22.9990   10.6190 N.ar   26  G26        -0.1918
    473   C4       20.1900  -22.4920    9.3850 C.ar   26  G26         0.1723
    474    P.3     14.3040  -23.0470    8.1890 P.3    27  C27         0.2141
    475  OP1       12.9300  -23.6070    8.1110 O.3    27  C27        -0.4373
    476  OP2       14.6000  -21.7420    7.5430 O.2    27  C27        -0.5172
    477  O5'       14.7180  -22.9410    9.7260 O.3    27  C27        -0.3114
    478  C5'       14.4920  -24.0280   10.6220 C.3    27  C27         0.1812
    479  C4'       14.9420  -23.6700   12.0230 C.3    27  C27         0.1773
    480  O4'       16.3770  -23.4380   12.0260 O.3    27  C27        -0.3307
    481  C3'       14.3730  -22.4070   12.6570 C.3    27  C27         0.1860
    482  O3'       13.0730  -22.5820   13.2110 O.3    27  C27        -0.3112
    483  C2'       15.4010  -22.1150   13.7410 C.3    27  C27         0.2309
    484  O2'       15.2440  -22.9220   14.8920 O.3    27  C27        -0.2156
    485  C1'       16.7020  -22.4790   13.0230 C.3    27  C27         0.2420
    486   N.1      17.3360  -21.3090   12.3820 N.ar   27  C27        -0.2535
    487   C.2      18.0800  -20.4210   13.1790 C.ar   27  C27         0.3532
    488   O.2      18.1990  -20.6530   14.3940 O.2    27  C27        -0.2443
    489   N.3      18.6470  -19.3370   12.6050 N.ar   27  C27        -0.1739
    490   C4       18.5010  -19.1200   11.2960 C.ar   27  C27         0.1759
    491   N.4      19.0740  -18.0320   10.7750 N.pl3  27  C27        -0.1070
    492   C5       17.7590  -20.0070   10.4620 C.ar   27  C27         0.0566
    493   C6       17.2000  -21.0780   11.0400 C.ar   27  C27         0.0850
    494    P.3     12.1130  -21.3050   13.4100 P.3    28  G28         0.2141
    495  OP1       10.8190  -21.8100   13.9360 O.3    28  G28        -0.4373
    496  OP2       12.1310  -20.5070   12.1570 O.2    28  G28        -0.5172
    497  O5'       12.8240  -20.4510   14.5550 O.3    28  G28        -0.3114
    498  C5'       12.7760  -20.8730   15.9170 C.3    28  G28         0.1812
    499  C4'       13.4480  -19.8600   16.8210 C.3    28  G28         0.1773
    500  O4'       14.8600  -19.7600   16.4840 O.3    28  G28        -0.3307
    501  C3'       12.9760  -18.4160   16.7690 C.3    28  G28         0.1860
    502  O3'       11.7690  -18.1510   17.4730 O.3    28  G28        -0.3112
    503  C2'       14.1540  -17.6900   17.4010 C.3    28  G28         0.2309
    504  O2'       14.1910  -17.8000   18.8110 O.3    28  G28        -0.2156
    505  C1'       15.3280  -18.4500   16.7840 C.3    28  G28         0.2408
    506   N9       15.7680  -17.8050   15.5490 N.ar   28  G28        -0.2693
    507   C8       15.5030  -18.1910   14.2560 C.ar   28  G28         0.1817
    508   N7       16.0040  -17.3780   13.3660 N.ar   28  G28        -0.2173
    509   C5       16.6450  -16.4000   14.1150 C.ar   28  G28         0.1748
    510   C6       17.3640  -15.2490   13.7020 C.ar   28  G28         0.3023
    511   O6       17.5820  -14.8470   12.5540 O.2    28  G28        -0.2633
    512   N.1      17.8510  -14.5330   14.7920 N.ar   28  G28        -0.1709
    513   C.2      17.6690  -14.8760   16.1080 C.ar   28  G28         0.2606
    514   N.2      18.2210  -14.0580   17.0160 N.pl3  28  G28        -0.0859
    515   N.3      16.9970  -15.9420   16.5060 N.ar   28  G28        -0.1918
    516   C4       16.5170  -16.6540   15.4640 C.ar   28  G28         0.1723
    517    P.3     10.8090  -16.9540   16.9790 P.3    29  U29         0.2141
    518  OP1        9.5970  -16.9930   17.8370 O.3    29  U29        -0.4373
    519  OP2       10.6650  -17.0520   15.5040 O.2    29  U29        -0.5172
    520  O5'       11.6250  -15.6230   17.3180 O.3    29  U29        -0.3114
    521  C5'       11.9010  -15.2750   18.6720 C.3    29  U29         0.1812
    522  C4'       12.7140  -13.9950   18.7680 C.3    29  U29         0.1773
    523  O4'       14.0100  -14.1520   18.1260 O.3    29  U29        -0.3307
    524  C3'       12.2710  -12.6540   18.1820 C.3    29  U29         0.1860
    525  O3'       11.1810  -11.9900   18.8110 O.3    29  U29        -0.3112
    526  C2'       13.5460  -11.8380   18.3600 C.3    29  U29         0.2309
    527  O2'       13.7430  -11.3890   19.6880 O.3    29  U29        -0.2156
    528  C1'       14.6150  -12.8690   17.9970 C.3    29  U29         0.2420
    529   N.1      15.0820  -12.6570   16.6060 N.ar   29  U29        -0.2534
    530   C.2      16.0700  -11.7110   16.4290 C.ar   29  U29         0.3546
    531   O.2      16.5990  -11.1280   17.3590 O.2    29  U29        -0.2443
    532   N.3      16.4240  -11.4680   15.1160 N.ar   29  U29        -0.1530
    533   C4       15.8910  -12.0660   13.9980 C.ar   29  U29         0.2846
    534   O4       16.2900  -11.7640   12.8670 O.2    29  U29        -0.2650
    535   C5       14.8620  -13.0370   14.2800 C.ar   29  U29         0.0814
    536   C6       14.4940  -13.3060   15.5480 C.ar   29  U29         0.0870
    537    P.3     10.2960  -10.9420   17.9630 P.3    30  C30         0.2141
    538  OP1        9.3430  -10.2810   18.8900 O.3    30  C30        -0.4373
    539  OP2        9.7780  -11.6650   16.7730 O.2    30  C30        -0.5172
    540  O5'       11.3420   -9.8480   17.4500 O.3    30  C30        -0.3114
    541  C5'       11.9390   -8.9220   18.3580 C.3    30  C30         0.1812
    542  C4'       12.7580   -7.8830   17.6160 C.3    30  C30         0.1773
    543  O4'       13.7950   -8.5310   16.8300 O.3    30  C30        -0.3307
    544  C3'       12.0490   -7.0020   16.5950 C.3    30  C30         0.1860
    545  O3'       11.3000   -5.9310   17.1610 O.3    30  C30        -0.3112
    546  C2'       13.2240   -6.4760   15.7790 C.3    30  C30         0.2309
    547  O2'       13.9160   -5.4160   16.4120 O.3    30  C30        -0.2156
    548  C1'       14.1240   -7.7110   15.7140 C.3    30  C30         0.2420
    549   N.1      13.9300   -8.4750   14.4630 N.ar   30  C30        -0.2535
    550   C.2      14.5150   -7.9890   13.2790 C.ar   30  C30         0.3532
    551   O.2      15.1920   -6.9470   13.3200 O.2    30  C30        -0.2443
    552   N.3      14.3280   -8.6650   12.1240 N.ar   30  C30        -0.1739
    553   C4       13.5960   -9.7810   12.1150 C.ar   30  C30         0.1759
    554   N.4      13.4320  -10.4080   10.9490 N.pl3  30  C30        -0.1070
    555   C5       12.9980  -10.3010   13.3000 C.ar   30  C30         0.0566
    556   C6       13.1890   -9.6250   14.4400 C.ar   30  C30         0.0850
    557    P.3     10.0650   -5.3040   16.3400 P.3    31  A31         0.2141
    558  OP1        9.4530   -4.2540   17.1940 O.3    31  A31        -0.4373
    559  OP2        9.2250   -6.4210   15.8370 O.2    31  A31        -0.5172
    560  O5'       10.7490   -4.5940   15.0860 O.3    31  A31        -0.3114
    561  C5'       11.6910   -3.5380   15.2650 C.3    31  A31         0.1812
    562  C4'       12.3020   -3.1370   13.9400 C.3    31  A31         0.1773
    563  O4'       13.0070   -4.2680   13.3620 O.3    31  A31        -0.3307
    564  C3'       11.3310   -2.7160   12.8420 C.3    31  A31         0.1860
    565  O3'       10.9100   -1.3630   12.9830 O.3    31  A31        -0.3112
    566  C2'       12.1710   -2.9200   11.5860 C.3    31  A31         0.2309
    567  O2'       13.0720   -1.8580   11.3380 O.3    31  A31        -0.2156
    568  C1'       12.9540   -4.1860   11.9450 C.3    31  A31         0.2408
    569   N9       12.3460   -5.4110   11.4200 N.ar   31  A31        -0.2693
    570   C8       11.6550   -6.3850   12.1030 C.ar   31  A31         0.1816
    571   N7       11.2310   -7.3650   11.3420 N.ar   31  A31        -0.2193
    572   C5       11.6710   -7.0150   10.0720 C.ar   31  A31         0.1518
    573   C6       11.5400   -7.6410    8.8200 C.ar   31  A31         0.1919
    574   N6       10.9040   -8.8000    8.6330 N.pl3  31  A31        -0.1054
    575   N.1      12.0920   -7.0270    7.7510 N.ar   31  A31        -0.2040
    576   C.2      12.7290   -5.8650    7.9370 C.ar   31  A31         0.2016
    577   N.3      12.9190   -5.1790    9.0620 N.ar   31  A31        -0.2048
    578   C4       12.3580   -5.8150   10.1050 C.ar   31  A31         0.1692
    579    P.3      9.3960   -0.9580   12.6240 P.3    32  C32         0.2141
    580  OP1        9.1900    0.4360   13.0920 O.2    32  C32        -0.5172
    581  OP2        8.4940   -2.0340   13.1100 O.3    32  C32        -0.4373
    582  O5'        9.3630   -0.9640   11.0310 O.3    32  C32        -0.3114
    583  C5'       10.0770    0.0140   10.2790 C.3    32  C32         0.1812
    584  C4'       10.0200   -0.3080    8.8030 C.3    32  C32         0.1773
    585  O4'       10.7120   -1.5610    8.5530 O.3    32  C32        -0.3307
    586  C3'        8.6280   -0.5440    8.2420 C.3    32  C32         0.1860
    587  O3'        7.9320    0.6580    7.9340 O.3    32  C32        -0.3112
    588  C2'        8.9250   -1.3740    6.9990 C.3    32  C32         0.2309
    589  O2'        9.3660   -0.5990    5.9020 O.3    32  C32        -0.2156
    590  C1'       10.0630   -2.2640    7.5020 C.3    32  C32         0.2420
    591   N.1       9.5810   -3.5610    8.0220 N.ar   32  C32        -0.2535
    592   C.2       9.4450   -4.6390    7.1320 C.ar   32  C32         0.3532
    593   O.2       9.7510   -4.4830    5.9380 O.2    32  C32        -0.2443
    594   N.3       8.9840   -5.8230    7.5970 N.ar   32  C32        -0.1739
    595   C4        8.6670   -5.9570    8.8870 C.ar   32  C32         0.1759
    596   N.4       8.2110   -7.1420    9.2980 N.pl3  32  C32        -0.1070
    597   C5        8.8030   -4.8830    9.8130 C.ar   32  C32         0.0566
    598   C6        9.2600   -3.7150    9.3440 C.ar   32  C32         0.0850
    599    P.3      6.3280    0.6950    8.0400 P.3    33  G33         0.2141
    600  OP1        5.8990    2.0970    7.7980 O.2    33  G33        -0.5172
    601  OP2        5.9240    0.0120    9.2960 O.3    33  G33        -0.4373
    602  O5'        5.8440   -0.1980    6.8110 O.3    33  G33        -0.3114
    603  C5'        6.1680    0.1680    5.4720 C.3    33  G33         0.1812
    604  C4'        5.6500   -0.8660    4.4970 C.3    33  G33         0.1773
    605  O4'        6.4260   -2.0880    4.6130 O.3    33  G33        -0.3307
    606  C3'        4.2060   -1.3270    4.6310 C.3    33  G33         0.1860
    607  O3'        3.3080   -0.4000    4.0300 O.3    33  G33        -0.3112
    608  C2'        4.2310   -2.6610    3.8950 C.3    33  G33         0.2309
    609  O2'        4.1590   -2.5230    2.4890 O.3    33  G33        -0.2156
    610  C1'        5.6070   -3.2020    4.2910 C.3    33  G33         0.2408
    611   N9        5.5640   -4.1040    5.4410 N.ar   33  G33        -0.2693
    612   C8        5.9970   -3.8500    6.7210 C.ar   33  G33         0.1817
    613   N7        5.8230   -4.8590    7.5310 N.ar   33  G33        -0.2173
    614   C5        5.2400   -5.8390    6.7400 C.ar   33  G33         0.1748
    615   C6        4.8220   -7.1560    7.0670 C.ar   33  G33         0.3023
    616   O6        4.8840   -7.7370    8.1570 O.2    33  G33        -0.2633
    617   N.1       4.2820   -7.8090    5.9630 N.ar   33  G33        -0.1709
    618   C.2       4.1600   -7.2690    4.7070 C.ar   33  G33         0.2606
    619   N.2       3.6130   -8.0600    3.7730 N.pl3  33  G33        -0.0859
    620   N.3       4.5460   -6.0450    4.3890 N.ar   33  G33        -0.1918
    621   C4        5.0740   -5.3910    5.4470 C.ar   33  G33         0.1723
    622    P.3      1.7820   -0.3290    4.5330 P.3    34  C34         0.2141
    623  OP1        1.1630    0.8640    3.9010 O.2    34  C34        -0.5172
    624  OP2        1.7630   -0.4660    6.0130 O.3    34  C34        -0.4373
    625  O5'        1.1130   -1.6320    3.9050 O.3    34  C34        -0.3114
    626  C5'        1.0420   -1.8090    2.4920 C.3    34  C34         0.1812
    627  C4'        0.4830   -3.1730    2.1580 C.3    34  C34         0.1773
    628  O4'        1.4180   -4.2000    2.5830 O.3    34  C34        -0.3307
    629  C3'       -0.8180   -3.5440    2.8470 C.3    34  C34         0.1860
    630  O3'       -1.9700   -3.0070    2.2070 O.3    34  C34        -0.3112
    631  C2'       -0.7850   -5.0660    2.7980 C.3    34  C34         0.2309
    632  O2'       -1.1760   -5.5930    1.5460 O.3    34  C34        -0.2156
    633  C1'        0.7020   -5.3400    3.0370 C.3    34  C34         0.2420
    634   N.1       1.0240   -5.5710    4.4600 N.ar   34  C34        -0.2535
    635   C.2       0.7900   -6.8430    5.0100 C.ar   34  C34         0.3532
    636   O.2       0.3280   -7.7410    4.2870 O.2    34  C34        -0.2443
    637   N.3       1.0740   -7.0600    6.3150 N.ar   34  C34        -0.1739
    638   C4        1.5710   -6.0730    7.0640 C.ar   34  C34         0.1759
    639   N.4       1.8330   -6.3340    8.3460 N.pl3  34  C34        -0.1070
    640   C5        1.8220   -4.7750    6.5320 C.ar   34  C34         0.0566
    641   C6        1.5370   -4.5700    5.2400 C.ar   34  C34         0.0850
    642    P.3     -3.2840   -2.6840    3.0760 P.3    35  C35         0.2141
    643  OP1       -4.2430   -1.9800    2.1870 O.2    35  C35        -0.5172
    644  OP2       -2.8620   -2.0470    4.3500 O.3    35  C35        -0.4373
    645  O5'       -3.8770   -4.1240    3.4140 O.3    35  C35        -0.3114
    646  C5'       -4.3120   -4.9970    2.3750 C.3    35  C35         0.1812
    647  C4'       -4.6820   -6.3490    2.9400 C.3    35  C35         0.1773
    648  O4'       -3.5010   -6.9850    3.4970 O.3    35  C35        -0.3307
    649  C3'       -5.6640   -6.3300    4.0950 C.3    35  C35         0.1860
    650  O3'       -7.0120   -6.2160    3.6550 O.3    35  C35        -0.3112
    651  C2'       -5.3880   -7.6650    4.7730 C.3    35  C35         0.2309
    652  O2'       -6.0120   -8.7590    4.1290 O.3    35  C35        -0.2156
    653  C1'       -3.8680   -7.7690    4.6230 C.3    35  C35         0.2420
    654   N.1      -3.1380   -7.2750    5.8090 N.ar   35  C35        -0.2535
    655   C.2      -2.8740   -8.1680    6.8610 C.ar   35  C35         0.3532
    656   O.2      -3.2490   -9.3480    6.7620 O.2    35  C35        -0.2443
    657   N.3      -2.2190   -7.7210    7.9560 N.ar   35  C35        -0.1739
    658   C4       -1.8300   -6.4460    8.0300 C.ar   35  C35         0.1759
    659   N.4      -1.1910   -6.0500    9.1320 N.pl3  35  C35        -0.1070
    660   C5       -2.0800   -5.5200    6.9760 C.ar   35  C35         0.0566
    661   C6       -2.7300   -5.9720    5.8950 C.ar   35  C35         0.0850
    662    P.3     -8.1060   -5.5330    4.6150 P.3    36  G36         0.2141
    663  OP1       -9.3780   -5.4180    3.8570 O.2    36  G36        -0.5172
    664  OP2       -7.4920   -4.3140    5.2040 O.3    36  G36        -0.4373
    665  O5'       -8.3040   -6.5990    5.7820 O.3    36  G36        -0.3114
    666  C5'       -8.8190   -7.8970    5.4990 C.3    36  G36         0.1812
    667  C4'       -8.6980   -8.7990    6.7070 C.3    36  G36         0.1773
    668  O4'       -7.3000   -9.1150    6.9550 O.3    36  G36        -0.3307
    669  C3'       -9.1740   -8.2680    8.0540 C.3    36  G36         0.1860
    670  O3'      -10.5810   -8.2450    8.2530 O.3    36  G36        -0.3112
    671  C2'       -8.4820   -9.2300    9.0100 C.3    36  G36         0.2309
    672  O2'       -9.1120  -10.4940    9.0860 O.3    36  G36        -0.2156
    673  C1'       -7.1120   -9.3680    8.3430 C.3    36  G36         0.2408
    674   N9       -6.1660   -8.3950    8.8840 N.ar   36  G36        -0.2693
    675   C8       -5.7770   -7.1990    8.3270 C.ar   36  G36         0.1817
    676   N7       -4.9380   -6.5350    9.0760 N.ar   36  G36        -0.2173
    677   C5       -4.7560   -7.3430   10.1910 C.ar   36  G36         0.1748
    678   C6       -3.9610   -7.1470   11.3500 C.ar   36  G36         0.3023
    679   O6       -3.2340   -6.1890   11.6340 O.2    36  G36        -0.2633
    680   N.1      -4.0710   -8.2180   12.2320 N.ar   36  G36        -0.1709
    681   C.2      -4.8470   -9.3320   12.0300 C.ar   36  G36         0.2606
    682   N.2      -4.8190  -10.2580   12.9980 N.pl3  36  G36        -0.0859
    683   N.3      -5.5940   -9.5250   10.9560 N.ar   36  G36        -0.1918
    684   C4       -5.5010   -8.4980   10.0840 C.ar   36  G36         0.1723
    685    P.3    -11.2270   -7.1190    9.2060 P.3    37  G37         0.2141
    686  OP1      -12.7010   -7.2900    9.1550 O.3    37  G37        -0.4373
    687  OP2      -10.6290   -5.8060    8.8470 O.2    37  G37        -0.5172
    688  O5'      -10.7260   -7.5130   10.6680 O.3    37  G37        -0.3114
    689  C5'      -11.0450   -8.7870   11.2210 C.3    37  G37         0.1812
    690  C4'      -10.2200   -9.0670   12.4610 C.3    37  G37         0.1773
    691  O4'       -8.8040   -8.9280   12.1600 O.3    37  G37        -0.3307
    692  C3'      -10.3890   -8.2130   13.7180 C.3    37  G37         0.1860
    693  O3'      -11.5520   -8.5210   14.4790 O.3    37  G37        -0.3112
    694  C2'       -9.1300   -8.5850   14.4890 C.3    37  G37         0.2309
    695  O2'       -9.2260   -9.8450   15.1220 O.3    37  G37        -0.2156
    696  C1'       -8.0970   -8.6530   13.3630 C.3    37  G37         0.2408
    697   N9       -7.3600   -7.3980   13.2260 N.ar   37  G37        -0.2693
    698   C8       -7.4390   -6.4710   12.2130 C.ar   37  G37         0.1817
    699   N7       -6.6540   -5.4430   12.3980 N.ar   37  G37        -0.2173
    700   C5       -6.0170   -5.7080   13.6040 C.ar   37  G37         0.1748
    701   C6       -5.0500   -4.9540   14.3250 C.ar   37  G37         0.3023
    702   O6       -4.5430   -3.8670   14.0340 O.2    37  G37        -0.2633
    703   N.1      -4.6770   -5.5930   15.5020 N.ar   37  G37        -0.1709
    704   C.2      -5.1640   -6.7980   15.9340 C.ar   37  G37         0.2606
    705   N.2      -4.6790   -7.2470   17.1000 N.pl3  37  G37        -0.0859
    706   N.3      -6.0590   -7.5120   15.2740 N.ar   37  G37        -0.1918
    707   C4       -6.4390   -6.9110   14.1260 C.ar   37  G37         0.1723
    708    P.3    -12.2010   -7.3930   15.4270 P.3    38  C38         0.2141
    709  OP1      -13.5320   -7.8860   15.8620 O.3    38  C38        -0.4373
    710  OP2      -12.0960   -6.0890   14.7250 O.2    38  C38        -0.5172
    711  O5'      -11.2380   -7.3440   16.6980 O.3    38  C38        -0.3114
    712  C5'      -11.1130   -8.4680   17.5670 C.3    38  C38         0.1812
    713  C4'      -10.1220   -8.1800   18.6760 C.3    38  C38         0.1773
    714  O4'       -8.7940   -8.0040   18.1120 O.3    38  C38        -0.3307
    715  C3'      -10.3350   -6.9160   19.4940 C.3    38  C38         0.1860
    716  O3'      -11.3210   -7.0580   20.5080 O.3    38  C38        -0.3112
    717  C2'       -8.9500   -6.6940   20.0870 C.3    38  C38         0.2309
    718  O2'       -8.6750   -7.5290   21.1960 O.3    38  C38        -0.2156
    719  C1'       -8.0580   -7.0810   18.9060 C.3    38  C38         0.2420
    720   N.1      -7.7020   -5.9090   18.0810 N.ar   38  C38        -0.2535
    721   C.2      -6.6110   -5.1140   18.4730 C.ar   38  C38         0.3532
    722   O.2      -5.9630   -5.4300   19.4840 O.2    38  C38        -0.2443
    723   N.3      -6.2930   -4.0230   17.7400 N.ar   38  C38        -0.1739
    724   C4       -7.0090   -3.7140   16.6560 C.ar   38  C38         0.1759
    725   N.4      -6.6620   -2.6250   15.9680 N.pl3  38  C38        -0.1070
    726   C5       -8.1130   -4.5090   16.2300 C.ar   38  C38         0.0566
    727   C6       -8.4210   -5.5860   16.9630 C.ar   38  C38         0.0850
    728    P.3    -12.1420   -5.7660   21.0000 P.3    39  G39         0.2141
    729  OP1      -13.1230   -6.2340   22.0090 O.3    39  G39        -0.4373
    730  OP2      -12.6190   -5.0280   19.8030 O.2    39  G39        -0.5172
    731  O5'      -11.0490   -4.8670   21.7360 O.3    39  G39        -0.3114
    732  C5'      -10.4240   -5.3130   22.9390 C.3    39  G39         0.1812
    733  C4'       -9.4450   -4.2760   23.4480 C.3    39  G39         0.1773
    734  O4'       -8.3460   -4.1310   22.5120 O.3    39  G39        -0.3307
    735  C3'       -9.9460   -2.8410   23.6410 C.3    39  G39         0.1860
    736  O3'      -10.6770   -2.6500   24.8470 O.3    39  G39        -0.3112
    737  C2'       -8.6340   -2.0630   23.6580 C.3    39  G39         0.2309
    738  O2'       -7.9710   -2.1140   24.9060 O.3    39  G39        -0.2156
    739  C1'       -7.8130   -2.8190   22.6100 C.3    39  G39         0.2408
    740   N9       -7.8420   -2.1940   21.2900 N.ar   39  G39        -0.2693
    741   C8       -8.6220   -2.5470   20.2140 C.ar   39  G39         0.1817
    742   N7       -8.4240   -1.7910   19.1680 N.ar   39  G39        -0.2173
    743   C5       -7.4560   -0.8830   19.5760 C.ar   39  G39         0.1748
    744   C6       -6.8420    0.1850   18.8720 C.ar   39  G39         0.3023
    745   O6       -7.0370    0.5550   17.7080 O.2    39  G39        -0.2633
    746   N.1      -5.9120    0.8500   19.6640 N.ar   39  G39        -0.1709
    747   C.2      -5.6110    0.5330   20.9650 C.ar   39  G39         0.2606
    748   N.2      -4.6820    1.2940   21.5610 N.pl3  39  G39        -0.0859
    749   N.3      -6.1780   -0.4580   21.6330 N.ar   39  G39        -0.1918
    750   C4       -7.0850   -1.1190   20.8830 C.ar   39  G39         0.1723
    751    P.3    -12.2670   -2.4180   24.7900 P.3    40  A40         0.2141
    752  OP1      -12.9070   -3.7010   25.1740 O.3    40  A40        -0.4373
    753  OP2      -12.6210   -1.7830   23.4930 O.2    40  A40        -0.5172
    754  O5'      -12.5400   -1.3630   25.9530 O.3    40  A40        -0.3114
    755  C5'      -11.8100   -0.1410   26.0090 C.3    40  A40         0.1812
    756  C4'      -12.5540    0.8800   26.8350 C.3    40  A40         0.1773
    757  O4'      -12.4020    0.5740   28.2450 O.3    40  A40        -0.3307
    758  C3'      -12.0550    2.3070   26.6920 C.3    40  A40         0.1860
    759  O3'      -12.7480    2.8610   25.5780 O.3    40  A40        -0.3112
    760  C2'      -12.4930    2.9450   28.0070 C.3    40  A40         0.2309
    761  O2'      -13.8410    3.3700   27.9930 O.3    40  A40        -0.2156
    762  C1'      -12.3300    1.7800   28.9880 C.3    40  A40         0.2408
    763   N9      -11.0730    1.7910   29.7410 N.ar   40  A40        -0.2693
    764   C8       -9.8640    1.2420   29.3830 C.ar   40  A40         0.1816
    765   N7       -8.9230    1.4060   30.2810 N.ar   40  A40        -0.2193
    766   C5       -9.5500    2.1130   31.2970 C.ar   40  A40         0.1518
    767   C6       -9.0910    2.5960   32.5370 C.ar   40  A40         0.1919
    768   N6       -7.8430    2.4310   32.9810 N.pl3  40  A40        -0.1054
    769   N.1      -9.9710    3.2630   33.3150 N.ar   40  A40        -0.2040
    770   C.2     -11.2230    3.4270   32.8700 C.ar   40  A40         0.2016
    771   N.3     -11.7720    3.0190   31.7290 N.ar   40  A40        -0.2048
    772   C4      -10.8730    2.3610   30.9770 C.ar   40  A40         0.1692
    773    P.3    -11.9550    3.7430   24.4930 P.3    41  A41         0.2141
    774  OP1      -12.6930    3.6190   23.2100 O.2    41  A41        -0.5172
    775  OP2      -10.5100    3.3980   24.5430 O.3    41  A41        -0.4373
    776  O5'      -12.1250    5.2360   25.0200 O.3    41  A41        -0.3114
    777  C5'      -13.4140    5.7690   25.3220 C.3    41  A41         0.1812
    778  C4'      -13.2840    6.8960   26.3180 C.3    41  A41         0.1773
    779  O4'      -12.7870    6.3570   27.5670 O.3    41  A41        -0.3307
    780  C3'      -12.3060    7.9790   25.9240 C.3    41  A41         0.1860
    781  O3'      -13.0390    8.9730   25.2100 O.3    41  A41        -0.3112
    782  C2'      -11.8120    8.5150   27.2660 C.3    41  A41         0.2309
    783  O2'      -12.6440    9.5220   27.8060 O.3    41  A41        -0.2156
    784  C1'      -11.8790    7.2670   28.1540 C.3    41  A41         0.2408
    785   N9      -10.6100    6.5690   28.3640 N.ar   41  A41        -0.2693
    786   C8       -9.7500    6.0470   27.4270 C.ar   41  A41         0.1816
    787   N7       -8.6970    5.4610   27.9450 N.ar   41  A41        -0.2193
    788   C5       -8.8730    5.6080   29.3140 C.ar   41  A41         0.1518
    789   C6       -8.1030    5.1980   30.4170 C.ar   41  A41         0.1919
    790   N6       -6.9540    4.5270   30.3110 N.pl3  41  A41        -0.1054
    791   N.1      -8.5610    5.5050   31.6490 N.ar   41  A41        -0.2040
    792   C.2      -9.7140    6.1750   31.7570 C.ar   41  A41         0.2016
    793   N.3     -10.5260    6.6110   30.7990 N.ar   41  A41        -0.2048
    794   C4      -10.0440    6.2920   29.5860 C.ar   41  A41         0.1692
    795    P.3    -12.9480    9.0470   23.6050 P.3    42  G42         0.2141
    796  OP1      -13.9030   10.0960   23.1640 O.3    42  G42        -0.4373
    797  OP2      -13.0670    7.6730   23.0550 O.2    42  G42        -0.5172
    798  O5'      -11.4720    9.5720   23.3140 O.3    42  G42        -0.3114
    799  C5'      -10.9490   10.7160   23.9850 C.3    42  G42         0.1812
    800  C4'       -9.8990   11.3880   23.1310 C.3    42  G42         0.1773
    801  O4'       -8.8430   10.4280   22.8480 O.3    42  G42        -0.3307
    802  C3'      -10.3220   11.9160   21.7550 C.3    42  G42         0.1860
    803  O3'      -10.8410   13.2390   21.8600 O.3    42  G42        -0.3112
    804  C2'       -9.0100   11.8770   20.9850 C.3    42  G42         0.2309
    805  O2'       -8.1520   12.9590   21.2900 O.3    42  G42        -0.2156
    806  C1'       -8.4070   10.5710   21.5040 C.3    42  G42         0.2408
    807   N9       -8.8630    9.4060   20.7480 N.ar   42  G42        -0.2693
    808   C8       -9.6150    8.3540   21.2170 C.ar   42  G42         0.1817
    809   N7       -9.8870    7.4680   20.2990 N.ar   42  G42        -0.2173
    810   C5       -9.2760    7.9600   19.1540 C.ar   42  G42         0.1748
    811   C6       -9.2310    7.4320   17.8390 C.ar   42  G42         0.3023
    812   O6       -9.7430    6.3920   17.4090 O.2    42  G42        -0.2633
    813   N.1      -8.5000    8.2500   16.9850 N.ar   42  G42        -0.1709
    814   C.2      -7.8900    9.4250   17.3460 C.ar   42  G42         0.2606
    815   N.2      -7.2270   10.0700   16.3760 N.pl3  42  G42        -0.0859
    816   N.3      -7.9270    9.9310   18.5670 N.ar   42  G42        -0.1918
    817   C4       -8.6320    9.1510   19.4150 C.ar   42  G42         0.1723
    818    P.3    -11.8860   13.7770   20.7600 P.3    43  U43         0.2141
    819  OP1      -12.2920   15.1460   21.1700 O.3    43  U43        -0.4373
    820  OP2      -12.9260   12.7380   20.5480 O.2    43  U43        -0.5172
    821  O5'      -11.0220   13.8930   19.4260 O.3    43  U43        -0.3114
    822  C5'       -9.9220   14.7970   19.3370 C.3    43  U43         0.1812
    823  C4'       -9.3430   14.7850   17.9400 C.3    43  U43         0.1773
    824  O4'       -8.8480   13.4530   17.6380 O.3    43  U43        -0.3307
    825  C3'      -10.3460   15.0810   16.8320 C.3    43  U43         0.1860
    826  O3'      -10.4480   16.4900   16.6430 O.3    43  U43        -0.3112
    827  C2'       -9.7140   14.3880   15.6310 C.3    43  U43         0.2309
    828  O2'       -8.6830   15.1480   15.0320 O.3    43  U43        -0.2156
    829  C1'       -9.1230   13.1350   16.2820 C.3    43  U43         0.2420
    830   N.1     -10.0190   11.9660   16.2440 N.ar   43  U43        -0.2534
    831   C.2     -10.0980   11.2440   15.0600 C.ar   43  U43         0.3546
    832   O.2      -9.4650   11.5350   14.0570 O.2    43  U43        -0.2443
    833   N.3     -10.9490   10.1670   15.0950 N.ar   43  U43        -0.1530
    834   C4      -11.7130    9.7440   16.1630 C.ar   43  U43         0.2846
    835   O4      -12.4310    8.7510   16.0370 O.2    43  U43        -0.2650
    836   C5      -11.5800   10.5380   17.3440 C.ar   43  U43         0.0814
    837   C6      -10.7610   11.5940   17.3460 C.ar   43  U43         0.0870
    838    P.3    -11.8210   17.1250   16.0990 P.3    44  C44         0.2141
    839  OP1      -11.6500   18.6010   16.1040 O.2    44  C44        -0.5172
    840  OP2      -12.9510   16.5160   16.8460 O.3    44  C44        -0.4373
    841  O5'      -11.8980   16.6330   14.5850 O.3    44  C44        -0.3114
    842  C5'      -10.9670   17.1090   13.6150 C.3    44  C44         0.1812
    843  C4'      -11.2450   16.4910   12.2630 C.3    44  C44         0.1773
    844  O4'      -10.9190   15.0760   12.2890 O.3    44  C44        -0.3307
    845  C3'      -12.6920   16.5110   11.7830 C.3    44  C44         0.1860
    846  O3'      -13.0950   17.7650   11.2440 O.3    44  C44        -0.3112
    847  C2'      -12.6810   15.4130   10.7260 C.3    44  C44         0.2309
    848  O2'      -12.1380   15.8340    9.4910 O.3    44  C44        -0.2156
    849  C1'      -11.7560   14.3800   11.3750 C.3    44  C44         0.2420
    850   N.1     -12.4950   13.3270   12.1010 N.ar   44  C44        -0.2535
    851   C.2     -13.0220   12.2460   11.3720 C.ar   44  C44         0.3532
    852   O.2     -12.8420   12.1990   10.1430 O.2    44  C44        -0.2443
    853   N.3     -13.7120   11.2840   12.0250 N.ar   44  C44        -0.1739
    854   C4      -13.8850   11.3660   13.3460 C.ar   44  C44         0.1759
    855   N.4     -14.5740   10.3940   13.9450 N.pl3  44  C44        -0.1070
    856   C5      -13.3580   12.4470   14.1110 C.ar   44  C44         0.0566
    857   C6      -12.6770   13.3950   13.4560 C.ar   44  C44         0.0850
    858    P.3    -14.6510   18.1750   11.2640 P.3    45  G45         0.2141
    859  OP1      -14.7490   19.5650   10.7510 O.2    45  G45        -0.5172
    860  OP2      -15.2070   17.8470   12.6030 O.3    45  G45        -0.4373
    861  O5'      -15.3190   17.1990   10.1960 O.3    45  G45        -0.3114
    862  C5'      -14.9300   17.2420    8.8250 C.3    45  G45         0.1812
    863  C4'      -15.5550   16.0990    8.0580 C.3    45  G45         0.1773
    864  O4'      -15.0790   14.8350    8.5920 O.3    45  G45        -0.3307
    865  C3'      -17.0730   15.9720    8.1410 C.3    45  G45         0.1860
    866  O3'      -17.7590   16.8510    7.2540 O.3    45  G45        -0.3112
    867  C2'      -17.2810   14.5130    7.7550 C.3    45  G45         0.2309
    868  O2'      -17.2140   14.2980    6.3590 O.3    45  G45        -0.2156
    869  C1'      -16.0870   13.8460    8.4400 C.3    45  G45         0.2408
    870   N9      -16.4170   13.2980    9.7550 N.ar   45  G45        -0.2693
    871   C8      -16.1060   13.8260   10.9860 C.ar   45  G45         0.1817
    872   N7      -16.5480   13.1040   11.9800 N.ar   45  G45        -0.2173
    873   C5      -17.1880   12.0330   11.3700 C.ar   45  G45         0.1748
    874   C6      -17.8640   10.9210   11.9380 C.ar   45  G45         0.3023
    875   O6      -18.0370   10.6500   13.1310 O.2    45  G45        -0.2633
    876   N.1     -18.3690   10.0750   10.9550 N.ar   45  G45        -0.1709
    877   C.2     -18.2420   10.2700    9.6030 C.ar   45  G45         0.2606
    878   N.2     -18.7980    9.3400    8.8140 N.pl3  45  G45        -0.0859
    879   N.3     -17.6150   11.3010    9.0620 N.ar   45  G45        -0.1918
    880   C4      -17.1160   12.1370    9.9980 C.ar   45  G45         0.1723
    881    P.3    -19.2920   17.2430    7.5490 P.3    46  C46         0.2141
    882  OP1      -19.7190   18.2410    6.5350 O.2    46  C46        -0.5172
    883  OP2      -19.4020   17.5730    8.9930 O.3    46  C46        -0.4373
    884  O5'      -20.0940   15.8890    7.2920 O.3    46  C46        -0.3114
    885  C5'      -20.1650   15.3140    5.9880 C.3    46  C46         0.1813
    886  C4'      -20.9360   14.0130    6.0250 C.3    46  C46         0.1801
    887  O4'      -20.2490   13.0620    6.8810 O.3    46  C46        -0.3306
    888  C3'      -22.3390   14.0770    6.6050 C.3    46  C46         0.2161
    889  O3'      -23.3260   14.6430    5.7360 O.3    46  C46        -0.2175
    890  C2'      -22.5870   12.6290    7.0050 C.3    46  C46         0.2338
    891  O2'      -22.9510   11.8090    5.9110 O.3    46  C46        -0.2155
    892  C1'      -21.2020   12.2180    7.5130 C.3    46  C46         0.2421
    893   N.1     -21.0470   12.3350    8.9790 N.ar   46  C46        -0.2535
    894   C.2     -21.5920   11.3330    9.8010 C.ar   46  C46         0.3532
    895   O.2     -22.1920   10.3790    9.2790 O.2    46  C46        -0.2443
    896   N.3     -21.4510   11.4320   11.1430 N.ar   46  C46        -0.1739
    897   C4      -20.8020   12.4720   11.6710 C.ar   46  C46         0.1759
    898   N.4     -20.6840   12.5240   13.0000 N.pl3  46  C46        -0.1070
    899   C5      -20.2420   13.5030   10.8620 C.ar   46  C46         0.0566
    900   C6      -20.3870   13.3960    9.5350 C.ar   46  C46         0.0850
@<TRIPOS>BOND
     1   319   320   ar
     2   319   317   ar
     3   320   321   ar
     4   318   317    1
     5   317   316   ar
     6   321   322   ar
     7   322   316   ar
     8   322   313   ar
     9   316   315   ar
    10   313   312    1
    11   313   314   ar
    12   315   314   ar
    13   312   307    1
    14   312   310    1
    15   307   306    1
    16   342   341   ar
    17   342   343   ar
    18   341   339   ar
    19   343   344   ar
    20   311   310    1
    21   310   308    1
    22   306   305    1
    23   306   308    1
    24   302   301    2
    25   339   340    1
    26   339   338   ar
    27   344   338   ar
    28   344   335   ar
    29   305   304    1
    30   329   334    1
    31   329   328    1
    32   334   335    1
    33   334   332    1
    34   338   337   ar
    35   308   309    1
    36   335   336   ar
    37   333   332    1
    38   304   301    1
    39   337   336   ar
    40   301   286    1
    41   301   303    1
    42   286   285    1
    43   328   327    1
    44   328   330    1
    45   332   330    1
    46   309   323    1
    47   288   287    1
    48   327   326    1
    49   326   323    1
    50   330   331    1
    51   283   285    1
    52   283   282    1
    53   283   284    1
    54   285   287    1
    55   282   281    1
    56   287   289    1
    57   323   325    2
    58   323   324    1
    59   279   278    2
    60   331   345    1
    61   284   289    1
    62   632   631    1
    63   289   290    1
    64   281   278    1
    65   268   267    1
    66   627   626    1
    67   627   628    1
    68   627   629    1
    69   643   642    2
    70   630   629    1
    71   630   642    1
    72   278   266    1
    73   278   280    1
    74   646   647    1
    75   646   645    1
    76   453   451    1
    77   609   608    1
    78   626   625    1
    79   266   265    1
    80   628   633    1
    81   631   629    1
    82   631   633    1
    83   345   347    2
    84   345   346    1
    85   345   348    1
    86   647   648    1
    87   647   649    1
    88   633   634    1
    89   642   645    1
    90   642   644    1
    91   349   348    1
    92   349   350    1
    93   290   300   ar
    94   290   291   ar
    95   452   451    1
    96   267   265    1
    97   267   269    1
    98   648   653    1
    99   299   300   ar
   100   299   297   ar
   101   451   454    1
   102   650   649    1
   103   650   662    1
   104   265   263    1
   105   619   618    1
   106   663   662    2
   107   608   610    1
   108   608   606    1
   109   623   622    2
   110   625   622    1
   111   300   293   ar
   112   291   292   ar
   113   607   622    1
   114   607   606    1
   115   649   651    1
   116   652   651    1
   117   263   264    1
   118   263   262    1
   119   350   351    1
   120   350   352    1
   121   636   635    2
   122   610   605    1
   123   610   611    1
   124   298   297    1
   125   620   618   ar
   126   620   621   ar
   127   351   356    1
   128   634   635   ar
   129   634   641   ar
   130   269   264    1
   131   269   270    1
   132   454   455    1
   133   272   271    2
   134   604   605    1
   135   604   606    1
   136   604   603    1
   137   622   624    1
   138   297   296   ar
   139   662   664    1
   140   662   665    1
   141   653   651    1
   142   653   654    1
   143   618   617   ar
   144   455   456    1
   145   635   637   ar
   146   262   261    1
   147    54    53    1
   148    68    67    2
   149   293   292   ar
   150   293   294   ar
   151   641   640   ar
   152   611   621   ar
   153   611   612   ar
   154   621   614   ar
   155   603   602    1
   156   358   359   ar
   157   358   357   ar
   158   271   270   ar
   159   271   273   ar
   160   666   665    1
   161   666   667    1
   162   255   254    1
   163   270   277   ar
   164   352   353    1
   165   352   354    1
   166   889   888    1
   167    52    67    1
   168    52    51    1
   169   353   368    1
   170   654   661   ar
   171   654   655   ar
   172   296   294   ar
   173   356   357    1
   174   356   354    1
   175   661   660   ar
   176   589   588    1
   177   891   890    1
   178   593   592    2
   179   617   615   ar
   180   885   886    1
   181   885   884    1
   182   886   888    1
   183   886   887    1
   184    77    76    1
   185    70    67    1
   186    70    71    1
   187   359   360   ar
   188    67    69    1
   189   261   258    1
   190   294   295    2
   191   357   367   ar
   192   637   638   ar
   193   868   867    1
   194   456   457    1
   195   456   458    1
   196    49    51    1
   197    49    50    1
   198    49    48    1
   199   273   274   ar
   200    53    51    1
   201    53    55    1
   202   245   244    1
   203   354   355    1
   204   640   638   ar
   205   882   881    2
   206   888   890    1
   207   370   368    2
   208   254   256   ar
   209   254   253   ar
   210   277   276   ar
   211   457   462    1
   212   667   668    1
   213   667   669    1
   214   612   613   ar
   215   614   615   ar
   216   614   613   ar
   217   656   655    2
   218   602   599    1
   219    72    71    1
   220    72    73    1
   221    72    74    1
   222   655   657   ar
   223   369   368    1
   224   887   892    1
   225   368   371    1
   226    50    55    1
   227   668   673    1
   228   660   658   ar
   229   588   590    1
   230   588   586    1
   231   890   892    1
   232   256   257   ar
   233   259   258    2
   234    48    47    1
   235   638   639    1
   236   615   616    2
   237    55    56    1
   238   592   594   ar
   239   592   591   ar
   240    73    78    1
   241   464   465   ar
   242   464   463   ar
   243    75    74    1
   244    75    87    1
   245   866   881    1
   246   866   865    1
   247   884   881    1
   248   253   251   ar
   249   458   459    1
   250   458   460    1
   251    76    78    1
   252    76    74    1
   253   244   246    1
   254   244   242    1
   255   360   367   ar
   256   360   361   ar
   257   258   243    1
   258   258   260    1
   259   590   591    1
   260   590   585    1
   261   892   893    1
   262   367   366   ar
   263   274   276   ar
   264   274   275    1
   265   476   474    2
   266   881   883    1
   267    78    79    1
   268   459   474    1
   269   594   595   ar
   270    88    87    2
   271   465   466   ar
   272   575   576   ar
   273   575   573   ar
   274   867   865    1
   275   867   869    1
   276   600   599    2
   277   243   242    1
   278   587   599    1
   279   587   586    1
   280   576   577   ar
   281    34    33    1
   282   657   658   ar
   283   591   598   ar
   284   658   659    1
   285   599   601    1
   286   669   670    1
   287   669   671    1
   288   863   865    1
   289   863   864    1
   290   863   862    1
   291   462   463    1
   292   462   460    1
   293   475   474    1
   294   474   477    1
   295   257   247   ar
   296   257   250   ar
   297    91    90    1
   298    91    92    1
   299   463   473   ar
   300   586   584    1
   301   670   685    1
   302   371   372    1
   303   675   674   ar
   304   675   676   ar
   305    87    90    1
   306    87    89    1
   307   673   674    1
   308   673   671    1
   309   246   247    1
   310   246   241    1
   311    47    44    1
   312    45    44    2
   313    65    66   ar
   314    65    63   ar
   315   869   864    1
   316   869   870    1
   317   242   240    1
   318    56    66   ar
   319    56    57   ar
   320   585   584    1
   321   251   250   ar
   322   251   252    2
   323    81    80    2
   324   366   364   ar
   325   361   362    2
   326   361   363   ar
   327   574   573    1
   328   460   461    1
   329    64    63    1
   330   584   583    1
   331   878   877    1
   332   573   572   ar
   333   862   861    1
   334   247   248   ar
   335   687   685    2
   336   372   373    1
   337   674   684   ar
   338   595   596    1
   339   595   597   ar
   340    79    80   ar
   341    79    86   ar
   342   893   900   ar
   343   893   894   ar
   344   250   249   ar
   345   671   672    1
   346   466   473   ar
   347   466   467   ar
   348    92    93    1
   349    92    94    1
   350   879   877   ar
   351   879   880   ar
   352   577   578   ar
   353   232   231    1
   354   676   677   ar
   355    66    59   ar
   356   686   685    1
   357   685   688    1
   358    44    32    1
   359    44    46    1
   360    63    62   ar
   361    33    31    1
   362    33    35    1
   363   895   894    2
   364    32    31    1
   365   598   597   ar
   366    80    82   ar
   367   473   472   ar
   368   240   241    1
   369   240   239    1
   370   848   847    1
   371   386   387   ar
   372   386   384   ar
   373   900   899   ar
   374    57    58   ar
   375   877   876   ar
   376    38    37    2
   377    93    98    1
   378   364   363   ar
   379   364   365    1
   380   477   478    1
   381   870   880   ar
   382   870   871   ar
   383   894   896   ar
   384    86    85   ar
   385   387   380   ar
   386    95    94    1
   387    95   107    1
   388   468   467    2
   389   248   249   ar
   390   880   873   ar
   391    31    29    1
   392   467   469   ar
   393   572   578   ar
   394   572   571   ar
   395   684   677   ar
   396   684   683   ar
   397    35    30    1
   398    35    36    1
   399   108   107    2
   400   578   569   ar
   401   230   231   ar
   402   230   228   ar
   403   852   851    2
   404   231   233   ar
   405   385   384    2
   406   677   678   ar
   407   861   858    1
   408    94    96    1
   409   583   582    1
   410   373   374    1
   411   373   375    1
   412   374   379    1
   413   384   383   ar
   414    29    30    1
   415    29    28    1
   416   492   493   ar
   417   492   490   ar
   418    59    58   ar
   419    59    60   ar
   420    21    20    1
   421    62    60   ar
   422   472   470   ar
   423   478   479    1
   424   688   689    1
   425    82    83   ar
   426   847   849    1
   427   847   845    1
   428   859   858    2
   429   107   109    1
   430   107   110    1
   431   491   490    1
   432    37    36   ar
   433    37    39   ar
   434   239   238    1
   435    97    96    1
   436   899   897   ar
   437   554   553    1
   438   876   874   ar
   439   683   681   ar
   440   871   872   ar
   441    98    96    1
   442    98    99    1
   443   582   579    1
   444   229   228    2
   445   493   486   ar
   446   390   388    2
   447    85    83   ar
   448   233   234   ar
   449    36    43   ar
   450   896   897   ar
   451   380   379    1
   452   380   381   ar
   453   228   227   ar
   454   375   376    1
   455   375   377    1
   456   689   690    1
   457   846   858    1
   458   846   845    1
   459   858   860    1
   460   490   489   ar
   461   469   470   ar
   462    60    61    2
   463   567   566    1
   464   571   570   ar
   465   678   679    2
   466   678   680   ar
   467   873   874   ar
   468   873   872   ar
   469   851   853   ar
   470   851   850   ar
   471   849   850    1
   472   849   844    1
   473   238   235    1
   474   569   568    1
   475   569   570   ar
   476   379   377    1
   477   470   471    1
   478   106    99   ar
   479   106   105   ar
   480    28    27    1
   481   566   568    1
   482   566   564    1
   483   383   381   ar
   484    83    84    2
   485   897   898    1
   486   376   388    1
   487    39    40   ar
   488   845   843    1
   489    20    22   ar
   490    20    19   ar
   491   874   875    2
   492   568   563    1
   493   448   447    1
   494    99   100   ar
   495   405   404    1
   496   479   480    1
   497   479   481    1
   498   853   854   ar
   499   480   485    1
   500   681   680   ar
   501   681   682    1
   502   381   382    2
   503   850   857   ar
   504   553   552   ar
   505   553   555   ar
   506   234   227   ar
   507   234   224   ar
   508   552   550   ar
   509   388   389    1
   510   388   391    1
   511   110   111    1
   512   496   494    2
   513   691   690    1
   514   691   696    1
   515   111   112    1
   516   227   226   ar
   517   698   699   ar
   518   698   697   ar
   519   425   424    2
   520   843   844    1
   521   843   842    1
   522   377   378    1
   523    43    42   ar
   524   486   485    1
   525   486   487   ar
   526   699   700   ar
   527   105   103   ar
   528   690   692    1
   529    22    23   ar
   530    19    17   ar
   531   511   510    2
   532   489   487   ar
   533   579   565    1
   534   579   580    2
   535   579   581    1
   536   406   404   ar
   537   406   407   ar
   538   222   221    1
   539   481   482    1
   540   481   483    1
   541    27    24    1
   542    11    10    1
   543   564   565    1
   544   564   562    1
   545   235   236    2
   546   235   237    1
   547   235   220    1
   548   534   533    2
   549   404   403   ar
   550    40    42   ar
   551    40    41    1
   552   221   223    1
   553   221   219    1
   554   485   483    1
   555   487   488    2
   556   447   446   ar
   557   447   449   ar
   558   482   494    1
   559   697   696    1
   560   697   707   ar
   561   224   223    1
   562   224   225   ar
   563   550   551    2
   564   550   549   ar
   565   100   101    2
   566   100   102   ar
   567   555   556   ar
   568   854   855    1
   569   854   856   ar
   570   446   444   ar
   571   563   562    1
   572   696   694    1
   573   508   509   ar
   574   508   507   ar
   575   226   225   ar
   576   494   495    1
   577   494   497    1
   578   424   426   ar
   579   424   423   ar
   580   857   856   ar
   581   391   392    1
   582   112   113    1
   583   112   114    1
   584   700   707   ar
   585   700   701   ar
   586   842   841    1
   587   407   400   ar
   588   223   218    1
   589   209   208    1
   590   510   509   ar
   591   510   512   ar
   592   692   693    1
   593   692   694    1
   594    10    12    1
   595    10     8    1
   596   483   484    1
   597   103   102   ar
   598   103   104    1
   599    23    16   ar
   600    23    13   ar
   601    25    24    2
   602   220   219    1
   603    17    18    2
   604    17    16   ar
   605   562   561    1
   606   113   118    1
   607   533   535   ar
   608   533   532   ar
   609   702   701    2
   610   219   217    1
   611   426   427   ar
   612   832   831    2
   613   131   129    2
   614    24     9    1
   615    24    26    1
   616   509   516   ar
   617   707   706   ar
   618   403   401   ar
   619   422   423   ar
   620   422   421   ar
   621   507   506   ar
   622   535   536   ar
   623   449   450   ar
   624   701   703   ar
   625   423   430   ar
   626    12    13    1
   627    12     7    1
   628   556   549   ar
   629   549   548    1
   630   693   708    1
   631   694   695    1
   632   207   208   ar
   633   207   205   ar
   634     9     8    1
   635    16    15   ar
   636   497   498    1
   637   841   838    1
   638   444   445    2
   639   444   443   ar
   640   120   121   ar
   641   120   119   ar
   642   392   393    1
   643   208   210   ar
   644   114   115    1
   645   114   116    1
   646    13    14   ar
   647   710   708    2
   648   512   513   ar
   649   115   129    1
   650   130   129    1
   651   400   401   ar
   652   400   399    1
   653     8     6    1
   654   189   188    1
   655   129   132    1
   656   828   827    1
   657   218   217    1
   658   831   833   ar
   659   831   830   ar
   660   560   561    1
   661   560   557    1
   662   833   834   ar
   663   121   122   ar
   664   532   530   ar
   665   401   402    2
   666   706   704   ar
   667   410   408    2
   668   217   216    1
   669   118   119    1
   670   118   116    1
   671   206   205    2
   672   427   428    1
   673   427   429   ar
   674   708   709    1
   675   708   711    1
   676   516   506   ar
   677   516   515   ar
   678   421   420   ar
   679   205   204   ar
   680   703   704   ar
   681   519   517    2
   682   394   393    1
   683   394   399    1
   684   450   443   ar
   685   119   128   ar
   686   536   529   ar
   687   506   505    1
   688   827   829    1
   689   827   825    1
   690     7     6    1
   691   443   442    1
   692   548   546    1
   693   548   543    1
   694   430   429   ar
   695   430   420   ar
   696   546   547    1
   697   546   544    1
   698     6     5    1
   699   393   395    1
   700   559   557    2
   701    15    14   ar
   702   210   211   ar
   703   116   117    1
   704   498   499    1
   705   704   705    1
   706   725   724    1
   707   399   397    1
   708   835   834    2
   709   395   397    1
   710   395   396    1
   711   838   839    2
   712   838   826    1
   713   838   840    1
   714   513   515   ar
   715   513   514    1
   716   834   836   ar
   717   146   145    1
   718   188   187   ar
   719   188   190   ar
   720   726   724   ar
   721   726   727   ar
   722   830   829    1
   723   830   837   ar
   724   829   824    1
   725   557   545    1
   726   557   558    1
   727   815   814    1
   728   147   145   ar
   729   147   148   ar
   730   420   419    1
   731   530   529   ar
   732   530   531    2
   733   122   128   ar
   734   122   123   ar
   735   215   216    1
   736   215   212    1
   737   132   133    1
   738   500   505    1
   739   500   499    1
   740   544   545    1
   741   544   542    1
   742   529   528    1
   743   826   825    1
   744   724   723   ar
   745   204   211   ar
   746   204   203    1
   747   711   712    1
   748   187   185   ar
   749   408   396    1
   750   408   411    1
   751   408   409    1
   752   128   127   ar
   753   501   499    1
   754   501   503    1
   755   501   502    1
   756   539   537    2
   757   397   398    1
   758   505   503    1
   759   543   542    1
   760   825   823    1
   761   166   165    2
   762   190   191   ar
   763   145   144   ar
   764   727   720   ar
   765   517   520    1
   766   517   502    1
   767   517   518    1
   768   813   814   ar
   769   813   811   ar
   770   442   440    1
   771   442   437    1
   772     5     4    1
   773   148   141   ar
   774   214   212    2
   775   411   412    1
   776   520   521    1
   777   836   837   ar
   778   814   816   ar
   779   503   504    1
   780   812   811    2
   781   440   441    1
   782   440   438    1
   783   124   123    1
   784   540   537    1
   785   540   541    1
   786   201   203    1
   787   201   202    1
   788   201   199    1
   789   433   431    2
   790   123   125   ar
   791   133   134    1
   792   712   713    1
   793   542   541    1
   794   824   823    1
   795   745   744    2
   796   212   213    1
   797   212   200    1
   798   723   721   ar
   799   203   198    1
   800   151   149    2
   801   811   810   ar
   802     4     1    1
   803   419   414    1
   804   419   417    1
   805   823   822    1
   806   127   126   ar
   807   537   525    1
   808   537   538    1
   809   185   186    2
   810   185   184   ar
   811   528   523    1
   812   528   526    1
   813   437   436    1
   814   165   164   ar
   815   165   167   ar
   816   720   721   ar
   817   720   719    1
   818   714   713    1
   819   714   719    1
   820   523   522    1
   821   524   526    1
   822   524   522    1
   823   524   525    1
   824   191   184   ar
   825   414   413    1
   826   438   436    1
   827   438   439    1
   828   144   142   ar
   829   163   164   ar
   830   163   162   ar
   831   199   200    1
   832   199   197    1
   833   526   527    1
   834   417   415    1
   835   417   418    1
   836   721   722    2
   837   415   413    1
   838   415   416    1
   839   434   431    1
   840   434   435    1
   841   816   817   ar
   842   141   142   ar
   843   141   140    1
   844   521   522    1
   845   713   715    1
   846   412   413    1
   847   184   183    1
   848   164   171   ar
   849   125   126   ar
   850   194   192    2
   851   135   134    1
   852   135   140    1
   853   431   416    1
   854   431   432    1
   855   134   136    1
   856   744   743   ar
   857   744   746   ar
   858   167   168   ar
   859   719   717    1
   860   436   435    1
   861   198   197    1
   862   142   143    2
   863   136   137    1
   864   136   138    1
   865   810   817   ar
   866   810   809   ar
   867   742   743   ar
   868   742   741   ar
   869   149   150    1
   870   149   137    1
   871   149   152    1
   872   822   821    1
   873   162   161   ar
   874   195   192    1
   875   195   196    1
   876   817   807   ar
   877   821   818    1
   878     1     2    1
   879     1     3    1
   880   715   717    1
   881   715   716    1
   882   197   196    1
   883   140   138    1
   884   743   750   ar
   885   746   747   ar
   886   730   728    2
   887   192   193    1
   888   192   180    1
   889   174   172    2
   890   171   161   ar
   891   171   170   ar
   892   717   718    1
   893   181   183    1
   894   181   179    1
   895   181   182    1
   896   183   178    1
   897   152   153    1
   898   138   139    1
   899   168   169    1
   900   168   170   ar
   901   741   740   ar
   902   809   808   ar
   903   161   160    1
   904   179   180    1
   905   179   177    1
   906   716   728    1
   907   820   818    2
   908   807   808   ar
   909   807   806    1
   910   818   819    1
   911   818   803    1
   912   178   177    1
   913   750   740   ar
   914   750   749   ar
   915   175   172    1
   916   175   176    1
   917   747   748    1
   918   747   749   ar
   919   804   805    1
   920   804   806    1
   921   804   802    1
   922   728   731    1
   923   728   729    1
   924   172   173    1
   925   172   157    1
   926   740   739    1
   927   177   176    1
   928   806   801    1
   929   153   154    1
   930   156   158    1
   931   156   154    1
   932   156   157    1
   933   731   732    1
   934   802   803    1
   935   802   800    1
   936   160   155    1
   937   160   158    1
   938   155   154    1
   939   158   159    1
   940   734   739    1
   941   734   733    1
   942   739   737    1
   943   801   800    1
   944   732   733    1
   945   797   795    2
   946   800   799    1
   947   796   795    1
   948   774   773    2
   949   798   795    1
   950   798   799    1
   951   733   735    1
   952   753   751    2
   953   795   781    1
   954   735   737    1
   955   735   736    1
   956   737   738    1
   957   773   775    1
   958   773   776    1
   959   773   759    1
   960   751   736    1
   961   751   752    1
   962   751   754    1
   963   776   777    1
   964   781   780    1
   965   777   778    1
   966   759   758    1
   967   780   778    1
   968   780   782    1
   969   754   755    1
   970   755   756    1
   971   778   779    1
   972   758   756    1
   973   758   760    1
   974   756   757    1
   975   782   783    1
   976   782   784    1
   977   786   787   ar
   978   786   785   ar
   979   779   784    1
   980   787   788   ar
   981   761   760    1
   982   760   762    1
   983   784   785    1
   984   757   762    1
   985   785   794   ar
   986   762   763    1
   987   788   794   ar
   988   788   789   ar
   989   764   763   ar
   990   764   765   ar
   991   794   793   ar
   992   763   772   ar
   993   765   766   ar
   994   790   789    1
   995   789   791   ar
   996   793   792   ar
   997   772   766   ar
   998   772   771   ar
   999   766   767   ar
  1000   791   792   ar
  1001   771   770   ar
  1002   767   768    1
  1003   767   769   ar
  1004   770   769   ar
