ligand
 OpenBabel11021811513D
libRbt.so/2013.1/901 2013/11/27
 13 14  0  0  0  0  0  0  0  0999 V2000
   34.2370   29.6663  108.1172 N   0  0  0  0  0  0  0  0  0  0  0  0
   34.1493   30.9326  108.7400 C   0  0  0  0  0  0  0  0  0  0  0  0
   35.3587   31.6243  109.1076 N   0  0  0  0  0  0  0  0  0  0  0  0
   32.9379   31.5182  109.0043 N   0  0  0  0  0  0  0  0  0  0  0  0
   31.7326   30.8886  108.6676 C   0  0  0  0  0  0  0  0  0  0  0  0
   31.7760   29.5978  108.0320 C   0  0  0  0  0  0  0  0  0  0  0  0
   33.0806   28.9927  107.7607 C   0  0  0  0  0  0  0  0  0  0  0  0
   33.1621   27.7607  107.1552 O   0  0  0  0  0  0  0  0  0  0  0  0
   30.3945   29.2067  107.8129 C   0  0  0  0  0  0  0  0  0  0  0  0
   29.6012   30.2455  108.3013 C   0  0  0  0  0  0  0  0  0  0  0  0
   30.4033   31.2419  108.8111 N   0  0  0  0  0  0  0  0  0  0  0  0
   29.9182   27.9374  107.1725 C   0  0  0  0  0  0  0  0  0  0  0  0
   30.7027   27.6787  105.9792 N   0  0  0  0  0  0  0  0  0  0  0  0
  1  2  1  0  0  0  0
  1  7  1  0  0  0  0
  2  3  1  0  0  0  0
  2  4  2  0  0  0  0
  4  5  1  0  0  0  0
  5  6  2  0  0  0  0
  5 11  1  0  0  0  0
  6  7  1  0  0  0  0
  6  9  1  0  0  0  0
  7  8  2  0  0  0  0
  9 10  2  0  0  0  0
  9 12  1  0  0  0  0
 10 11  1  0  0  0  0
 12 13  1  0  0  0  0
M  END
>  <CHROM.1>
-174.26688882,-44.79424409,-98.02925283,32.17376826,29.76183997,108.02059477
-0.67339913,0.03197399,-2.59657112

>  <Name>
ligand

>  <RI>
1.99388e+07

>  <Rbt.Current_Directory>
/home/itssahil/PROJECTS/Mol_Feturizer/New_Systems/rnas/4RZD

>  <Rbt.Executable>
rbdock ($Id: //depot/dev/client3/rdock/2013.1/src/exe/rbdock.cxx#4 $)

>  <Rbt.Library>
libRbt.so (2013.1, Build901 2013/11/27)

>  <Rbt.Parameter_File>
/export/apps/rDock/src/rDock_2013.1_src/data/scripts/dock_solv.prm

>  <Rbt.Receptor>
prm/pocket_docking_2.prm

>  <SCORE>
-48.7872

>  <SCORE.INTER>
-48.5793

>  <SCORE.INTER.CONST>
1

>  <SCORE.INTER.POLAR>
-4.86331

>  <SCORE.INTER.ROT>
3

>  <SCORE.INTER.SOLV>
9.49997

>  <SCORE.INTER.VDW>
-24.9418

>  <SCORE.INTER.norm>
-3.73687

>  <SCORE.INTRA>
-0.207966

>  <SCORE.INTRA.DIHEDRAL>
-0.70165

>  <SCORE.INTRA.DIHEDRAL.0>
4.88905

>  <SCORE.INTRA.POLAR>
0

>  <SCORE.INTRA.POLAR.0>
0

>  <SCORE.INTRA.REPUL>
0

>  <SCORE.INTRA.REPUL.0>
0

>  <SCORE.INTRA.SOLV>
0.0736409

>  <SCORE.INTRA.SOLV.lig_0>
-15.1033

>  <SCORE.INTRA.VDW>
0.106038

>  <SCORE.INTRA.VDW.0>
-0.755285

>  <SCORE.INTRA.norm>
-0.0159974

>  <SCORE.RESTR>
0

>  <SCORE.RESTR.CAVITY>
0

>  <SCORE.RESTR.norm>
0

>  <SCORE.SYSTEM>
0

>  <SCORE.SYSTEM.CONST>
0

>  <SCORE.SYSTEM.DIHEDRAL>
0

>  <SCORE.SYSTEM.SOLV>
0

>  <SCORE.SYSTEM.norm>
0

>  <SCORE.heavy>
13

>  <SCORE.norm>
-3.75286

>  <RMSD>
0.367

$$$$
ligand
 OpenBabel11021811513D
libRbt.so/2013.1/901 2013/11/27
 13 14  0  0  0  0  0  0  0  0999 V2000
   34.1621   29.6425  108.0586 N   0  0  0  0  0  0  0  0  0  0  0  0
   34.0860   30.9082  108.6842 C   0  0  0  0  0  0  0  0  0  0  0  0
   35.3017   31.5883  109.0528 N   0  0  0  0  0  0  0  0  0  0  0  0
   32.8799   31.5040  108.9503 N   0  0  0  0  0  0  0  0  0  0  0  0
   31.6689   30.8859  108.6128 C   0  0  0  0  0  0  0  0  0  0  0  0
   31.7006   29.5961  107.9744 C   0  0  0  0  0  0  0  0  0  0  0  0
   32.9996   28.9801  107.7012 C   0  0  0  0  0  0  0  0  0  0  0  0
   33.0698   27.7487  107.0930 O   0  0  0  0  0  0  0  0  0  0  0  0
   30.3155   29.2179  107.7550 C   0  0  0  0  0  0  0  0  0  0  0  0
   29.5317   30.2627  108.2461 C   0  0  0  0  0  0  0  0  0  0  0  0
   30.3429   31.2507  108.7577 N   0  0  0  0  0  0  0  0  0  0  0  0
   29.8276   27.9543  107.1121 C   0  0  0  0  0  0  0  0  0  0  0  0
   30.6377   27.6677  105.9426 N   0  0  0  0  0  0  0  0  0  0  0  0
  1  2  1  0  0  0  0
  1  7  1  0  0  0  0
  2  3  1  0  0  0  0
  2  4  2  0  0  0  0
  4  5  1  0  0  0  0
  5  6  2  0  0  0  0
  5 11  1  0  0  0  0
  6  7  1  0  0  0  0
  6  9  1  0  0  0  0
  7  8  2  0  0  0  0
  9 10  2  0  0  0  0
  9 12  1  0  0  0  0
 10 11  1  0  0  0  0
 12 13  1  0  0  0  0
M  END
>  <CHROM.1>
173.05537989,-42.93707617,-98.28071913,32.10237092,29.75451775,107.96538602
-0.66734819,0.03564812,-2.59778718

>  <Name>
ligand

>  <RI>
1.99388e+07

>  <Rbt.Current_Directory>
/home/itssahil/PROJECTS/Mol_Feturizer/New_Systems/rnas/4RZD

>  <Rbt.Executable>
rbdock ($Id: //depot/dev/client3/rdock/2013.1/src/exe/rbdock.cxx#4 $)

>  <Rbt.Library>
libRbt.so (2013.1, Build901 2013/11/27)

>  <Rbt.Parameter_File>
/export/apps/rDock/src/rDock_2013.1_src/data/scripts/dock_solv.prm

>  <Rbt.Receptor>
prm/pocket_docking_2.prm

>  <SCORE>
-48.9973

>  <SCORE.INTER>
-48.852

>  <SCORE.INTER.CONST>
1

>  <SCORE.INTER.POLAR>
-4.8619

>  <SCORE.INTER.ROT>
3

>  <SCORE.INTER.SOLV>
9.58955

>  <SCORE.INTER.VDW>
-25.1582

>  <SCORE.INTER.norm>
-3.75785

>  <SCORE.INTRA>
-0.145776

>  <SCORE.INTRA.DIHEDRAL>
-0.685278

>  <SCORE.INTRA.DIHEDRAL.0>
4.88905

>  <SCORE.INTRA.POLAR>
0

>  <SCORE.INTRA.POLAR.0>
0

>  <SCORE.INTRA.REPUL>
0

>  <SCORE.INTRA.REPUL.0>
0

>  <SCORE.INTRA.SOLV>
0.0975696

>  <SCORE.INTRA.SOLV.lig_0>
-15.1033

>  <SCORE.INTRA.VDW>
0.148078

>  <SCORE.INTRA.VDW.0>
-0.755285

>  <SCORE.INTRA.norm>
-0.0112135

>  <SCORE.RESTR>
0.000515327

>  <SCORE.RESTR.CAVITY>
0.000515327

>  <SCORE.RESTR.norm>
3.96405e-05

>  <SCORE.SYSTEM>
0

>  <SCORE.SYSTEM.CONST>
0

>  <SCORE.SYSTEM.DIHEDRAL>
0

>  <SCORE.SYSTEM.SOLV>
0

>  <SCORE.SYSTEM.norm>
0

>  <SCORE.heavy>
13

>  <SCORE.norm>
-3.76902

>  <RMSD>
0.391

$$$$
ligand
 OpenBabel11021811513D
libRbt.so/2013.1/901 2013/11/27
 13 14  0  0  0  0  0  0  0  0999 V2000
   34.2842   29.7082  108.1325 N   0  0  0  0  0  0  0  0  0  0  0  0
   34.1673   31.0109  108.6696 C   0  0  0  0  0  0  0  0  0  0  0  0
   35.3593   31.7787  108.9263 N   0  0  0  0  0  0  0  0  0  0  0  0
   32.9439   31.5610  108.9540 N   0  0  0  0  0  0  0  0  0  0  0  0
   31.7546   30.8575  108.7236 C   0  0  0  0  0  0  0  0  0  0  0  0
   31.8278   29.5276  108.1777 C   0  0  0  0  0  0  0  0  0  0  0  0
   33.1448   28.9616  107.8829 C   0  0  0  0  0  0  0  0  0  0  0  0
   33.2546   27.6940  107.3610 O   0  0  0  0  0  0  0  0  0  0  0  0
   30.4571   29.0625  108.0569 C   0  0  0  0  0  0  0  0  0  0  0  0
   29.6404   30.0984  108.5119 C   0  0  0  0  0  0  0  0  0  0  0  0
   30.4186   31.1624  108.9099 N   0  0  0  0  0  0  0  0  0  0  0  0
   30.0105   27.7313  107.5311 C   0  0  0  0  0  0  0  0  0  0  0  0
   29.9542   27.7826  106.0818 N   0  0  0  0  0  0  0  0  0  0  0  0
  1  2  1  0  0  0  0
  1  7  1  0  0  0  0
  2  3  1  0  0  0  0
  2  4  2  0  0  0  0
  4  5  1  0  0  0  0
  5  6  2  0  0  0  0
  5 11  1  0  0  0  0
  6  7  1  0  0  0  0
  6  9  1  0  0  0  0
  7  8  2  0  0  0  0
  9 10  2  0  0  0  0
  9 12  1  0  0  0  0
 10 11  1  0  0  0  0
 12 13  1  0  0  0  0
M  END
>  <CHROM.1>
-6.80059377,-83.33716413,40.08995426,32.14638995,29.74872851,108.11424491
-0.62243146,-0.00263258,-2.64895533

>  <Name>
ligand

>  <RI>
1.0531e+07

>  <Rbt.Current_Directory>
/home/itssahil/PROJECTS/Mol_Feturizer/New_Systems/rnas/4RZD

>  <Rbt.Executable>
rbdock ($Id: //depot/dev/client3/rdock/2013.1/src/exe/rbdock.cxx#4 $)

>  <Rbt.Library>
libRbt.so (2013.1, Build901 2013/11/27)

>  <Rbt.Parameter_File>
/export/apps/rDock/src/rDock_2013.1_src/data/scripts/dock_solv.prm

>  <Rbt.Receptor>
prm/pocket_docking_8.prm

>  <SCORE>
-49.4166

>  <SCORE.INTER>
-48.4915

>  <SCORE.INTER.CONST>
1

>  <SCORE.INTER.POLAR>
-4.91093

>  <SCORE.INTER.ROT>
3

>  <SCORE.INTER.SOLV>
10.176

>  <SCORE.INTER.VDW>
-24.9499

>  <SCORE.INTER.norm>
-3.73011

>  <SCORE.INTRA>
-0.925088

>  <SCORE.INTRA.DIHEDRAL>
-1.84543

>  <SCORE.INTRA.DIHEDRAL.0>
4.88905

>  <SCORE.INTRA.POLAR>
0

>  <SCORE.INTRA.POLAR.0>
0

>  <SCORE.INTRA.REPUL>
0

>  <SCORE.INTRA.REPUL.0>
0

>  <SCORE.INTRA.SOLV>
-0.333493

>  <SCORE.INTRA.SOLV.lig_0>
-15.1033

>  <SCORE.INTRA.VDW>
0.164373

>  <SCORE.INTRA.VDW.0>
-0.755285

>  <SCORE.INTRA.norm>
-0.0711606

>  <SCORE.RESTR>
0

>  <SCORE.RESTR.CAVITY>
0

>  <SCORE.RESTR.norm>
0

>  <SCORE.SYSTEM>
0

>  <SCORE.SYSTEM.CONST>
0

>  <SCORE.SYSTEM.DIHEDRAL>
0

>  <SCORE.SYSTEM.SOLV>
0

>  <SCORE.SYSTEM.norm>
0

>  <SCORE.heavy>
13

>  <SCORE.norm>
-3.80127

>  <RMSD>
0.433

$$$$
ligand
 OpenBabel11021811513D
libRbt.so/2013.1/901 2013/11/27
 13 14  0  0  0  0  0  0  0  0999 V2000
   34.2224   29.6692  108.0945 N   0  0  0  0  0  0  0  0  0  0  0  0
   34.1390   30.9038  108.7786 C   0  0  0  0  0  0  0  0  0  0  0  0
   35.3498   31.5579  109.2058 N   0  0  0  0  0  0  0  0  0  0  0  0
   32.9305   31.4936  109.0469 N   0  0  0  0  0  0  0  0  0  0  0  0
   31.7240   30.8999  108.6538 C   0  0  0  0  0  0  0  0  0  0  0  0
   31.7630   29.6422  107.9548 C   0  0  0  0  0  0  0  0  0  0  0  0
   33.0646   29.0320  107.6804 C   0  0  0  0  0  0  0  0  0  0  0  0
   33.1418   27.8308  107.0152 O   0  0  0  0  0  0  0  0  0  0  0  0
   30.3812   29.2835  107.6875 C   0  0  0  0  0  0  0  0  0  0  0  0
   29.5922   30.3083  108.2113 C   0  0  0  0  0  0  0  0  0  0  0  0
   30.3970   31.2655  108.7874 N   0  0  0  0  0  0  0  0  0  0  0  0
   29.9011   28.0553  106.9739 C   0  0  0  0  0  0  0  0  0  0  0  0
   30.6690   27.8778  105.7553 N   0  0  0  0  0  0  0  0  0  0  0  0
  1  2  1  0  0  0  0
  1  7  1  0  0  0  0
  2  3  1  0  0  0  0
  2  4  2  0  0  0  0
  4  5  1  0  0  0  0
  5  6  2  0  0  0  0
  5 11  1  0  0  0  0
  6  7  1  0  0  0  0
  6  9  1  0  0  0  0
  7  8  2  0  0  0  0
  9 10  2  0  0  0  0
  9 12  1  0  0  0  0
 10 11  1  0  0  0  0
 12 13  1  0  0  0  0
M  END
>  <CHROM.1>
-0.59713308,-47.25406026,12.80002100,32.16252246,29.81106479,107.95802806
-0.66149539,0.05906994,-2.54049424

>  <Name>
ligand

>  <RI>
4.18181e+07

>  <Rbt.Current_Directory>
/home/itssahil/PROJECTS/Mol_Feturizer/New_Systems/rnas/4RZD

>  <Rbt.Executable>
rbdock ($Id: //depot/dev/client3/rdock/2013.1/src/exe/rbdock.cxx#4 $)

>  <Rbt.Library>
libRbt.so (2013.1, Build901 2013/11/27)

>  <Rbt.Parameter_File>
/export/apps/rDock/src/rDock_2013.1_src/data/scripts/dock_solv.prm

>  <Rbt.Receptor>
prm/pocket_docking_3.prm

>  <SCORE>
-48.6907

>  <SCORE.INTER>
-49.2166

>  <SCORE.INTER.CONST>
1

>  <SCORE.INTER.POLAR>
-4.86331

>  <SCORE.INTER.ROT>
3

>  <SCORE.INTER.SOLV>
10.3334

>  <SCORE.INTER.VDW>
-25.6445

>  <SCORE.INTER.norm>
-3.7859

>  <SCORE.INTRA>
0.52598

>  <SCORE.INTRA.DIHEDRAL>
-0.252814

>  <SCORE.INTRA.DIHEDRAL.0>
4.88905

>  <SCORE.INTRA.POLAR>
0

>  <SCORE.INTRA.POLAR.0>
0

>  <SCORE.INTRA.REPUL>
0

>  <SCORE.INTRA.REPUL.0>
0

>  <SCORE.INTRA.SOLV>
0.128167

>  <SCORE.INTRA.SOLV.lig_0>
-15.1033

>  <SCORE.INTRA.VDW>
0.588303

>  <SCORE.INTRA.VDW.0>
-0.755285

>  <SCORE.INTRA.norm>
0.04046

>  <SCORE.RESTR>
0

>  <SCORE.RESTR.CAVITY>
0

>  <SCORE.RESTR.norm>
0

>  <SCORE.SYSTEM>
0

>  <SCORE.SYSTEM.CONST>
0

>  <SCORE.SYSTEM.DIHEDRAL>
0

>  <SCORE.SYSTEM.SOLV>
0

>  <SCORE.SYSTEM.norm>
0

>  <SCORE.heavy>
13

>  <SCORE.norm>
-3.74544

>  <RMSD>
0.444

$$$$
ligand
 OpenBabel11021811513D
libRbt.so/2013.1/901 2013/11/27
 13 14  0  0  0  0  0  0  0  0999 V2000
   34.3087   29.7153  108.1546 N   0  0  0  0  0  0  0  0  0  0  0  0
   34.1862   31.0224  108.6798 C   0  0  0  0  0  0  0  0  0  0  0  0
   35.3749   31.7974  108.9301 N   0  0  0  0  0  0  0  0  0  0  0  0
   32.9604   31.5701  108.9586 N   0  0  0  0  0  0  0  0  0  0  0  0
   31.7741   30.8596  108.7340 C   0  0  0  0  0  0  0  0  0  0  0  0
   31.8531   29.5251  108.2002 C   0  0  0  0  0  0  0  0  0  0  0  0
   33.1725   28.9618  107.9113 C   0  0  0  0  0  0  0  0  0  0  0  0
   33.2878   27.6900  107.4009 O   0  0  0  0  0  0  0  0  0  0  0  0
   30.4844   29.0533  108.0829 C   0  0  0  0  0  0  0  0  0  0  0  0
   29.6632   30.0900  108.5281 C   0  0  0  0  0  0  0  0  0  0  0  0
   30.4368   31.1607  108.9168 N   0  0  0  0  0  0  0  0  0  0  0  0
   30.0435   27.7156  107.5691 C   0  0  0  0  0  0  0  0  0  0  0  0
   29.8958   27.7809  106.1268 N   0  0  0  0  0  0  0  0  0  0  0  0
  1  2  1  0  0  0  0
  1  7  1  0  0  0  0
  2  3  1  0  0  0  0
  2  4  2  0  0  0  0
  4  5  1  0  0  0  0
  5  6  2  0  0  0  0
  5 11  1  0  0  0  0
  6  7  1  0  0  0  0
  6  9  1  0  0  0  0
  7  8  2  0  0  0  0
  9 10  2  0  0  0  0
  9 12  1  0  0  0  0
 10 11  1  0  0  0  0
 12 13  1  0  0  0  0
M  END
>  <CHROM.1>
-9.13482029,-87.36361195,40.34795878,32.16222820,29.74946053,108.13572167
-0.61910655,-0.00071239,-2.66024014

>  <Name>
ligand

>  <RI>
2.51964e+07

>  <Rbt.Current_Directory>
/home/itssahil/PROJECTS/Mol_Feturizer/New_Systems/rnas/4RZD

>  <Rbt.Executable>
rbdock ($Id: //depot/dev/client3/rdock/2013.1/src/exe/rbdock.cxx#4 $)

>  <Rbt.Library>
libRbt.so (2013.1, Build901 2013/11/27)

>  <Rbt.Parameter_File>
/export/apps/rDock/src/rDock_2013.1_src/data/scripts/dock_solv.prm

>  <Rbt.Receptor>
prm/pocket_docking_4.prm

>  <SCORE>
-49.4851

>  <SCORE.INTER>
-48.5394

>  <SCORE.INTER.CONST>
1

>  <SCORE.INTER.POLAR>
-4.91047

>  <SCORE.INTER.ROT>
3

>  <SCORE.INTER.SOLV>
10.2404

>  <SCORE.INTER.VDW>
-25.0048

>  <SCORE.INTER.norm>
-3.7338

>  <SCORE.INTRA>
-0.945668

>  <SCORE.INTRA.DIHEDRAL>
-1.86076

>  <SCORE.INTRA.DIHEDRAL.0>
4.88905

>  <SCORE.INTRA.POLAR>
0

>  <SCORE.INTRA.POLAR.0>
0

>  <SCORE.INTRA.REPUL>
0

>  <SCORE.INTRA.REPUL.0>
0

>  <SCORE.INTRA.SOLV>
-0.387031

>  <SCORE.INTRA.SOLV.lig_0>
-15.1033

>  <SCORE.INTRA.VDW>
0.178226

>  <SCORE.INTRA.VDW.0>
-0.755285

>  <SCORE.INTRA.norm>
-0.0727437

>  <SCORE.RESTR>
0

>  <SCORE.RESTR.CAVITY>
0

>  <SCORE.RESTR.norm>
0

>  <SCORE.SYSTEM>
0

>  <SCORE.SYSTEM.CONST>
0

>  <SCORE.SYSTEM.DIHEDRAL>
0

>  <SCORE.SYSTEM.SOLV>
0

>  <SCORE.SYSTEM.norm>
0

>  <SCORE.heavy>
13

>  <SCORE.norm>
-3.80655

>  <RMSD>
0.448

$$$$
ligand
 OpenBabel11021811513D
libRbt.so/2013.1/901 2013/11/27
 13 14  0  0  0  0  0  0  0  0999 V2000
   34.2269   29.6911  108.0627 N   0  0  0  0  0  0  0  0  0  0  0  0
   34.1439   30.9257  108.7468 C   0  0  0  0  0  0  0  0  0  0  0  0
   35.3554   31.5858  109.1626 N   0  0  0  0  0  0  0  0  0  0  0  0
   32.9351   31.5099  109.0258 N   0  0  0  0  0  0  0  0  0  0  0  0
   31.7279   30.9102  108.6440 C   0  0  0  0  0  0  0  0  0  0  0  0
   31.7666   29.6522  107.9455 C   0  0  0  0  0  0  0  0  0  0  0  0
   33.0685   29.0480  107.6596 C   0  0  0  0  0  0  0  0  0  0  0  0
   33.1453   27.8468  106.9945 O   0  0  0  0  0  0  0  0  0  0  0  0
   30.3841   29.2867  107.6910 C   0  0  0  0  0  0  0  0  0  0  0  0
   29.5950   30.3081  108.2214 C   0  0  0  0  0  0  0  0  0  0  0  0
   30.4004   31.2695  108.7895 N   0  0  0  0  0  0  0  0  0  0  0  0
   29.9033   28.0559  106.9826 C   0  0  0  0  0  0  0  0  0  0  0  0
   30.6675   27.8759  105.7620 N   0  0  0  0  0  0  0  0  0  0  0  0
  1  2  1  0  0  0  0
  1  7  1  0  0  0  0
  2  3  1  0  0  0  0
  2  4  2  0  0  0  0
  4  5  1  0  0  0  0
  5  6  2  0  0  0  0
  5 11  1  0  0  0  0
  6  7  1  0  0  0  0
  6  9  1  0  0  0  0
  7  8  2  0  0  0  0
  9 10  2  0  0  0  0
  9 12  1  0  0  0  0
 10 11  1  0  0  0  0
 12 13  1  0  0  0  0
M  END
>  <CHROM.1>
-8.12298289,-46.84729253,13.57178537,32.16593326,29.82249896,107.94546298
-0.66060047,0.04885963,-2.54207350

>  <Name>
ligand

>  <RI>
2.51964e+07

>  <Rbt.Current_Directory>
/home/itssahil/PROJECTS/Mol_Feturizer/New_Systems/rnas/4RZD

>  <Rbt.Executable>
rbdock ($Id: //depot/dev/client3/rdock/2013.1/src/exe/rbdock.cxx#4 $)

>  <Rbt.Library>
libRbt.so (2013.1, Build901 2013/11/27)

>  <Rbt.Parameter_File>
/export/apps/rDock/src/rDock_2013.1_src/data/scripts/dock_solv.prm

>  <Rbt.Receptor>
prm/pocket_docking_4.prm

>  <SCORE>
-48.708

>  <SCORE.INTER>
-49.2366

>  <SCORE.INTER.CONST>
1

>  <SCORE.INTER.POLAR>
-4.86331

>  <SCORE.INTER.ROT>
3

>  <SCORE.INTER.SOLV>
10.3392

>  <SCORE.INTER.VDW>
-25.6597

>  <SCORE.INTER.norm>
-3.78743

>  <SCORE.INTRA>
0.528547

>  <SCORE.INTRA.DIHEDRAL>
-0.283305

>  <SCORE.INTRA.DIHEDRAL.0>
4.88905

>  <SCORE.INTRA.POLAR>
0

>  <SCORE.INTRA.POLAR.0>
0

>  <SCORE.INTRA.REPUL>
0

>  <SCORE.INTRA.REPUL.0>
0

>  <SCORE.INTRA.SOLV>
0.135482

>  <SCORE.INTRA.SOLV.lig_0>
-15.1033

>  <SCORE.INTRA.VDW>
0.602459

>  <SCORE.INTRA.VDW.0>
-0.755285

>  <SCORE.INTRA.norm>
0.0406575

>  <SCORE.RESTR>
0

>  <SCORE.RESTR.CAVITY>
0

>  <SCORE.RESTR.norm>
0

>  <SCORE.SYSTEM>
0

>  <SCORE.SYSTEM.CONST>
0

>  <SCORE.SYSTEM.DIHEDRAL>
0

>  <SCORE.SYSTEM.SOLV>
0

>  <SCORE.SYSTEM.norm>
0

>  <SCORE.heavy>
13

>  <SCORE.norm>
-3.74677

>  <RMSD>
0.448

$$$$
ligand
 OpenBabel11021811513D
libRbt.so/2013.1/901 2013/11/27
 13 14  0  0  0  0  0  0  0  0999 V2000
   34.2224   29.6626  108.0869 N   0  0  0  0  0  0  0  0  0  0  0  0
   34.1429   30.8901  108.7842 C   0  0  0  0  0  0  0  0  0  0  0  0
   35.3559   31.5374  109.2153 N   0  0  0  0  0  0  0  0  0  0  0  0
   32.9361   31.4791  109.0619 N   0  0  0  0  0  0  0  0  0  0  0  0
   31.7276   30.8917  108.6655 C   0  0  0  0  0  0  0  0  0  0  0  0
   31.7626   29.6414  107.9532 C   0  0  0  0  0  0  0  0  0  0  0  0
   33.0624   29.0318  107.6691 C   0  0  0  0  0  0  0  0  0  0  0  0
   33.1358   27.8376  106.9910 O   0  0  0  0  0  0  0  0  0  0  0  0
   30.3795   29.2879  107.6856 C   0  0  0  0  0  0  0  0  0  0  0  0
   29.5936   30.3085  108.2222 C   0  0  0  0  0  0  0  0  0  0  0  0
   30.4016   31.2582  108.8064 N   0  0  0  0  0  0  0  0  0  0  0  0
   29.8954   28.0682  106.9604 C   0  0  0  0  0  0  0  0  0  0  0  0
   30.6831   27.8825  105.7557 N   0  0  0  0  0  0  0  0  0  0  0  0
  1  2  1  0  0  0  0
  1  7  1  0  0  0  0
  2  3  1  0  0  0  0
  2  4  2  0  0  0  0
  4  5  1  0  0  0  0
  5  6  2  0  0  0  0
  5 11  1  0  0  0  0
  6  7  1  0  0  0  0
  6  9  1  0  0  0  0
  7  8  2  0  0  0  0
  9 10  2  0  0  0  0
  9 12  1  0  0  0  0
 10 11  1  0  0  0  0
 12 13  1  0  0  0  0
M  END
>  <CHROM.1>
-179.11452073,-45.78079888,-107.28773882,32.16204110,29.79961382,107.95827208
-0.66902295,0.05718863,-2.53511002

>  <Name>
ligand

>  <RI>
2.73617e+07

>  <Rbt.Current_Directory>
/home/itssahil/PROJECTS/Mol_Feturizer/New_Systems/rnas/4RZD

>  <Rbt.Executable>
rbdock ($Id: //depot/dev/client3/rdock/2013.1/src/exe/rbdock.cxx#4 $)

>  <Rbt.Library>
libRbt.so (2013.1, Build901 2013/11/27)

>  <Rbt.Parameter_File>
/export/apps/rDock/src/rDock_2013.1_src/data/scripts/dock_solv.prm

>  <Rbt.Receptor>
prm/pocket_docking_6.prm

>  <SCORE>
-49.1588

>  <SCORE.INTER>
-49.1534

>  <SCORE.INTER.CONST>
1

>  <SCORE.INTER.POLAR>
-4.86331

>  <SCORE.INTER.ROT>
3

>  <SCORE.INTER.SOLV>
10.2299

>  <SCORE.INTER.VDW>
-25.5678

>  <SCORE.INTER.norm>
-3.78103

>  <SCORE.INTRA>
-0.00545115

>  <SCORE.INTRA.DIHEDRAL>
-0.247607

>  <SCORE.INTRA.DIHEDRAL.0>
4.88905

>  <SCORE.INTRA.POLAR>
0

>  <SCORE.INTRA.POLAR.0>
0

>  <SCORE.INTRA.REPUL>
0

>  <SCORE.INTRA.REPUL.0>
0

>  <SCORE.INTRA.SOLV>
0.0717176

>  <SCORE.INTRA.SOLV.lig_0>
-15.1033

>  <SCORE.INTRA.VDW>
0.0824937

>  <SCORE.INTRA.VDW.0>
-0.755285

>  <SCORE.INTRA.norm>
-0.000419319

>  <SCORE.RESTR>
0

>  <SCORE.RESTR.CAVITY>
0

>  <SCORE.RESTR.norm>
0

>  <SCORE.SYSTEM>
0

>  <SCORE.SYSTEM.CONST>
0

>  <SCORE.SYSTEM.DIHEDRAL>
0

>  <SCORE.SYSTEM.SOLV>
0

>  <SCORE.SYSTEM.norm>
0

>  <SCORE.heavy>
13

>  <SCORE.norm>
-3.78145

>  <RMSD>
0.448

$$$$
ligand
 OpenBabel11021811513D
libRbt.so/2013.1/901 2013/11/27
 13 14  0  0  0  0  0  0  0  0999 V2000
   34.2229   29.6690  108.0816 N   0  0  0  0  0  0  0  0  0  0  0  0
   34.1425   30.8956  108.7801 C   0  0  0  0  0  0  0  0  0  0  0  0
   35.3552   31.5454  109.2085 N   0  0  0  0  0  0  0  0  0  0  0  0
   32.9351   31.4817  109.0615 N   0  0  0  0  0  0  0  0  0  0  0  0
   31.7269   30.8919  108.6679 C   0  0  0  0  0  0  0  0  0  0  0  0
   31.7629   29.6422  107.9545 C   0  0  0  0  0  0  0  0  0  0  0  0
   33.0632   29.0359  107.6664 C   0  0  0  0  0  0  0  0  0  0  0  0
   33.1375   27.8424  106.9871 O   0  0  0  0  0  0  0  0  0  0  0  0
   30.3798   29.2859  107.6903 C   0  0  0  0  0  0  0  0  0  0  0  0
   29.5931   30.3042  108.2299 C   0  0  0  0  0  0  0  0  0  0  0  0
   30.4004   31.2553  108.8126 N   0  0  0  0  0  0  0  0  0  0  0  0
   29.8965   28.0657  106.9653 C   0  0  0  0  0  0  0  0  0  0  0  0
   30.6772   27.8864  105.7551 N   0  0  0  0  0  0  0  0  0  0  0  0
  1  2  1  0  0  0  0
  1  7  1  0  0  0  0
  2  3  1  0  0  0  0
  2  4  2  0  0  0  0
  4  5  1  0  0  0  0
  5  6  2  0  0  0  0
  5 11  1  0  0  0  0
  6  7  1  0  0  0  0
  6  9  1  0  0  0  0
  7  8  2  0  0  0  0
  9 10  2  0  0  0  0
  9 12  1  0  0  0  0
 10 11  1  0  0  0  0
 12 13  1  0  0  0  0
M  END
>  <CHROM.1>
-1.54243172,-46.05219996,-107.21872488,32.16148241,29.80176730,107.95832514
-0.66918681,0.05395448,-2.53404248

>  <Name>
ligand

>  <RI>
1.0531e+07

>  <Rbt.Current_Directory>
/home/itssahil/PROJECTS/Mol_Feturizer/New_Systems/rnas/4RZD

>  <Rbt.Executable>
rbdock ($Id: //depot/dev/client3/rdock/2013.1/src/exe/rbdock.cxx#4 $)

>  <Rbt.Library>
libRbt.so (2013.1, Build901 2013/11/27)

>  <Rbt.Parameter_File>
/export/apps/rDock/src/rDock_2013.1_src/data/scripts/dock_solv.prm

>  <Rbt.Receptor>
prm/pocket_docking_8.prm

>  <SCORE>
-49.1811

>  <SCORE.INTER>
-49.1677

>  <SCORE.INTER.CONST>
1

>  <SCORE.INTER.POLAR>
-4.86277

>  <SCORE.INTER.ROT>
3

>  <SCORE.INTER.SOLV>
10.2365

>  <SCORE.INTER.VDW>
-25.5814

>  <SCORE.INTER.norm>
-3.78213

>  <SCORE.INTRA>
-0.0134485

>  <SCORE.INTRA.DIHEDRAL>
-0.250616

>  <SCORE.INTRA.DIHEDRAL.0>
4.88905

>  <SCORE.INTRA.POLAR>
0

>  <SCORE.INTRA.POLAR.0>
0

>  <SCORE.INTRA.REPUL>
0

>  <SCORE.INTRA.REPUL.0>
0

>  <SCORE.INTRA.SOLV>
0.0680137

>  <SCORE.INTRA.SOLV.lig_0>
-15.1033

>  <SCORE.INTRA.VDW>
0.0778528

>  <SCORE.INTRA.VDW.0>
-0.755285

>  <SCORE.INTRA.norm>
-0.0010345

>  <SCORE.RESTR>
0

>  <SCORE.RESTR.CAVITY>
0

>  <SCORE.RESTR.norm>
0

>  <SCORE.SYSTEM>
0

>  <SCORE.SYSTEM.CONST>
0

>  <SCORE.SYSTEM.DIHEDRAL>
0

>  <SCORE.SYSTEM.SOLV>
0

>  <SCORE.SYSTEM.norm>
0

>  <SCORE.heavy>
13

>  <SCORE.norm>
-3.78316

>  <RMSD>
0.448

$$$$
ligand
 OpenBabel11021811513D
libRbt.so/2013.1/901 2013/11/27
 13 14  0  0  0  0  0  0  0  0999 V2000
   34.2868   29.7124  108.1482 N   0  0  0  0  0  0  0  0  0  0  0  0
   34.1724   31.0146  108.6871 C   0  0  0  0  0  0  0  0  0  0  0  0
   35.3660   31.7783  108.9485 N   0  0  0  0  0  0  0  0  0  0  0  0
   32.9498   31.5681  108.9689 N   0  0  0  0  0  0  0  0  0  0  0  0
   31.7590   30.8685  108.7339 C   0  0  0  0  0  0  0  0  0  0  0  0
   31.8297   29.5393  108.1861 C   0  0  0  0  0  0  0  0  0  0  0  0
   33.1458   28.9697  107.8942 C   0  0  0  0  0  0  0  0  0  0  0  0
   33.2532   27.7026  107.3706 O   0  0  0  0  0  0  0  0  0  0  0  0
   30.4580   29.0787  108.0606 C   0  0  0  0  0  0  0  0  0  0  0  0
   29.6432   30.1164  108.5149 C   0  0  0  0  0  0  0  0  0  0  0  0
   30.4235   31.1773  108.9168 N   0  0  0  0  0  0  0  0  0  0  0  0
   30.0088   27.7497  107.5314 C   0  0  0  0  0  0  0  0  0  0  0  0
   29.8973   27.8219  106.0862 N   0  0  0  0  0  0  0  0  0  0  0  0
  1  2  1  0  0  0  0
  1  7  1  0  0  0  0
  2  3  1  0  0  0  0
  2  4  2  0  0  0  0
  4  5  1  0  0  0  0
  5  6  2  0  0  0  0
  5 11  1  0  0  0  0
  6  7  1  0  0  0  0
  6  9  1  0  0  0  0
  7  8  2  0  0  0  0
  9 10  2  0  0  0  0
  9 12  1  0  0  0  0
 10 11  1  0  0  0  0
 12 13  1  0  0  0  0
M  END
>  <CHROM.1>
-9.42681326,-85.95100364,39.12901552,32.14353877,29.76125105,108.12437992
-0.61638339,0.00364403,-2.64880982

>  <Name>
ligand

>  <RI>
1.38753e+07

>  <Rbt.Current_Directory>
/home/itssahil/PROJECTS/Mol_Feturizer/New_Systems/rnas/4RZD

>  <Rbt.Executable>
rbdock ($Id: //depot/dev/client3/rdock/2013.1/src/exe/rbdock.cxx#4 $)

>  <Rbt.Library>
libRbt.so (2013.1, Build901 2013/11/27)

>  <Rbt.Parameter_File>
/export/apps/rDock/src/rDock_2013.1_src/data/scripts/dock_solv.prm

>  <Rbt.Receptor>
prm/pocket_docking_7.prm

>  <SCORE>
-49.4519

>  <SCORE.INTER>
-48.5532

>  <SCORE.INTER.CONST>
1

>  <SCORE.INTER.POLAR>
-4.91047

>  <SCORE.INTER.ROT>
3

>  <SCORE.INTER.SOLV>
10.3276

>  <SCORE.INTER.VDW>
-25.0431

>  <SCORE.INTER.norm>
-3.73486

>  <SCORE.INTRA>
-0.898763

>  <SCORE.INTRA.DIHEDRAL>
-1.79369

>  <SCORE.INTRA.DIHEDRAL.0>
4.88905

>  <SCORE.INTRA.POLAR>
0

>  <SCORE.INTRA.POLAR.0>
0

>  <SCORE.INTRA.REPUL>
0

>  <SCORE.INTRA.REPUL.0>
0

>  <SCORE.INTRA.SOLV>
-0.369624

>  <SCORE.INTRA.SOLV.lig_0>
-15.1033

>  <SCORE.INTRA.VDW>
0.182895

>  <SCORE.INTRA.VDW.0>
-0.755285

>  <SCORE.INTRA.norm>
-0.0691356

>  <SCORE.RESTR>
0

>  <SCORE.RESTR.CAVITY>
0

>  <SCORE.RESTR.norm>
0

>  <SCORE.SYSTEM>
0

>  <SCORE.SYSTEM.CONST>
0

>  <SCORE.SYSTEM.DIHEDRAL>
0

>  <SCORE.SYSTEM.SOLV>
0

>  <SCORE.SYSTEM.norm>
0

>  <SCORE.heavy>
13

>  <SCORE.norm>
-3.80399

>  <RMSD>
0.453

$$$$
ligand
 OpenBabel11021811513D
libRbt.so/2013.1/901 2013/11/27
 13 14  0  0  0  0  0  0  0  0999 V2000
   34.3123   29.7109  108.1319 N   0  0  0  0  0  0  0  0  0  0  0  0
   34.2059   31.0088  108.6828 C   0  0  0  0  0  0  0  0  0  0  0  0
   35.4034   31.7697  108.9345 N   0  0  0  0  0  0  0  0  0  0  0  0
   32.9876   31.5607  108.9851 N   0  0  0  0  0  0  0  0  0  0  0  0
   31.7933   30.8638  108.7602 C   0  0  0  0  0  0  0  0  0  0  0  0
   31.8558   29.5390  108.2009 C   0  0  0  0  0  0  0  0  0  0  0  0
   33.1675   28.9710  107.8870 C   0  0  0  0  0  0  0  0  0  0  0  0
   33.2671   27.7081  107.3518 O   0  0  0  0  0  0  0  0  0  0  0  0
   30.4822   29.0802  108.0898 C   0  0  0  0  0  0  0  0  0  0  0  0
   29.6742   30.1147  108.5632 C   0  0  0  0  0  0  0  0  0  0  0  0
   30.4605   31.1719  108.9633 N   0  0  0  0  0  0  0  0  0  0  0  0
   30.0251   27.7558  107.5559 C   0  0  0  0  0  0  0  0  0  0  0  0
   29.9372   27.8267  106.1090 N   0  0  0  0  0  0  0  0  0  0  0  0
  1  2  1  0  0  0  0
  1  7  1  0  0  0  0
  2  3  1  0  0  0  0
  2  4  2  0  0  0  0
  4  5  1  0  0  0  0
  5  6  2  0  0  0  0
  5 11  1  0  0  0  0
  6  7  1  0  0  0  0
  6  9  1  0  0  0  0
  7  8  2  0  0  0  0
  9 10  2  0  0  0  0
  9 12  1  0  0  0  0
 10 11  1  0  0  0  0
 12 13  1  0  0  0  0
M  END
>  <CHROM.1>
-9.11993301,-84.07784693,38.79401245,32.17288895,29.76004440,108.13637004
-0.61284694,-0.00918822,-2.63974926

>  <Name>
ligand

>  <RI>
1.99388e+07

>  <Rbt.Current_Directory>
/home/itssahil/PROJECTS/Mol_Feturizer/New_Systems/rnas/4RZD

>  <Rbt.Executable>
rbdock ($Id: //depot/dev/client3/rdock/2013.1/src/exe/rbdock.cxx#4 $)

>  <Rbt.Library>
libRbt.so (2013.1, Build901 2013/11/27)

>  <Rbt.Parameter_File>
/export/apps/rDock/src/rDock_2013.1_src/data/scripts/dock_solv.prm

>  <Rbt.Receptor>
prm/pocket_docking_2.prm

>  <SCORE>
-49.4519

>  <SCORE.INTER>
-48.5707

>  <SCORE.INTER.CONST>
1

>  <SCORE.INTER.POLAR>
-4.90829

>  <SCORE.INTER.ROT>
3

>  <SCORE.INTER.SOLV>
10.2564

>  <SCORE.INTER.VDW>
-25.0383

>  <SCORE.INTER.norm>
-3.7362

>  <SCORE.INTRA>
-0.881203

>  <SCORE.INTRA.DIHEDRAL>
-1.77424

>  <SCORE.INTRA.DIHEDRAL.0>
4.88905

>  <SCORE.INTRA.POLAR>
0

>  <SCORE.INTRA.POLAR.0>
0

>  <SCORE.INTRA.REPUL>
0

>  <SCORE.INTRA.REPUL.0>
0

>  <SCORE.INTRA.SOLV>
-0.344978

>  <SCORE.INTRA.SOLV.lig_0>
-15.1033

>  <SCORE.INTRA.VDW>
0.178406

>  <SCORE.INTRA.VDW.0>
-0.755285

>  <SCORE.INTRA.norm>
-0.0677849

>  <SCORE.RESTR>
0

>  <SCORE.RESTR.CAVITY>
0

>  <SCORE.RESTR.norm>
0

>  <SCORE.SYSTEM>
0

>  <SCORE.SYSTEM.CONST>
0

>  <SCORE.SYSTEM.DIHEDRAL>
0

>  <SCORE.SYSTEM.SOLV>
0

>  <SCORE.SYSTEM.norm>
0

>  <SCORE.heavy>
13

>  <SCORE.norm>
-3.80399

>  <RMSD>
0.454

$$$$
ligand
 OpenBabel11021811513D
libRbt.so/2013.1/901 2013/11/27
 13 14  0  0  0  0  0  0  0  0999 V2000
   34.3136   29.7232  108.1984 N   0  0  0  0  0  0  0  0  0  0  0  0
   34.1961   31.0242  108.7394 C   0  0  0  0  0  0  0  0  0  0  0  0
   35.3886   31.7819  109.0225 N   0  0  0  0  0  0  0  0  0  0  0  0
   32.9715   31.5822  109.0029 N   0  0  0  0  0  0  0  0  0  0  0  0
   31.7817   30.8887  108.7463 C   0  0  0  0  0  0  0  0  0  0  0  0
   31.8556   29.5608  108.1956 C   0  0  0  0  0  0  0  0  0  0  0  0
   33.1737   28.9863  107.9235 C   0  0  0  0  0  0  0  0  0  0  0  0
   33.2842   27.7204  107.3977 O   0  0  0  0  0  0  0  0  0  0  0  0
   30.4841   29.1066  108.0463 C   0  0  0  0  0  0  0  0  0  0  0  0
   29.6665   30.1465  108.4905 C   0  0  0  0  0  0  0  0  0  0  0  0
   30.4447   31.2027  108.9084 N   0  0  0  0  0  0  0  0  0  0  0  0
   30.0378   27.7812  107.5058 C   0  0  0  0  0  0  0  0  0  0  0  0
   29.9646   27.8539  106.0581 N   0  0  0  0  0  0  0  0  0  0  0  0
  1  2  1  0  0  0  0
  1  7  1  0  0  0  0
  2  3  1  0  0  0  0
  2  4  2  0  0  0  0
  4  5  1  0  0  0  0
  5  6  2  0  0  0  0
  5 11  1  0  0  0  0
  6  7  1  0  0  0  0
  6  9  1  0  0  0  0
  7  8  2  0  0  0  0
  9 10  2  0  0  0  0
  9 12  1  0  0  0  0
 10 11  1  0  0  0  0
 12 13  1  0  0  0  0
M  END
>  <CHROM.1>
-5.51654358,-85.31835422,38.57231086,32.17260686,29.78113659,108.13960846
-0.62142655,0.01942214,-2.64514233

>  <Name>
ligand

>  <RI>
2.73617e+07

>  <Rbt.Current_Directory>
/home/itssahil/PROJECTS/Mol_Feturizer/New_Systems/rnas/4RZD

>  <Rbt.Executable>
rbdock ($Id: //depot/dev/client3/rdock/2013.1/src/exe/rbdock.cxx#4 $)

>  <Rbt.Library>
libRbt.so (2013.1, Build901 2013/11/27)

>  <Rbt.Parameter_File>
/export/apps/rDock/src/rDock_2013.1_src/data/scripts/dock_solv.prm

>  <Rbt.Receptor>
prm/pocket_docking_6.prm

>  <SCORE>
-49.3952

>  <SCORE.INTER>
-48.5183

>  <SCORE.INTER.CONST>
1

>  <SCORE.INTER.POLAR>
-4.91047

>  <SCORE.INTER.ROT>
3

>  <SCORE.INTER.SOLV>
10.2967

>  <SCORE.INTER.VDW>
-25.0095

>  <SCORE.INTER.norm>
-3.73218

>  <SCORE.INTRA>
-0.876919

>  <SCORE.INTRA.DIHEDRAL>
-1.76224

>  <SCORE.INTRA.DIHEDRAL.0>
4.88905

>  <SCORE.INTRA.POLAR>
0

>  <SCORE.INTRA.POLAR.0>
0

>  <SCORE.INTRA.REPUL>
0

>  <SCORE.INTRA.REPUL.0>
0

>  <SCORE.INTRA.SOLV>
-0.361638

>  <SCORE.INTRA.SOLV.lig_0>
-15.1033

>  <SCORE.INTRA.VDW>
0.185022

>  <SCORE.INTRA.VDW.0>
-0.755285

>  <SCORE.INTRA.norm>
-0.0674553

>  <SCORE.RESTR>
0

>  <SCORE.RESTR.CAVITY>
0

>  <SCORE.RESTR.norm>
0

>  <SCORE.SYSTEM>
0

>  <SCORE.SYSTEM.CONST>
0

>  <SCORE.SYSTEM.DIHEDRAL>
0

>  <SCORE.SYSTEM.SOLV>
0

>  <SCORE.SYSTEM.norm>
0

>  <SCORE.heavy>
13

>  <SCORE.norm>
-3.79963

>  <RMSD>
0.454

$$$$
ligand
 OpenBabel11021811513D
libRbt.so/2013.1/901 2013/11/27
 13 14  0  0  0  0  0  0  0  0999 V2000
   34.2620   29.6978  108.1654 N   0  0  0  0  0  0  0  0  0  0  0  0
   34.1601   30.9906  108.7289 C   0  0  0  0  0  0  0  0  0  0  0  0
   35.3609   31.7381  109.0036 N   0  0  0  0  0  0  0  0  0  0  0  0
   32.9429   31.5500  109.0221 N   0  0  0  0  0  0  0  0  0  0  0  0
   31.7455   30.8661  108.7750 C   0  0  0  0  0  0  0  0  0  0  0  0
   31.8034   29.5469  108.2021 C   0  0  0  0  0  0  0  0  0  0  0  0
   33.1139   28.9707  107.8984 C   0  0  0  0  0  0  0  0  0  0  0  0
   33.2092   27.7128  107.3508 O   0  0  0  0  0  0  0  0  0  0  0  0
   30.4274   29.1015  108.0692 C   0  0  0  0  0  0  0  0  0  0  0  0
   29.6226   30.1380  108.5437 C   0  0  0  0  0  0  0  0  0  0  0  0
   30.4130   31.1838  108.9649 N   0  0  0  0  0  0  0  0  0  0  0  0
   29.9654   27.7870  107.5154 C   0  0  0  0  0  0  0  0  0  0  0  0
   29.9608   27.8525  106.0656 N   0  0  0  0  0  0  0  0  0  0  0  0
  1  2  1  0  0  0  0
  1  7  1  0  0  0  0
  2  3  1  0  0  0  0
  2  4  2  0  0  0  0
  4  5  1  0  0  0  0
  5  6  2  0  0  0  0
  5 11  1  0  0  0  0
  6  7  1  0  0  0  0
  6  9  1  0  0  0  0
  7  8  2  0  0  0  0
  9 10  2  0  0  0  0
  9 12  1  0  0  0  0
 10 11  1  0  0  0  0
 12 13  1  0  0  0  0
M  END
>  <CHROM.1>
-12.56225160,-81.22310602,37.20387973,32.12913066,29.76381857,108.14363387
-0.61618335,0.00366236,-2.62799463

>  <Name>
ligand

>  <RI>
1.0531e+07

>  <Rbt.Current_Directory>
/home/itssahil/PROJECTS/Mol_Feturizer/New_Systems/rnas/4RZD

>  <Rbt.Executable>
rbdock ($Id: //depot/dev/client3/rdock/2013.1/src/exe/rbdock.cxx#4 $)

>  <Rbt.Library>
libRbt.so (2013.1, Build901 2013/11/27)

>  <Rbt.Parameter_File>
/export/apps/rDock/src/rDock_2013.1_src/data/scripts/dock_solv.prm

>  <Rbt.Receptor>
prm/pocket_docking_8.prm

>  <SCORE>
-49.4983

>  <SCORE.INTER>
-48.6848

>  <SCORE.INTER.CONST>
1

>  <SCORE.INTER.POLAR>
-4.91098

>  <SCORE.INTER.ROT>
3

>  <SCORE.INTER.SOLV>
10.2525

>  <SCORE.INTER.VDW>
-25.1041

>  <SCORE.INTER.norm>
-3.74499

>  <SCORE.INTRA>
-0.813475

>  <SCORE.INTRA.DIHEDRAL>
-1.68151

>  <SCORE.INTRA.DIHEDRAL.0>
4.88905

>  <SCORE.INTRA.POLAR>
0

>  <SCORE.INTRA.POLAR.0>
0

>  <SCORE.INTRA.REPUL>
0

>  <SCORE.INTRA.REPUL.0>
0

>  <SCORE.INTRA.SOLV>
-0.308788

>  <SCORE.INTRA.SOLV.lig_0>
-15.1033

>  <SCORE.INTRA.VDW>
0.181676

>  <SCORE.INTRA.VDW.0>
-0.755285

>  <SCORE.INTRA.norm>
-0.062575

>  <SCORE.RESTR>
0

>  <SCORE.RESTR.CAVITY>
0

>  <SCORE.RESTR.norm>
0

>  <SCORE.SYSTEM>
0

>  <SCORE.SYSTEM.CONST>
0

>  <SCORE.SYSTEM.DIHEDRAL>
0

>  <SCORE.SYSTEM.SOLV>
0

>  <SCORE.SYSTEM.norm>
0

>  <SCORE.heavy>
13

>  <SCORE.norm>
-3.80756

>  <RMSD>
0.457

$$$$
ligand
 OpenBabel11021811513D
libRbt.so/2013.1/901 2013/11/27
 13 14  0  0  0  0  0  0  0  0999 V2000
   34.3241   29.7457  108.1515 N   0  0  0  0  0  0  0  0  0  0  0  0
   34.2012   31.0494  108.6848 C   0  0  0  0  0  0  0  0  0  0  0  0
   35.3899   31.8207  108.9462 N   0  0  0  0  0  0  0  0  0  0  0  0
   32.9749   31.5974  108.9611 N   0  0  0  0  0  0  0  0  0  0  0  0
   31.7885   30.8905  108.7259 C   0  0  0  0  0  0  0  0  0  0  0  0
   31.8679   29.5594  108.1836 C   0  0  0  0  0  0  0  0  0  0  0  0
   33.1878   28.9958  107.8975 C   0  0  0  0  0  0  0  0  0  0  0  0
   33.3035   27.7273  107.3792 O   0  0  0  0  0  0  0  0  0  0  0  0
   30.4990   29.0908  108.0564 C   0  0  0  0  0  0  0  0  0  0  0  0
   29.6774   30.1259  108.5044 C   0  0  0  0  0  0  0  0  0  0  0  0
   30.4508   31.1927  108.9040 N   0  0  0  0  0  0  0  0  0  0  0  0
   30.0584   27.7573  107.5314 C   0  0  0  0  0  0  0  0  0  0  0  0
   29.9293   27.8293  106.0877 N   0  0  0  0  0  0  0  0  0  0  0  0
  1  2  1  0  0  0  0
  1  7  1  0  0  0  0
  2  3  1  0  0  0  0
  2  4  2  0  0  0  0
  4  5  1  0  0  0  0
  5  6  2  0  0  0  0
  5 11  1  0  0  0  0
  6  7  1  0  0  0  0
  6  9  1  0  0  0  0
  7  8  2  0  0  0  0
  9 10  2  0  0  0  0
  9 12  1  0  0  0  0
 10 11  1  0  0  0  0
 12 13  1  0  0  0  0
M  END
>  <CHROM.1>
-8.91481901,-86.87221429,39.25047897,32.17870444,29.78340328,108.12203166
-0.62075556,0.00411726,-2.65329311

>  <Name>
ligand

>  <RI>
2.51964e+07

>  <Rbt.Current_Directory>
/home/itssahil/PROJECTS/Mol_Feturizer/New_Systems/rnas/4RZD

>  <Rbt.Executable>
rbdock ($Id: //depot/dev/client3/rdock/2013.1/src/exe/rbdock.cxx#4 $)

>  <Rbt.Library>
libRbt.so (2013.1, Build901 2013/11/27)

>  <Rbt.Parameter_File>
/export/apps/rDock/src/rDock_2013.1_src/data/scripts/dock_solv.prm

>  <Rbt.Receptor>
prm/pocket_docking_4.prm

>  <SCORE>
-49.4614

>  <SCORE.INTER>
-48.5556

>  <SCORE.INTER.CONST>
1

>  <SCORE.INTER.POLAR>
-4.91047

>  <SCORE.INTER.ROT>
3

>  <SCORE.INTER.SOLV>
10.345

>  <SCORE.INTER.VDW>
-25.0505

>  <SCORE.INTER.norm>
-3.73505

>  <SCORE.INTRA>
-0.905783

>  <SCORE.INTRA.DIHEDRAL>
-1.80069

>  <SCORE.INTRA.DIHEDRAL.0>
4.88905

>  <SCORE.INTRA.POLAR>
0

>  <SCORE.INTRA.POLAR.0>
0

>  <SCORE.INTRA.REPUL>
0

>  <SCORE.INTRA.REPUL.0>
0

>  <SCORE.INTRA.SOLV>
-0.381717

>  <SCORE.INTRA.SOLV.lig_0>
-15.1033

>  <SCORE.INTRA.VDW>
0.18542

>  <SCORE.INTRA.VDW.0>
-0.755285

>  <SCORE.INTRA.norm>
-0.0696756

>  <SCORE.RESTR>
0

>  <SCORE.RESTR.CAVITY>
0

>  <SCORE.RESTR.norm>
0

>  <SCORE.SYSTEM>
0

>  <SCORE.SYSTEM.CONST>
0

>  <SCORE.SYSTEM.DIHEDRAL>
0

>  <SCORE.SYSTEM.SOLV>
0

>  <SCORE.SYSTEM.norm>
0

>  <SCORE.heavy>
13

>  <SCORE.norm>
-3.80472

>  <RMSD>
0.458

$$$$
ligand
 OpenBabel11021811513D
libRbt.so/2013.1/901 2013/11/27
 13 14  0  0  0  0  0  0  0  0999 V2000
   34.3319   29.7426  108.1833 N   0  0  0  0  0  0  0  0  0  0  0  0
   34.2068   31.0432  108.7237 C   0  0  0  0  0  0  0  0  0  0  0  0
   35.3947   31.8111  108.9986 N   0  0  0  0  0  0  0  0  0  0  0  0
   32.9793   31.5912  108.9942 N   0  0  0  0  0  0  0  0  0  0  0  0
   31.7937   30.8875  108.7458 C   0  0  0  0  0  0  0  0  0  0  0  0
   31.8753   29.5597  108.1960 C   0  0  0  0  0  0  0  0  0  0  0  0
   33.1965   28.9959  107.9163 C   0  0  0  0  0  0  0  0  0  0  0  0
   33.3142   27.7304  107.3912 O   0  0  0  0  0  0  0  0  0  0  0  0
   30.5067   29.0939  108.0557 C   0  0  0  0  0  0  0  0  0  0  0  0
   29.6832   30.1274  108.5039 C   0  0  0  0  0  0  0  0  0  0  0  0
   30.4552   31.1906  108.9158 N   0  0  0  0  0  0  0  0  0  0  0  0
   30.0682   27.7642  107.5194 C   0  0  0  0  0  0  0  0  0  0  0  0
   29.9398   27.8481  106.0762 N   0  0  0  0  0  0  0  0  0  0  0  0
  1  2  1  0  0  0  0
  1  7  1  0  0  0  0
  2  3  1  0  0  0  0
  2  4  2  0  0  0  0
  4  5  1  0  0  0  0
  5  6  2  0  0  0  0
  5 11  1  0  0  0  0
  6  7  1  0  0  0  0
  6  9  1  0  0  0  0
  7  8  2  0  0  0  0
  9 10  2  0  0  0  0
  9 12  1  0  0  0  0
 10 11  1  0  0  0  0
 12 13  1  0  0  0  0
M  END
>  <CHROM.1>
169.17685073,-87.31378118,39.18161401,32.18594285,29.78378408,108.13822875
-0.62208906,0.01179211,-2.64752224

>  <Name>
ligand

>  <RI>
1.99388e+07

>  <Rbt.Current_Directory>
/home/itssahil/PROJECTS/Mol_Feturizer/New_Systems/rnas/4RZD

>  <Rbt.Executable>
rbdock ($Id: //depot/dev/client3/rdock/2013.1/src/exe/rbdock.cxx#4 $)

>  <Rbt.Library>
libRbt.so (2013.1, Build901 2013/11/27)

>  <Rbt.Parameter_File>
/export/apps/rDock/src/rDock_2013.1_src/data/scripts/dock_solv.prm

>  <Rbt.Receptor>
prm/pocket_docking_2.prm

>  <SCORE>
-49.4804

>  <SCORE.INTER>
-48.5759

>  <SCORE.INTER.CONST>
1

>  <SCORE.INTER.POLAR>
-4.90998

>  <SCORE.INTER.ROT>
3

>  <SCORE.INTER.SOLV>
10.3568

>  <SCORE.INTER.VDW>
-25.0696

>  <SCORE.INTER.norm>
-3.73661

>  <SCORE.INTRA>
-0.90455

>  <SCORE.INTRA.DIHEDRAL>
-1.79696

>  <SCORE.INTRA.DIHEDRAL.0>
4.88905

>  <SCORE.INTRA.POLAR>
0

>  <SCORE.INTRA.POLAR.0>
0

>  <SCORE.INTRA.REPUL>
0

>  <SCORE.INTRA.REPUL.0>
0

>  <SCORE.INTRA.SOLV>
-0.387667

>  <SCORE.INTRA.SOLV.lig_0>
-15.1033

>  <SCORE.INTRA.VDW>
0.187764

>  <SCORE.INTRA.VDW.0>
-0.755285

>  <SCORE.INTRA.norm>
-0.0695807

>  <SCORE.RESTR>
0

>  <SCORE.RESTR.CAVITY>
0

>  <SCORE.RESTR.norm>
0

>  <SCORE.SYSTEM>
0

>  <SCORE.SYSTEM.CONST>
0

>  <SCORE.SYSTEM.DIHEDRAL>
0

>  <SCORE.SYSTEM.SOLV>
0

>  <SCORE.SYSTEM.norm>
0

>  <SCORE.heavy>
13

>  <SCORE.norm>
-3.80619

>  <RMSD>
0.459

$$$$
ligand
 OpenBabel11021811513D
libRbt.so/2013.1/901 2013/11/27
 13 14  0  0  0  0  0  0  0  0999 V2000
   34.2615   29.7171  108.0914 N   0  0  0  0  0  0  0  0  0  0  0  0
   34.1591   31.0135  108.6465 C   0  0  0  0  0  0  0  0  0  0  0  0
   35.3580   31.7764  108.8853 N   0  0  0  0  0  0  0  0  0  0  0  0
   32.9434   31.5621  108.9650 N   0  0  0  0  0  0  0  0  0  0  0  0
   31.7480   30.8632  108.7532 C   0  0  0  0  0  0  0  0  0  0  0  0
   31.8064   29.5397  108.1901 C   0  0  0  0  0  0  0  0  0  0  0  0
   33.1154   28.9753  107.8589 C   0  0  0  0  0  0  0  0  0  0  0  0
   33.2111   27.7139  107.3196 O   0  0  0  0  0  0  0  0  0  0  0  0
   30.4326   29.0783  108.0948 C   0  0  0  0  0  0  0  0  0  0  0  0
   29.6282   30.1099  108.5804 C   0  0  0  0  0  0  0  0  0  0  0  0
   30.4171   31.1679  108.9733 N   0  0  0  0  0  0  0  0  0  0  0  0
   29.9718   27.7541  107.5635 C   0  0  0  0  0  0  0  0  0  0  0  0
   29.9400   27.8041  106.1134 N   0  0  0  0  0  0  0  0  0  0  0  0
  1  2  1  0  0  0  0
  1  7  1  0  0  0  0
  2  3  1  0  0  0  0
  2  4  2  0  0  0  0
  4  5  1  0  0  0  0
  5  6  2  0  0  0  0
  5 11  1  0  0  0  0
  6  7  1  0  0  0  0
  6  9  1  0  0  0  0
  7  8  2  0  0  0  0
  9 10  2  0  0  0  0
  9 12  1  0  0  0  0
 10 11  1  0  0  0  0
 12 13  1  0  0  0  0
M  END
>  <CHROM.1>
-7.59906508,-80.81795864,38.81688302,32.12916830,29.75943539,108.12169996
-0.61452709,-0.02376414,-2.63599781

>  <Name>
ligand

>  <RI>
1.99388e+07

>  <Rbt.Current_Directory>
/home/itssahil/PROJECTS/Mol_Feturizer/New_Systems/rnas/4RZD

>  <Rbt.Executable>
rbdock ($Id: //depot/dev/client3/rdock/2013.1/src/exe/rbdock.cxx#4 $)

>  <Rbt.Library>
libRbt.so (2013.1, Build901 2013/11/27)

>  <Rbt.Parameter_File>
/export/apps/rDock/src/rDock_2013.1_src/data/scripts/dock_solv.prm

>  <Rbt.Receptor>
prm/pocket_docking_2.prm

>  <SCORE>
-49.4145

>  <SCORE.INTER>
-48.5424

>  <SCORE.INTER.CONST>
1

>  <SCORE.INTER.POLAR>
-4.91108

>  <SCORE.INTER.ROT>
3

>  <SCORE.INTER.SOLV>
10.2056

>  <SCORE.INTER.VDW>
-24.9932

>  <SCORE.INTER.norm>
-3.73403

>  <SCORE.INTRA>
-0.872072

>  <SCORE.INTRA.DIHEDRAL>
-1.77364

>  <SCORE.INTRA.DIHEDRAL.0>
4.88905

>  <SCORE.INTRA.POLAR>
0

>  <SCORE.INTRA.POLAR.0>
0

>  <SCORE.INTRA.REPUL>
0

>  <SCORE.INTRA.REPUL.0>
0

>  <SCORE.INTRA.SOLV>
-0.301155

>  <SCORE.INTRA.SOLV.lig_0>
-15.1033

>  <SCORE.INTRA.VDW>
0.165327

>  <SCORE.INTRA.VDW.0>
-0.755285

>  <SCORE.INTRA.norm>
-0.0670825

>  <SCORE.RESTR>
0

>  <SCORE.RESTR.CAVITY>
0

>  <SCORE.RESTR.norm>
0

>  <SCORE.SYSTEM>
0

>  <SCORE.SYSTEM.CONST>
0

>  <SCORE.SYSTEM.DIHEDRAL>
0

>  <SCORE.SYSTEM.SOLV>
0

>  <SCORE.SYSTEM.norm>
0

>  <SCORE.heavy>
13

>  <SCORE.norm>
-3.80111

>  <RMSD>
0.459

$$$$
ligand
 OpenBabel11021811513D
libRbt.so/2013.1/901 2013/11/27
 13 14  0  0  0  0  0  0  0  0999 V2000
   34.1425   29.6101  108.1286 N   0  0  0  0  0  0  0  0  0  0  0  0
   34.0876   30.8446  108.8159 C   0  0  0  0  0  0  0  0  0  0  0  0
   35.3137   31.4741  109.2362 N   0  0  0  0  0  0  0  0  0  0  0  0
   32.8926   31.4570  109.0936 N   0  0  0  0  0  0  0  0  0  0  0  0
   31.6722   30.8876  108.7074 C   0  0  0  0  0  0  0  0  0  0  0  0
   31.6822   29.6309  108.0055 C   0  0  0  0  0  0  0  0  0  0  0  0
   32.9698   28.9963  107.7211 C   0  0  0  0  0  0  0  0  0  0  0  0
   33.0193   27.7954  107.0528 O   0  0  0  0  0  0  0  0  0  0  0  0
   30.2919   29.2996  107.7469 C   0  0  0  0  0  0  0  0  0  0  0  0
   29.5264   30.3383  108.2782 C   0  0  0  0  0  0  0  0  0  0  0  0
   30.3534   31.2785  108.8508 N   0  0  0  0  0  0  0  0  0  0  0  0
   29.7833   28.0826  107.0340 C   0  0  0  0  0  0  0  0  0  0  0  0
   30.6114   27.8279  105.8697 N   0  0  0  0  0  0  0  0  0  0  0  0
  1  2  1  0  0  0  0
  1  7  1  0  0  0  0
  2  3  1  0  0  0  0
  2  4  2  0  0  0  0
  4  5  1  0  0  0  0
  5  6  2  0  0  0  0
  5 11  1  0  0  0  0
  6  7  1  0  0  0  0
  6  9  1  0  0  0  0
  7  8  2  0  0  0  0
  9 10  2  0  0  0  0
  9 12  1  0  0  0  0
 10 11  1  0  0  0  0
 12 13  1  0  0  0  0
M  END
>  <CHROM.1>
2.40806612,-42.48218667,-149.93632177,32.09121078,29.77655097,108.01345913
-0.65593321,0.06050694,-2.55042696

>  <Name>
ligand

>  <RI>
1.99388e+07

>  <Rbt.Current_Directory>
/home/itssahil/PROJECTS/Mol_Feturizer/New_Systems/rnas/4RZD

>  <Rbt.Executable>
rbdock ($Id: //depot/dev/client3/rdock/2013.1/src/exe/rbdock.cxx#4 $)

>  <Rbt.Library>
libRbt.so (2013.1, Build901 2013/11/27)

>  <Rbt.Parameter_File>
/export/apps/rDock/src/rDock_2013.1_src/data/scripts/dock_solv.prm

>  <Rbt.Receptor>
prm/pocket_docking_2.prm

>  <SCORE>
-50.4129

>  <SCORE.INTER>
-48.8033

>  <SCORE.INTER.CONST>
1

>  <SCORE.INTER.POLAR>
-4.83897

>  <SCORE.INTER.ROT>
3

>  <SCORE.INTER.SOLV>
9.90303

>  <SCORE.INTER.VDW>
-25.3066

>  <SCORE.INTER.norm>
-3.7541

>  <SCORE.INTRA>
-1.70186

>  <SCORE.INTRA.DIHEDRAL>
-1.17791

>  <SCORE.INTRA.DIHEDRAL.0>
4.88905

>  <SCORE.INTRA.POLAR>
-0.386983

>  <SCORE.INTRA.POLAR.0>
0

>  <SCORE.INTRA.REPUL>
0

>  <SCORE.INTRA.REPUL.0>
0

>  <SCORE.INTRA.SOLV>
0.18937

>  <SCORE.INTRA.SOLV.lig_0>
-15.1033

>  <SCORE.INTRA.VDW>
0.108152

>  <SCORE.INTRA.VDW.0>
-0.755285

>  <SCORE.INTRA.norm>
-0.130912

>  <SCORE.RESTR>
0.0922209

>  <SCORE.RESTR.CAVITY>
0.0922209

>  <SCORE.RESTR.norm>
0.00709391

>  <SCORE.SYSTEM>
0

>  <SCORE.SYSTEM.CONST>
0

>  <SCORE.SYSTEM.DIHEDRAL>
0

>  <SCORE.SYSTEM.SOLV>
0

>  <SCORE.SYSTEM.norm>
0

>  <SCORE.heavy>
13

>  <SCORE.norm>
-3.87792

>  <RMSD>
0.462

$$$$
ligand
 OpenBabel11021811513D
libRbt.so/2013.1/901 2013/11/27
 13 14  0  0  0  0  0  0  0  0999 V2000
   34.2854   29.7252  108.1729 N   0  0  0  0  0  0  0  0  0  0  0  0
   34.1755   31.0190  108.7324 C   0  0  0  0  0  0  0  0  0  0  0  0
   35.3719   31.7724  109.0104 N   0  0  0  0  0  0  0  0  0  0  0  0
   32.9547   31.5741  109.0186 N   0  0  0  0  0  0  0  0  0  0  0  0
   31.7613   30.8845  108.7680 C   0  0  0  0  0  0  0  0  0  0  0  0
   31.8274   29.5639  108.1991 C   0  0  0  0  0  0  0  0  0  0  0  0
   33.1416   28.9924  107.9029 C   0  0  0  0  0  0  0  0  0  0  0  0
   33.2447   27.7335  107.3592 O   0  0  0  0  0  0  0  0  0  0  0  0
   30.4538   29.1123  108.0612 C   0  0  0  0  0  0  0  0  0  0  0  0
   29.6425   30.1466  108.5293 C   0  0  0  0  0  0  0  0  0  0  0  0
   30.4266   31.1970  108.9511 N   0  0  0  0  0  0  0  0  0  0  0  0
   29.9999   27.7943  107.5090 C   0  0  0  0  0  0  0  0  0  0  0  0
   29.9672   27.8673  106.0599 N   0  0  0  0  0  0  0  0  0  0  0  0
  1  2  1  0  0  0  0
  1  7  1  0  0  0  0
  2  3  1  0  0  0  0
  2  4  2  0  0  0  0
  4  5  1  0  0  0  0
  5  6  2  0  0  0  0
  5 11  1  0  0  0  0
  6  7  1  0  0  0  0
  6  9  1  0  0  0  0
  7  8  2  0  0  0  0
  9 10  2  0  0  0  0
  9 12  1  0  0  0  0
 10 11  1  0  0  0  0
 12 13  1  0  0  0  0
M  END
>  <CHROM.1>
-10.33029078,-82.73947872,37.65428905,32.14922220,29.78308771,108.14158271
-0.61942888,0.00668542,-2.63120334

>  <Name>
ligand

>  <RI>
1.99388e+07

>  <Rbt.Current_Directory>
/home/itssahil/PROJECTS/Mol_Feturizer/New_Systems/rnas/4RZD

>  <Rbt.Executable>
rbdock ($Id: //depot/dev/client3/rdock/2013.1/src/exe/rbdock.cxx#4 $)

>  <Rbt.Library>
libRbt.so (2013.1, Build901 2013/11/27)

>  <Rbt.Parameter_File>
/export/apps/rDock/src/rDock_2013.1_src/data/scripts/dock_solv.prm

>  <Rbt.Receptor>
prm/pocket_docking_2.prm

>  <SCORE>
-49.4959

>  <SCORE.INTER>
-48.6607

>  <SCORE.INTER.CONST>
1

>  <SCORE.INTER.POLAR>
-4.90877

>  <SCORE.INTER.ROT>
3

>  <SCORE.INTER.SOLV>
10.3024

>  <SCORE.INTER.VDW>
-25.112

>  <SCORE.INTER.norm>
-3.74313

>  <SCORE.INTRA>
-0.835212

>  <SCORE.INTRA.DIHEDRAL>
-1.7086

>  <SCORE.INTRA.DIHEDRAL.0>
4.88905

>  <SCORE.INTRA.POLAR>
0

>  <SCORE.INTRA.POLAR.0>
0

>  <SCORE.INTRA.REPUL>
0

>  <SCORE.INTRA.REPUL.0>
0

>  <SCORE.INTRA.SOLV>
-0.328449

>  <SCORE.INTRA.SOLV.lig_0>
-15.1033

>  <SCORE.INTRA.VDW>
0.18331

>  <SCORE.INTRA.VDW.0>
-0.755285

>  <SCORE.INTRA.norm>
-0.0642471

>  <SCORE.RESTR>
0

>  <SCORE.RESTR.CAVITY>
0

>  <SCORE.RESTR.norm>
0

>  <SCORE.SYSTEM>
0

>  <SCORE.SYSTEM.CONST>
0

>  <SCORE.SYSTEM.DIHEDRAL>
0

>  <SCORE.SYSTEM.SOLV>
0

>  <SCORE.SYSTEM.norm>
0

>  <SCORE.heavy>
13

>  <SCORE.norm>
-3.80738

>  <RMSD>
0.463

$$$$
ligand
 OpenBabel11021811513D
libRbt.so/2013.1/901 2013/11/27
 13 14  0  0  0  0  0  0  0  0999 V2000
   34.1521   29.6399  108.0824 N   0  0  0  0  0  0  0  0  0  0  0  0
   34.0943   30.8728  108.7722 C   0  0  0  0  0  0  0  0  0  0  0  0
   35.3194   31.5103  109.1834 N   0  0  0  0  0  0  0  0  0  0  0  0
   32.8973   31.4763  109.0609 N   0  0  0  0  0  0  0  0  0  0  0  0
   31.6778   30.8990  108.6839 C   0  0  0  0  0  0  0  0  0  0  0  0
   31.6908   29.6436  107.9799 C   0  0  0  0  0  0  0  0  0  0  0  0
   32.9804   29.0185  107.6836 C   0  0  0  0  0  0  0  0  0  0  0  0
   33.0328   27.8190  107.0130 O   0  0  0  0  0  0  0  0  0  0  0  0
   30.3008   29.3029  107.7322 C   0  0  0  0  0  0  0  0  0  0  0  0
   29.5324   30.3353  108.2716 C   0  0  0  0  0  0  0  0  0  0  0  0
   30.3576   31.2804  108.8389 N   0  0  0  0  0  0  0  0  0  0  0  0
   29.7948   28.0835  107.0215 C   0  0  0  0  0  0  0  0  0  0  0  0
   30.6221   27.8297  105.8565 N   0  0  0  0  0  0  0  0  0  0  0  0
  1  2  1  0  0  0  0
  1  7  1  0  0  0  0
  2  3  1  0  0  0  0
  2  4  2  0  0  0  0
  4  5  1  0  0  0  0
  5  6  2  0  0  0  0
  5 11  1  0  0  0  0
  6  7  1  0  0  0  0
  6  9  1  0  0  0  0
  7  8  2  0  0  0  0
  9 10  2  0  0  0  0
  9 12  1  0  0  0  0
 10 11  1  0  0  0  0
 12 13  1  0  0  0  0
M  END
>  <CHROM.1>
-4.84736309,-41.99001461,-149.63034219,32.09945101,29.79143476,107.98522767
-0.65753344,0.04969337,-2.54981115

>  <Name>
ligand

>  <RI>
1.99388e+07

>  <Rbt.Current_Directory>
/home/itssahil/PROJECTS/Mol_Feturizer/New_Systems/rnas/4RZD

>  <Rbt.Executable>
rbdock ($Id: //depot/dev/client3/rdock/2013.1/src/exe/rbdock.cxx#4 $)

>  <Rbt.Library>
libRbt.so (2013.1, Build901 2013/11/27)

>  <Rbt.Parameter_File>
/export/apps/rDock/src/rDock_2013.1_src/data/scripts/dock_solv.prm

>  <Rbt.Receptor>
prm/pocket_docking_2.prm

>  <SCORE>
-50.5142

>  <SCORE.INTER>
-48.9642

>  <SCORE.INTER.CONST>
1

>  <SCORE.INTER.POLAR>
-4.85259

>  <SCORE.INTER.ROT>
3

>  <SCORE.INTER.SOLV>
9.94062

>  <SCORE.INTER.VDW>
-25.381

>  <SCORE.INTER.norm>
-3.76648

>  <SCORE.INTRA>
-1.6605

>  <SCORE.INTRA.DIHEDRAL>
-1.15822

>  <SCORE.INTRA.DIHEDRAL.0>
4.88905

>  <SCORE.INTRA.POLAR>
-0.38252

>  <SCORE.INTRA.POLAR.0>
0

>  <SCORE.INTRA.REPUL>
0

>  <SCORE.INTRA.REPUL.0>
0

>  <SCORE.INTRA.SOLV>
0.194401

>  <SCORE.INTRA.SOLV.lig_0>
-15.1033

>  <SCORE.INTRA.VDW>
0.12197

>  <SCORE.INTRA.VDW.0>
-0.755285

>  <SCORE.INTRA.norm>
-0.127731

>  <SCORE.RESTR>
0.110503

>  <SCORE.RESTR.CAVITY>
0.110503

>  <SCORE.RESTR.norm>
0.00850024

>  <SCORE.SYSTEM>
0

>  <SCORE.SYSTEM.CONST>
0

>  <SCORE.SYSTEM.DIHEDRAL>
0

>  <SCORE.SYSTEM.SOLV>
0

>  <SCORE.SYSTEM.norm>
0

>  <SCORE.heavy>
13

>  <SCORE.norm>
-3.88571

>  <RMSD>
0.463

$$$$
ligand
 OpenBabel11021811513D
libRbt.so/2013.1/901 2013/11/27
 13 14  0  0  0  0  0  0  0  0999 V2000
   34.3033   29.7311  108.1615 N   0  0  0  0  0  0  0  0  0  0  0  0
   34.1886   31.0335  108.6998 C   0  0  0  0  0  0  0  0  0  0  0  0
   35.3818   31.7989  108.9576 N   0  0  0  0  0  0  0  0  0  0  0  0
   32.9660   31.5855  108.9844 N   0  0  0  0  0  0  0  0  0  0  0  0
   31.7755   30.8843  108.7530 C   0  0  0  0  0  0  0  0  0  0  0  0
   31.8466   29.5548  108.2059 C   0  0  0  0  0  0  0  0  0  0  0  0
   33.1626   28.9867  107.9110 C   0  0  0  0  0  0  0  0  0  0  0  0
   33.2704   27.7194  107.3879 O   0  0  0  0  0  0  0  0  0  0  0  0
   30.4751   29.0923  108.0842 C   0  0  0  0  0  0  0  0  0  0  0  0
   29.6601   30.1292  108.5400 C   0  0  0  0  0  0  0  0  0  0  0  0
   30.4400   31.1914  108.9391 N   0  0  0  0  0  0  0  0  0  0  0  0
   30.0263   27.7623  107.5571 C   0  0  0  0  0  0  0  0  0  0  0  0
   29.9382   27.8252  106.1098 N   0  0  0  0  0  0  0  0  0  0  0  0
  1  2  1  0  0  0  0
  1  7  1  0  0  0  0
  2  3  1  0  0  0  0
  2  4  2  0  0  0  0
  4  5  1  0  0  0  0
  5  6  2  0  0  0  0
  5 11  1  0  0  0  0
  6  7  1  0  0  0  0
  6  9  1  0  0  0  0
  7  8  2  0  0  0  0
  9 10  2  0  0  0  0
  9 12  1  0  0  0  0
 10 11  1  0  0  0  0
 12 13  1  0  0  0  0
M  END
>  <CHROM.1>
-10.58537019,-84.75263875,39.10138063,32.16247983,29.77634973,108.14293220
-0.61845026,-0.00019668,-2.64891075

>  <Name>
ligand

>  <RI>
1.0531e+07

>  <Rbt.Current_Directory>
/home/itssahil/PROJECTS/Mol_Feturizer/New_Systems/rnas/4RZD

>  <Rbt.Executable>
rbdock ($Id: //depot/dev/client3/rdock/2013.1/src/exe/rbdock.cxx#4 $)

>  <Rbt.Library>
libRbt.so (2013.1, Build901 2013/11/27)

>  <Rbt.Parameter_File>
/export/apps/rDock/src/rDock_2013.1_src/data/scripts/dock_solv.prm

>  <Rbt.Receptor>
prm/pocket_docking_8.prm

>  <SCORE>
-49.4782

>  <SCORE.INTER>
-48.584

>  <SCORE.INTER.CONST>
1

>  <SCORE.INTER.POLAR>
-4.91047

>  <SCORE.INTER.ROT>
3

>  <SCORE.INTER.SOLV>
10.2547

>  <SCORE.INTER.VDW>
-25.0393

>  <SCORE.INTER.norm>
-3.73723

>  <SCORE.INTRA>
-0.894223

>  <SCORE.INTRA.DIHEDRAL>
-1.79173

>  <SCORE.INTRA.DIHEDRAL.0>
4.88905

>  <SCORE.INTRA.POLAR>
0

>  <SCORE.INTRA.POLAR.0>
0

>  <SCORE.INTRA.REPUL>
0

>  <SCORE.INTRA.REPUL.0>
0

>  <SCORE.INTRA.SOLV>
-0.35374

>  <SCORE.INTRA.SOLV.lig_0>
-15.1033

>  <SCORE.INTRA.VDW>
0.178513

>  <SCORE.INTRA.VDW.0>
-0.755285

>  <SCORE.INTRA.norm>
-0.0687864

>  <SCORE.RESTR>
0

>  <SCORE.RESTR.CAVITY>
0

>  <SCORE.RESTR.norm>
0

>  <SCORE.SYSTEM>
0

>  <SCORE.SYSTEM.CONST>
0

>  <SCORE.SYSTEM.DIHEDRAL>
0

>  <SCORE.SYSTEM.SOLV>
0

>  <SCORE.SYSTEM.norm>
0

>  <SCORE.heavy>
13

>  <SCORE.norm>
-3.80601

>  <RMSD>
0.463

$$$$
ligand
 OpenBabel11021811513D
libRbt.so/2013.1/901 2013/11/27
 13 14  0  0  0  0  0  0  0  0999 V2000
   34.3167   29.7200  108.1956 N   0  0  0  0  0  0  0  0  0  0  0  0
   34.2069   31.0243  108.7304 C   0  0  0  0  0  0  0  0  0  0  0  0
   35.4038   31.7773  109.0071 N   0  0  0  0  0  0  0  0  0  0  0  0
   32.9857   31.5897  108.9938 N   0  0  0  0  0  0  0  0  0  0  0  0
   31.7919   30.9009  108.7433 C   0  0  0  0  0  0  0  0  0  0  0  0
   31.8578   29.5699  108.1992 C   0  0  0  0  0  0  0  0  0  0  0  0
   33.1725   28.9875  107.9270 C   0  0  0  0  0  0  0  0  0  0  0  0
   33.2754   27.7184  107.4073 O   0  0  0  0  0  0  0  0  0  0  0  0
   30.4837   29.1219  108.0552 C   0  0  0  0  0  0  0  0  0  0  0  0
   29.6724   30.1681  108.4959 C   0  0  0  0  0  0  0  0  0  0  0  0
   30.4568   31.2225  108.9068 N   0  0  0  0  0  0  0  0  0  0  0  0
   30.0296   27.7961  107.5223 C   0  0  0  0  0  0  0  0  0  0  0  0
   29.9492   27.8632  106.0748 N   0  0  0  0  0  0  0  0  0  0  0  0
  1  2  1  0  0  0  0
  1  7  1  0  0  0  0
  2  3  1  0  0  0  0
  2  4  2  0  0  0  0
  4  5  1  0  0  0  0
  5  6  2  0  0  0  0
  5 11  1  0  0  0  0
  6  7  1  0  0  0  0
  6  9  1  0  0  0  0
  7  8  2  0  0  0  0
  9 10  2  0  0  0  0
  9 12  1  0  0  0  0
 10 11  1  0  0  0  0
 12 13  1  0  0  0  0
M  END
>  <CHROM.1>
-2.21896912,-85.50875499,38.04410451,32.17539903,29.78852356,108.14137060
-0.61560079,0.01988540,-2.65019232

>  <Name>
ligand

>  <RI>
2.73617e+07

>  <Rbt.Current_Directory>
/home/itssahil/PROJECTS/Mol_Feturizer/New_Systems/rnas/4RZD

>  <Rbt.Executable>
rbdock ($Id: //depot/dev/client3/rdock/2013.1/src/exe/rbdock.cxx#4 $)

>  <Rbt.Library>
libRbt.so (2013.1, Build901 2013/11/27)

>  <Rbt.Parameter_File>
/export/apps/rDock/src/rDock_2013.1_src/data/scripts/dock_solv.prm

>  <Rbt.Receptor>
prm/pocket_docking_6.prm

>  <SCORE>
-49.3553

>  <SCORE.INTER>
-48.4972

>  <SCORE.INTER.CONST>
1

>  <SCORE.INTER.POLAR>
-4.91047

>  <SCORE.INTER.ROT>
3

>  <SCORE.INTER.SOLV>
10.3126

>  <SCORE.INTER.VDW>
-25.0007

>  <SCORE.INTER.norm>
-3.73055

>  <SCORE.INTRA>
-0.858163

>  <SCORE.INTRA.DIHEDRAL>
-1.73226

>  <SCORE.INTRA.DIHEDRAL.0>
4.88905

>  <SCORE.INTRA.POLAR>
0

>  <SCORE.INTRA.POLAR.0>
0

>  <SCORE.INTRA.REPUL>
0

>  <SCORE.INTRA.REPUL.0>
0

>  <SCORE.INTRA.SOLV>
-0.364711

>  <SCORE.INTRA.SOLV.lig_0>
-15.1033

>  <SCORE.INTRA.VDW>
0.190321

>  <SCORE.INTRA.VDW.0>
-0.755285

>  <SCORE.INTRA.norm>
-0.0660125

>  <SCORE.RESTR>
0

>  <SCORE.RESTR.CAVITY>
0

>  <SCORE.RESTR.norm>
0

>  <SCORE.SYSTEM>
0

>  <SCORE.SYSTEM.CONST>
0

>  <SCORE.SYSTEM.DIHEDRAL>
0

>  <SCORE.SYSTEM.SOLV>
0

>  <SCORE.SYSTEM.norm>
0

>  <SCORE.heavy>
13

>  <SCORE.norm>
-3.79656

>  <RMSD>
0.464

$$$$
ligand
 OpenBabel11021811513D
libRbt.so/2013.1/901 2013/11/27
 13 14  0  0  0  0  0  0  0  0999 V2000
   34.1523   29.6291  108.0951 N   0  0  0  0  0  0  0  0  0  0  0  0
   34.0971   30.8594  108.7896 C   0  0  0  0  0  0  0  0  0  0  0  0
   35.3234   31.4914  109.2056 N   0  0  0  0  0  0  0  0  0  0  0  0
   32.9015   31.4656  109.0785 N   0  0  0  0  0  0  0  0  0  0  0  0
   31.6809   30.8936  108.6970 C   0  0  0  0  0  0  0  0  0  0  0  0
   31.6913   29.6409  107.9880 C   0  0  0  0  0  0  0  0  0  0  0  0
   32.9795   29.0130  107.6917 C   0  0  0  0  0  0  0  0  0  0  0  0
   33.0293   27.8160  107.0163 O   0  0  0  0  0  0  0  0  0  0  0  0
   30.3006   29.3056  107.7364 C   0  0  0  0  0  0  0  0  0  0  0  0
   29.5346   30.3383  108.2784 C   0  0  0  0  0  0  0  0  0  0  0  0
   30.3616   31.2785  108.8510 N   0  0  0  0  0  0  0  0  0  0  0  0
   29.7921   28.0907  107.0199 C   0  0  0  0  0  0  0  0  0  0  0  0
   30.6204   27.8393  105.8550 N   0  0  0  0  0  0  0  0  0  0  0  0
  1  2  1  0  0  0  0
  1  7  1  0  0  0  0
  2  3  1  0  0  0  0
  2  4  2  0  0  0  0
  4  5  1  0  0  0  0
  5  6  2  0  0  0  0
  5 11  1  0  0  0  0
  6  7  1  0  0  0  0
  6  9  1  0  0  0  0
  7  8  2  0  0  0  0
  9 10  2  0  0  0  0
  9 12  1  0  0  0  0
 10 11  1  0  0  0  0
 12 13  1  0  0  0  0
M  END
>  <CHROM.1>
-2.45555256,-42.01871245,-150.13148891,32.10036302,29.78751433,107.99465804
-0.65593619,0.05291944,-2.54577548

>  <Name>
ligand

>  <RI>
1.99388e+07

>  <Rbt.Current_Directory>
/home/itssahil/PROJECTS/Mol_Feturizer/New_Systems/rnas/4RZD

>  <Rbt.Executable>
rbdock ($Id: //depot/dev/client3/rdock/2013.1/src/exe/rbdock.cxx#4 $)

>  <Rbt.Library>
libRbt.so (2013.1, Build901 2013/11/27)

>  <Rbt.Parameter_File>
/export/apps/rDock/src/rDock_2013.1_src/data/scripts/dock_solv.prm

>  <Rbt.Receptor>
prm/pocket_docking_2.prm

>  <SCORE>
-50.5365

>  <SCORE.INTER>
-48.9554

>  <SCORE.INTER.CONST>
1

>  <SCORE.INTER.POLAR>
-4.85373

>  <SCORE.INTER.ROT>
3

>  <SCORE.INTER.SOLV>
9.95427

>  <SCORE.INTER.VDW>
-25.376

>  <SCORE.INTER.norm>
-3.7658

>  <SCORE.INTRA>
-1.69386

>  <SCORE.INTRA.DIHEDRAL>
-1.18973

>  <SCORE.INTRA.DIHEDRAL.0>
4.88905

>  <SCORE.INTRA.POLAR>
-0.387587

>  <SCORE.INTRA.POLAR.0>
0

>  <SCORE.INTRA.REPUL>
0

>  <SCORE.INTRA.REPUL.0>
0

>  <SCORE.INTRA.SOLV>
0.195098

>  <SCORE.INTRA.SOLV.lig_0>
-15.1033

>  <SCORE.INTRA.VDW>
0.121249

>  <SCORE.INTRA.VDW.0>
-0.755285

>  <SCORE.INTRA.norm>
-0.130297

>  <SCORE.RESTR>
0.112796

>  <SCORE.RESTR.CAVITY>
0.112796

>  <SCORE.RESTR.norm>
0.00867662

>  <SCORE.SYSTEM>
0

>  <SCORE.SYSTEM.CONST>
0

>  <SCORE.SYSTEM.DIHEDRAL>
0

>  <SCORE.SYSTEM.SOLV>
0

>  <SCORE.SYSTEM.norm>
0

>  <SCORE.heavy>
13

>  <SCORE.norm>
-3.88742

>  <RMSD>
0.465

$$$$
ligand
 OpenBabel11021811513D
libRbt.so/2013.1/901 2013/11/27
 13 14  0  0  0  0  0  0  0  0999 V2000
   34.3112   29.7141  108.1417 N   0  0  0  0  0  0  0  0  0  0  0  0
   34.2059   31.0101  108.6971 C   0  0  0  0  0  0  0  0  0  0  0  0
   35.4040   31.7686  108.9528 N   0  0  0  0  0  0  0  0  0  0  0  0
   32.9879   31.5625  109.0002 N   0  0  0  0  0  0  0  0  0  0  0  0
   31.7930   30.8679  108.7716 C   0  0  0  0  0  0  0  0  0  0  0  0
   31.8544   29.5450  108.2075 C   0  0  0  0  0  0  0  0  0  0  0  0
   33.1657   28.9765  107.8929 C   0  0  0  0  0  0  0  0  0  0  0  0
   33.2643   27.7155  107.3532 O   0  0  0  0  0  0  0  0  0  0  0  0
   30.4804   29.0884  108.0934 C   0  0  0  0  0  0  0  0  0  0  0  0
   29.6732   30.1222  108.5697 C   0  0  0  0  0  0  0  0  0  0  0  0
   30.4604   31.1769  108.9745 N   0  0  0  0  0  0  0  0  0  0  0  0
   30.0221   27.7665  107.5542 C   0  0  0  0  0  0  0  0  0  0  0  0
   29.9120   27.8501  106.1095 N   0  0  0  0  0  0  0  0  0  0  0  0
  1  2  1  0  0  0  0
  1  7  1  0  0  0  0
  2  3  1  0  0  0  0
  2  4  2  0  0  0  0
  4  5  1  0  0  0  0
  5  6  2  0  0  0  0
  5 11  1  0  0  0  0
  6  7  1  0  0  0  0
  6  9  1  0  0  0  0
  7  8  2  0  0  0  0
  9 10  2  0  0  0  0
  9 12  1  0  0  0  0
 10 11  1  0  0  0  0
 12 13  1  0  0  0  0
M  END
>  <CHROM.1>
171.24611240,-85.12353133,37.96870759,32.16959003,29.76654538,108.14434664
-0.61023800,-0.00685331,-2.63661136

>  <Name>
ligand

>  <RI>
2.51964e+07

>  <Rbt.Current_Directory>
/home/itssahil/PROJECTS/Mol_Feturizer/New_Systems/rnas/4RZD

>  <Rbt.Executable>
rbdock ($Id: //depot/dev/client3/rdock/2013.1/src/exe/rbdock.cxx#4 $)

>  <Rbt.Library>
libRbt.so (2013.1, Build901 2013/11/27)

>  <Rbt.Parameter_File>
/export/apps/rDock/src/rDock_2013.1_src/data/scripts/dock_solv.prm

>  <Rbt.Receptor>
prm/pocket_docking_4.prm

>  <SCORE>
-49.4983

>  <SCORE.INTER>
-48.6442

>  <SCORE.INTER.CONST>
1

>  <SCORE.INTER.POLAR>
-4.91

>  <SCORE.INTER.ROT>
3

>  <SCORE.INTER.SOLV>
10.3319

>  <SCORE.INTER.VDW>
-25.1068

>  <SCORE.INTER.norm>
-3.74186

>  <SCORE.INTRA>
-0.854146

>  <SCORE.INTRA.DIHEDRAL>
-1.7278

>  <SCORE.INTRA.DIHEDRAL.0>
4.88905

>  <SCORE.INTRA.POLAR>
0

>  <SCORE.INTRA.POLAR.0>
0

>  <SCORE.INTRA.REPUL>
0

>  <SCORE.INTRA.REPUL.0>
0

>  <SCORE.INTRA.SOLV>
-0.359772

>  <SCORE.INTRA.SOLV.lig_0>
-15.1033

>  <SCORE.INTRA.VDW>
0.189642

>  <SCORE.INTRA.VDW.0>
-0.755285

>  <SCORE.INTRA.norm>
-0.0657036

>  <SCORE.RESTR>
0

>  <SCORE.RESTR.CAVITY>
0

>  <SCORE.RESTR.norm>
0

>  <SCORE.SYSTEM>
0

>  <SCORE.SYSTEM.CONST>
0

>  <SCORE.SYSTEM.DIHEDRAL>
0

>  <SCORE.SYSTEM.SOLV>
0

>  <SCORE.SYSTEM.norm>
0

>  <SCORE.heavy>
13

>  <SCORE.norm>
-3.80756

>  <RMSD>
0.465

$$$$
ligand
 OpenBabel11021811513D
libRbt.so/2013.1/901 2013/11/27
 13 14  0  0  0  0  0  0  0  0999 V2000
   34.2742   29.7087  108.1416 N   0  0  0  0  0  0  0  0  0  0  0  0
   34.1802   31.0104  108.6856 C   0  0  0  0  0  0  0  0  0  0  0  0
   35.3856   31.7547  108.9488 N   0  0  0  0  0  0  0  0  0  0  0  0
   32.9666   31.5815  108.9705 N   0  0  0  0  0  0  0  0  0  0  0  0
   31.7650   30.9013  108.7339 C   0  0  0  0  0  0  0  0  0  0  0  0
   31.8148   29.5732  108.1809 C   0  0  0  0  0  0  0  0  0  0  0  0
   33.1217   28.9846  107.8858 C   0  0  0  0  0  0  0  0  0  0  0  0
   33.2093   27.7180  107.3572 O   0  0  0  0  0  0  0  0  0  0  0  0
   30.4361   29.1342  108.0549 C   0  0  0  0  0  0  0  0  0  0  0  0
   29.6377   30.1825  108.5138 C   0  0  0  0  0  0  0  0  0  0  0  0
   30.4345   31.2298  108.9191 N   0  0  0  0  0  0  0  0  0  0  0  0
   29.9661   27.8143  107.5210 C   0  0  0  0  0  0  0  0  0  0  0  0
   29.9581   27.8592  106.0705 N   0  0  0  0  0  0  0  0  0  0  0  0
  1  2  1  0  0  0  0
  1  7  1  0  0  0  0
  2  3  1  0  0  0  0
  2  4  2  0  0  0  0
  4  5  1  0  0  0  0
  5  6  2  0  0  0  0
  5 11  1  0  0  0  0
  6  7  1  0  0  0  0
  6  9  1  0  0  0  0
  7  8  2  0  0  0  0
  9 10  2  0  0  0  0
  9 12  1  0  0  0  0
 10 11  1  0  0  0  0
 12 13  1  0  0  0  0
M  END
>  <CHROM.1>
-8.67114332,-81.37876277,36.90373977,32.14144811,29.78736897,108.11914216
-0.61055978,0.00644231,-2.64296400

>  <Name>
ligand

>  <RI>
2.73617e+07

>  <Rbt.Current_Directory>
/home/itssahil/PROJECTS/Mol_Feturizer/New_Systems/rnas/4RZD

>  <Rbt.Executable>
rbdock ($Id: //depot/dev/client3/rdock/2013.1/src/exe/rbdock.cxx#4 $)

>  <Rbt.Library>
libRbt.so (2013.1, Build901 2013/11/27)

>  <Rbt.Parameter_File>
/export/apps/rDock/src/rDock_2013.1_src/data/scripts/dock_solv.prm

>  <Rbt.Receptor>
prm/pocket_docking_6.prm

>  <SCORE>
-49.4367

>  <SCORE.INTER>
-48.6339

>  <SCORE.INTER.CONST>
1

>  <SCORE.INTER.POLAR>
-4.91281

>  <SCORE.INTER.ROT>
3

>  <SCORE.INTER.SOLV>
10.2862

>  <SCORE.INTER.VDW>
-25.0753

>  <SCORE.INTER.norm>
-3.74107

>  <SCORE.INTRA>
-0.802764

>  <SCORE.INTRA.DIHEDRAL>
-1.66405

>  <SCORE.INTRA.DIHEDRAL.0>
4.88905

>  <SCORE.INTRA.POLAR>
0

>  <SCORE.INTRA.POLAR.0>
0

>  <SCORE.INTRA.REPUL>
0

>  <SCORE.INTRA.REPUL.0>
0

>  <SCORE.INTRA.SOLV>
-0.310974

>  <SCORE.INTRA.SOLV.lig_0>
-15.1033

>  <SCORE.INTRA.VDW>
0.184748

>  <SCORE.INTRA.VDW.0>
-0.755285

>  <SCORE.INTRA.norm>
-0.0617511

>  <SCORE.RESTR>
0

>  <SCORE.RESTR.CAVITY>
0

>  <SCORE.RESTR.norm>
0

>  <SCORE.SYSTEM>
0

>  <SCORE.SYSTEM.CONST>
0

>  <SCORE.SYSTEM.DIHEDRAL>
0

>  <SCORE.SYSTEM.SOLV>
0

>  <SCORE.SYSTEM.norm>
0

>  <SCORE.heavy>
13

>  <SCORE.norm>
-3.80282

>  <RMSD>
0.465

$$$$
ligand
 OpenBabel11021811513D
libRbt.so/2013.1/901 2013/11/27
 13 14  0  0  0  0  0  0  0  0999 V2000
   34.3408   29.7173  108.2295 N   0  0  0  0  0  0  0  0  0  0  0  0
   34.2215   31.0032  108.8053 C   0  0  0  0  0  0  0  0  0  0  0  0
   35.4129   31.7558  109.1060 N   0  0  0  0  0  0  0  0  0  0  0  0
   32.9963   31.5510  109.0863 N   0  0  0  0  0  0  0  0  0  0  0  0
   31.8075   30.8618  108.8140 C   0  0  0  0  0  0  0  0  0  0  0  0
   31.8831   29.5492  108.2279 C   0  0  0  0  0  0  0  0  0  0  0  0
   33.2020   28.9853  107.9376 C   0  0  0  0  0  0  0  0  0  0  0  0
   33.3142   27.7342  107.3779 O   0  0  0  0  0  0  0  0  0  0  0  0
   30.5123   29.0960  108.0695 C   0  0  0  0  0  0  0  0  0  0  0  0
   29.6934   30.1217  108.5431 C   0  0  0  0  0  0  0  0  0  0  0  0
   30.4701   31.1682  108.9873 N   0  0  0  0  0  0  0  0  0  0  0  0
   30.0679   27.7845  107.4947 C   0  0  0  0  0  0  0  0  0  0  0  0
   29.9646   27.9036  106.0520 N   0  0  0  0  0  0  0  0  0  0  0  0
  1  2  1  0  0  0  0
  1  7  1  0  0  0  0
  2  3  1  0  0  0  0
  2  4  2  0  0  0  0
  4  5  1  0  0  0  0
  5  6  2  0  0  0  0
  5 11  1  0  0  0  0
  6  7  1  0  0  0  0
  6  9  1  0  0  0  0
  7  8  2  0  0  0  0
  9 10  2  0  0  0  0
  9 12  1  0  0  0  0
 10 11  1  0  0  0  0
 12 13  1  0  0  0  0
M  END
>  <CHROM.1>
-177.67546865,-86.48522568,37.48401158,32.19699895,29.77244530,108.17728065
-0.62015597,0.01697016,-2.61860143

>  <Name>
ligand

>  <RI>
1.0531e+07

>  <Rbt.Current_Directory>
/home/itssahil/PROJECTS/Mol_Feturizer/New_Systems/rnas/4RZD

>  <Rbt.Executable>
rbdock ($Id: //depot/dev/client3/rdock/2013.1/src/exe/rbdock.cxx#4 $)

>  <Rbt.Library>
libRbt.so (2013.1, Build901 2013/11/27)

>  <Rbt.Parameter_File>
/export/apps/rDock/src/rDock_2013.1_src/data/scripts/dock_solv.prm

>  <Rbt.Receptor>
prm/pocket_docking_8.prm

>  <SCORE>
-49.3442

>  <SCORE.INTER>
-48.504

>  <SCORE.INTER.CONST>
1

>  <SCORE.INTER.POLAR>
-4.90471

>  <SCORE.INTER.ROT>
3

>  <SCORE.INTER.SOLV>
10.403

>  <SCORE.INTER.VDW>
-25.0546

>  <SCORE.INTER.norm>
-3.73107

>  <SCORE.INTRA>
-0.840236

>  <SCORE.INTRA.DIHEDRAL>
-1.70027

>  <SCORE.INTRA.DIHEDRAL.0>
4.88905

>  <SCORE.INTRA.POLAR>
0

>  <SCORE.INTRA.POLAR.0>
0

>  <SCORE.INTRA.REPUL>
0

>  <SCORE.INTRA.REPUL.0>
0

>  <SCORE.INTRA.SOLV>
-0.378271

>  <SCORE.INTRA.SOLV.lig_0>
-15.1033

>  <SCORE.INTRA.VDW>
0.199036

>  <SCORE.INTRA.VDW.0>
-0.755285

>  <SCORE.INTRA.norm>
-0.0646336

>  <SCORE.RESTR>
0

>  <SCORE.RESTR.CAVITY>
0

>  <SCORE.RESTR.norm>
0

>  <SCORE.SYSTEM>
0

>  <SCORE.SYSTEM.CONST>
0

>  <SCORE.SYSTEM.DIHEDRAL>
0

>  <SCORE.SYSTEM.SOLV>
0

>  <SCORE.SYSTEM.norm>
0

>  <SCORE.heavy>
13

>  <SCORE.norm>
-3.79571

>  <RMSD>
0.465

$$$$
ligand
 OpenBabel11021811513D
libRbt.so/2013.1/901 2013/11/27
 13 14  0  0  0  0  0  0  0  0999 V2000
   34.3135   29.7399  108.1550 N   0  0  0  0  0  0  0  0  0  0  0  0
   34.1948   31.0369  108.7053 C   0  0  0  0  0  0  0  0  0  0  0  0
   35.3856   31.8048  108.9671 N   0  0  0  0  0  0  0  0  0  0  0  0
   32.9708   31.5814  108.9979 N   0  0  0  0  0  0  0  0  0  0  0  0
   31.7826   30.8774  108.7630 C   0  0  0  0  0  0  0  0  0  0  0  0
   31.8576   29.5532  108.2038 C   0  0  0  0  0  0  0  0  0  0  0  0
   33.1752   28.9932  107.9005 C   0  0  0  0  0  0  0  0  0  0  0  0
   33.2868   27.7311  107.3657 O   0  0  0  0  0  0  0  0  0  0  0  0
   30.4877   29.0862  108.0813 C   0  0  0  0  0  0  0  0  0  0  0  0
   29.6697   30.1157  108.5484 C   0  0  0  0  0  0  0  0  0  0  0  0
   30.4463   31.1774  108.9553 N   0  0  0  0  0  0  0  0  0  0  0  0
   30.0430   27.7593  107.5433 C   0  0  0  0  0  0  0  0  0  0  0  0
   29.9169   27.8450  106.1000 N   0  0  0  0  0  0  0  0  0  0  0  0
  1  2  1  0  0  0  0
  1  7  1  0  0  0  0
  2  3  1  0  0  0  0
  2  4  2  0  0  0  0
  4  5  1  0  0  0  0
  5  6  2  0  0  0  0
  5 11  1  0  0  0  0
  6  7  1  0  0  0  0
  6  9  1  0  0  0  0
  7  8  2  0  0  0  0
  9 10  2  0  0  0  0
  9 12  1  0  0  0  0
 10 11  1  0  0  0  0
 12 13  1  0  0  0  0
M  END
>  <CHROM.1>
-11.33300663,-86.24797761,38.62997775,32.16923307,29.77751216,108.14241067
-0.61814872,-0.00305232,-2.64071158

>  <Name>
ligand

>  <RI>
1.35221e+07

>  <Rbt.Current_Directory>
/home/itssahil/PROJECTS/Mol_Feturizer/New_Systems/rnas/4RZD

>  <Rbt.Executable>
rbdock ($Id: //depot/dev/client3/rdock/2013.1/src/exe/rbdock.cxx#4 $)

>  <Rbt.Library>
libRbt.so (2013.1, Build901 2013/11/27)

>  <Rbt.Parameter_File>
/export/apps/rDock/src/rDock_2013.1_src/data/scripts/dock_solv.prm

>  <Rbt.Receptor>
prm/pocket_docking_5.prm

>  <SCORE>
-49.4888

>  <SCORE.INTER>
-48.6073

>  <SCORE.INTER.CONST>
1

>  <SCORE.INTER.POLAR>
-4.91047

>  <SCORE.INTER.ROT>
3

>  <SCORE.INTER.SOLV>
10.3569

>  <SCORE.INTER.VDW>
-25.0889

>  <SCORE.INTER.norm>
-3.73902

>  <SCORE.INTRA>
-0.881549

>  <SCORE.INTRA.DIHEDRAL>
-1.76579

>  <SCORE.INTRA.DIHEDRAL.0>
4.88905

>  <SCORE.INTRA.POLAR>
0

>  <SCORE.INTRA.POLAR.0>
0

>  <SCORE.INTRA.REPUL>
0

>  <SCORE.INTRA.REPUL.0>
0

>  <SCORE.INTRA.SOLV>
-0.374277

>  <SCORE.INTRA.SOLV.lig_0>
-15.1033

>  <SCORE.INTRA.VDW>
0.188487

>  <SCORE.INTRA.VDW.0>
-0.755285

>  <SCORE.INTRA.norm>
-0.0678114

>  <SCORE.RESTR>
0

>  <SCORE.RESTR.CAVITY>
0

>  <SCORE.RESTR.norm>
0

>  <SCORE.SYSTEM>
0

>  <SCORE.SYSTEM.CONST>
0

>  <SCORE.SYSTEM.DIHEDRAL>
0

>  <SCORE.SYSTEM.SOLV>
0

>  <SCORE.SYSTEM.norm>
0

>  <SCORE.heavy>
13

>  <SCORE.norm>
-3.80683

>  <RMSD>
0.466

$$$$
ligand
 OpenBabel11021811513D
libRbt.so/2013.1/901 2013/11/27
 13 14  0  0  0  0  0  0  0  0999 V2000
   34.3148   29.7219  108.1421 N   0  0  0  0  0  0  0  0  0  0  0  0
   34.2061   31.0182  108.6963 C   0  0  0  0  0  0  0  0  0  0  0  0
   35.4024   31.7797  108.9519 N   0  0  0  0  0  0  0  0  0  0  0  0
   32.9867   31.5679  108.9983 N   0  0  0  0  0  0  0  0  0  0  0  0
   31.7936   30.8703  108.7697 C   0  0  0  0  0  0  0  0  0  0  0  0
   31.8585   29.5470  108.2069 C   0  0  0  0  0  0  0  0  0  0  0  0
   33.1713   28.9814  107.8935 C   0  0  0  0  0  0  0  0  0  0  0  0
   33.2731   27.7200  107.3551 O   0  0  0  0  0  0  0  0  0  0  0  0
   30.4856   29.0870  108.0925 C   0  0  0  0  0  0  0  0  0  0  0  0
   29.6757   30.1193  108.5674 C   0  0  0  0  0  0  0  0  0  0  0  0
   30.4601   31.1763  108.9716 N   0  0  0  0  0  0  0  0  0  0  0  0
   30.0308   27.7635  107.5544 C   0  0  0  0  0  0  0  0  0  0  0  0
   29.9090   27.8492  106.1108 N   0  0  0  0  0  0  0  0  0  0  0  0
  1  2  1  0  0  0  0
  1  7  1  0  0  0  0
  2  3  1  0  0  0  0
  2  4  2  0  0  0  0
  4  5  1  0  0  0  0
  5  6  2  0  0  0  0
  5 11  1  0  0  0  0
  6  7  1  0  0  0  0
  6  9  1  0  0  0  0
  7  8  2  0  0  0  0
  9 10  2  0  0  0  0
  9 12  1  0  0  0  0
 10 11  1  0  0  0  0
 12 13  1  0  0  0  0
M  END
>  <CHROM.1>
-10.42031767,-85.65816296,37.99257353,32.17196961,29.76960862,108.14383671
-0.61173378,-0.00705976,-2.63796911

>  <Name>
ligand

>  <RI>
1.38753e+07

>  <Rbt.Current_Directory>
/home/itssahil/PROJECTS/Mol_Feturizer/New_Systems/rnas/4RZD

>  <Rbt.Executable>
rbdock ($Id: //depot/dev/client3/rdock/2013.1/src/exe/rbdock.cxx#4 $)

>  <Rbt.Library>
libRbt.so (2013.1, Build901 2013/11/27)

>  <Rbt.Parameter_File>
/export/apps/rDock/src/rDock_2013.1_src/data/scripts/dock_solv.prm

>  <Rbt.Receptor>
prm/pocket_docking_7.prm

>  <SCORE>
-49.4824

>  <SCORE.INTER>
-48.6258

>  <SCORE.INTER.CONST>
1

>  <SCORE.INTER.POLAR>
-4.91047

>  <SCORE.INTER.ROT>
3

>  <SCORE.INTER.SOLV>
10.3488

>  <SCORE.INTER.VDW>
-25.0986

>  <SCORE.INTER.norm>
-3.74045

>  <SCORE.INTRA>
-0.856513

>  <SCORE.INTRA.DIHEDRAL>
-1.72935

>  <SCORE.INTRA.DIHEDRAL.0>
4.88905

>  <SCORE.INTRA.POLAR>
0

>  <SCORE.INTRA.POLAR.0>
0

>  <SCORE.INTRA.REPUL>
0

>  <SCORE.INTRA.REPUL.0>
0

>  <SCORE.INTRA.SOLV>
-0.367096

>  <SCORE.INTRA.SOLV.lig_0>
-15.1033

>  <SCORE.INTRA.VDW>
0.191712

>  <SCORE.INTRA.VDW.0>
-0.755285

>  <SCORE.INTRA.norm>
-0.0658856

>  <SCORE.RESTR>
0

>  <SCORE.RESTR.CAVITY>
0

>  <SCORE.RESTR.norm>
0

>  <SCORE.SYSTEM>
0

>  <SCORE.SYSTEM.CONST>
0

>  <SCORE.SYSTEM.DIHEDRAL>
0

>  <SCORE.SYSTEM.SOLV>
0

>  <SCORE.SYSTEM.norm>
0

>  <SCORE.heavy>
13

>  <SCORE.norm>
-3.80634

>  <RMSD>
0.467

$$$$
ligand
 OpenBabel11021811513D
libRbt.so/2013.1/901 2013/11/27
 13 14  0  0  0  0  0  0  0  0999 V2000
   34.3113   29.7168  108.1347 N   0  0  0  0  0  0  0  0  0  0  0  0
   34.2061   31.0133  108.6890 C   0  0  0  0  0  0  0  0  0  0  0  0
   35.4042   31.7726  108.9425 N   0  0  0  0  0  0  0  0  0  0  0  0
   32.9882   31.5654  108.9930 N   0  0  0  0  0  0  0  0  0  0  0  0
   31.7934   30.8700  108.7666 C   0  0  0  0  0  0  0  0  0  0  0  0
   31.8547   29.5466  108.2037 C   0  0  0  0  0  0  0  0  0  0  0  0
   33.1659   28.9784  107.8881 C   0  0  0  0  0  0  0  0  0  0  0  0
   33.2645   27.7169  107.3496 O   0  0  0  0  0  0  0  0  0  0  0  0
   30.4808   29.0892  108.0917 C   0  0  0  0  0  0  0  0  0  0  0  0
   29.6737   30.1231  108.5680 C   0  0  0  0  0  0  0  0  0  0  0  0
   30.4608   31.1786  108.9707 N   0  0  0  0  0  0  0  0  0  0  0  0
   30.0225   27.7666  107.5544 C   0  0  0  0  0  0  0  0  0  0  0  0
   29.9057   27.8502  106.1103 N   0  0  0  0  0  0  0  0  0  0  0  0
  1  2  1  0  0  0  0
  1  7  1  0  0  0  0
  2  3  1  0  0  0  0
  2  4  2  0  0  0  0
  4  5  1  0  0  0  0
  5  6  2  0  0  0  0
  5 11  1  0  0  0  0
  6  7  1  0  0  0  0
  6  9  1  0  0  0  0
  7  8  2  0  0  0  0
  9 10  2  0  0  0  0
  9 12  1  0  0  0  0
 10 11  1  0  0  0  0
 12 13  1  0  0  0  0
M  END
>  <CHROM.1>
168.45893101,-85.33898581,38.37910837,32.16931019,29.76835986,108.13998412
-0.60968625,-0.00785967,-2.63787521

>  <Name>
ligand

>  <RI>
1.38753e+07

>  <Rbt.Current_Directory>
/home/itssahil/PROJECTS/Mol_Feturizer/New_Systems/rnas/4RZD

>  <Rbt.Executable>
rbdock ($Id: //depot/dev/client3/rdock/2013.1/src/exe/rbdock.cxx#4 $)

>  <Rbt.Library>
libRbt.so (2013.1, Build901 2013/11/27)

>  <Rbt.Parameter_File>
/export/apps/rDock/src/rDock_2013.1_src/data/scripts/dock_solv.prm

>  <Rbt.Receptor>
prm/pocket_docking_7.prm

>  <SCORE>
-49.4607

>  <SCORE.INTER>
-48.5909

>  <SCORE.INTER.CONST>
1

>  <SCORE.INTER.POLAR>
-4.90132

>  <SCORE.INTER.ROT>
3

>  <SCORE.INTER.SOLV>
10.3505

>  <SCORE.INTER.VDW>
-25.1064

>  <SCORE.INTER.norm>
-3.73777

>  <SCORE.INTRA>
-0.86977

>  <SCORE.INTRA.DIHEDRAL>
-1.75131

>  <SCORE.INTRA.DIHEDRAL.0>
4.88905

>  <SCORE.INTRA.POLAR>
0

>  <SCORE.INTRA.POLAR.0>
0

>  <SCORE.INTRA.REPUL>
0

>  <SCORE.INTRA.REPUL.0>
0

>  <SCORE.INTRA.SOLV>
-0.362351

>  <SCORE.INTRA.SOLV.lig_0>
-15.1033

>  <SCORE.INTRA.VDW>
0.18706

>  <SCORE.INTRA.VDW.0>
-0.755285

>  <SCORE.INTRA.norm>
-0.0669054

>  <SCORE.RESTR>
0

>  <SCORE.RESTR.CAVITY>
0

>  <SCORE.RESTR.norm>
0

>  <SCORE.SYSTEM>
0

>  <SCORE.SYSTEM.CONST>
0

>  <SCORE.SYSTEM.DIHEDRAL>
0

>  <SCORE.SYSTEM.SOLV>
0

>  <SCORE.SYSTEM.norm>
0

>  <SCORE.heavy>
13

>  <SCORE.norm>
-3.80467

>  <RMSD>
0.467

$$$$
ligand
 OpenBabel11021811513D
libRbt.so/2013.1/901 2013/11/27
 13 14  0  0  0  0  0  0  0  0999 V2000
   34.3120   29.7361  108.1647 N   0  0  0  0  0  0  0  0  0  0  0  0
   34.1940   31.0402  108.6983 C   0  0  0  0  0  0  0  0  0  0  0  0
   35.3857   31.8068  108.9600 N   0  0  0  0  0  0  0  0  0  0  0  0
   32.9698   31.5927  108.9747 N   0  0  0  0  0  0  0  0  0  0  0  0
   31.7808   30.8903  108.7392 C   0  0  0  0  0  0  0  0  0  0  0  0
   31.8552   29.5591  108.1966 C   0  0  0  0  0  0  0  0  0  0  0  0
   33.1729   28.9906  107.9104 C   0  0  0  0  0  0  0  0  0  0  0  0
   33.2839   27.7218  107.3918 O   0  0  0  0  0  0  0  0  0  0  0  0
   30.4845   29.0958  108.0691 C   0  0  0  0  0  0  0  0  0  0  0  0
   29.6668   30.1338  108.5173 C   0  0  0  0  0  0  0  0  0  0  0  0
   30.4442   31.1976  108.9173 N   0  0  0  0  0  0  0  0  0  0  0  0
   30.0389   27.7641  107.5438 C   0  0  0  0  0  0  0  0  0  0  0  0
   29.9030   27.8390  106.1008 N   0  0  0  0  0  0  0  0  0  0  0  0
  1  2  1  0  0  0  0
  1  7  1  0  0  0  0
  2  3  1  0  0  0  0
  2  4  2  0  0  0  0
  4  5  1  0  0  0  0
  5  6  2  0  0  0  0
  5 11  1  0  0  0  0
  6  7  1  0  0  0  0
  6  9  1  0  0  0  0
  7  8  2  0  0  0  0
  9 10  2  0  0  0  0
  9 12  1  0  0  0  0
 10 11  1  0  0  0  0
 12 13  1  0  0  0  0
M  END
>  <CHROM.1>
169.65302462,-87.18446013,39.02706440,32.16618499,29.78209085,108.13515327
-0.61675986,0.00627031,-2.65329967

>  <Name>
ligand

>  <RI>
1.0531e+07

>  <Rbt.Current_Directory>
/home/itssahil/PROJECTS/Mol_Feturizer/New_Systems/rnas/4RZD

>  <Rbt.Executable>
rbdock ($Id: //depot/dev/client3/rdock/2013.1/src/exe/rbdock.cxx#4 $)

>  <Rbt.Library>
libRbt.so (2013.1, Build901 2013/11/27)

>  <Rbt.Parameter_File>
/export/apps/rDock/src/rDock_2013.1_src/data/scripts/dock_solv.prm

>  <Rbt.Receptor>
prm/pocket_docking_8.prm

>  <SCORE>
-49.5039

>  <SCORE.INTER>
-48.6052

>  <SCORE.INTER.CONST>
1

>  <SCORE.INTER.POLAR>
-4.90897

>  <SCORE.INTER.ROT>
3

>  <SCORE.INTER.SOLV>
10.3613

>  <SCORE.INTER.VDW>
-25.094

>  <SCORE.INTER.norm>
-3.73886

>  <SCORE.INTRA>
-0.898662

>  <SCORE.INTRA.DIHEDRAL>
-1.78832

>  <SCORE.INTRA.DIHEDRAL.0>
4.88905

>  <SCORE.INTRA.POLAR>
0

>  <SCORE.INTRA.POLAR.0>
0

>  <SCORE.INTRA.REPUL>
0

>  <SCORE.INTRA.REPUL.0>
0

>  <SCORE.INTRA.SOLV>
-0.386093

>  <SCORE.INTRA.SOLV.lig_0>
-15.1033

>  <SCORE.INTRA.VDW>
0.188545

>  <SCORE.INTRA.VDW.0>
-0.755285

>  <SCORE.INTRA.norm>
-0.0691279

>  <SCORE.RESTR>
0

>  <SCORE.RESTR.CAVITY>
0

>  <SCORE.RESTR.norm>
0

>  <SCORE.SYSTEM>
0

>  <SCORE.SYSTEM.CONST>
0

>  <SCORE.SYSTEM.DIHEDRAL>
0

>  <SCORE.SYSTEM.SOLV>
0

>  <SCORE.SYSTEM.norm>
0

>  <SCORE.heavy>
13

>  <SCORE.norm>
-3.80799

>  <RMSD>
0.467

$$$$
ligand
 OpenBabel11021811513D
libRbt.so/2013.1/901 2013/11/27
 13 14  0  0  0  0  0  0  0  0999 V2000
   34.3063   29.7320  108.1719 N   0  0  0  0  0  0  0  0  0  0  0  0
   34.1921   31.0358  108.7070 C   0  0  0  0  0  0  0  0  0  0  0  0
   35.3861   31.7980  108.9711 N   0  0  0  0  0  0  0  0  0  0  0  0
   32.9695   31.5922  108.9825 N   0  0  0  0  0  0  0  0  0  0  0  0
   31.7783   30.8943  108.7446 C   0  0  0  0  0  0  0  0  0  0  0  0
   31.8488   29.5635  108.2005 C   0  0  0  0  0  0  0  0  0  0  0  0
   33.1649   28.9908  107.9153 C   0  0  0  0  0  0  0  0  0  0  0  0
   33.2721   27.7222  107.3953 O   0  0  0  0  0  0  0  0  0  0  0  0
   30.4767   29.1050  108.0708 C   0  0  0  0  0  0  0  0  0  0  0  0
   29.6620   30.1454  108.5192 C   0  0  0  0  0  0  0  0  0  0  0  0
   30.4427   31.2059  108.9215 N   0  0  0  0  0  0  0  0  0  0  0  0
   30.0271   27.7755  107.5432 C   0  0  0  0  0  0  0  0  0  0  0  0
   29.9108   27.8475  106.0984 N   0  0  0  0  0  0  0  0  0  0  0  0
  1  2  1  0  0  0  0
  1  7  1  0  0  0  0
  2  3  1  0  0  0  0
  2  4  2  0  0  0  0
  4  5  1  0  0  0  0
  5  6  2  0  0  0  0
  5 11  1  0  0  0  0
  6  7  1  0  0  0  0
  6  9  1  0  0  0  0
  7  8  2  0  0  0  0
  9 10  2  0  0  0  0
  9 12  1  0  0  0  0
 10 11  1  0  0  0  0
 12 13  1  0  0  0  0
M  END
>  <CHROM.1>
-10.58264624,-86.41733948,38.72023390,32.16221609,29.78502883,108.13956336
-0.61577595,0.00839570,-2.65168890

>  <Name>
ligand

>  <RI>
2.51964e+07

>  <Rbt.Current_Directory>
/home/itssahil/PROJECTS/Mol_Feturizer/New_Systems/rnas/4RZD

>  <Rbt.Executable>
rbdock ($Id: //depot/dev/client3/rdock/2013.1/src/exe/rbdock.cxx#4 $)

>  <Rbt.Library>
libRbt.so (2013.1, Build901 2013/11/27)

>  <Rbt.Parameter_File>
/export/apps/rDock/src/rDock_2013.1_src/data/scripts/dock_solv.prm

>  <Rbt.Receptor>
prm/pocket_docking_4.prm

>  <SCORE>
-49.4872

>  <SCORE.INTER>
-48.6019

>  <SCORE.INTER.CONST>
1

>  <SCORE.INTER.POLAR>
-4.90886

>  <SCORE.INTER.ROT>
3

>  <SCORE.INTER.SOLV>
10.3488

>  <SCORE.INTER.VDW>
-25.088

>  <SCORE.INTER.norm>
-3.73861

>  <SCORE.INTRA>
-0.885346

>  <SCORE.INTRA.DIHEDRAL>
-1.77093

>  <SCORE.INTRA.DIHEDRAL.0>
4.88905

>  <SCORE.INTRA.POLAR>
0

>  <SCORE.INTRA.POLAR.0>
0

>  <SCORE.INTRA.REPUL>
0

>  <SCORE.INTRA.REPUL.0>
0

>  <SCORE.INTRA.SOLV>
-0.376376

>  <SCORE.INTRA.SOLV.lig_0>
-15.1033

>  <SCORE.INTRA.VDW>
0.188306

>  <SCORE.INTRA.VDW.0>
-0.755285

>  <SCORE.INTRA.norm>
-0.0681035

>  <SCORE.RESTR>
0

>  <SCORE.RESTR.CAVITY>
0

>  <SCORE.RESTR.norm>
0

>  <SCORE.SYSTEM>
0

>  <SCORE.SYSTEM.CONST>
0

>  <SCORE.SYSTEM.DIHEDRAL>
0

>  <SCORE.SYSTEM.SOLV>
0

>  <SCORE.SYSTEM.norm>
0

>  <SCORE.heavy>
13

>  <SCORE.norm>
-3.80671

>  <RMSD>
0.469

$$$$
ligand
 OpenBabel11021811513D
libRbt.so/2013.1/901 2013/11/27
 13 14  0  0  0  0  0  0  0  0999 V2000
   34.2854   29.7268  108.1607 N   0  0  0  0  0  0  0  0  0  0  0  0
   34.1757   31.0303  108.6976 C   0  0  0  0  0  0  0  0  0  0  0  0
   35.3721   31.7889  108.9607 N   0  0  0  0  0  0  0  0  0  0  0  0
   32.9550   31.5897  108.9757 N   0  0  0  0  0  0  0  0  0  0  0  0
   31.7616   30.8953  108.7388 C   0  0  0  0  0  0  0  0  0  0  0  0
   31.8275   29.5650  108.1930 C   0  0  0  0  0  0  0  0  0  0  0  0
   33.1417   28.9890  107.9051 C   0  0  0  0  0  0  0  0  0  0  0  0
   33.2446   27.7207  107.3834 O   0  0  0  0  0  0  0  0  0  0  0  0
   30.4540   29.1104  108.0649 C   0  0  0  0  0  0  0  0  0  0  0  0
   29.6429   30.1525  108.5159 C   0  0  0  0  0  0  0  0  0  0  0  0
   30.4270   31.2104  108.9182 N   0  0  0  0  0  0  0  0  0  0  0  0
   30.0000   27.7828  107.5365 C   0  0  0  0  0  0  0  0  0  0  0  0
   29.9150   27.8465  106.0891 N   0  0  0  0  0  0  0  0  0  0  0  0
  1  2  1  0  0  0  0
  1  7  1  0  0  0  0
  2  3  1  0  0  0  0
  2  4  2  0  0  0  0
  4  5  1  0  0  0  0
  5  6  2  0  0  0  0
  5 11  1  0  0  0  0
  6  7  1  0  0  0  0
  6  9  1  0  0  0  0
  7  8  2  0  0  0  0
  9 10  2  0  0  0  0
  9 12  1  0  0  0  0
 10 11  1  0  0  0  0
 12 13  1  0  0  0  0
M  END
>  <CHROM.1>
-9.38341125,-84.95021520,38.56402372,32.14458738,29.78476019,108.13155560
-0.61526164,0.00707351,-2.64968078

>  <Name>
ligand

>  <RI>
1.38753e+07

>  <Rbt.Current_Directory>
/home/itssahil/PROJECTS/Mol_Feturizer/New_Systems/rnas/4RZD

>  <Rbt.Executable>
rbdock ($Id: //depot/dev/client3/rdock/2013.1/src/exe/rbdock.cxx#4 $)

>  <Rbt.Library>
libRbt.so (2013.1, Build901 2013/11/27)

>  <Rbt.Parameter_File>
/export/apps/rDock/src/rDock_2013.1_src/data/scripts/dock_solv.prm

>  <Rbt.Receptor>
prm/pocket_docking_7.prm

>  <SCORE>
-49.4583

>  <SCORE.INTER>
-48.5828

>  <SCORE.INTER.CONST>
1

>  <SCORE.INTER.POLAR>
-4.90893

>  <SCORE.INTER.ROT>
3

>  <SCORE.INTER.SOLV>
10.3322

>  <SCORE.INTER.VDW>
-25.0695

>  <SCORE.INTER.norm>
-3.73714

>  <SCORE.INTRA>
-0.875431

>  <SCORE.INTRA.DIHEDRAL>
-1.76164

>  <SCORE.INTRA.DIHEDRAL.0>
4.88905

>  <SCORE.INTRA.POLAR>
0

>  <SCORE.INTRA.POLAR.0>
0

>  <SCORE.INTRA.REPUL>
0

>  <SCORE.INTRA.REPUL.0>
0

>  <SCORE.INTRA.SOLV>
-0.356918

>  <SCORE.INTRA.SOLV.lig_0>
-15.1033

>  <SCORE.INTRA.VDW>
0.183848

>  <SCORE.INTRA.VDW.0>
-0.755285

>  <SCORE.INTRA.norm>
-0.0673409

>  <SCORE.RESTR>
0

>  <SCORE.RESTR.CAVITY>
0

>  <SCORE.RESTR.norm>
0

>  <SCORE.SYSTEM>
0

>  <SCORE.SYSTEM.CONST>
0

>  <SCORE.SYSTEM.DIHEDRAL>
0

>  <SCORE.SYSTEM.SOLV>
0

>  <SCORE.SYSTEM.norm>
0

>  <SCORE.heavy>
13

>  <SCORE.norm>
-3.80448

>  <RMSD>
0.469

$$$$
ligand
 OpenBabel11021811513D
libRbt.so/2013.1/901 2013/11/27
 13 14  0  0  0  0  0  0  0  0999 V2000
   34.3096   29.7352  108.1548 N   0  0  0  0  0  0  0  0  0  0  0  0
   34.1952   31.0395  108.6887 C   0  0  0  0  0  0  0  0  0  0  0  0
   35.3888   31.8049  108.9453 N   0  0  0  0  0  0  0  0  0  0  0  0
   32.9728   31.5935  108.9699 N   0  0  0  0  0  0  0  0  0  0  0  0
   31.7820   30.8924  108.7394 C   0  0  0  0  0  0  0  0  0  0  0  0
   31.8527   29.5610  108.1968 C   0  0  0  0  0  0  0  0  0  0  0  0
   33.1686   28.9909  107.9054 C   0  0  0  0  0  0  0  0  0  0  0  0
   33.2760   27.7219  107.3866 O   0  0  0  0  0  0  0  0  0  0  0  0
   30.4810   29.0991  108.0751 C   0  0  0  0  0  0  0  0  0  0  0  0
   29.6663   30.1382  108.5264 C   0  0  0  0  0  0  0  0  0  0  0  0
   30.4466   31.2011  108.9230 N   0  0  0  0  0  0  0  0  0  0  0  0
   30.0318   27.7678  107.5518 C   0  0  0  0  0  0  0  0  0  0  0  0
   29.8966   27.8407  106.1087 N   0  0  0  0  0  0  0  0  0  0  0  0
  1  2  1  0  0  0  0
  1  7  1  0  0  0  0
  2  3  1  0  0  0  0
  2  4  2  0  0  0  0
  4  5  1  0  0  0  0
  5  6  2  0  0  0  0
  5 11  1  0  0  0  0
  6  7  1  0  0  0  0
  6  9  1  0  0  0  0
  7  8  2  0  0  0  0
  9 10  2  0  0  0  0
  9 12  1  0  0  0  0
 10 11  1  0  0  0  0
 12 13  1  0  0  0  0
M  END
>  <CHROM.1>
169.67001469,-86.90038010,38.82749333,32.16429137,29.78341054,108.13397870
-0.61435643,0.00295465,-2.65335704

>  <Name>
ligand

>  <RI>
4.18181e+07

>  <Rbt.Current_Directory>
/home/itssahil/PROJECTS/Mol_Feturizer/New_Systems/rnas/4RZD

>  <Rbt.Executable>
rbdock ($Id: //depot/dev/client3/rdock/2013.1/src/exe/rbdock.cxx#4 $)

>  <Rbt.Library>
libRbt.so (2013.1, Build901 2013/11/27)

>  <Rbt.Parameter_File>
/export/apps/rDock/src/rDock_2013.1_src/data/scripts/dock_solv.prm

>  <Rbt.Receptor>
prm/pocket_docking_3.prm

>  <SCORE>
-49.5038

>  <SCORE.INTER>
-48.6131

>  <SCORE.INTER.CONST>
1

>  <SCORE.INTER.POLAR>
-4.90833

>  <SCORE.INTER.ROT>
3

>  <SCORE.INTER.SOLV>
10.366

>  <SCORE.INTER.VDW>
-25.103

>  <SCORE.INTER.norm>
-3.73947

>  <SCORE.INTRA>
-0.89066

>  <SCORE.INTRA.DIHEDRAL>
-1.77708

>  <SCORE.INTRA.DIHEDRAL.0>
4.88905

>  <SCORE.INTRA.POLAR>
0

>  <SCORE.INTRA.POLAR.0>
0

>  <SCORE.INTRA.REPUL>
0

>  <SCORE.INTRA.REPUL.0>
0

>  <SCORE.INTRA.SOLV>
-0.382546

>  <SCORE.INTRA.SOLV.lig_0>
-15.1033

>  <SCORE.INTRA.VDW>
0.189155

>  <SCORE.INTRA.VDW.0>
-0.755285

>  <SCORE.INTRA.norm>
-0.0685123

>  <SCORE.RESTR>
0

>  <SCORE.RESTR.CAVITY>
0

>  <SCORE.RESTR.norm>
0

>  <SCORE.SYSTEM>
0

>  <SCORE.SYSTEM.CONST>
0

>  <SCORE.SYSTEM.DIHEDRAL>
0

>  <SCORE.SYSTEM.SOLV>
0

>  <SCORE.SYSTEM.norm>
0

>  <SCORE.heavy>
13

>  <SCORE.norm>
-3.80798

>  <RMSD>
0.470

$$$$
ligand
 OpenBabel11021811513D
libRbt.so/2013.1/901 2013/11/27
 13 14  0  0  0  0  0  0  0  0999 V2000
   34.2939   29.6966  108.1182 N   0  0  0  0  0  0  0  0  0  0  0  0
   34.2058   31.0012  108.6560 C   0  0  0  0  0  0  0  0  0  0  0  0
   35.4137   31.7484  108.8984 N   0  0  0  0  0  0  0  0  0  0  0  0
   32.9954   31.5725  108.9544 N   0  0  0  0  0  0  0  0  0  0  0  0
   31.7915   30.8895  108.7382 C   0  0  0  0  0  0  0  0  0  0  0  0
   31.8354   29.5584  108.1921 C   0  0  0  0  0  0  0  0  0  0  0  0
   33.1389   28.9697  107.8823 C   0  0  0  0  0  0  0  0  0  0  0  0
   33.2208   27.7002  107.3597 O   0  0  0  0  0  0  0  0  0  0  0  0
   30.4556   29.1170  108.0875 C   0  0  0  0  0  0  0  0  0  0  0  0
   29.6623   30.1670  108.5515 C   0  0  0  0  0  0  0  0  0  0  0  0
   30.4633   31.2175  108.9399 N   0  0  0  0  0  0  0  0  0  0  0  0
   29.9800   27.7935  107.5677 C   0  0  0  0  0  0  0  0  0  0  0  0
   29.9068   27.8457  106.1192 N   0  0  0  0  0  0  0  0  0  0  0  0
  1  2  1  0  0  0  0
  1  7  1  0  0  0  0
  2  3  1  0  0  0  0
  2  4  2  0  0  0  0
  4  5  1  0  0  0  0
  5  6  2  0  0  0  0
  5 11  1  0  0  0  0
  6  7  1  0  0  0  0
  6  9  1  0  0  0  0
  7  8  2  0  0  0  0
  9 10  2  0  0  0  0
  9 12  1  0  0  0  0
 10 11  1  0  0  0  0
 12 13  1  0  0  0  0
M  END
>  <CHROM.1>
177.27686566,-83.37600374,37.49233051,32.15677782,29.77393779,108.12484658
-0.60148740,-0.00483160,-2.64908153

>  <Name>
ligand

>  <RI>
4.18181e+07

>  <Rbt.Current_Directory>
/home/itssahil/PROJECTS/Mol_Feturizer/New_Systems/rnas/4RZD

>  <Rbt.Executable>
rbdock ($Id: //depot/dev/client3/rdock/2013.1/src/exe/rbdock.cxx#4 $)

>  <Rbt.Library>
libRbt.so (2013.1, Build901 2013/11/27)

>  <Rbt.Parameter_File>
/export/apps/rDock/src/rDock_2013.1_src/data/scripts/dock_solv.prm

>  <Rbt.Receptor>
prm/pocket_docking_3.prm

>  <SCORE>
-49.3491

>  <SCORE.INTER>
-48.5178

>  <SCORE.INTER.CONST>
1

>  <SCORE.INTER.POLAR>
-4.91047

>  <SCORE.INTER.ROT>
3

>  <SCORE.INTER.SOLV>
10.29

>  <SCORE.INTER.VDW>
-25.0069

>  <SCORE.INTER.norm>
-3.73214

>  <SCORE.INTRA>
-0.831307

>  <SCORE.INTRA.DIHEDRAL>
-1.69956

>  <SCORE.INTRA.DIHEDRAL.0>
4.88905

>  <SCORE.INTRA.POLAR>
0

>  <SCORE.INTRA.POLAR.0>
0

>  <SCORE.INTRA.REPUL>
0

>  <SCORE.INTRA.REPUL.0>
0

>  <SCORE.INTRA.SOLV>
-0.336738

>  <SCORE.INTRA.SOLV.lig_0>
-15.1033

>  <SCORE.INTRA.VDW>
0.186844

>  <SCORE.INTRA.VDW.0>
-0.755285

>  <SCORE.INTRA.norm>
-0.0639467

>  <SCORE.RESTR>
0

>  <SCORE.RESTR.CAVITY>
0

>  <SCORE.RESTR.norm>
0

>  <SCORE.SYSTEM>
0

>  <SCORE.SYSTEM.CONST>
0

>  <SCORE.SYSTEM.DIHEDRAL>
0

>  <SCORE.SYSTEM.SOLV>
0

>  <SCORE.SYSTEM.norm>
0

>  <SCORE.heavy>
13

>  <SCORE.norm>
-3.79608

>  <RMSD>
0.471

$$$$
ligand
 OpenBabel11021811513D
libRbt.so/2013.1/901 2013/11/27
 13 14  0  0  0  0  0  0  0  0999 V2000
   34.2872   29.7302  108.1635 N   0  0  0  0  0  0  0  0  0  0  0  0
   34.1774   31.0323  108.7034 C   0  0  0  0  0  0  0  0  0  0  0  0
   35.3738   31.7909  108.9672 N   0  0  0  0  0  0  0  0  0  0  0  0
   32.9568   31.5906  108.9840 N   0  0  0  0  0  0  0  0  0  0  0  0
   31.7634   30.8962  108.7468 C   0  0  0  0  0  0  0  0  0  0  0  0
   31.8294   29.5672  108.1978 C   0  0  0  0  0  0  0  0  0  0  0  0
   33.1435   28.9925  107.9072 C   0  0  0  0  0  0  0  0  0  0  0  0
   33.2464   27.7255  107.3824 O   0  0  0  0  0  0  0  0  0  0  0  0
   30.4560   29.1124  108.0699 C   0  0  0  0  0  0  0  0  0  0  0  0
   29.6448   30.1530  108.5241 C   0  0  0  0  0  0  0  0  0  0  0  0
   30.4289   31.2103  108.9281 N   0  0  0  0  0  0  0  0  0  0  0  0
   30.0020   27.7858  107.5389 C   0  0  0  0  0  0  0  0  0  0  0  0
   29.9226   27.8506  106.0912 N   0  0  0  0  0  0  0  0  0  0  0  0
  1  2  1  0  0  0  0
  1  7  1  0  0  0  0
  2  3  1  0  0  0  0
  2  4  2  0  0  0  0
  4  5  1  0  0  0  0
  5  6  2  0  0  0  0
  5 11  1  0  0  0  0
  6  7  1  0  0  0  0
  6  9  1  0  0  0  0
  7  8  2  0  0  0  0
  9 10  2  0  0  0  0
  9 12  1  0  0  0  0
 10 11  1  0  0  0  0
 12 13  1  0  0  0  0
M  END
>  <CHROM.1>
172.18244498,-84.64207024,38.08640363,32.14697174,29.78703543,108.13643212
-0.61560500,0.00570297,-2.64710494

>  <Name>
ligand

>  <RI>
2.51964e+07

>  <Rbt.Current_Directory>
/home/itssahil/PROJECTS/Mol_Feturizer/New_Systems/rnas/4RZD

>  <Rbt.Executable>
rbdock ($Id: //depot/dev/client3/rdock/2013.1/src/exe/rbdock.cxx#4 $)

>  <Rbt.Library>
libRbt.so (2013.1, Build901 2013/11/27)

>  <Rbt.Parameter_File>
/export/apps/rDock/src/rDock_2013.1_src/data/scripts/dock_solv.prm

>  <Rbt.Receptor>
prm/pocket_docking_4.prm

>  <SCORE>
-49.5049

>  <SCORE.INTER>
-48.6478

>  <SCORE.INTER.CONST>
1

>  <SCORE.INTER.POLAR>
-4.91047

>  <SCORE.INTER.ROT>
3

>  <SCORE.INTER.SOLV>
10.3234

>  <SCORE.INTER.VDW>
-25.1048

>  <SCORE.INTER.norm>
-3.74214

>  <SCORE.INTRA>
-0.857095

>  <SCORE.INTRA.DIHEDRAL>
-1.73436

>  <SCORE.INTRA.DIHEDRAL.0>
4.88905

>  <SCORE.INTRA.POLAR>
0

>  <SCORE.INTRA.POLAR.0>
0

>  <SCORE.INTRA.REPUL>
0

>  <SCORE.INTRA.REPUL.0>
0

>  <SCORE.INTRA.SOLV>
-0.353153

>  <SCORE.INTRA.SOLV.lig_0>
-15.1033

>  <SCORE.INTRA.VDW>
0.186661

>  <SCORE.INTRA.VDW.0>
-0.755285

>  <SCORE.INTRA.norm>
-0.0659304

>  <SCORE.RESTR>
0

>  <SCORE.RESTR.CAVITY>
0

>  <SCORE.RESTR.norm>
0

>  <SCORE.SYSTEM>
0

>  <SCORE.SYSTEM.CONST>
0

>  <SCORE.SYSTEM.DIHEDRAL>
0

>  <SCORE.SYSTEM.SOLV>
0

>  <SCORE.SYSTEM.norm>
0

>  <SCORE.heavy>
13

>  <SCORE.norm>
-3.80807

>  <RMSD>
0.471

$$$$
ligand
 OpenBabel11021811513D
libRbt.so/2013.1/901 2013/11/27
 13 14  0  0  0  0  0  0  0  0999 V2000
   34.2913   29.7440  108.1797 N   0  0  0  0  0  0  0  0  0  0  0  0
   34.1810   31.0401  108.7338 C   0  0  0  0  0  0  0  0  0  0  0  0
   35.3776   31.7900  109.0204 N   0  0  0  0  0  0  0  0  0  0  0  0
   32.9597   31.6006  109.0068 N   0  0  0  0  0  0  0  0  0  0  0  0
   31.7661   30.9146  108.7474 C   0  0  0  0  0  0  0  0  0  0  0  0
   31.8325   29.5919  108.1835 C   0  0  0  0  0  0  0  0  0  0  0  0
   33.1474   29.0146  107.9014 C   0  0  0  0  0  0  0  0  0  0  0  0
   33.2508   27.7534  107.3628 O   0  0  0  0  0  0  0  0  0  0  0  0
   30.4586   29.1449  108.0343 C   0  0  0  0  0  0  0  0  0  0  0  0
   29.6469   30.1838  108.4914 C   0  0  0  0  0  0  0  0  0  0  0  0
   30.4309   31.2326  108.9170 N   0  0  0  0  0  0  0  0  0  0  0  0
   30.0050   27.8268  107.4823 C   0  0  0  0  0  0  0  0  0  0  0  0
   29.9810   27.8967  106.0329 N   0  0  0  0  0  0  0  0  0  0  0  0
  1  2  1  0  0  0  0
  1  7  1  0  0  0  0
  2  3  1  0  0  0  0
  2  4  2  0  0  0  0
  4  5  1  0  0  0  0
  5  6  2  0  0  0  0
  5 11  1  0  0  0  0
  6  7  1  0  0  0  0
  6  9  1  0  0  0  0
  7  8  2  0  0  0  0
  9 10  2  0  0  0  0
  9 12  1  0  0  0  0
 10 11  1  0  0  0  0
 12 13  1  0  0  0  0
M  END
>  <CHROM.1>
168.41058015,-82.96024143,36.87777831,32.15521915,29.80981028,108.12822863
-0.62018195,0.01686459,-2.63466532

>  <Name>
ligand

>  <RI>
1.38753e+07

>  <Rbt.Current_Directory>
/home/itssahil/PROJECTS/Mol_Feturizer/New_Systems/rnas/4RZD

>  <Rbt.Executable>
rbdock ($Id: //depot/dev/client3/rdock/2013.1/src/exe/rbdock.cxx#4 $)

>  <Rbt.Library>
libRbt.so (2013.1, Build901 2013/11/27)

>  <Rbt.Parameter_File>
/export/apps/rDock/src/rDock_2013.1_src/data/scripts/dock_solv.prm

>  <Rbt.Receptor>
prm/pocket_docking_7.prm

>  <SCORE>
-49.5689

>  <SCORE.INTER>
-48.7623

>  <SCORE.INTER.CONST>
1

>  <SCORE.INTER.POLAR>
-4.91187

>  <SCORE.INTER.ROT>
3

>  <SCORE.INTER.SOLV>
10.3878

>  <SCORE.INTER.VDW>
-25.1979

>  <SCORE.INTER.norm>
-3.75094

>  <SCORE.INTRA>
-0.80663

>  <SCORE.INTRA.DIHEDRAL>
-1.66348

>  <SCORE.INTRA.DIHEDRAL.0>
4.88905

>  <SCORE.INTRA.POLAR>
0

>  <SCORE.INTRA.POLAR.0>
0

>  <SCORE.INTRA.REPUL>
0

>  <SCORE.INTRA.REPUL.0>
0

>  <SCORE.INTRA.SOLV>
-0.332306

>  <SCORE.INTRA.SOLV.lig_0>
-15.1033

>  <SCORE.INTRA.VDW>
0.191262

>  <SCORE.INTRA.VDW.0>
-0.755285

>  <SCORE.INTRA.norm>
-0.0620485

>  <SCORE.RESTR>
0

>  <SCORE.RESTR.CAVITY>
0

>  <SCORE.RESTR.norm>
0

>  <SCORE.SYSTEM>
0

>  <SCORE.SYSTEM.CONST>
0

>  <SCORE.SYSTEM.DIHEDRAL>
0

>  <SCORE.SYSTEM.SOLV>
0

>  <SCORE.SYSTEM.norm>
0

>  <SCORE.heavy>
13

>  <SCORE.norm>
-3.81299

>  <RMSD>
0.473

$$$$
ligand
 OpenBabel11021811513D
libRbt.so/2013.1/901 2013/11/27
 13 14  0  0  0  0  0  0  0  0999 V2000
   34.3751   29.7688  108.0868 N   0  0  0  0  0  0  0  0  0  0  0  0
   34.2644   31.0448  108.6859 C   0  0  0  0  0  0  0  0  0  0  0  0
   35.4593   31.8011  108.9630 N   0  0  0  0  0  0  0  0  0  0  0  0
   33.0445   31.5796  109.0115 N   0  0  0  0  0  0  0  0  0  0  0  0
   31.8527   30.8863  108.7637 C   0  0  0  0  0  0  0  0  0  0  0  0
   31.9196   29.5835  108.1551 C   0  0  0  0  0  0  0  0  0  0  0  0
   33.2329   29.0334  107.8173 C   0  0  0  0  0  0  0  0  0  0  0  0
   33.3367   27.7918  107.2351 O   0  0  0  0  0  0  0  0  0  0  0  0
   30.5477   29.1231  108.0303 C   0  0  0  0  0  0  0  0  0  0  0  0
   29.7364   30.1356  108.5438 C   0  0  0  0  0  0  0  0  0  0  0  0
   30.5191   31.1806  108.9812 N   0  0  0  0  0  0  0  0  0  0  0  0
   30.0950   27.8175  107.4485 C   0  0  0  0  0  0  0  0  0  0  0  0
   29.9883   27.9463  106.0069 N   0  0  0  0  0  0  0  0  0  0  0  0
  1  2  1  0  0  0  0
  1  7  1  0  0  0  0
  2  3  1  0  0  0  0
  2  4  2  0  0  0  0
  4  5  1  0  0  0  0
  5  6  2  0  0  0  0
  5 11  1  0  0  0  0
  6  7  1  0  0  0  0
  6  9  1  0  0  0  0
  7  8  2  0  0  0  0
  9 10  2  0  0  0  0
  9 12  1  0  0  0  0
 10 11  1  0  0  0  0
 12 13  1  0  0  0  0
M  END
>  <CHROM.1>
-9.30801397,-84.72898333,36.09170225,32.23391757,29.80861124,108.09835877
-0.61423710,-0.01291158,-2.60289805

>  <Name>
ligand

>  <RI>
1.38753e+07

>  <Rbt.Current_Directory>
/home/itssahil/PROJECTS/Mol_Feturizer/New_Systems/rnas/4RZD

>  <Rbt.Executable>
rbdock ($Id: //depot/dev/client3/rdock/2013.1/src/exe/rbdock.cxx#4 $)

>  <Rbt.Library>
libRbt.so (2013.1, Build901 2013/11/27)

>  <Rbt.Parameter_File>
/export/apps/rDock/src/rDock_2013.1_src/data/scripts/dock_solv.prm

>  <Rbt.Receptor>
prm/pocket_docking_7.prm

>  <SCORE>
-49.459

>  <SCORE.INTER>
-48.677

>  <SCORE.INTER.CONST>
1

>  <SCORE.INTER.POLAR>
-4.91232

>  <SCORE.INTER.ROT>
3

>  <SCORE.INTER.SOLV>
10.6112

>  <SCORE.INTER.VDW>
-25.214

>  <SCORE.INTER.norm>
-3.74438

>  <SCORE.INTRA>
-0.78197

>  <SCORE.INTRA.DIHEDRAL>
-1.61779

>  <SCORE.INTRA.DIHEDRAL.0>
4.88905

>  <SCORE.INTRA.POLAR>
0

>  <SCORE.INTRA.POLAR.0>
0

>  <SCORE.INTRA.REPUL>
0

>  <SCORE.INTRA.REPUL.0>
0

>  <SCORE.INTRA.SOLV>
-0.356906

>  <SCORE.INTRA.SOLV.lig_0>
-15.1033

>  <SCORE.INTRA.VDW>
0.205377

>  <SCORE.INTRA.VDW.0>
-0.755285

>  <SCORE.INTRA.norm>
-0.0601516

>  <SCORE.RESTR>
0

>  <SCORE.RESTR.CAVITY>
0

>  <SCORE.RESTR.norm>
0

>  <SCORE.SYSTEM>
0

>  <SCORE.SYSTEM.CONST>
0

>  <SCORE.SYSTEM.DIHEDRAL>
0

>  <SCORE.SYSTEM.SOLV>
0

>  <SCORE.SYSTEM.norm>
0

>  <SCORE.heavy>
13

>  <SCORE.norm>
-3.80454

>  <RMSD>
0.474

$$$$
ligand
 OpenBabel11021811513D
libRbt.so/2013.1/901 2013/11/27
 13 14  0  0  0  0  0  0  0  0999 V2000
   34.1620   29.6663  108.0546 N   0  0  0  0  0  0  0  0  0  0  0  0
   34.1038   30.8955  108.7510 C   0  0  0  0  0  0  0  0  0  0  0  0
   35.3290   31.5361  109.1569 N   0  0  0  0  0  0  0  0  0  0  0  0
   32.9063   31.4925  109.0510 N   0  0  0  0  0  0  0  0  0  0  0  0
   31.6867   30.9120  108.6795 C   0  0  0  0  0  0  0  0  0  0  0  0
   31.7000   29.6602  107.9691 C   0  0  0  0  0  0  0  0  0  0  0  0
   32.9902   29.0420  107.6608 C   0  0  0  0  0  0  0  0  0  0  0  0
   33.0429   27.8462  106.9837 O   0  0  0  0  0  0  0  0  0  0  0  0
   30.3098   29.3148  107.7293 C   0  0  0  0  0  0  0  0  0  0  0  0
   29.5409   30.3413  108.2792 C   0  0  0  0  0  0  0  0  0  0  0  0
   30.3660   31.2870  108.8456 N   0  0  0  0  0  0  0  0  0  0  0  0
   29.8040   28.0969  107.0160 C   0  0  0  0  0  0  0  0  0  0  0  0
   30.6194   27.8570  105.8396 N   0  0  0  0  0  0  0  0  0  0  0  0
  1  2  1  0  0  0  0
  1  7  1  0  0  0  0
  2  3  1  0  0  0  0
  2  4  2  0  0  0  0
  4  5  1  0  0  0  0
  5  6  2  0  0  0  0
  5 11  1  0  0  0  0
  6  7  1  0  0  0  0
  6  9  1  0  0  0  0
  7  8  2  0  0  0  0
  9 10  2  0  0  0  0
  9 12  1  0  0  0  0
 10 11  1  0  0  0  0
 12 13  1  0  0  0  0
M  END
>  <CHROM.1>
-5.96639029,-42.32207416,-150.34914002,32.10769941,29.81012127,107.97196684
-0.65682752,0.04179219,-2.54438019

>  <Name>
ligand

>  <RI>
1.99388e+07

>  <Rbt.Current_Directory>
/home/itssahil/PROJECTS/Mol_Feturizer/New_Systems/rnas/4RZD

>  <Rbt.Executable>
rbdock ($Id: //depot/dev/client3/rdock/2013.1/src/exe/rbdock.cxx#4 $)

>  <Rbt.Library>
libRbt.so (2013.1, Build901 2013/11/27)

>  <Rbt.Parameter_File>
/export/apps/rDock/src/rDock_2013.1_src/data/scripts/dock_solv.prm

>  <Rbt.Receptor>
prm/pocket_docking_2.prm

>  <SCORE>
-50.5245

>  <SCORE.INTER>
-48.9334

>  <SCORE.INTER.CONST>
1

>  <SCORE.INTER.POLAR>
-4.84826

>  <SCORE.INTER.ROT>
3

>  <SCORE.INTER.SOLV>
10.0217

>  <SCORE.INTER.VDW>
-25.4019

>  <SCORE.INTER.norm>
-3.76411

>  <SCORE.INTRA>
-1.72077

>  <SCORE.INTRA.DIHEDRAL>
-1.2037

>  <SCORE.INTRA.DIHEDRAL.0>
4.88905

>  <SCORE.INTRA.POLAR>
-0.390503

>  <SCORE.INTRA.POLAR.0>
0

>  <SCORE.INTRA.REPUL>
0

>  <SCORE.INTRA.REPUL.0>
0

>  <SCORE.INTRA.SOLV>
0.191928

>  <SCORE.INTRA.SOLV.lig_0>
-15.1033

>  <SCORE.INTRA.VDW>
0.112823

>  <SCORE.INTRA.VDW.0>
-0.755285

>  <SCORE.INTRA.norm>
-0.132367

>  <SCORE.RESTR>
0.129615

>  <SCORE.RESTR.CAVITY>
0.129615

>  <SCORE.RESTR.norm>
0.00997039

>  <SCORE.SYSTEM>
0

>  <SCORE.SYSTEM.CONST>
0

>  <SCORE.SYSTEM.DIHEDRAL>
0

>  <SCORE.SYSTEM.SOLV>
0

>  <SCORE.SYSTEM.norm>
0

>  <SCORE.heavy>
13

>  <SCORE.norm>
-3.8865

>  <RMSD>
0.475

$$$$
ligand
 OpenBabel11021811513D
libRbt.so/2013.1/901 2013/11/27
 13 14  0  0  0  0  0  0  0  0999 V2000
   34.2760   29.7072  108.1797 N   0  0  0  0  0  0  0  0  0  0  0  0
   34.1734   31.0009  108.7411 C   0  0  0  0  0  0  0  0  0  0  0  0
   35.3736   31.7523  109.0080 N   0  0  0  0  0  0  0  0  0  0  0  0
   32.9563   31.5575  109.0395 N   0  0  0  0  0  0  0  0  0  0  0  0
   31.7595   30.8699  108.7999 C   0  0  0  0  0  0  0  0  0  0  0  0
   31.8181   29.5496  108.2295 C   0  0  0  0  0  0  0  0  0  0  0  0
   33.1286   28.9764  107.9201 C   0  0  0  0  0  0  0  0  0  0  0  0
   33.2245   27.7177  107.3746 O   0  0  0  0  0  0  0  0  0  0  0  0
   30.4426   29.1002  108.1045 C   0  0  0  0  0  0  0  0  0  0  0  0
   29.6375   30.1354  108.5811 C   0  0  0  0  0  0  0  0  0  0  0  0
   30.4271   31.1842  108.9961 N   0  0  0  0  0  0  0  0  0  0  0  0
   29.9815   27.7832  107.5558 C   0  0  0  0  0  0  0  0  0  0  0  0
   29.9252   27.8605  106.1077 N   0  0  0  0  0  0  0  0  0  0  0  0
  1  2  1  0  0  0  0
  1  7  1  0  0  0  0
  2  3  1  0  0  0  0
  2  4  2  0  0  0  0
  4  5  1  0  0  0  0
  5  6  2  0  0  0  0
  5 11  1  0  0  0  0
  6  7  1  0  0  0  0
  6  9  1  0  0  0  0
  7  8  2  0  0  0  0
  9 10  2  0  0  0  0
  9 12  1  0  0  0  0
 10 11  1  0  0  0  0
 12 13  1  0  0  0  0
M  END
>  <CHROM.1>
167.85697710,-83.16561081,37.39482582,32.13885195,29.76862446,108.16902944
-0.61252148,-0.00057554,-2.63077327

>  <Name>
ligand

>  <RI>
4.18181e+07

>  <Rbt.Current_Directory>
/home/itssahil/PROJECTS/Mol_Feturizer/New_Systems/rnas/4RZD

>  <Rbt.Executable>
rbdock ($Id: //depot/dev/client3/rdock/2013.1/src/exe/rbdock.cxx#4 $)

>  <Rbt.Library>
libRbt.so (2013.1, Build901 2013/11/27)

>  <Rbt.Parameter_File>
/export/apps/rDock/src/rDock_2013.1_src/data/scripts/dock_solv.prm

>  <Rbt.Receptor>
prm/pocket_docking_3.prm

>  <SCORE>
-49.4927

>  <SCORE.INTER>
-48.666

>  <SCORE.INTER.CONST>
1

>  <SCORE.INTER.POLAR>
-4.91047

>  <SCORE.INTER.ROT>
3

>  <SCORE.INTER.SOLV>
10.2793

>  <SCORE.INTER.VDW>
-25.1022

>  <SCORE.INTER.norm>
-3.74354

>  <SCORE.INTRA>
-0.826756

>  <SCORE.INTRA.DIHEDRAL>
-1.6938

>  <SCORE.INTRA.DIHEDRAL.0>
4.88905

>  <SCORE.INTRA.POLAR>
0

>  <SCORE.INTRA.POLAR.0>
0

>  <SCORE.INTRA.REPUL>
0

>  <SCORE.INTRA.REPUL.0>
0

>  <SCORE.INTRA.SOLV>
-0.334484

>  <SCORE.INTRA.SOLV.lig_0>
-15.1033

>  <SCORE.INTRA.VDW>
0.187383

>  <SCORE.INTRA.VDW.0>
-0.755285

>  <SCORE.INTRA.norm>
-0.0635966

>  <SCORE.RESTR>
0

>  <SCORE.RESTR.CAVITY>
0

>  <SCORE.RESTR.norm>
0

>  <SCORE.SYSTEM>
0

>  <SCORE.SYSTEM.CONST>
0

>  <SCORE.SYSTEM.DIHEDRAL>
0

>  <SCORE.SYSTEM.SOLV>
0

>  <SCORE.SYSTEM.norm>
0

>  <SCORE.heavy>
13

>  <SCORE.norm>
-3.80713

>  <RMSD>
0.475

$$$$
ligand
 OpenBabel11021811513D
libRbt.so/2013.1/901 2013/11/27
 13 14  0  0  0  0  0  0  0  0999 V2000
   34.2856   29.7322  108.1500 N   0  0  0  0  0  0  0  0  0  0  0  0
   34.1766   31.0388  108.6794 C   0  0  0  0  0  0  0  0  0  0  0  0
   35.3730   31.8025  108.9276 N   0  0  0  0  0  0  0  0  0  0  0  0
   32.9566   31.5964  108.9642 N   0  0  0  0  0  0  0  0  0  0  0  0
   31.7633   30.8971  108.7419 C   0  0  0  0  0  0  0  0  0  0  0  0
   31.8286   29.5635  108.2040 C   0  0  0  0  0  0  0  0  0  0  0  0
   33.1419   28.9895  107.9087 C   0  0  0  0  0  0  0  0  0  0  0  0
   33.2442   27.7182  107.3943 O   0  0  0  0  0  0  0  0  0  0  0  0
   30.4554   29.1042  108.0904 C   0  0  0  0  0  0  0  0  0  0  0  0
   29.6450   30.1467  108.5415 C   0  0  0  0  0  0  0  0  0  0  0  0
   30.4294   31.2094  108.9304 N   0  0  0  0  0  0  0  0  0  0  0  0
   30.0008   27.7719  107.5743 C   0  0  0  0  0  0  0  0  0  0  0  0
   29.8999   27.8272  106.1276 N   0  0  0  0  0  0  0  0  0  0  0  0
  1  2  1  0  0  0  0
  1  7  1  0  0  0  0
  2  3  1  0  0  0  0
  2  4  2  0  0  0  0
  4  5  1  0  0  0  0
  5  6  2  0  0  0  0
  5 11  1  0  0  0  0
  6  7  1  0  0  0  0
  6  9  1  0  0  0  0
  7  8  2  0  0  0  0
  9 10  2  0  0  0  0
  9 12  1  0  0  0  0
 10 11  1  0  0  0  0
 12 13  1  0  0  0  0
M  END
>  <CHROM.1>
-8.88823994,-85.10881919,38.87611273,32.14415378,29.78390671,108.13850404
-0.61361376,-0.00161484,-2.65612556

>  <Name>
ligand

>  <RI>
4.18181e+07

>  <Rbt.Current_Directory>
/home/itssahil/PROJECTS/Mol_Feturizer/New_Systems/rnas/4RZD

>  <Rbt.Executable>
rbdock ($Id: //depot/dev/client3/rdock/2013.1/src/exe/rbdock.cxx#4 $)

>  <Rbt.Library>
libRbt.so (2013.1, Build901 2013/11/27)

>  <Rbt.Parameter_File>
/export/apps/rDock/src/rDock_2013.1_src/data/scripts/dock_solv.prm

>  <Rbt.Receptor>
prm/pocket_docking_3.prm

>  <SCORE>
-49.5144

>  <SCORE.INTER>
-48.6272

>  <SCORE.INTER.CONST>
1

>  <SCORE.INTER.POLAR>
-4.91047

>  <SCORE.INTER.ROT>
3

>  <SCORE.INTER.SOLV>
10.2922

>  <SCORE.INTER.VDW>
-25.0806

>  <SCORE.INTER.norm>
-3.74055

>  <SCORE.INTRA>
-0.887228

>  <SCORE.INTRA.DIHEDRAL>
-1.77927

>  <SCORE.INTRA.DIHEDRAL.0>
4.88905

>  <SCORE.INTRA.POLAR>
0

>  <SCORE.INTRA.POLAR.0>
0

>  <SCORE.INTRA.REPUL>
0

>  <SCORE.INTRA.REPUL.0>
0

>  <SCORE.INTRA.SOLV>
-0.358648

>  <SCORE.INTRA.SOLV.lig_0>
-15.1033

>  <SCORE.INTRA.VDW>
0.181732

>  <SCORE.INTRA.VDW.0>
-0.755285

>  <SCORE.INTRA.norm>
-0.0682483

>  <SCORE.RESTR>
0

>  <SCORE.RESTR.CAVITY>
0

>  <SCORE.RESTR.norm>
0

>  <SCORE.SYSTEM>
0

>  <SCORE.SYSTEM.CONST>
0

>  <SCORE.SYSTEM.DIHEDRAL>
0

>  <SCORE.SYSTEM.SOLV>
0

>  <SCORE.SYSTEM.norm>
0

>  <SCORE.heavy>
13

>  <SCORE.norm>
-3.8088

>  <RMSD>
0.476

$$$$
ligand
 OpenBabel11021811513D
libRbt.so/2013.1/901 2013/11/27
 13 14  0  0  0  0  0  0  0  0999 V2000
   34.3398   29.7491  108.1849 N   0  0  0  0  0  0  0  0  0  0  0  0
   34.2180   31.0458  108.7354 C   0  0  0  0  0  0  0  0  0  0  0  0
   35.4073   31.8136  109.0044 N   0  0  0  0  0  0  0  0  0  0  0  0
   32.9923   31.5901  109.0213 N   0  0  0  0  0  0  0  0  0  0  0  0
   31.8055   30.8862  108.7793 C   0  0  0  0  0  0  0  0  0  0  0  0
   31.8837   29.5623  108.2196 C   0  0  0  0  0  0  0  0  0  0  0  0
   33.2031   29.0026  107.9235 C   0  0  0  0  0  0  0  0  0  0  0  0
   33.3177   27.7409  107.3886 O   0  0  0  0  0  0  0  0  0  0  0  0
   30.5146   29.0954  108.0891 C   0  0  0  0  0  0  0  0  0  0  0  0
   29.6939   30.1245  108.5522 C   0  0  0  0  0  0  0  0  0  0  0  0
   30.4681   31.1860  108.9641 N   0  0  0  0  0  0  0  0  0  0  0  0
   30.0730   27.7688  107.5477 C   0  0  0  0  0  0  0  0  0  0  0  0
   29.9259   27.8638  106.1070 N   0  0  0  0  0  0  0  0  0  0  0  0
  1  2  1  0  0  0  0
  1  7  1  0  0  0  0
  2  3  1  0  0  0  0
  2  4  2  0  0  0  0
  4  5  1  0  0  0  0
  5  6  2  0  0  0  0
  5 11  1  0  0  0  0
  6  7  1  0  0  0  0
  6  9  1  0  0  0  0
  7  8  2  0  0  0  0
  9 10  2  0  0  0  0
  9 12  1  0  0  0  0
 10 11  1  0  0  0  0
 12 13  1  0  0  0  0
M  END
>  <CHROM.1>
169.00261412,-87.52624072,38.25876206,32.19298085,29.78744671,108.16049625
-0.61848847,0.00293273,-2.64079918

>  <Name>
ligand

>  <RI>
1.35221e+07

>  <Rbt.Current_Directory>
/home/itssahil/PROJECTS/Mol_Feturizer/New_Systems/rnas/4RZD

>  <Rbt.Executable>
rbdock ($Id: //depot/dev/client3/rdock/2013.1/src/exe/rbdock.cxx#4 $)

>  <Rbt.Library>
libRbt.so (2013.1, Build901 2013/11/27)

>  <Rbt.Parameter_File>
/export/apps/rDock/src/rDock_2013.1_src/data/scripts/dock_solv.prm

>  <Rbt.Receptor>
prm/pocket_docking_5.prm

>  <SCORE>
-49.4736

>  <SCORE.INTER>
-48.6019

>  <SCORE.INTER.CONST>
1

>  <SCORE.INTER.POLAR>
-4.91047

>  <SCORE.INTER.ROT>
3

>  <SCORE.INTER.SOLV>
10.3782

>  <SCORE.INTER.VDW>
-25.0924

>  <SCORE.INTER.norm>
-3.73861

>  <SCORE.INTRA>
-0.871737

>  <SCORE.INTRA.DIHEDRAL>
-1.74504

>  <SCORE.INTRA.DIHEDRAL.0>
4.88905

>  <SCORE.INTRA.POLAR>
0

>  <SCORE.INTRA.POLAR.0>
0

>  <SCORE.INTRA.REPUL>
0

>  <SCORE.INTRA.REPUL.0>
0

>  <SCORE.INTRA.SOLV>
-0.391562

>  <SCORE.INTRA.SOLV.lig_0>
-15.1033

>  <SCORE.INTRA.VDW>
0.196564

>  <SCORE.INTRA.VDW.0>
-0.755285

>  <SCORE.INTRA.norm>
-0.0670567

>  <SCORE.RESTR>
0

>  <SCORE.RESTR.CAVITY>
0

>  <SCORE.RESTR.norm>
0

>  <SCORE.SYSTEM>
0

>  <SCORE.SYSTEM.CONST>
0

>  <SCORE.SYSTEM.DIHEDRAL>
0

>  <SCORE.SYSTEM.SOLV>
0

>  <SCORE.SYSTEM.norm>
0

>  <SCORE.heavy>
13

>  <SCORE.norm>
-3.80566

>  <RMSD>
0.476

$$$$
ligand
 OpenBabel11021811513D
libRbt.so/2013.1/901 2013/11/27
 13 14  0  0  0  0  0  0  0  0999 V2000
   34.3281   29.7349  108.1378 N   0  0  0  0  0  0  0  0  0  0  0  0
   34.2247   31.0276  108.7012 C   0  0  0  0  0  0  0  0  0  0  0  0
   35.4239   31.7840  108.9585 N   0  0  0  0  0  0  0  0  0  0  0  0
   33.0078   31.5787  109.0106 N   0  0  0  0  0  0  0  0  0  0  0  0
   31.8120   30.8860  108.7808 C   0  0  0  0  0  0  0  0  0  0  0  0
   31.8714   29.5665  108.2086 C   0  0  0  0  0  0  0  0  0  0  0  0
   33.1817   28.9993  107.8874 C   0  0  0  0  0  0  0  0  0  0  0  0
   33.2784   27.7415  107.3399 O   0  0  0  0  0  0  0  0  0  0  0  0
   30.4969   29.1111  108.0951 C   0  0  0  0  0  0  0  0  0  0  0  0
   29.6914   30.1424  108.5795 C   0  0  0  0  0  0  0  0  0  0  0  0
   30.4800   31.1943  108.9886 N   0  0  0  0  0  0  0  0  0  0  0  0
   30.0368   27.7927  107.5491 C   0  0  0  0  0  0  0  0  0  0  0  0
   29.9436   27.8786  106.1034 N   0  0  0  0  0  0  0  0  0  0  0  0
  1  2  1  0  0  0  0
  1  7  1  0  0  0  0
  2  3  1  0  0  0  0
  2  4  2  0  0  0  0
  4  5  1  0  0  0  0
  5  6  2  0  0  0  0
  5 11  1  0  0  0  0
  6  7  1  0  0  0  0
  6  9  1  0  0  0  0
  7  8  2  0  0  0  0
  9 10  2  0  0  0  0
  9 12  1  0  0  0  0
 10 11  1  0  0  0  0
 12 13  1  0  0  0  0
M  END
>  <CHROM.1>
3.58957175,-84.22472191,36.75663476,32.18833828,29.78768826,108.14580950
-0.61041606,-0.00996221,-2.62949489

>  <Name>
ligand

>  <RI>
1.99388e+07

>  <Rbt.Current_Directory>
/home/itssahil/PROJECTS/Mol_Feturizer/New_Systems/rnas/4RZD

>  <Rbt.Executable>
rbdock ($Id: //depot/dev/client3/rdock/2013.1/src/exe/rbdock.cxx#4 $)

>  <Rbt.Library>
libRbt.so (2013.1, Build901 2013/11/27)

>  <Rbt.Parameter_File>
/export/apps/rDock/src/rDock_2013.1_src/data/scripts/dock_solv.prm

>  <Rbt.Receptor>
prm/pocket_docking_2.prm

>  <SCORE>
-49.342

>  <SCORE.INTER>
-48.536

>  <SCORE.INTER.CONST>
1

>  <SCORE.INTER.POLAR>
-4.91047

>  <SCORE.INTER.ROT>
3

>  <SCORE.INTER.SOLV>
10.3419

>  <SCORE.INTER.VDW>
-25.0364

>  <SCORE.INTER.norm>
-3.73354

>  <SCORE.INTRA>
-0.806062

>  <SCORE.INTRA.DIHEDRAL>
-1.65697

>  <SCORE.INTRA.DIHEDRAL.0>
4.88905

>  <SCORE.INTRA.POLAR>
0

>  <SCORE.INTRA.POLAR.0>
0

>  <SCORE.INTRA.REPUL>
0

>  <SCORE.INTRA.REPUL.0>
0

>  <SCORE.INTRA.SOLV>
-0.349115

>  <SCORE.INTRA.SOLV.lig_0>
-15.1033

>  <SCORE.INTRA.VDW>
0.19698

>  <SCORE.INTRA.VDW.0>
-0.755285

>  <SCORE.INTRA.norm>
-0.0620048

>  <SCORE.RESTR>
0

>  <SCORE.RESTR.CAVITY>
0

>  <SCORE.RESTR.norm>
0

>  <SCORE.SYSTEM>
0

>  <SCORE.SYSTEM.CONST>
0

>  <SCORE.SYSTEM.DIHEDRAL>
0

>  <SCORE.SYSTEM.SOLV>
0

>  <SCORE.SYSTEM.norm>
0

>  <SCORE.heavy>
13

>  <SCORE.norm>
-3.79554

>  <RMSD>
0.477

$$$$
ligand
 OpenBabel11021811513D
libRbt.so/2013.1/901 2013/11/27
 13 14  0  0  0  0  0  0  0  0999 V2000
   34.3163   29.7276  108.1318 N   0  0  0  0  0  0  0  0  0  0  0  0
   34.2175   31.0231  108.6896 C   0  0  0  0  0  0  0  0  0  0  0  0
   35.4194   31.7768  108.9425 N   0  0  0  0  0  0  0  0  0  0  0  0
   33.0027   31.5794  108.9977 N   0  0  0  0  0  0  0  0  0  0  0  0
   31.8044   30.8895  108.7720 C   0  0  0  0  0  0  0  0  0  0  0  0
   31.8591   29.5674  108.2056 C   0  0  0  0  0  0  0  0  0  0  0  0
   33.1673   28.9946  107.8857 C   0  0  0  0  0  0  0  0  0  0  0  0
   33.2595   27.7341  107.3437 O   0  0  0  0  0  0  0  0  0  0  0  0
   30.4830   29.1159  108.0953 C   0  0  0  0  0  0  0  0  0  0  0  0
   29.6813   30.1519  108.5760 C   0  0  0  0  0  0  0  0  0  0  0  0
   30.4736   31.2031  108.9798 N   0  0  0  0  0  0  0  0  0  0  0  0
   30.0182   27.7966  107.5556 C   0  0  0  0  0  0  0  0  0  0  0  0
   29.9406   27.8712  106.1083 N   0  0  0  0  0  0  0  0  0  0  0  0
  1  2  1  0  0  0  0
  1  7  1  0  0  0  0
  2  3  1  0  0  0  0
  2  4  2  0  0  0  0
  4  5  1  0  0  0  0
  5  6  2  0  0  0  0
  5 11  1  0  0  0  0
  6  7  1  0  0  0  0
  6  9  1  0  0  0  0
  7  8  2  0  0  0  0
  9 10  2  0  0  0  0
  9 12  1  0  0  0  0
 10 11  1  0  0  0  0
 12 13  1  0  0  0  0
M  END
>  <CHROM.1>
3.55802954,-83.49224880,37.27383569,32.17828187,29.78680397,108.14140471
-0.60846783,-0.00982333,-2.63349244

>  <Name>
ligand

>  <RI>
2.73617e+07

>  <Rbt.Current_Directory>
/home/itssahil/PROJECTS/Mol_Feturizer/New_Systems/rnas/4RZD

>  <Rbt.Executable>
rbdock ($Id: //depot/dev/client3/rdock/2013.1/src/exe/rbdock.cxx#4 $)

>  <Rbt.Library>
libRbt.so (2013.1, Build901 2013/11/27)

>  <Rbt.Parameter_File>
/export/apps/rDock/src/rDock_2013.1_src/data/scripts/dock_solv.prm

>  <Rbt.Receptor>
prm/pocket_docking_6.prm

>  <SCORE>
-49.3797

>  <SCORE.INTER>
-48.5562

>  <SCORE.INTER.CONST>
1

>  <SCORE.INTER.POLAR>
-4.91047

>  <SCORE.INTER.ROT>
3

>  <SCORE.INTER.SOLV>
10.312

>  <SCORE.INTER.VDW>
-25.0399

>  <SCORE.INTER.norm>
-3.7351

>  <SCORE.INTRA>
-0.823422

>  <SCORE.INTRA.DIHEDRAL>
-1.68692

>  <SCORE.INTRA.DIHEDRAL.0>
4.88905

>  <SCORE.INTRA.POLAR>
0

>  <SCORE.INTRA.POLAR.0>
0

>  <SCORE.INTRA.REPUL>
0

>  <SCORE.INTRA.REPUL.0>
0

>  <SCORE.INTRA.SOLV>
-0.338688

>  <SCORE.INTRA.SOLV.lig_0>
-15.1033

>  <SCORE.INTRA.VDW>
0.18938

>  <SCORE.INTRA.VDW.0>
-0.755285

>  <SCORE.INTRA.norm>
-0.0633402

>  <SCORE.RESTR>
0

>  <SCORE.RESTR.CAVITY>
0

>  <SCORE.RESTR.norm>
0

>  <SCORE.SYSTEM>
0

>  <SCORE.SYSTEM.CONST>
0

>  <SCORE.SYSTEM.DIHEDRAL>
0

>  <SCORE.SYSTEM.SOLV>
0

>  <SCORE.SYSTEM.norm>
0

>  <SCORE.heavy>
13

>  <SCORE.norm>
-3.79844

>  <RMSD>
0.477

$$$$
ligand
 OpenBabel11021811513D
libRbt.so/2013.1/901 2013/11/27
 13 14  0  0  0  0  0  0  0  0999 V2000
   34.2868   29.7296  108.1102 N   0  0  0  0  0  0  0  0  0  0  0  0
   34.1887   31.0268  108.6643 C   0  0  0  0  0  0  0  0  0  0  0  0
   35.3906   31.7823  108.9111 N   0  0  0  0  0  0  0  0  0  0  0  0
   32.9743   31.5830  108.9745 N   0  0  0  0  0  0  0  0  0  0  0  0
   31.7760   30.8914  108.7547 C   0  0  0  0  0  0  0  0  0  0  0  0
   31.8301   29.5675  108.1922 C   0  0  0  0  0  0  0  0  0  0  0  0
   33.1378   28.9949  107.8700 C   0  0  0  0  0  0  0  0  0  0  0  0
   33.2293   27.7327  107.3316 O   0  0  0  0  0  0  0  0  0  0  0  0
   30.4541   29.1145  108.0877 C   0  0  0  0  0  0  0  0  0  0  0  0
   29.6529   30.1512  108.5676 C   0  0  0  0  0  0  0  0  0  0  0  0
   30.4456   31.2044  108.9656 N   0  0  0  0  0  0  0  0  0  0  0  0
   29.9887   27.7931  107.5535 C   0  0  0  0  0  0  0  0  0  0  0  0
   29.9241   27.8573  106.1051 N   0  0  0  0  0  0  0  0  0  0  0  0
  1  2  1  0  0  0  0
  1  7  1  0  0  0  0
  2  3  1  0  0  0  0
  2  4  2  0  0  0  0
  4  5  1  0  0  0  0
  5  6  2  0  0  0  0
  5 11  1  0  0  0  0
  6  7  1  0  0  0  0
  6  9  1  0  0  0  0
  7  8  2  0  0  0  0
  9 10  2  0  0  0  0
  9 12  1  0  0  0  0
 10 11  1  0  0  0  0
 12 13  1  0  0  0  0
M  END
>  <CHROM.1>
174.60405942,-82.71453178,37.57770362,32.15055476,29.78641938,108.12617673
-0.60894711,-0.01328958,-2.63676826

>  <Name>
ligand

>  <RI>
1.38753e+07

>  <Rbt.Current_Directory>
/home/itssahil/PROJECTS/Mol_Feturizer/New_Systems/rnas/4RZD

>  <Rbt.Executable>
rbdock ($Id: //depot/dev/client3/rdock/2013.1/src/exe/rbdock.cxx#4 $)

>  <Rbt.Library>
libRbt.so (2013.1, Build901 2013/11/27)

>  <Rbt.Parameter_File>
/export/apps/rDock/src/rDock_2013.1_src/data/scripts/dock_solv.prm

>  <Rbt.Receptor>
prm/pocket_docking_7.prm

>  <SCORE>
-49.4283

>  <SCORE.INTER>
-48.5959

>  <SCORE.INTER.CONST>
1

>  <SCORE.INTER.POLAR>
-4.91047

>  <SCORE.INTER.ROT>
3

>  <SCORE.INTER.SOLV>
10.3326

>  <SCORE.INTER.VDW>
-25.0732

>  <SCORE.INTER.norm>
-3.73815

>  <SCORE.INTRA>
-0.832444

>  <SCORE.INTRA.DIHEDRAL>
-1.70416

>  <SCORE.INTRA.DIHEDRAL.0>
4.88905

>  <SCORE.INTRA.POLAR>
0

>  <SCORE.INTRA.POLAR.0>
0

>  <SCORE.INTRA.REPUL>
0

>  <SCORE.INTRA.REPUL.0>
0

>  <SCORE.INTRA.SOLV>
-0.32784

>  <SCORE.INTRA.SOLV.lig_0>
-15.1033

>  <SCORE.INTRA.VDW>
0.183555

>  <SCORE.INTRA.VDW.0>
-0.755285

>  <SCORE.INTRA.norm>
-0.0640342

>  <SCORE.RESTR>
0

>  <SCORE.RESTR.CAVITY>
0

>  <SCORE.RESTR.norm>
0

>  <SCORE.SYSTEM>
0

>  <SCORE.SYSTEM.CONST>
0

>  <SCORE.SYSTEM.DIHEDRAL>
0

>  <SCORE.SYSTEM.SOLV>
0

>  <SCORE.SYSTEM.norm>
0

>  <SCORE.heavy>
13

>  <SCORE.norm>
-3.80218

>  <RMSD>
0.477

$$$$
ligand
 OpenBabel11021811513D
libRbt.so/2013.1/901 2013/11/27
 13 14  0  0  0  0  0  0  0  0999 V2000
   34.3181   29.7236  108.1461 N   0  0  0  0  0  0  0  0  0  0  0  0
   34.2133   31.0176  108.7062 C   0  0  0  0  0  0  0  0  0  0  0  0
   35.4116   31.7762  108.9611 N   0  0  0  0  0  0  0  0  0  0  0  0
   32.9957   31.5679  109.0146 N   0  0  0  0  0  0  0  0  0  0  0  0
   31.8007   30.8731  108.7870 C   0  0  0  0  0  0  0  0  0  0  0  0
   31.8617   29.5522  108.2182 C   0  0  0  0  0  0  0  0  0  0  0  0
   33.1726   28.9859  107.8981 C   0  0  0  0  0  0  0  0  0  0  0  0
   33.2707   27.7268  107.3538 O   0  0  0  0  0  0  0  0  0  0  0  0
   30.4877   29.0948  108.1063 C   0  0  0  0  0  0  0  0  0  0  0  0
   29.6810   30.1263  108.5884 C   0  0  0  0  0  0  0  0  0  0  0  0
   30.4684   31.1803  108.9945 N   0  0  0  0  0  0  0  0  0  0  0  0
   30.0291   27.7744  107.5640 C   0  0  0  0  0  0  0  0  0  0  0  0
   29.9005   27.8672  106.1214 N   0  0  0  0  0  0  0  0  0  0  0  0
  1  2  1  0  0  0  0
  1  7  1  0  0  0  0
  2  3  1  0  0  0  0
  2  4  2  0  0  0  0
  4  5  1  0  0  0  0
  5  6  2  0  0  0  0
  5 11  1  0  0  0  0
  6  7  1  0  0  0  0
  6  9  1  0  0  0  0
  7  8  2  0  0  0  0
  9 10  2  0  0  0  0
  9 12  1  0  0  0  0
 10 11  1  0  0  0  0
 12 13  1  0  0  0  0
M  END
>  <CHROM.1>
170.73492455,-85.75441712,37.33488947,32.17513078,29.77463838,108.15505809
-0.60847680,-0.00913460,-2.63360793

>  <Name>
ligand

>  <RI>
2.51964e+07

>  <Rbt.Current_Directory>
/home/itssahil/PROJECTS/Mol_Feturizer/New_Systems/rnas/4RZD

>  <Rbt.Executable>
rbdock ($Id: //depot/dev/client3/rdock/2013.1/src/exe/rbdock.cxx#4 $)

>  <Rbt.Library>
libRbt.so (2013.1, Build901 2013/11/27)

>  <Rbt.Parameter_File>
/export/apps/rDock/src/rDock_2013.1_src/data/scripts/dock_solv.prm

>  <Rbt.Receptor>
prm/pocket_docking_4.prm

>  <SCORE>
-49.4734

>  <SCORE.INTER>
-48.641

>  <SCORE.INTER.CONST>
1

>  <SCORE.INTER.POLAR>
-4.91026

>  <SCORE.INTER.ROT>
3

>  <SCORE.INTER.SOLV>
10.3739

>  <SCORE.INTER.VDW>
-25.1178

>  <SCORE.INTER.norm>
-3.74162

>  <SCORE.INTRA>
-0.83237

>  <SCORE.INTRA.DIHEDRAL>
-1.6914

>  <SCORE.INTRA.DIHEDRAL.0>
4.88905

>  <SCORE.INTRA.POLAR>
0

>  <SCORE.INTRA.POLAR.0>
0

>  <SCORE.INTRA.REPUL>
0

>  <SCORE.INTRA.REPUL.0>
0

>  <SCORE.INTRA.SOLV>
-0.368969

>  <SCORE.INTRA.SOLV.lig_0>
-15.1033

>  <SCORE.INTRA.VDW>
0.197815

>  <SCORE.INTRA.VDW.0>
-0.755285

>  <SCORE.INTRA.norm>
-0.0640285

>  <SCORE.RESTR>
0

>  <SCORE.RESTR.CAVITY>
0

>  <SCORE.RESTR.norm>
0

>  <SCORE.SYSTEM>
0

>  <SCORE.SYSTEM.CONST>
0

>  <SCORE.SYSTEM.DIHEDRAL>
0

>  <SCORE.SYSTEM.SOLV>
0

>  <SCORE.SYSTEM.norm>
0

>  <SCORE.heavy>
13

>  <SCORE.norm>
-3.80565

>  <RMSD>
0.478

$$$$
ligand
 OpenBabel11021811513D
libRbt.so/2013.1/901 2013/11/27
 13 14  0  0  0  0  0  0  0  0999 V2000
   34.2087   29.6629  108.0896 N   0  0  0  0  0  0  0  0  0  0  0  0
   34.1384   30.8860  108.7955 C   0  0  0  0  0  0  0  0  0  0  0  0
   35.3564   31.5223  109.2292 N   0  0  0  0  0  0  0  0  0  0  0  0
   32.9360   31.4810  109.0790 N   0  0  0  0  0  0  0  0  0  0  0  0
   31.7230   30.9044  108.6805 C   0  0  0  0  0  0  0  0  0  0  0  0
   31.7487   29.6589  107.9595 C   0  0  0  0  0  0  0  0  0  0  0  0
   33.0440   29.0427  107.6692 C   0  0  0  0  0  0  0  0  0  0  0  0
   33.1084   27.8528  106.9828 O   0  0  0  0  0  0  0  0  0  0  0  0
   30.3628   29.3165  107.6916 C   0  0  0  0  0  0  0  0  0  0  0  0
   29.5846   30.3385  108.2365 C   0  0  0  0  0  0  0  0  0  0  0  0
   30.3997   31.2787  108.8259 N   0  0  0  0  0  0  0  0  0  0  0  0
   29.8695   28.1051  106.9587 C   0  0  0  0  0  0  0  0  0  0  0  0
   30.6168   27.9546  105.7237 N   0  0  0  0  0  0  0  0  0  0  0  0
  1  2  1  0  0  0  0
  1  7  1  0  0  0  0
  2  3  1  0  0  0  0
  2  4  2  0  0  0  0
  4  5  1  0  0  0  0
  5  6  2  0  0  0  0
  5 11  1  0  0  0  0
  6  7  1  0  0  0  0
  6  9  1  0  0  0  0
  7  8  2  0  0  0  0
  9 10  2  0  0  0  0
  9 12  1  0  0  0  0
 10 11  1  0  0  0  0
 12 13  1  0  0  0  0
M  END
>  <CHROM.1>
1.79082298,-48.15143187,-32.45700471,32.14548853,29.82325484,107.96178401
-0.65513249,0.06128179,-2.52259955

>  <Name>
ligand

>  <RI>
2.51964e+07

>  <Rbt.Current_Directory>
/home/itssahil/PROJECTS/Mol_Feturizer/New_Systems/rnas/4RZD

>  <Rbt.Executable>
rbdock ($Id: //depot/dev/client3/rdock/2013.1/src/exe/rbdock.cxx#4 $)

>  <Rbt.Library>
libRbt.so (2013.1, Build901 2013/11/27)

>  <Rbt.Parameter_File>
/export/apps/rDock/src/rDock_2013.1_src/data/scripts/dock_solv.prm

>  <Rbt.Receptor>
prm/pocket_docking_4.prm

>  <SCORE>
-49.9181

>  <SCORE.INTER>
-49.5273

>  <SCORE.INTER.CONST>
1

>  <SCORE.INTER.POLAR>
-4.96077

>  <SCORE.INTER.ROT>
3

>  <SCORE.INTER.SOLV>
10.5124

>  <SCORE.INTER.VDW>
-25.5864

>  <SCORE.INTER.norm>
-3.8098

>  <SCORE.INTRA>
-0.390723

>  <SCORE.INTRA.DIHEDRAL>
-1.34237

>  <SCORE.INTRA.DIHEDRAL.0>
4.88905

>  <SCORE.INTRA.POLAR>
0

>  <SCORE.INTRA.POLAR.0>
0

>  <SCORE.INTRA.REPUL>
0

>  <SCORE.INTRA.REPUL.0>
0

>  <SCORE.INTRA.SOLV>
0.0381203

>  <SCORE.INTRA.SOLV.lig_0>
-15.1033

>  <SCORE.INTRA.VDW>
0.2614

>  <SCORE.INTRA.VDW.0>
-0.755285

>  <SCORE.INTRA.norm>
-0.0300556

>  <SCORE.RESTR>
0

>  <SCORE.RESTR.CAVITY>
0

>  <SCORE.RESTR.norm>
0

>  <SCORE.SYSTEM>
0

>  <SCORE.SYSTEM.CONST>
0

>  <SCORE.SYSTEM.DIHEDRAL>
0

>  <SCORE.SYSTEM.SOLV>
0

>  <SCORE.SYSTEM.norm>
0

>  <SCORE.heavy>
13

>  <SCORE.norm>
-3.83985

>  <RMSD>
0.478

$$$$
ligand
 OpenBabel11021811513D
libRbt.so/2013.1/901 2013/11/27
 13 14  0  0  0  0  0  0  0  0999 V2000
   34.2860   29.7385  108.1493 N   0  0  0  0  0  0  0  0  0  0  0  0
   34.1790   31.0401  108.6911 C   0  0  0  0  0  0  0  0  0  0  0  0
   35.3766   31.7997  108.9463 N   0  0  0  0  0  0  0  0  0  0  0  0
   32.9599   31.5968  108.9816 N   0  0  0  0  0  0  0  0  0  0  0  0
   31.7655   30.9014  108.7529 C   0  0  0  0  0  0  0  0  0  0  0  0
   31.8287   29.5729  108.2024 C   0  0  0  0  0  0  0  0  0  0  0  0
   33.1412   28.9998  107.9012 C   0  0  0  0  0  0  0  0  0  0  0  0
   33.2414   27.7333  107.3747 O   0  0  0  0  0  0  0  0  0  0  0  0
   30.4548   29.1166  108.0847 C   0  0  0  0  0  0  0  0  0  0  0  0
   29.6461   30.1560  108.5460 C   0  0  0  0  0  0  0  0  0  0  0  0
   30.4321   31.2139  108.9448 N   0  0  0  0  0  0  0  0  0  0  0  0
   29.9982   27.7900  107.5561 C   0  0  0  0  0  0  0  0  0  0  0  0
   29.9261   27.8500  106.1078 N   0  0  0  0  0  0  0  0  0  0  0  0
  1  2  1  0  0  0  0
  1  7  1  0  0  0  0
  2  3  1  0  0  0  0
  2  4  2  0  0  0  0
  4  5  1  0  0  0  0
  5  6  2  0  0  0  0
  5 11  1  0  0  0  0
  6  7  1  0  0  0  0
  6  9  1  0  0  0  0
  7  8  2  0  0  0  0
  9 10  2  0  0  0  0
  9 12  1  0  0  0  0
 10 11  1  0  0  0  0
 12 13  1  0  0  0  0
M  END
>  <CHROM.1>
-9.88322857,-83.82936792,38.24114655,32.14726332,29.79258877,108.13862112
-0.61446174,-0.00216961,-2.64603384

>  <Name>
ligand

>  <RI>
1.35221e+07

>  <Rbt.Current_Directory>
/home/itssahil/PROJECTS/Mol_Feturizer/New_Systems/rnas/4RZD

>  <Rbt.Executable>
rbdock ($Id: //depot/dev/client3/rdock/2013.1/src/exe/rbdock.cxx#4 $)

>  <Rbt.Library>
libRbt.so (2013.1, Build901 2013/11/27)

>  <Rbt.Parameter_File>
/export/apps/rDock/src/rDock_2013.1_src/data/scripts/dock_solv.prm

>  <Rbt.Receptor>
prm/pocket_docking_5.prm

>  <SCORE>
-49.4831

>  <SCORE.INTER>
-48.6228

>  <SCORE.INTER.CONST>
1

>  <SCORE.INTER.POLAR>
-4.91047

>  <SCORE.INTER.ROT>
3

>  <SCORE.INTER.SOLV>
10.3102

>  <SCORE.INTER.VDW>
-25.0837

>  <SCORE.INTER.norm>
-3.74022

>  <SCORE.INTRA>
-0.860269

>  <SCORE.INTRA.DIHEDRAL>
-1.74283

>  <SCORE.INTRA.DIHEDRAL.0>
4.88905

>  <SCORE.INTRA.POLAR>
0

>  <SCORE.INTRA.POLAR.0>
0

>  <SCORE.INTRA.REPUL>
0

>  <SCORE.INTRA.REPUL.0>
0

>  <SCORE.INTRA.SOLV>
-0.342336

>  <SCORE.INTRA.SOLV.lig_0>
-15.1033

>  <SCORE.INTRA.VDW>
0.182316

>  <SCORE.INTRA.VDW.0>
-0.755285

>  <SCORE.INTRA.norm>
-0.0661745

>  <SCORE.RESTR>
0

>  <SCORE.RESTR.CAVITY>
0

>  <SCORE.RESTR.norm>
0

>  <SCORE.SYSTEM>
0

>  <SCORE.SYSTEM.CONST>
0

>  <SCORE.SYSTEM.DIHEDRAL>
0

>  <SCORE.SYSTEM.SOLV>
0

>  <SCORE.SYSTEM.norm>
0

>  <SCORE.heavy>
13

>  <SCORE.norm>
-3.80639

>  <RMSD>
0.478

$$$$
ligand
 OpenBabel11021811513D
libRbt.so/2013.1/901 2013/11/27
 13 14  0  0  0  0  0  0  0  0999 V2000
   34.3489   29.7565  108.1946 N   0  0  0  0  0  0  0  0  0  0  0  0
   34.2241   31.0456  108.7620 C   0  0  0  0  0  0  0  0  0  0  0  0
   35.4116   31.8127  109.0405 N   0  0  0  0  0  0  0  0  0  0  0  0
   32.9972   31.5831  109.0553 N   0  0  0  0  0  0  0  0  0  0  0  0
   31.8120   30.8795  108.8046 C   0  0  0  0  0  0  0  0  0  0  0  0
   31.8933   29.5633  108.2277 C   0  0  0  0  0  0  0  0  0  0  0  0
   33.2138   29.0106  107.9239 C   0  0  0  0  0  0  0  0  0  0  0  0
   33.3314   27.7562  107.3725 O   0  0  0  0  0  0  0  0  0  0  0  0
   30.5252   29.0947  108.0916 C   0  0  0  0  0  0  0  0  0  0  0  0
   29.7022   30.1157  108.5683 C   0  0  0  0  0  0  0  0  0  0  0  0
   30.4740   31.1737  108.9937 N   0  0  0  0  0  0  0  0  0  0  0  0
   30.0866   27.7742  107.5331 C   0  0  0  0  0  0  0  0  0  0  0  0
   29.9458   27.8856  106.0930 N   0  0  0  0  0  0  0  0  0  0  0  0
  1  2  1  0  0  0  0
  1  7  1  0  0  0  0
  2  3  1  0  0  0  0
  2  4  2  0  0  0  0
  4  5  1  0  0  0  0
  5  6  2  0  0  0  0
  5 11  1  0  0  0  0
  6  7  1  0  0  0  0
  6  9  1  0  0  0  0
  7  8  2  0  0  0  0
  9 10  2  0  0  0  0
  9 12  1  0  0  0  0
 10 11  1  0  0  0  0
 12 13  1  0  0  0  0
M  END
>  <CHROM.1>
-5.95843645,-87.22304231,37.56129024,32.20248693,29.78972882,108.17136149
-0.62111612,0.00101475,-2.62735765

>  <Name>
ligand

>  <RI>
1.99388e+07

>  <Rbt.Current_Directory>
/home/itssahil/PROJECTS/Mol_Feturizer/New_Systems/rnas/4RZD

>  <Rbt.Executable>
rbdock ($Id: //depot/dev/client3/rdock/2013.1/src/exe/rbdock.cxx#4 $)

>  <Rbt.Library>
libRbt.so (2013.1, Build901 2013/11/27)

>  <Rbt.Parameter_File>
/export/apps/rDock/src/rDock_2013.1_src/data/scripts/dock_solv.prm

>  <Rbt.Receptor>
prm/pocket_docking_2.prm

>  <SCORE>
-49.4416

>  <SCORE.INTER>
-48.5964

>  <SCORE.INTER.CONST>
1

>  <SCORE.INTER.POLAR>
-4.91047

>  <SCORE.INTER.ROT>
3

>  <SCORE.INTER.SOLV>
10.3968

>  <SCORE.INTER.VDW>
-25.095

>  <SCORE.INTER.norm>
-3.73819

>  <SCORE.INTRA>
-0.845187

>  <SCORE.INTRA.DIHEDRAL>
-1.70492

>  <SCORE.INTRA.DIHEDRAL.0>
4.88905

>  <SCORE.INTRA.POLAR>
0

>  <SCORE.INTRA.POLAR.0>
0

>  <SCORE.INTRA.REPUL>
0

>  <SCORE.INTRA.REPUL.0>
0

>  <SCORE.INTRA.SOLV>
-0.3882

>  <SCORE.INTRA.SOLV.lig_0>
-15.1033

>  <SCORE.INTRA.VDW>
0.201371

>  <SCORE.INTRA.VDW.0>
-0.755285

>  <SCORE.INTRA.norm>
-0.0650144

>  <SCORE.RESTR>
0

>  <SCORE.RESTR.CAVITY>
0

>  <SCORE.RESTR.norm>
0

>  <SCORE.SYSTEM>
0

>  <SCORE.SYSTEM.CONST>
0

>  <SCORE.SYSTEM.DIHEDRAL>
0

>  <SCORE.SYSTEM.SOLV>
0

>  <SCORE.SYSTEM.norm>
0

>  <SCORE.heavy>
13

>  <SCORE.norm>
-3.8032

>  <RMSD>
0.479

$$$$
ligand
 OpenBabel11021811513D
libRbt.so/2013.1/901 2013/11/27
 13 14  0  0  0  0  0  0  0  0999 V2000
   34.2907   29.7092  108.1008 N   0  0  0  0  0  0  0  0  0  0  0  0
   34.2034   31.0063  108.6569 C   0  0  0  0  0  0  0  0  0  0  0  0
   35.4105   31.7581  108.8889 N   0  0  0  0  0  0  0  0  0  0  0  0
   32.9946   31.5657  108.9828 N   0  0  0  0  0  0  0  0  0  0  0  0
   31.7916   30.8778  108.7778 C   0  0  0  0  0  0  0  0  0  0  0  0
   31.8348   29.5541  108.2138 C   0  0  0  0  0  0  0  0  0  0  0  0
   33.1366   28.9779  107.8748 C   0  0  0  0  0  0  0  0  0  0  0  0
   33.2177   27.7159  107.3345 O   0  0  0  0  0  0  0  0  0  0  0  0
   30.4562   29.1051  108.1265 C   0  0  0  0  0  0  0  0  0  0  0  0
   29.6642   30.1439  108.6172 C   0  0  0  0  0  0  0  0  0  0  0  0
   30.4649   31.1945  109.0057 N   0  0  0  0  0  0  0  0  0  0  0  0
   29.9803   27.7854  107.5975 C   0  0  0  0  0  0  0  0  0  0  0  0
   29.9304   27.8397  106.1481 N   0  0  0  0  0  0  0  0  0  0  0  0
  1  2  1  0  0  0  0
  1  7  1  0  0  0  0
  2  3  1  0  0  0  0
  2  4  2  0  0  0  0
  4  5  1  0  0  0  0
  5  6  2  0  0  0  0
  5 11  1  0  0  0  0
  6  7  1  0  0  0  0
  6  9  1  0  0  0  0
  7  8  2  0  0  0  0
  9 10  2  0  0  0  0
  9 12  1  0  0  0  0
 10 11  1  0  0  0  0
 12 13  1  0  0  0  0
M  END
>  <CHROM.1>
175.19633071,-81.26279136,37.40885117,32.15804914,29.77111642,108.14367449
-0.60282338,-0.02421004,-2.63538186

>  <Name>
ligand

>  <RI>
1.99388e+07

>  <Rbt.Current_Directory>
/home/itssahil/PROJECTS/Mol_Feturizer/New_Systems/rnas/4RZD

>  <Rbt.Executable>
rbdock ($Id: //depot/dev/client3/rdock/2013.1/src/exe/rbdock.cxx#4 $)

>  <Rbt.Library>
libRbt.so (2013.1, Build901 2013/11/27)

>  <Rbt.Parameter_File>
/export/apps/rDock/src/rDock_2013.1_src/data/scripts/dock_solv.prm

>  <Rbt.Receptor>
prm/pocket_docking_2.prm

>  <SCORE>
-49.4304

>  <SCORE.INTER>
-48.6088

>  <SCORE.INTER.CONST>
1

>  <SCORE.INTER.POLAR>
-4.91047

>  <SCORE.INTER.ROT>
3

>  <SCORE.INTER.SOLV>
10.2267

>  <SCORE.INTER.VDW>
-25.0465

>  <SCORE.INTER.norm>
-3.73914

>  <SCORE.INTRA>
-0.821597

>  <SCORE.INTRA.DIHEDRAL>
-1.69348

>  <SCORE.INTRA.DIHEDRAL.0>
4.88905

>  <SCORE.INTRA.POLAR>
0

>  <SCORE.INTRA.POLAR.0>
0

>  <SCORE.INTRA.REPUL>
0

>  <SCORE.INTRA.REPUL.0>
0

>  <SCORE.INTRA.SOLV>
-0.308532

>  <SCORE.INTRA.SOLV.lig_0>
-15.1033

>  <SCORE.INTRA.VDW>
0.179408

>  <SCORE.INTRA.VDW.0>
-0.755285

>  <SCORE.INTRA.norm>
-0.0631998

>  <SCORE.RESTR>
0

>  <SCORE.RESTR.CAVITY>
0

>  <SCORE.RESTR.norm>
0

>  <SCORE.SYSTEM>
0

>  <SCORE.SYSTEM.CONST>
0

>  <SCORE.SYSTEM.DIHEDRAL>
0

>  <SCORE.SYSTEM.SOLV>
0

>  <SCORE.SYSTEM.norm>
0

>  <SCORE.heavy>
13

>  <SCORE.norm>
-3.80234

>  <RMSD>
0.479

$$$$
ligand
 OpenBabel11021811513D
libRbt.so/2013.1/901 2013/11/27
 13 14  0  0  0  0  0  0  0  0999 V2000
   34.2757   29.7434  108.1252 N   0  0  0  0  0  0  0  0  0  0  0  0
   34.1705   31.0385  108.6827 C   0  0  0  0  0  0  0  0  0  0  0  0
   35.3684   31.7983  108.9355 N   0  0  0  0  0  0  0  0  0  0  0  0
   32.9528   31.5888  108.9905 N   0  0  0  0  0  0  0  0  0  0  0  0
   31.7580   30.8929  108.7649 C   0  0  0  0  0  0  0  0  0  0  0  0
   31.8195   29.5709  108.1988 C   0  0  0  0  0  0  0  0  0  0  0  0
   33.1305   29.0046  107.8793 C   0  0  0  0  0  0  0  0  0  0  0  0
   33.2291   27.7444  107.3376 O   0  0  0  0  0  0  0  0  0  0  0  0
   30.4457   29.1125  108.0886 C   0  0  0  0  0  0  0  0  0  0  0  0
   29.6386   30.1445  108.5689 C   0  0  0  0  0  0  0  0  0  0  0  0
   30.4257   31.1998  108.9724 N   0  0  0  0  0  0  0  0  0  0  0  0
   29.9875   27.7907  107.5492 C   0  0  0  0  0  0  0  0  0  0  0  0
   29.9232   27.8601  106.1010 N   0  0  0  0  0  0  0  0  0  0  0  0
  1  2  1  0  0  0  0
  1  7  1  0  0  0  0
  2  3  1  0  0  0  0
  2  4  2  0  0  0  0
  4  5  1  0  0  0  0
  5  6  2  0  0  0  0
  5 11  1  0  0  0  0
  6  7  1  0  0  0  0
  6  9  1  0  0  0  0
  7  8  2  0  0  0  0
  9 10  2  0  0  0  0
  9 12  1  0  0  0  0
 10 11  1  0  0  0  0
 12 13  1  0  0  0  0
M  END
>  <CHROM.1>
170.40266760,-82.89465708,37.83433213,32.13884605,29.79142206,108.13450293
-0.61380603,-0.01216363,-2.63431512

>  <Name>
ligand

>  <RI>
1.38753e+07

>  <Rbt.Current_Directory>
/home/itssahil/PROJECTS/Mol_Feturizer/New_Systems/rnas/4RZD

>  <Rbt.Executable>
rbdock ($Id: //depot/dev/client3/rdock/2013.1/src/exe/rbdock.cxx#4 $)

>  <Rbt.Library>
libRbt.so (2013.1, Build901 2013/11/27)

>  <Rbt.Parameter_File>
/export/apps/rDock/src/rDock_2013.1_src/data/scripts/dock_solv.prm

>  <Rbt.Receptor>
prm/pocket_docking_7.prm

>  <SCORE>
-49.4846

>  <SCORE.INTER>
-48.6421

>  <SCORE.INTER.CONST>
1

>  <SCORE.INTER.POLAR>
-4.90874

>  <SCORE.INTER.ROT>
3

>  <SCORE.INTER.SOLV>
10.3468

>  <SCORE.INTER.VDW>
-25.1146

>  <SCORE.INTER.norm>
-3.7417

>  <SCORE.INTRA>
-0.842447

>  <SCORE.INTRA.DIHEDRAL>
-1.71907

>  <SCORE.INTRA.DIHEDRAL.0>
4.88905

>  <SCORE.INTRA.POLAR>
0

>  <SCORE.INTRA.POLAR.0>
0

>  <SCORE.INTRA.REPUL>
0

>  <SCORE.INTRA.REPUL.0>
0

>  <SCORE.INTRA.SOLV>
-0.330156

>  <SCORE.INTRA.SOLV.lig_0>
-15.1033

>  <SCORE.INTRA.VDW>
0.182165

>  <SCORE.INTRA.VDW.0>
-0.755285

>  <SCORE.INTRA.norm>
-0.0648036

>  <SCORE.RESTR>
0

>  <SCORE.RESTR.CAVITY>
0

>  <SCORE.RESTR.norm>
0

>  <SCORE.SYSTEM>
0

>  <SCORE.SYSTEM.CONST>
0

>  <SCORE.SYSTEM.DIHEDRAL>
0

>  <SCORE.SYSTEM.SOLV>
0

>  <SCORE.SYSTEM.norm>
0

>  <SCORE.heavy>
13

>  <SCORE.norm>
-3.80651

>  <RMSD>
0.481

$$$$
ligand
 OpenBabel11021811513D
libRbt.so/2013.1/901 2013/11/27
 13 14  0  0  0  0  0  0  0  0999 V2000
   34.3168   29.7052  108.1198 N   0  0  0  0  0  0  0  0  0  0  0  0
   34.2197   31.0046  108.6686 C   0  0  0  0  0  0  0  0  0  0  0  0
   35.4218   31.7633  108.9047 N   0  0  0  0  0  0  0  0  0  0  0  0
   33.0062   31.5602  108.9834 N   0  0  0  0  0  0  0  0  0  0  0  0
   31.8078   30.8655  108.7739 C   0  0  0  0  0  0  0  0  0  0  0  0
   31.8609   29.5392  108.2171 C   0  0  0  0  0  0  0  0  0  0  0  0
   33.1676   28.9674  107.8898 C   0  0  0  0  0  0  0  0  0  0  0  0
   33.2582   27.7030  107.3565 O   0  0  0  0  0  0  0  0  0  0  0  0
   30.4850   29.0834  108.1228 C   0  0  0  0  0  0  0  0  0  0  0  0
   29.6849   30.1209  108.6029 C   0  0  0  0  0  0  0  0  0  0  0  0
   30.4781   31.1772  108.9914 N   0  0  0  0  0  0  0  0  0  0  0  0
   30.0188   27.7588  107.5974 C   0  0  0  0  0  0  0  0  0  0  0  0
   29.8514   27.8457  106.1585 N   0  0  0  0  0  0  0  0  0  0  0  0
  1  2  1  0  0  0  0
  1  7  1  0  0  0  0
  2  3  1  0  0  0  0
  2  4  2  0  0  0  0
  4  5  1  0  0  0  0
  5  6  2  0  0  0  0
  5 11  1  0  0  0  0
  6  7  1  0  0  0  0
  6  9  1  0  0  0  0
  7  8  2  0  0  0  0
  9 10  2  0  0  0  0
  9 12  1  0  0  0  0
 10 11  1  0  0  0  0
 12 13  1  0  0  0  0
M  END
>  <CHROM.1>
175.98984580,-86.85581311,36.91223976,32.17169649,29.76107583,108.14920244
-0.60023568,-0.01600361,-2.64333117

>  <Name>
ligand

>  <RI>
1.0531e+07

>  <Rbt.Current_Directory>
/home/itssahil/PROJECTS/Mol_Feturizer/New_Systems/rnas/4RZD

>  <Rbt.Executable>
rbdock ($Id: //depot/dev/client3/rdock/2013.1/src/exe/rbdock.cxx#4 $)

>  <Rbt.Library>
libRbt.so (2013.1, Build901 2013/11/27)

>  <Rbt.Parameter_File>
/export/apps/rDock/src/rDock_2013.1_src/data/scripts/dock_solv.prm

>  <Rbt.Receptor>
prm/pocket_docking_8.prm

>  <SCORE>
-49.4157

>  <SCORE.INTER>
-48.596

>  <SCORE.INTER.CONST>
1

>  <SCORE.INTER.POLAR>
-4.91047

>  <SCORE.INTER.ROT>
3

>  <SCORE.INTER.SOLV>
10.3638

>  <SCORE.INTER.VDW>
-25.0837

>  <SCORE.INTER.norm>
-3.73815

>  <SCORE.INTRA>
-0.819775

>  <SCORE.INTRA.DIHEDRAL>
-1.667

>  <SCORE.INTRA.DIHEDRAL.0>
4.88905

>  <SCORE.INTRA.POLAR>
0

>  <SCORE.INTRA.POLAR.0>
0

>  <SCORE.INTRA.REPUL>
0

>  <SCORE.INTRA.REPUL.0>
0

>  <SCORE.INTRA.SOLV>
-0.383919

>  <SCORE.INTRA.SOLV.lig_0>
-15.1033

>  <SCORE.INTRA.VDW>
0.205686

>  <SCORE.INTRA.VDW.0>
-0.755285

>  <SCORE.INTRA.norm>
-0.0630596

>  <SCORE.RESTR>
0

>  <SCORE.RESTR.CAVITY>
0

>  <SCORE.RESTR.norm>
0

>  <SCORE.SYSTEM>
0

>  <SCORE.SYSTEM.CONST>
0

>  <SCORE.SYSTEM.DIHEDRAL>
0

>  <SCORE.SYSTEM.SOLV>
0

>  <SCORE.SYSTEM.norm>
0

>  <SCORE.heavy>
13

>  <SCORE.norm>
-3.80121

>  <RMSD>
0.481

$$$$
ligand
 OpenBabel11021811513D
libRbt.so/2013.1/901 2013/11/27
 13 14  0  0  0  0  0  0  0  0999 V2000
   34.2943   29.7335  108.1709 N   0  0  0  0  0  0  0  0  0  0  0  0
   34.1871   31.0268  108.7322 C   0  0  0  0  0  0  0  0  0  0  0  0
   35.3853   31.7759  109.0145 N   0  0  0  0  0  0  0  0  0  0  0  0
   32.9674   31.5853  109.0162 N   0  0  0  0  0  0  0  0  0  0  0  0
   31.7724   30.9000  108.7614 C   0  0  0  0  0  0  0  0  0  0  0  0
   31.8357   29.5801  108.1904 C   0  0  0  0  0  0  0  0  0  0  0  0
   33.1489   29.0049  107.8966 C   0  0  0  0  0  0  0  0  0  0  0  0
   33.2493   27.7465  107.3512 O   0  0  0  0  0  0  0  0  0  0  0  0
   30.4611   29.1332  108.0482 C   0  0  0  0  0  0  0  0  0  0  0  0
   29.6520   30.1694  108.5159 C   0  0  0  0  0  0  0  0  0  0  0  0
   30.4383   31.2165  108.9414 N   0  0  0  0  0  0  0  0  0  0  0  0
   30.0044   27.8176  107.4927 C   0  0  0  0  0  0  0  0  0  0  0  0
   29.9049   27.9158  106.0481 N   0  0  0  0  0  0  0  0  0  0  0  0
  1  2  1  0  0  0  0
  1  7  1  0  0  0  0
  2  3  1  0  0  0  0
  2  4  2  0  0  0  0
  4  5  1  0  0  0  0
  5  6  2  0  0  0  0
  5 11  1  0  0  0  0
  6  7  1  0  0  0  0
  6  9  1  0  0  0  0
  7  8  2  0  0  0  0
  9 10  2  0  0  0  0
  9 12  1  0  0  0  0
 10 11  1  0  0  0  0
 12 13  1  0  0  0  0
M  END
>  <CHROM.1>
167.40353925,-85.85457995,36.50694445,32.15177990,29.80042448,108.13459061
-0.61216476,0.01320956,-2.63120184

>  <Name>
ligand

>  <RI>
1.38753e+07

>  <Rbt.Current_Directory>
/home/itssahil/PROJECTS/Mol_Feturizer/New_Systems/rnas/4RZD

>  <Rbt.Executable>
rbdock ($Id: //depot/dev/client3/rdock/2013.1/src/exe/rbdock.cxx#4 $)

>  <Rbt.Library>
libRbt.so (2013.1, Build901 2013/11/27)

>  <Rbt.Parameter_File>
/export/apps/rDock/src/rDock_2013.1_src/data/scripts/dock_solv.prm

>  <Rbt.Receptor>
prm/pocket_docking_7.prm

>  <SCORE>
-49.4125

>  <SCORE.INTER>
-48.6113

>  <SCORE.INTER.CONST>
1

>  <SCORE.INTER.POLAR>
-4.91047

>  <SCORE.INTER.ROT>
3

>  <SCORE.INTER.SOLV>
10.5235

>  <SCORE.INTER.VDW>
-25.1471

>  <SCORE.INTER.norm>
-3.73933

>  <SCORE.INTRA>
-0.801152

>  <SCORE.INTRA.DIHEDRAL>
-1.64285

>  <SCORE.INTRA.DIHEDRAL.0>
4.88905

>  <SCORE.INTRA.POLAR>
0

>  <SCORE.INTRA.POLAR.0>
0

>  <SCORE.INTRA.REPUL>
0

>  <SCORE.INTRA.REPUL.0>
0

>  <SCORE.INTRA.SOLV>
-0.371537

>  <SCORE.INTRA.SOLV.lig_0>
-15.1033

>  <SCORE.INTRA.VDW>
0.206041

>  <SCORE.INTRA.VDW.0>
-0.755285

>  <SCORE.INTRA.norm>
-0.0616271

>  <SCORE.RESTR>
0

>  <SCORE.RESTR.CAVITY>
0

>  <SCORE.RESTR.norm>
0

>  <SCORE.SYSTEM>
0

>  <SCORE.SYSTEM.CONST>
0

>  <SCORE.SYSTEM.DIHEDRAL>
0

>  <SCORE.SYSTEM.SOLV>
0

>  <SCORE.SYSTEM.norm>
0

>  <SCORE.heavy>
13

>  <SCORE.norm>
-3.80096

>  <RMSD>
0.482

$$$$
ligand
 OpenBabel11021811513D
libRbt.so/2013.1/901 2013/11/27
 13 14  0  0  0  0  0  0  0  0999 V2000
   34.3069   29.7180  108.1175 N   0  0  0  0  0  0  0  0  0  0  0  0
   34.2185   31.0149  108.6736 C   0  0  0  0  0  0  0  0  0  0  0  0
   35.4260   31.7618  108.9196 N   0  0  0  0  0  0  0  0  0  0  0  0
   33.0084   31.5790  108.9863 N   0  0  0  0  0  0  0  0  0  0  0  0
   31.8050   30.8960  108.7674 C   0  0  0  0  0  0  0  0  0  0  0  0
   31.8492   29.5726  108.2029 C   0  0  0  0  0  0  0  0  0  0  0  0
   33.1524   28.9915  107.8780 C   0  0  0  0  0  0  0  0  0  0  0  0
   33.2345   27.7295  107.3376 O   0  0  0  0  0  0  0  0  0  0  0  0
   30.4699   29.1292  108.0998 C   0  0  0  0  0  0  0  0  0  0  0  0
   29.6766   30.1708  108.5824 C   0  0  0  0  0  0  0  0  0  0  0  0
   30.4771   31.2178  108.9807 N   0  0  0  0  0  0  0  0  0  0  0  0
   29.9947   27.8118  107.5644 C   0  0  0  0  0  0  0  0  0  0  0  0
   29.9286   27.8785  106.1162 N   0  0  0  0  0  0  0  0  0  0  0  0
  1  2  1  0  0  0  0
  1  7  1  0  0  0  0
  2  3  1  0  0  0  0
  2  4  2  0  0  0  0
  4  5  1  0  0  0  0
  5  6  2  0  0  0  0
  5 11  1  0  0  0  0
  6  7  1  0  0  0  0
  6  9  1  0  0  0  0
  7  8  2  0  0  0  0
  9 10  2  0  0  0  0
  9 12  1  0  0  0  0
 10 11  1  0  0  0  0
 12 13  1  0  0  0  0
M  END
>  <CHROM.1>
-3.42143537,-82.70714127,36.73982299,32.17097941,29.78944393,108.13674579
-0.60233718,-0.01130646,-2.63516714

>  <Name>
ligand

>  <RI>
2.73617e+07

>  <Rbt.Current_Directory>
/home/itssahil/PROJECTS/Mol_Feturizer/New_Systems/rnas/4RZD

>  <Rbt.Executable>
rbdock ($Id: //depot/dev/client3/rdock/2013.1/src/exe/rbdock.cxx#4 $)

>  <Rbt.Library>
libRbt.so (2013.1, Build901 2013/11/27)

>  <Rbt.Parameter_File>
/export/apps/rDock/src/rDock_2013.1_src/data/scripts/dock_solv.prm

>  <Rbt.Receptor>
prm/pocket_docking_6.prm

>  <SCORE>
-49.4265

>  <SCORE.INTER>
-48.6257

>  <SCORE.INTER.CONST>
1

>  <SCORE.INTER.POLAR>
-4.90885

>  <SCORE.INTER.ROT>
3

>  <SCORE.INTER.SOLV>
10.3295

>  <SCORE.INTER.VDW>
-25.0975

>  <SCORE.INTER.norm>
-3.74044

>  <SCORE.INTRA>
-0.800798

>  <SCORE.INTRA.DIHEDRAL>
-1.65522

>  <SCORE.INTRA.DIHEDRAL.0>
4.88905

>  <SCORE.INTRA.POLAR>
0

>  <SCORE.INTRA.POLAR.0>
0

>  <SCORE.INTRA.REPUL>
0

>  <SCORE.INTRA.REPUL.0>
0

>  <SCORE.INTRA.SOLV>
-0.328801

>  <SCORE.INTRA.SOLV.lig_0>
-15.1033

>  <SCORE.INTRA.VDW>
0.191214

>  <SCORE.INTRA.VDW.0>
-0.755285

>  <SCORE.INTRA.norm>
-0.0615998

>  <SCORE.RESTR>
0

>  <SCORE.RESTR.CAVITY>
0

>  <SCORE.RESTR.norm>
0

>  <SCORE.SYSTEM>
0

>  <SCORE.SYSTEM.CONST>
0

>  <SCORE.SYSTEM.DIHEDRAL>
0

>  <SCORE.SYSTEM.SOLV>
0

>  <SCORE.SYSTEM.norm>
0

>  <SCORE.heavy>
13

>  <SCORE.norm>
-3.80204

>  <RMSD>
0.483

$$$$
ligand
 OpenBabel11021811513D
libRbt.so/2013.1/901 2013/11/27
 13 14  0  0  0  0  0  0  0  0999 V2000
   34.3527   29.7567  108.1992 N   0  0  0  0  0  0  0  0  0  0  0  0
   34.2246   31.0496  108.7570 C   0  0  0  0  0  0  0  0  0  0  0  0
   35.4100   31.8221  109.0293 N   0  0  0  0  0  0  0  0  0  0  0  0
   32.9962   31.5857  109.0471 N   0  0  0  0  0  0  0  0  0  0  0  0
   31.8129   30.8770  108.8021 C   0  0  0  0  0  0  0  0  0  0  0  0
   31.8977   29.5567  108.2349 C   0  0  0  0  0  0  0  0  0  0  0  0
   33.2197   29.0056  107.9345 C   0  0  0  0  0  0  0  0  0  0  0  0
   33.3405   27.7475  107.3924 O   0  0  0  0  0  0  0  0  0  0  0  0
   30.5309   29.0833  108.1029 C   0  0  0  0  0  0  0  0  0  0  0  0
   29.7052   30.1055  108.5725 C   0  0  0  0  0  0  0  0  0  0  0  0
   30.4742   31.1687  108.9897 N   0  0  0  0  0  0  0  0  0  0  0  0
   30.0958   27.7575  107.5545 C   0  0  0  0  0  0  0  0  0  0  0  0
   29.9098   27.8699  106.1196 N   0  0  0  0  0  0  0  0  0  0  0  0
  1  2  1  0  0  0  0
  1  7  1  0  0  0  0
  2  3  1  0  0  0  0
  2  4  2  0  0  0  0
  4  5  1  0  0  0  0
  5  6  2  0  0  0  0
  5 11  1  0  0  0  0
  6  7  1  0  0  0  0
  6  9  1  0  0  0  0
  7  8  2  0  0  0  0
  9 10  2  0  0  0  0
  9 12  1  0  0  0  0
 10 11  1  0  0  0  0
 12 13  1  0  0  0  0
M  END
>  <CHROM.1>
176.13603781,-89.15320087,37.57325548,32.20216765,29.78472137,108.17733421
-0.61976003,0.00062119,-2.63581943

>  <Name>
ligand

>  <RI>
1.38753e+07

>  <Rbt.Current_Directory>
/home/itssahil/PROJECTS/Mol_Feturizer/New_Systems/rnas/4RZD

>  <Rbt.Executable>
rbdock ($Id: //depot/dev/client3/rdock/2013.1/src/exe/rbdock.cxx#4 $)

>  <Rbt.Library>
libRbt.so (2013.1, Build901 2013/11/27)

>  <Rbt.Parameter_File>
/export/apps/rDock/src/rDock_2013.1_src/data/scripts/dock_solv.prm

>  <Rbt.Receptor>
prm/pocket_docking_7.prm

>  <SCORE>
-49.3578

>  <SCORE.INTER>
-48.5066

>  <SCORE.INTER.CONST>
1

>  <SCORE.INTER.POLAR>
-4.91047

>  <SCORE.INTER.ROT>
3

>  <SCORE.INTER.SOLV>
10.4024

>  <SCORE.INTER.VDW>
-25.037

>  <SCORE.INTER.norm>
-3.73128

>  <SCORE.INTRA>
-0.851232

>  <SCORE.INTRA.DIHEDRAL>
-1.70585

>  <SCORE.INTRA.DIHEDRAL.0>
4.88905

>  <SCORE.INTRA.POLAR>
0

>  <SCORE.INTRA.POLAR.0>
0

>  <SCORE.INTRA.REPUL>
0

>  <SCORE.INTRA.REPUL.0>
0

>  <SCORE.INTRA.SOLV>
-0.41357

>  <SCORE.INTRA.SOLV.lig_0>
-15.1033

>  <SCORE.INTRA.VDW>
0.208476

>  <SCORE.INTRA.VDW.0>
-0.755285

>  <SCORE.INTRA.norm>
-0.0654794

>  <SCORE.RESTR>
0

>  <SCORE.RESTR.CAVITY>
0

>  <SCORE.RESTR.norm>
0

>  <SCORE.SYSTEM>
0

>  <SCORE.SYSTEM.CONST>
0

>  <SCORE.SYSTEM.DIHEDRAL>
0

>  <SCORE.SYSTEM.SOLV>
0

>  <SCORE.SYSTEM.norm>
0

>  <SCORE.heavy>
13

>  <SCORE.norm>
-3.79676

>  <RMSD>
0.483

$$$$
ligand
 OpenBabel11021811513D
libRbt.so/2013.1/901 2013/11/27
 13 14  0  0  0  0  0  0  0  0999 V2000
   34.2053   29.6835  108.0488 N   0  0  0  0  0  0  0  0  0  0  0  0
   34.1375   30.9041  108.7592 C   0  0  0  0  0  0  0  0  0  0  0  0
   35.3573   31.5450  109.1805 N   0  0  0  0  0  0  0  0  0  0  0  0
   32.9356   31.4925  109.0585 N   0  0  0  0  0  0  0  0  0  0  0  0
   31.7208   30.9113  108.6724 C   0  0  0  0  0  0  0  0  0  0  0  0
   31.7440   29.6680  107.9474 C   0  0  0  0  0  0  0  0  0  0  0  0
   33.0388   29.0590  107.6401 C   0  0  0  0  0  0  0  0  0  0  0  0
   33.1009   27.8714  106.9494 O   0  0  0  0  0  0  0  0  0  0  0  0
   30.3568   29.3197  107.6946 C   0  0  0  0  0  0  0  0  0  0  0  0
   29.5801   30.3364  108.2516 C   0  0  0  0  0  0  0  0  0  0  0  0
   30.3975   31.2788  108.8344 N   0  0  0  0  0  0  0  0  0  0  0  0
   29.8608   28.1082  106.9638 C   0  0  0  0  0  0  0  0  0  0  0  0
   30.6150   27.9477  105.7343 N   0  0  0  0  0  0  0  0  0  0  0  0
  1  2  1  0  0  0  0
  1  7  1  0  0  0  0
  2  3  1  0  0  0  0
  2  4  2  0  0  0  0
  4  5  1  0  0  0  0
  5  6  2  0  0  0  0
  5 11  1  0  0  0  0
  6  7  1  0  0  0  0
  6  9  1  0  0  0  0
  7  8  2  0  0  0  0
  9 10  2  0  0  0  0
  9 12  1  0  0  0  0
 10 11  1  0  0  0  0
 12 13  1  0  0  0  0
M  END
>  <CHROM.1>
-170.52343506,-46.86716186,-32.07689913,32.14207042,29.83273119,107.94675119
-0.65352840,0.04781633,-2.52074505

>  <Name>
ligand

>  <RI>
4.18181e+07

>  <Rbt.Current_Directory>
/home/itssahil/PROJECTS/Mol_Feturizer/New_Systems/rnas/4RZD

>  <Rbt.Executable>
rbdock ($Id: //depot/dev/client3/rdock/2013.1/src/exe/rbdock.cxx#4 $)

>  <Rbt.Library>
libRbt.so (2013.1, Build901 2013/11/27)

>  <Rbt.Parameter_File>
/export/apps/rDock/src/rDock_2013.1_src/data/scripts/dock_solv.prm

>  <Rbt.Receptor>
prm/pocket_docking_3.prm

>  <SCORE>
-49.9013

>  <SCORE.INTER>
-49.5553

>  <SCORE.INTER.CONST>
1

>  <SCORE.INTER.POLAR>
-4.96065

>  <SCORE.INTER.ROT>
3

>  <SCORE.INTER.SOLV>
10.5

>  <SCORE.INTER.VDW>
-25.6014

>  <SCORE.INTER.norm>
-3.81195

>  <SCORE.INTRA>
-0.345995

>  <SCORE.INTRA.DIHEDRAL>
-1.31703

>  <SCORE.INTRA.DIHEDRAL.0>
4.88905

>  <SCORE.INTRA.POLAR>
0

>  <SCORE.INTRA.POLAR.0>
0

>  <SCORE.INTRA.REPUL>
0

>  <SCORE.INTRA.REPUL.0>
0

>  <SCORE.INTRA.SOLV>
0.0576497

>  <SCORE.INTRA.SOLV.lig_0>
-15.1033

>  <SCORE.INTRA.VDW>
0.283695

>  <SCORE.INTRA.VDW.0>
-0.755285

>  <SCORE.INTRA.norm>
-0.026615

>  <SCORE.RESTR>
0

>  <SCORE.RESTR.CAVITY>
0

>  <SCORE.RESTR.norm>
0

>  <SCORE.SYSTEM>
0

>  <SCORE.SYSTEM.CONST>
0

>  <SCORE.SYSTEM.DIHEDRAL>
0

>  <SCORE.SYSTEM.SOLV>
0

>  <SCORE.SYSTEM.norm>
0

>  <SCORE.heavy>
13

>  <SCORE.norm>
-3.83856

>  <RMSD>
0.484

$$$$
ligand
 OpenBabel11021811513D
libRbt.so/2013.1/901 2013/11/27
 13 14  0  0  0  0  0  0  0  0999 V2000
   34.1896   29.6788  108.0650 N   0  0  0  0  0  0  0  0  0  0  0  0
   34.1477   30.9038  108.7699 C   0  0  0  0  0  0  0  0  0  0  0  0
   35.3820   31.5407  109.1533 N   0  0  0  0  0  0  0  0  0  0  0  0
   32.9576   31.5001  109.0991 N   0  0  0  0  0  0  0  0  0  0  0  0
   31.7296   30.9230  108.7504 C   0  0  0  0  0  0  0  0  0  0  0  0
   31.7264   29.6755  108.0323 C   0  0  0  0  0  0  0  0  0  0  0  0
   33.0089   29.0580  107.6927 C   0  0  0  0  0  0  0  0  0  0  0  0
   33.0458   27.8662  107.0074 O   0  0  0  0  0  0  0  0  0  0  0  0
   30.3309   29.3330  107.8204 C   0  0  0  0  0  0  0  0  0  0  0  0
   29.5751   30.3568  108.3928 C   0  0  0  0  0  0  0  0  0  0  0  0
   30.4132   31.2982  108.9471 N   0  0  0  0  0  0  0  0  0  0  0  0
   29.8086   28.1198  107.1108 C   0  0  0  0  0  0  0  0  0  0  0  0
   30.6190   27.8669  105.9337 N   0  0  0  0  0  0  0  0  0  0  0  0
  1  2  1  0  0  0  0
  1  7  1  0  0  0  0
  2  3  1  0  0  0  0
  2  4  2  0  0  0  0
  4  5  1  0  0  0  0
  5  6  2  0  0  0  0
  5 11  1  0  0  0  0
  6  7  1  0  0  0  0
  6  9  1  0  0  0  0
  7  8  2  0  0  0  0
  9 10  2  0  0  0  0
  9 12  1  0  0  0  0
 10 11  1  0  0  0  0
 12 13  1  0  0  0  0
M  END
>  <CHROM.1>
-4.38772131,-40.91551257,-150.45587281,32.13602436,29.82324417,108.02907668
-0.64515078,0.02386277,-2.54076512

>  <Name>
ligand

>  <RI>
1.99388e+07

>  <Rbt.Current_Directory>
/home/itssahil/PROJECTS/Mol_Feturizer/New_Systems/rnas/4RZD

>  <Rbt.Executable>
rbdock ($Id: //depot/dev/client3/rdock/2013.1/src/exe/rbdock.cxx#4 $)

>  <Rbt.Library>
libRbt.so (2013.1, Build901 2013/11/27)

>  <Rbt.Parameter_File>
/export/apps/rDock/src/rDock_2013.1_src/data/scripts/dock_solv.prm

>  <Rbt.Receptor>
prm/pocket_docking_2.prm

>  <SCORE>
-50.183

>  <SCORE.INTER>
-48.5699

>  <SCORE.INTER.CONST>
1

>  <SCORE.INTER.POLAR>
-4.82192

>  <SCORE.INTER.ROT>
3

>  <SCORE.INTER.SOLV>
9.94208

>  <SCORE.INTER.VDW>
-25.2209

>  <SCORE.INTER.norm>
-3.73614

>  <SCORE.INTRA>
-1.65996

>  <SCORE.INTRA.DIHEDRAL>
-1.20911

>  <SCORE.INTRA.DIHEDRAL.0>
4.88905

>  <SCORE.INTRA.POLAR>
-0.386701

>  <SCORE.INTRA.POLAR.0>
0

>  <SCORE.INTRA.REPUL>
0

>  <SCORE.INTRA.REPUL.0>
0

>  <SCORE.INTRA.SOLV>
0.208228

>  <SCORE.INTRA.SOLV.lig_0>
-15.1033

>  <SCORE.INTRA.VDW>
0.155261

>  <SCORE.INTRA.VDW.0>
-0.755285

>  <SCORE.INTRA.norm>
-0.12769

>  <SCORE.RESTR>
0.0468258

>  <SCORE.RESTR.CAVITY>
0.0468258

>  <SCORE.RESTR.norm>
0.00360198

>  <SCORE.SYSTEM>
0

>  <SCORE.SYSTEM.CONST>
0

>  <SCORE.SYSTEM.DIHEDRAL>
0

>  <SCORE.SYSTEM.SOLV>
0

>  <SCORE.SYSTEM.norm>
0

>  <SCORE.heavy>
13

>  <SCORE.norm>
-3.86023

>  <RMSD>
0.486

$$$$
ligand
 OpenBabel11021811513D
libRbt.so/2013.1/901 2013/11/27
 13 14  0  0  0  0  0  0  0  0999 V2000
   34.3140   29.7153  108.1164 N   0  0  0  0  0  0  0  0  0  0  0  0
   34.2187   31.0130  108.6696 C   0  0  0  0  0  0  0  0  0  0  0  0
   35.4217   31.7702  108.9059 N   0  0  0  0  0  0  0  0  0  0  0  0
   33.0061   31.5682  108.9886 N   0  0  0  0  0  0  0  0  0  0  0  0
   31.8069   30.8749  108.7792 C   0  0  0  0  0  0  0  0  0  0  0  0
   31.8582   29.5504  108.2179 C   0  0  0  0  0  0  0  0  0  0  0  0
   33.1639   28.9789  107.8862 C   0  0  0  0  0  0  0  0  0  0  0  0
   33.2527   27.7162  107.3487 O   0  0  0  0  0  0  0  0  0  0  0  0
   30.4819   29.0956  108.1249 C   0  0  0  0  0  0  0  0  0  0  0  0
   29.6833   30.1321  108.6098 C   0  0  0  0  0  0  0  0  0  0  0  0
   30.4779   31.1866  109.0002 N   0  0  0  0  0  0  0  0  0  0  0  0
   30.0139   27.7730  107.5961 C   0  0  0  0  0  0  0  0  0  0  0  0
   29.8685   27.8573  106.1545 N   0  0  0  0  0  0  0  0  0  0  0  0
  1  2  1  0  0  0  0
  1  7  1  0  0  0  0
  2  3  1  0  0  0  0
  2  4  2  0  0  0  0
  4  5  1  0  0  0  0
  5  6  2  0  0  0  0
  5 11  1  0  0  0  0
  6  7  1  0  0  0  0
  6  9  1  0  0  0  0
  7  8  2  0  0  0  0
  9 10  2  0  0  0  0
  9 12  1  0  0  0  0
 10 11  1  0  0  0  0
 12 13  1  0  0  0  0
M  END
>  <CHROM.1>
179.85748239,-85.76613964,36.84098633,32.17128710,29.77161074,108.14981967
-0.60076214,-0.01845685,-2.63920006

>  <Name>
ligand

>  <RI>
1.38753e+07

>  <Rbt.Current_Directory>
/home/itssahil/PROJECTS/Mol_Feturizer/New_Systems/rnas/4RZD

>  <Rbt.Executable>
rbdock ($Id: //depot/dev/client3/rdock/2013.1/src/exe/rbdock.cxx#4 $)

>  <Rbt.Library>
libRbt.so (2013.1, Build901 2013/11/27)

>  <Rbt.Parameter_File>
/export/apps/rDock/src/rDock_2013.1_src/data/scripts/dock_solv.prm

>  <Rbt.Receptor>
prm/pocket_docking_7.prm

>  <SCORE>
-49.409

>  <SCORE.INTER>
-48.5951

>  <SCORE.INTER.CONST>
1

>  <SCORE.INTER.POLAR>
-4.91047

>  <SCORE.INTER.ROT>
3

>  <SCORE.INTER.SOLV>
10.3575

>  <SCORE.INTER.VDW>
-25.081

>  <SCORE.INTER.norm>
-3.73809

>  <SCORE.INTRA>
-0.813907

>  <SCORE.INTRA.DIHEDRAL>
-1.66252

>  <SCORE.INTRA.DIHEDRAL.0>
4.88905

>  <SCORE.INTRA.POLAR>
0

>  <SCORE.INTRA.POLAR.0>
0

>  <SCORE.INTRA.REPUL>
0

>  <SCORE.INTRA.REPUL.0>
0

>  <SCORE.INTRA.SOLV>
-0.369445

>  <SCORE.INTRA.SOLV.lig_0>
-15.1033

>  <SCORE.INTRA.VDW>
0.202076

>  <SCORE.INTRA.VDW.0>
-0.755285

>  <SCORE.INTRA.norm>
-0.0626082

>  <SCORE.RESTR>
0

>  <SCORE.RESTR.CAVITY>
0

>  <SCORE.RESTR.norm>
0

>  <SCORE.SYSTEM>
0

>  <SCORE.SYSTEM.CONST>
0

>  <SCORE.SYSTEM.DIHEDRAL>
0

>  <SCORE.SYSTEM.SOLV>
0

>  <SCORE.SYSTEM.norm>
0

>  <SCORE.heavy>
13

>  <SCORE.norm>
-3.80069

>  <RMSD>
0.486

$$$$
ligand
 OpenBabel11021811513D
libRbt.so/2013.1/901 2013/11/27
 13 14  0  0  0  0  0  0  0  0999 V2000
   34.2045   29.6320  108.1079 N   0  0  0  0  0  0  0  0  0  0  0  0
   34.1387   30.8451  108.8312 C   0  0  0  0  0  0  0  0  0  0  0  0
   35.3583   31.4638  109.2854 N   0  0  0  0  0  0  0  0  0  0  0  0
   32.9391   31.4469  109.1125 N   0  0  0  0  0  0  0  0  0  0  0  0
   31.7248   30.8874  108.6944 C   0  0  0  0  0  0  0  0  0  0  0  0
   31.7459   29.6524  107.9552 C   0  0  0  0  0  0  0  0  0  0  0  0
   33.0382   29.0288  107.6677 C   0  0  0  0  0  0  0  0  0  0  0  0
   33.0983   27.8486  106.9643 O   0  0  0  0  0  0  0  0  0  0  0  0
   30.3596   29.3267  107.6696 C   0  0  0  0  0  0  0  0  0  0  0  0
   29.5855   30.3477  108.2224 C   0  0  0  0  0  0  0  0  0  0  0  0
   30.4036   31.2716  108.8332 N   0  0  0  0  0  0  0  0  0  0  0  0
   29.8622   28.1309  106.9142 C   0  0  0  0  0  0  0  0  0  0  0  0
   30.6455   27.9689  105.7033 N   0  0  0  0  0  0  0  0  0  0  0  0
  1  2  1  0  0  0  0
  1  7  1  0  0  0  0
  2  3  1  0  0  0  0
  2  4  2  0  0  0  0
  4  5  1  0  0  0  0
  5  6  2  0  0  0  0
  5 11  1  0  0  0  0
  6  7  1  0  0  0  0
  6  9  1  0  0  0  0
  7  8  2  0  0  0  0
  9 10  2  0  0  0  0
  9 12  1  0  0  0  0
 10 11  1  0  0  0  0
 12 13  1  0  0  0  0
M  END
>  <CHROM.1>
172.81773597,-46.49247629,-154.28889569,32.14953210,29.80349528,107.96805727
-0.66053325,0.07187069,-2.51485954

>  <Name>
ligand

>  <RI>
2.51964e+07

>  <Rbt.Current_Directory>
/home/itssahil/PROJECTS/Mol_Feturizer/New_Systems/rnas/4RZD

>  <Rbt.Executable>
rbdock ($Id: //depot/dev/client3/rdock/2013.1/src/exe/rbdock.cxx#4 $)

>  <Rbt.Library>
libRbt.so (2013.1, Build901 2013/11/27)

>  <Rbt.Parameter_File>
/export/apps/rDock/src/rDock_2013.1_src/data/scripts/dock_solv.prm

>  <Rbt.Receptor>
prm/pocket_docking_4.prm

>  <SCORE>
-51.0039

>  <SCORE.INTER>
-48.9881

>  <SCORE.INTER.CONST>
1

>  <SCORE.INTER.POLAR>
-4.86331

>  <SCORE.INTER.ROT>
3

>  <SCORE.INTER.SOLV>
10.4179

>  <SCORE.INTER.VDW>
-25.5203

>  <SCORE.INTER.norm>
-3.76832

>  <SCORE.INTRA>
-2.01579

>  <SCORE.INTRA.DIHEDRAL>
-1.45363

>  <SCORE.INTRA.DIHEDRAL.0>
4.88905

>  <SCORE.INTRA.POLAR>
-0.407765

>  <SCORE.INTRA.POLAR.0>
0

>  <SCORE.INTRA.REPUL>
0

>  <SCORE.INTRA.REPUL.0>
0

>  <SCORE.INTRA.SOLV>
0.149753

>  <SCORE.INTRA.SOLV.lig_0>
-15.1033

>  <SCORE.INTRA.VDW>
0.0225519

>  <SCORE.INTRA.VDW.0>
-0.755285

>  <SCORE.INTRA.norm>
-0.15506

>  <SCORE.RESTR>
0

>  <SCORE.RESTR.CAVITY>
0

>  <SCORE.RESTR.norm>
0

>  <SCORE.SYSTEM>
0

>  <SCORE.SYSTEM.CONST>
0

>  <SCORE.SYSTEM.DIHEDRAL>
0

>  <SCORE.SYSTEM.SOLV>
0

>  <SCORE.SYSTEM.norm>
0

>  <SCORE.heavy>
13

>  <SCORE.norm>
-3.92338

>  <RMSD>
0.487

$$$$
ligand
 OpenBabel11021811513D
libRbt.so/2013.1/901 2013/11/27
 13 14  0  0  0  0  0  0  0  0999 V2000
   34.3131   29.7601  108.1428 N   0  0  0  0  0  0  0  0  0  0  0  0
   34.2041   31.0532  108.7043 C   0  0  0  0  0  0  0  0  0  0  0  0
   35.4000   31.8150  108.9609 N   0  0  0  0  0  0  0  0  0  0  0  0
   32.9847   31.5996  109.0123 N   0  0  0  0  0  0  0  0  0  0  0  0
   31.7920   30.9016  108.7831 C   0  0  0  0  0  0  0  0  0  0  0  0
   31.8572   29.5815  108.2130 C   0  0  0  0  0  0  0  0  0  0  0  0
   33.1700   29.0193  107.8932 C   0  0  0  0  0  0  0  0  0  0  0  0
   33.2722   27.7611  107.3476 O   0  0  0  0  0  0  0  0  0  0  0  0
   30.4846   29.1202  108.0996 C   0  0  0  0  0  0  0  0  0  0  0  0
   29.6746   30.1488  108.5822 C   0  0  0  0  0  0  0  0  0  0  0  0
   30.4586   31.2046  108.9900 N   0  0  0  0  0  0  0  0  0  0  0  0
   30.0303   27.7990  107.5555 C   0  0  0  0  0  0  0  0  0  0  0  0
   29.9398   27.8816  106.1094 N   0  0  0  0  0  0  0  0  0  0  0  0
  1  2  1  0  0  0  0
  1  7  1  0  0  0  0
  2  3  1  0  0  0  0
  2  4  2  0  0  0  0
  4  5  1  0  0  0  0
  5  6  2  0  0  0  0
  5 11  1  0  0  0  0
  6  7  1  0  0  0  0
  6  9  1  0  0  0  0
  7  8  2  0  0  0  0
  9 10  2  0  0  0  0
  9 12  1  0  0  0  0
 10 11  1  0  0  0  0
 12 13  1  0  0  0  0
M  END
>  <CHROM.1>
168.42312436,-84.11528098,37.53659959,32.17351203,29.80381284,108.14992960
-0.61430051,-0.01118506,-2.63183784

>  <Name>
ligand

>  <RI>
4.18181e+07

>  <Rbt.Current_Directory>
/home/itssahil/PROJECTS/Mol_Feturizer/New_Systems/rnas/4RZD

>  <Rbt.Executable>
rbdock ($Id: //depot/dev/client3/rdock/2013.1/src/exe/rbdock.cxx#4 $)

>  <Rbt.Library>
libRbt.so (2013.1, Build901 2013/11/27)

>  <Rbt.Parameter_File>
/export/apps/rDock/src/rDock_2013.1_src/data/scripts/dock_solv.prm

>  <Rbt.Receptor>
prm/pocket_docking_3.prm

>  <SCORE>
-49.5001

>  <SCORE.INTER>
-48.6651

>  <SCORE.INTER.CONST>
1

>  <SCORE.INTER.POLAR>
-4.9088

>  <SCORE.INTER.ROT>
3

>  <SCORE.INTER.SOLV>
10.3759

>  <SCORE.INTER.VDW>
-25.1394

>  <SCORE.INTER.norm>
-3.74347

>  <SCORE.INTRA>
-0.834968

>  <SCORE.INTRA.DIHEDRAL>
-1.70248

>  <SCORE.INTRA.DIHEDRAL.0>
4.88905

>  <SCORE.INTRA.POLAR>
0

>  <SCORE.INTRA.POLAR.0>
0

>  <SCORE.INTRA.REPUL>
0

>  <SCORE.INTRA.REPUL.0>
0

>  <SCORE.INTRA.SOLV>
-0.34699

>  <SCORE.INTRA.SOLV.lig_0>
-15.1033

>  <SCORE.INTRA.VDW>
0.189768

>  <SCORE.INTRA.VDW.0>
-0.755285

>  <SCORE.INTRA.norm>
-0.0642283

>  <SCORE.RESTR>
0

>  <SCORE.RESTR.CAVITY>
0

>  <SCORE.RESTR.norm>
0

>  <SCORE.SYSTEM>
0

>  <SCORE.SYSTEM.CONST>
0

>  <SCORE.SYSTEM.DIHEDRAL>
0

>  <SCORE.SYSTEM.SOLV>
0

>  <SCORE.SYSTEM.norm>
0

>  <SCORE.heavy>
13

>  <SCORE.norm>
-3.8077

>  <RMSD>
0.489

$$$$
ligand
 OpenBabel11021811513D
libRbt.so/2013.1/901 2013/11/27
 13 14  0  0  0  0  0  0  0  0999 V2000
   34.1994   29.6716  108.0388 N   0  0  0  0  0  0  0  0  0  0  0  0
   34.1359   30.8860  108.7602 C   0  0  0  0  0  0  0  0  0  0  0  0
   35.3580   31.5177  109.1888 N   0  0  0  0  0  0  0  0  0  0  0  0
   32.9362   31.4768  109.0634 N   0  0  0  0  0  0  0  0  0  0  0  0
   31.7194   30.9044  108.6705 C   0  0  0  0  0  0  0  0  0  0  0  0
   31.7382   29.6677  107.9343 C   0  0  0  0  0  0  0  0  0  0  0  0
   33.0307   29.0558  107.6231 C   0  0  0  0  0  0  0  0  0  0  0  0
   33.0886   27.8743  106.9217 O   0  0  0  0  0  0  0  0  0  0  0  0
   30.3498   29.3277  107.6767 C   0  0  0  0  0  0  0  0  0  0  0  0
   29.5768   30.3426  108.2419 C   0  0  0  0  0  0  0  0  0  0  0  0
   30.3975   31.2761  108.8342 N   0  0  0  0  0  0  0  0  0  0  0  0
   29.8495   28.1250  106.9343 C   0  0  0  0  0  0  0  0  0  0  0  0
   30.6271   27.9527  105.7211 N   0  0  0  0  0  0  0  0  0  0  0  0
  1  2  1  0  0  0  0
  1  7  1  0  0  0  0
  2  3  1  0  0  0  0
  2  4  2  0  0  0  0
  4  5  1  0  0  0  0
  5  6  2  0  0  0  0
  5 11  1  0  0  0  0
  6  7  1  0  0  0  0
  6  9  1  0  0  0  0
  7  8  2  0  0  0  0
  9 10  2  0  0  0  0
  9 12  1  0  0  0  0
 10 11  1  0  0  0  0
 12 13  1  0  0  0  0
M  END
>  <CHROM.1>
176.85632764,-45.43333050,-33.22947803,32.13905913,29.82875641,107.93707014
-0.65229439,0.05089801,-2.51418769

>  <Name>
ligand

>  <RI>
1.35221e+07

>  <Rbt.Current_Directory>
/home/itssahil/PROJECTS/Mol_Feturizer/New_Systems/rnas/4RZD

>  <Rbt.Executable>
rbdock ($Id: //depot/dev/client3/rdock/2013.1/src/exe/rbdock.cxx#4 $)

>  <Rbt.Library>
libRbt.so (2013.1, Build901 2013/11/27)

>  <Rbt.Parameter_File>
/export/apps/rDock/src/rDock_2013.1_src/data/scripts/dock_solv.prm

>  <Rbt.Receptor>
prm/pocket_docking_5.prm

>  <SCORE>
-49.955

>  <SCORE.INTER>
-49.5974

>  <SCORE.INTER.CONST>
1

>  <SCORE.INTER.POLAR>
-4.96199

>  <SCORE.INTER.ROT>
3

>  <SCORE.INTER.SOLV>
10.5469

>  <SCORE.INTER.VDW>
-25.6406

>  <SCORE.INTER.norm>
-3.81519

>  <SCORE.INTRA>
-0.357561

>  <SCORE.INTRA.DIHEDRAL>
-1.38706

>  <SCORE.INTRA.DIHEDRAL.0>
4.88905

>  <SCORE.INTRA.POLAR>
0

>  <SCORE.INTRA.POLAR.0>
0

>  <SCORE.INTRA.REPUL>
0

>  <SCORE.INTRA.REPUL.0>
0

>  <SCORE.INTRA.SOLV>
0.0775619

>  <SCORE.INTRA.SOLV.lig_0>
-15.1033

>  <SCORE.INTRA.VDW>
0.29719

>  <SCORE.INTRA.VDW.0>
-0.755285

>  <SCORE.INTRA.norm>
-0.0275047

>  <SCORE.RESTR>
0

>  <SCORE.RESTR.CAVITY>
0

>  <SCORE.RESTR.norm>
0

>  <SCORE.SYSTEM>
0

>  <SCORE.SYSTEM.CONST>
0

>  <SCORE.SYSTEM.DIHEDRAL>
0

>  <SCORE.SYSTEM.SOLV>
0

>  <SCORE.SYSTEM.norm>
0

>  <SCORE.heavy>
13

>  <SCORE.norm>
-3.84269

>  <RMSD>
0.491

$$$$
ligand
 OpenBabel11021811513D
libRbt.so/2013.1/901 2013/11/27
 13 14  0  0  0  0  0  0  0  0999 V2000
   34.2023   29.6754  108.0629 N   0  0  0  0  0  0  0  0  0  0  0  0
   34.1388   30.8948  108.7757 C   0  0  0  0  0  0  0  0  0  0  0  0
   35.3608   31.5278  109.2028 N   0  0  0  0  0  0  0  0  0  0  0  0
   32.9392   31.4894  109.0720 N   0  0  0  0  0  0  0  0  0  0  0  0
   31.7226   30.9159  108.6803 C   0  0  0  0  0  0  0  0  0  0  0  0
   31.7413   29.6741  107.9527 C   0  0  0  0  0  0  0  0  0  0  0  0
   33.0337   29.0584  107.6487 C   0  0  0  0  0  0  0  0  0  0  0  0
   33.0915   27.8720  106.9556 O   0  0  0  0  0  0  0  0  0  0  0  0
   30.3531   29.3343  107.6942 C   0  0  0  0  0  0  0  0  0  0  0  0
   29.5801   30.3541  108.2506 C   0  0  0  0  0  0  0  0  0  0  0  0
   30.4008   31.2906  108.8384 N   0  0  0  0  0  0  0  0  0  0  0  0
   29.8528   28.1272  106.9590 C   0  0  0  0  0  0  0  0  0  0  0  0
   30.6161   27.9603  105.7359 N   0  0  0  0  0  0  0  0  0  0  0  0
  1  2  1  0  0  0  0
  1  7  1  0  0  0  0
  2  3  1  0  0  0  0
  2  4  2  0  0  0  0
  4  5  1  0  0  0  0
  5  6  2  0  0  0  0
  5 11  1  0  0  0  0
  6  7  1  0  0  0  0
  6  9  1  0  0  0  0
  7  8  2  0  0  0  0
  9 10  2  0  0  0  0
  9 12  1  0  0  0  0
 10 11  1  0  0  0  0
 12 13  1  0  0  0  0
M  END
>  <CHROM.1>
-176.90742249,-46.51545131,-33.02075019,32.14078903,29.83605703,107.95415704
-0.65141667,0.05404958,-2.51946120

>  <Name>
ligand

>  <RI>
1.0531e+07

>  <Rbt.Current_Directory>
/home/itssahil/PROJECTS/Mol_Feturizer/New_Systems/rnas/4RZD

>  <Rbt.Executable>
rbdock ($Id: //depot/dev/client3/rdock/2013.1/src/exe/rbdock.cxx#4 $)

>  <Rbt.Library>
libRbt.so (2013.1, Build901 2013/11/27)

>  <Rbt.Parameter_File>
/export/apps/rDock/src/rDock_2013.1_src/data/scripts/dock_solv.prm

>  <Rbt.Receptor>
prm/pocket_docking_8.prm

>  <SCORE>
-49.9345

>  <SCORE.INTER>
-49.5577

>  <SCORE.INTER.CONST>
1

>  <SCORE.INTER.POLAR>
-4.96449

>  <SCORE.INTER.ROT>
3

>  <SCORE.INTER.SOLV>
10.5204

>  <SCORE.INTER.VDW>
-25.5969

>  <SCORE.INTER.norm>
-3.81213

>  <SCORE.INTRA>
-0.376778

>  <SCORE.INTRA.DIHEDRAL>
-1.3754

>  <SCORE.INTRA.DIHEDRAL.0>
4.88905

>  <SCORE.INTRA.POLAR>
0

>  <SCORE.INTRA.POLAR.0>
0

>  <SCORE.INTRA.REPUL>
0

>  <SCORE.INTRA.REPUL.0>
0

>  <SCORE.INTRA.SOLV>
0.0618805

>  <SCORE.INTRA.SOLV.lig_0>
-15.1033

>  <SCORE.INTRA.VDW>
0.27998

>  <SCORE.INTRA.VDW.0>
-0.755285

>  <SCORE.INTRA.norm>
-0.0289829

>  <SCORE.RESTR>
0

>  <SCORE.RESTR.CAVITY>
0

>  <SCORE.RESTR.norm>
0

>  <SCORE.SYSTEM>
0

>  <SCORE.SYSTEM.CONST>
0

>  <SCORE.SYSTEM.DIHEDRAL>
0

>  <SCORE.SYSTEM.SOLV>
0

>  <SCORE.SYSTEM.norm>
0

>  <SCORE.heavy>
13

>  <SCORE.norm>
-3.84111

>  <RMSD>
0.493

$$$$
ligand
 OpenBabel11021811513D
libRbt.so/2013.1/901 2013/11/27
 13 14  0  0  0  0  0  0  0  0999 V2000
   34.2006   29.6700  108.0459 N   0  0  0  0  0  0  0  0  0  0  0  0
   34.1376   30.8846  108.7671 C   0  0  0  0  0  0  0  0  0  0  0  0
   35.3597   31.5131  109.2002 N   0  0  0  0  0  0  0  0  0  0  0  0
   32.9383   31.4786  109.0659 N   0  0  0  0  0  0  0  0  0  0  0  0
   31.7215   30.9093  108.6686 C   0  0  0  0  0  0  0  0  0  0  0  0
   31.7397   29.6725  107.9324 C   0  0  0  0  0  0  0  0  0  0  0  0
   33.0317   29.0573  107.6259 C   0  0  0  0  0  0  0  0  0  0  0  0
   33.0891   27.8756  106.9247 O   0  0  0  0  0  0  0  0  0  0  0  0
   30.3514   29.3361  107.6697 C   0  0  0  0  0  0  0  0  0  0  0  0
   29.5789   30.3531  108.2321 C   0  0  0  0  0  0  0  0  0  0  0  0
   30.3999   31.2845  108.8274 N   0  0  0  0  0  0  0  0  0  0  0  0
   29.8507   28.1347  106.9255 C   0  0  0  0  0  0  0  0  0  0  0  0
   30.6351   27.9579  105.7173 N   0  0  0  0  0  0  0  0  0  0  0  0
  1  2  1  0  0  0  0
  1  7  1  0  0  0  0
  2  3  1  0  0  0  0
  2  4  2  0  0  0  0
  4  5  1  0  0  0  0
  5  6  2  0  0  0  0
  5 11  1  0  0  0  0
  6  7  1  0  0  0  0
  6  9  1  0  0  0  0
  7  8  2  0  0  0  0
  9 10  2  0  0  0  0
  9 12  1  0  0  0  0
 10 11  1  0  0  0  0
 12 13  1  0  0  0  0
M  END
>  <CHROM.1>
179.67561196,-45.24995215,-33.65313012,32.14124528,29.83229155,107.93682093
-0.65258087,0.05516735,-2.51427361

>  <Name>
ligand

>  <RI>
2.51964e+07

>  <Rbt.Current_Directory>
/home/itssahil/PROJECTS/Mol_Feturizer/New_Systems/rnas/4RZD

>  <Rbt.Executable>
rbdock ($Id: //depot/dev/client3/rdock/2013.1/src/exe/rbdock.cxx#4 $)

>  <Rbt.Library>
libRbt.so (2013.1, Build901 2013/11/27)

>  <Rbt.Parameter_File>
/export/apps/rDock/src/rDock_2013.1_src/data/scripts/dock_solv.prm

>  <Rbt.Receptor>
prm/pocket_docking_4.prm

>  <SCORE>
-49.9794

>  <SCORE.INTER>
-49.6094

>  <SCORE.INTER.CONST>
1

>  <SCORE.INTER.POLAR>
-4.96339

>  <SCORE.INTER.ROT>
3

>  <SCORE.INTER.SOLV>
10.5649

>  <SCORE.INTER.VDW>
-25.6499

>  <SCORE.INTER.norm>
-3.81611

>  <SCORE.INTRA>
-0.370071

>  <SCORE.INTRA.DIHEDRAL>
-1.41306

>  <SCORE.INTRA.DIHEDRAL.0>
4.88905

>  <SCORE.INTRA.POLAR>
0

>  <SCORE.INTRA.POLAR.0>
0

>  <SCORE.INTRA.REPUL>
0

>  <SCORE.INTRA.REPUL.0>
0

>  <SCORE.INTRA.SOLV>
0.0797217

>  <SCORE.INTRA.SOLV.lig_0>
-15.1033

>  <SCORE.INTRA.VDW>
0.296596

>  <SCORE.INTRA.VDW.0>
-0.755285

>  <SCORE.INTRA.norm>
-0.028467

>  <SCORE.RESTR>
0

>  <SCORE.RESTR.CAVITY>
0

>  <SCORE.RESTR.norm>
0

>  <SCORE.SYSTEM>
0

>  <SCORE.SYSTEM.CONST>
0

>  <SCORE.SYSTEM.DIHEDRAL>
0

>  <SCORE.SYSTEM.SOLV>
0

>  <SCORE.SYSTEM.norm>
0

>  <SCORE.heavy>
13

>  <SCORE.norm>
-3.84457

>  <RMSD>
0.495

$$$$
ligand
 OpenBabel11021811513D
libRbt.so/2013.1/901 2013/11/27
 13 14  0  0  0  0  0  0  0  0999 V2000
   34.2017   29.6813  108.0440 N   0  0  0  0  0  0  0  0  0  0  0  0
   34.1361   30.8950  108.7664 C   0  0  0  0  0  0  0  0  0  0  0  0
   35.3570   31.5274  109.1975 N   0  0  0  0  0  0  0  0  0  0  0  0
   32.9354   31.4846  109.0683 N   0  0  0  0  0  0  0  0  0  0  0  0
   31.7198   30.9115  108.6730 C   0  0  0  0  0  0  0  0  0  0  0  0
   31.7407   29.6754  107.9357 C   0  0  0  0  0  0  0  0  0  0  0  0
   33.0341   29.0650  107.6260 C   0  0  0  0  0  0  0  0  0  0  0  0
   33.0941   27.8841  106.9236 O   0  0  0  0  0  0  0  0  0  0  0  0
   30.3530   29.3345  107.6757 C   0  0  0  0  0  0  0  0  0  0  0  0
   29.5782   30.3483  108.2406 C   0  0  0  0  0  0  0  0  0  0  0  0
   30.3973   31.2820  108.8350 N   0  0  0  0  0  0  0  0  0  0  0  0
   29.8548   28.1321  106.9314 C   0  0  0  0  0  0  0  0  0  0  0  0
   30.6363   27.9598  105.7207 N   0  0  0  0  0  0  0  0  0  0  0  0
  1  2  1  0  0  0  0
  1  7  1  0  0  0  0
  2  3  1  0  0  0  0
  2  4  2  0  0  0  0
  4  5  1  0  0  0  0
  5  6  2  0  0  0  0
  5 11  1  0  0  0  0
  6  7  1  0  0  0  0
  6  9  1  0  0  0  0
  7  8  2  0  0  0  0
  9 10  2  0  0  0  0
  9 12  1  0  0  0  0
 10 11  1  0  0  0  0
 12 13  1  0  0  0  0
M  END
>  <CHROM.1>
-177.75054184,-45.31135943,-33.03917331,32.14159299,29.83673022,107.93937106
-0.65401695,0.05136919,-2.51306862

>  <Name>
ligand

>  <RI>
1.35221e+07

>  <Rbt.Current_Directory>
/home/itssahil/PROJECTS/Mol_Feturizer/New_Systems/rnas/4RZD

>  <Rbt.Executable>
rbdock ($Id: //depot/dev/client3/rdock/2013.1/src/exe/rbdock.cxx#4 $)

>  <Rbt.Library>
libRbt.so (2013.1, Build901 2013/11/27)

>  <Rbt.Parameter_File>
/export/apps/rDock/src/rDock_2013.1_src/data/scripts/dock_solv.prm

>  <Rbt.Receptor>
prm/pocket_docking_5.prm

>  <SCORE>
-49.949

>  <SCORE.INTER>
-49.6026

>  <SCORE.INTER.CONST>
1

>  <SCORE.INTER.POLAR>
-4.96401

>  <SCORE.INTER.ROT>
3

>  <SCORE.INTER.SOLV>
10.5631

>  <SCORE.INTER.VDW>
-25.6427

>  <SCORE.INTER.norm>
-3.81559

>  <SCORE.INTRA>
-0.346371

>  <SCORE.INTRA.DIHEDRAL>
-1.37512

>  <SCORE.INTRA.DIHEDRAL.0>
4.88905

>  <SCORE.INTRA.POLAR>
0

>  <SCORE.INTRA.POLAR.0>
0

>  <SCORE.INTRA.REPUL>
0

>  <SCORE.INTRA.REPUL.0>
0

>  <SCORE.INTRA.SOLV>
0.0796173

>  <SCORE.INTRA.SOLV.lig_0>
-15.1033

>  <SCORE.INTRA.VDW>
0.301381

>  <SCORE.INTRA.VDW.0>
-0.755285

>  <SCORE.INTRA.norm>
-0.0266439

>  <SCORE.RESTR>
0

>  <SCORE.RESTR.CAVITY>
0

>  <SCORE.RESTR.norm>
0

>  <SCORE.SYSTEM>
0

>  <SCORE.SYSTEM.CONST>
0

>  <SCORE.SYSTEM.DIHEDRAL>
0

>  <SCORE.SYSTEM.SOLV>
0

>  <SCORE.SYSTEM.norm>
0

>  <SCORE.heavy>
13

>  <SCORE.norm>
-3.84223

>  <RMSD>
0.496

$$$$
ligand
 OpenBabel11021811513D
libRbt.so/2013.1/901 2013/11/27
 13 14  0  0  0  0  0  0  0  0999 V2000
   34.2048   29.6670  108.0409 N   0  0  0  0  0  0  0  0  0  0  0  0
   34.1439   30.8751  108.7732 C   0  0  0  0  0  0  0  0  0  0  0  0
   35.3673   31.5002  109.2076 N   0  0  0  0  0  0  0  0  0  0  0  0
   32.9455   31.4658  109.0815 N   0  0  0  0  0  0  0  0  0  0  0  0
   31.7275   30.8996  108.6834 C   0  0  0  0  0  0  0  0  0  0  0  0
   31.7436   29.6695  107.9360 C   0  0  0  0  0  0  0  0  0  0  0  0
   33.0348   29.0576  107.6195 C   0  0  0  0  0  0  0  0  0  0  0  0
   33.0901   27.8824  106.9076 O   0  0  0  0  0  0  0  0  0  0  0  0
   30.3545   29.3349  107.6752 C   0  0  0  0  0  0  0  0  0  0  0  0
   29.5836   30.3465  108.2494 C   0  0  0  0  0  0  0  0  0  0  0  0
   30.4064   31.2728  108.8502 N   0  0  0  0  0  0  0  0  0  0  0  0
   29.8516   28.1401  106.9220 C   0  0  0  0  0  0  0  0  0  0  0  0
   30.6448   27.9626  105.7196 N   0  0  0  0  0  0  0  0  0  0  0  0
  1  2  1  0  0  0  0
  1  7  1  0  0  0  0
  2  3  1  0  0  0  0
  2  4  2  0  0  0  0
  4  5  1  0  0  0  0
  5  6  2  0  0  0  0
  5 11  1  0  0  0  0
  6  7  1  0  0  0  0
  6  9  1  0  0  0  0
  7  8  2  0  0  0  0
  9 10  2  0  0  0  0
  9 12  1  0  0  0  0
 10 11  1  0  0  0  0
 12 13  1  0  0  0  0
M  END
>  <CHROM.1>
-2.03857430,-44.40559611,-34.52945472,32.14625519,29.82833307,107.94140297
-0.65189691,0.05162990,-2.50653317

>  <Name>
ligand

>  <RI>
2.73617e+07

>  <Rbt.Current_Directory>
/home/itssahil/PROJECTS/Mol_Feturizer/New_Systems/rnas/4RZD

>  <Rbt.Executable>
rbdock ($Id: //depot/dev/client3/rdock/2013.1/src/exe/rbdock.cxx#4 $)

>  <Rbt.Library>
libRbt.so (2013.1, Build901 2013/11/27)

>  <Rbt.Parameter_File>
/export/apps/rDock/src/rDock_2013.1_src/data/scripts/dock_solv.prm

>  <Rbt.Receptor>
prm/pocket_docking_6.prm

>  <SCORE>
-49.9511

>  <SCORE.INTER>
-49.5692

>  <SCORE.INTER.CONST>
1

>  <SCORE.INTER.POLAR>
-4.9606

>  <SCORE.INTER.ROT>
3

>  <SCORE.INTER.SOLV>
10.5818

>  <SCORE.INTER.VDW>
-25.638

>  <SCORE.INTER.norm>
-3.81301

>  <SCORE.INTRA>
-0.381924

>  <SCORE.INTRA.DIHEDRAL>
-1.46594

>  <SCORE.INTRA.DIHEDRAL.0>
4.88905

>  <SCORE.INTRA.POLAR>
0

>  <SCORE.INTRA.POLAR.0>
0

>  <SCORE.INTRA.REPUL>
0

>  <SCORE.INTRA.REPUL.0>
0

>  <SCORE.INTRA.SOLV>
0.0908404

>  <SCORE.INTRA.SOLV.lig_0>
-15.1033

>  <SCORE.INTRA.VDW>
0.305625

>  <SCORE.INTRA.VDW.0>
-0.755285

>  <SCORE.INTRA.norm>
-0.0293788

>  <SCORE.RESTR>
0

>  <SCORE.RESTR.CAVITY>
0

>  <SCORE.RESTR.norm>
0

>  <SCORE.SYSTEM>
0

>  <SCORE.SYSTEM.CONST>
0

>  <SCORE.SYSTEM.DIHEDRAL>
0

>  <SCORE.SYSTEM.SOLV>
0

>  <SCORE.SYSTEM.norm>
0

>  <SCORE.heavy>
13

>  <SCORE.norm>
-3.84239

>  <RMSD>
0.496

$$$$
ligand
 OpenBabel11021811513D
libRbt.so/2013.1/901 2013/11/27
 13 14  0  0  0  0  0  0  0  0999 V2000
   34.3374   29.7979  108.1430 N   0  0  0  0  0  0  0  0  0  0  0  0
   34.2170   31.0882  108.7086 C   0  0  0  0  0  0  0  0  0  0  0  0
   35.4065   31.8569  108.9743 N   0  0  0  0  0  0  0  0  0  0  0  0
   32.9924   31.6255  109.0122 N   0  0  0  0  0  0  0  0  0  0  0  0
   31.8055   30.9205  108.7742 C   0  0  0  0  0  0  0  0  0  0  0  0
   31.8823   29.6030  108.1996 C   0  0  0  0  0  0  0  0  0  0  0  0
   33.2004   29.0506  107.8847 C   0  0  0  0  0  0  0  0  0  0  0  0
   33.3137   27.7951  107.3351 O   0  0  0  0  0  0  0  0  0  0  0  0
   30.5134   29.1331  108.0774 C   0  0  0  0  0  0  0  0  0  0  0  0
   29.6941   30.1547  108.5594 C   0  0  0  0  0  0  0  0  0  0  0  0
   30.4691   31.2141  108.9752 N   0  0  0  0  0  0  0  0  0  0  0  0
   30.0706   27.8110  107.5261 C   0  0  0  0  0  0  0  0  0  0  0  0
   29.9575   27.9072  106.0824 N   0  0  0  0  0  0  0  0  0  0  0  0
  1  2  1  0  0  0  0
  1  7  1  0  0  0  0
  2  3  1  0  0  0  0
  2  4  2  0  0  0  0
  4  5  1  0  0  0  0
  5  6  2  0  0  0  0
  5 11  1  0  0  0  0
  6  7  1  0  0  0  0
  6  9  1  0  0  0  0
  7  8  2  0  0  0  0
  9 10  2  0  0  0  0
  9 12  1  0  0  0  0
 10 11  1  0  0  0  0
 12 13  1  0  0  0  0
M  END
>  <CHROM.1>
168.69916262,-85.41387165,37.50212243,32.19474759,29.82842656,108.13931799
-0.62026049,-0.00875275,-2.62889763

>  <Name>
ligand

>  <RI>
1.38753e+07

>  <Rbt.Current_Directory>
/home/itssahil/PROJECTS/Mol_Feturizer/New_Systems/rnas/4RZD

>  <Rbt.Executable>
rbdock ($Id: //depot/dev/client3/rdock/2013.1/src/exe/rbdock.cxx#4 $)

>  <Rbt.Library>
libRbt.so (2013.1, Build901 2013/11/27)

>  <Rbt.Parameter_File>
/export/apps/rDock/src/rDock_2013.1_src/data/scripts/dock_solv.prm

>  <Rbt.Receptor>
prm/pocket_docking_7.prm

>  <SCORE>
-49.4959

>  <SCORE.INTER>
-48.6584

>  <SCORE.INTER.CONST>
1

>  <SCORE.INTER.POLAR>
-4.90997

>  <SCORE.INTER.ROT>
3

>  <SCORE.INTER.SOLV>
10.4735

>  <SCORE.INTER.VDW>
-25.1635

>  <SCORE.INTER.norm>
-3.74295

>  <SCORE.INTRA>
-0.837554

>  <SCORE.INTRA.DIHEDRAL>
-1.701

>  <SCORE.INTRA.DIHEDRAL.0>
4.88905

>  <SCORE.INTRA.POLAR>
0

>  <SCORE.INTRA.POLAR.0>
0

>  <SCORE.INTRA.REPUL>
0

>  <SCORE.INTRA.REPUL.0>
0

>  <SCORE.INTRA.SOLV>
-0.364362

>  <SCORE.INTRA.SOLV.lig_0>
-15.1033

>  <SCORE.INTRA.VDW>
0.195127

>  <SCORE.INTRA.VDW.0>
-0.755285

>  <SCORE.INTRA.norm>
-0.0644272

>  <SCORE.RESTR>
0

>  <SCORE.RESTR.CAVITY>
0

>  <SCORE.RESTR.norm>
0

>  <SCORE.SYSTEM>
0

>  <SCORE.SYSTEM.CONST>
0

>  <SCORE.SYSTEM.DIHEDRAL>
0

>  <SCORE.SYSTEM.SOLV>
0

>  <SCORE.SYSTEM.norm>
0

>  <SCORE.heavy>
13

>  <SCORE.norm>
-3.80738

>  <RMSD>
0.497

$$$$
ligand
 OpenBabel11021811513D
libRbt.so/2013.1/901 2013/11/27
 13 14  0  0  0  0  0  0  0  0999 V2000
   34.3031   29.7559  108.1292 N   0  0  0  0  0  0  0  0  0  0  0  0
   34.2039   31.0524  108.6847 C   0  0  0  0  0  0  0  0  0  0  0  0
   35.4051   31.8092  108.9310 N   0  0  0  0  0  0  0  0  0  0  0  0
   32.9891   31.6067  108.9966 N   0  0  0  0  0  0  0  0  0  0  0  0
   31.7915   30.9138  108.7773 C   0  0  0  0  0  0  0  0  0  0  0  0
   31.8467   29.5905  108.2135 C   0  0  0  0  0  0  0  0  0  0  0  0
   33.1548   29.0199  107.8894 C   0  0  0  0  0  0  0  0  0  0  0  0
   33.2475   27.7584  107.3497 O   0  0  0  0  0  0  0  0  0  0  0  0
   30.4712   29.1358  108.1099 C   0  0  0  0  0  0  0  0  0  0  0  0
   29.6691   30.1711  108.5917 C   0  0  0  0  0  0  0  0  0  0  0  0
   30.4608   31.2248  108.9899 N   0  0  0  0  0  0  0  0  0  0  0  0
   30.0070   27.8143  107.5749 C   0  0  0  0  0  0  0  0  0  0  0  0
   29.9348   27.8819  106.1270 N   0  0  0  0  0  0  0  0  0  0  0  0
  1  2  1  0  0  0  0
  1  7  1  0  0  0  0
  2  3  1  0  0  0  0
  2  4  2  0  0  0  0
  4  5  1  0  0  0  0
  5  6  2  0  0  0  0
  5 11  1  0  0  0  0
  6  7  1  0  0  0  0
  6  9  1  0  0  0  0
  7  8  2  0  0  0  0
  9 10  2  0  0  0  0
  9 12  1  0  0  0  0
 10 11  1  0  0  0  0
 12 13  1  0  0  0  0
M  END
>  <CHROM.1>
175.73459831,-82.98022634,37.09772769,32.16620637,29.81009044,108.14741330
-0.60911958,-0.01460503,-2.63585407

>  <Name>
ligand

>  <RI>
1.35221e+07

>  <Rbt.Current_Directory>
/home/itssahil/PROJECTS/Mol_Feturizer/New_Systems/rnas/4RZD

>  <Rbt.Executable>
rbdock ($Id: //depot/dev/client3/rdock/2013.1/src/exe/rbdock.cxx#4 $)

>  <Rbt.Library>
libRbt.so (2013.1, Build901 2013/11/27)

>  <Rbt.Parameter_File>
/export/apps/rDock/src/rDock_2013.1_src/data/scripts/dock_solv.prm

>  <Rbt.Receptor>
prm/pocket_docking_5.prm

>  <SCORE>
-49.4159

>  <SCORE.INTER>
-48.6006

>  <SCORE.INTER.CONST>
1

>  <SCORE.INTER.POLAR>
-4.91016

>  <SCORE.INTER.ROT>
3

>  <SCORE.INTER.SOLV>
10.3392

>  <SCORE.INTER.VDW>
-25.0796

>  <SCORE.INTER.norm>
-3.73851

>  <SCORE.INTRA>
-0.815236

>  <SCORE.INTRA.DIHEDRAL>
-1.67638

>  <SCORE.INTRA.DIHEDRAL.0>
4.88905

>  <SCORE.INTRA.POLAR>
0

>  <SCORE.INTRA.POLAR.0>
0

>  <SCORE.INTRA.REPUL>
0

>  <SCORE.INTRA.REPUL.0>
0

>  <SCORE.INTRA.SOLV>
-0.331938

>  <SCORE.INTRA.SOLV.lig_0>
-15.1033

>  <SCORE.INTRA.VDW>
0.188922

>  <SCORE.INTRA.VDW.0>
-0.755285

>  <SCORE.INTRA.norm>
-0.0627105

>  <SCORE.RESTR>
0

>  <SCORE.RESTR.CAVITY>
0

>  <SCORE.RESTR.norm>
0

>  <SCORE.SYSTEM>
0

>  <SCORE.SYSTEM.CONST>
0

>  <SCORE.SYSTEM.DIHEDRAL>
0

>  <SCORE.SYSTEM.SOLV>
0

>  <SCORE.SYSTEM.norm>
0

>  <SCORE.heavy>
13

>  <SCORE.norm>
-3.80122

>  <RMSD>
0.498

$$$$
ligand
 OpenBabel11021811513D
libRbt.so/2013.1/901 2013/11/27
 13 14  0  0  0  0  0  0  0  0999 V2000
   34.2000   29.6834  108.0392 N   0  0  0  0  0  0  0  0  0  0  0  0
   34.1349   30.8966  108.7624 C   0  0  0  0  0  0  0  0  0  0  0  0
   35.3561   31.5279  109.1942 N   0  0  0  0  0  0  0  0  0  0  0  0
   32.9345   31.4866  109.0645 N   0  0  0  0  0  0  0  0  0  0  0  0
   31.7186   30.9145  108.6685 C   0  0  0  0  0  0  0  0  0  0  0  0
   31.7390   29.6790  107.9303 C   0  0  0  0  0  0  0  0  0  0  0  0
   33.0322   29.0680  107.6204 C   0  0  0  0  0  0  0  0  0  0  0  0
   33.0916   27.8877  106.9171 O   0  0  0  0  0  0  0  0  0  0  0  0
   30.3511   29.3391  107.6697 C   0  0  0  0  0  0  0  0  0  0  0  0
   29.5768   30.3528  108.2352 C   0  0  0  0  0  0  0  0  0  0  0  0
   30.3963   31.2856  108.8305 N   0  0  0  0  0  0  0  0  0  0  0  0
   29.8525   28.1374  106.9244 C   0  0  0  0  0  0  0  0  0  0  0  0
   30.6374   27.9627  105.7163 N   0  0  0  0  0  0  0  0  0  0  0  0
  1  2  1  0  0  0  0
  1  7  1  0  0  0  0
  2  3  1  0  0  0  0
  2  4  2  0  0  0  0
  4  5  1  0  0  0  0
  5  6  2  0  0  0  0
  5 11  1  0  0  0  0
  6  7  1  0  0  0  0
  6  9  1  0  0  0  0
  7  8  2  0  0  0  0
  9 10  2  0  0  0  0
  9 12  1  0  0  0  0
 10 11  1  0  0  0  0
 12 13  1  0  0  0  0
M  END
>  <CHROM.1>
-176.85117515,-45.09873420,-153.53580278,32.14313369,29.83234256,107.93728230
-0.65967769,0.05045143,-2.51735028

>  <Name>
ligand

>  <RI>
2.73617e+07

>  <Rbt.Current_Directory>
/home/itssahil/PROJECTS/Mol_Feturizer/New_Systems/rnas/4RZD

>  <Rbt.Executable>
rbdock ($Id: //depot/dev/client3/rdock/2013.1/src/exe/rbdock.cxx#4 $)

>  <Rbt.Library>
libRbt.so (2013.1, Build901 2013/11/27)

>  <Rbt.Parameter_File>
/export/apps/rDock/src/rDock_2013.1_src/data/scripts/dock_solv.prm

>  <Rbt.Receptor>
prm/pocket_docking_6.prm

>  <SCORE>
-51.0434

>  <SCORE.INTER>
-49.0714

>  <SCORE.INTER.CONST>
1

>  <SCORE.INTER.POLAR>
-4.86331

>  <SCORE.INTER.ROT>
3

>  <SCORE.INTER.SOLV>
10.4008

>  <SCORE.INTER.VDW>
-25.5702

>  <SCORE.INTER.norm>
-3.77473

>  <SCORE.INTRA>
-1.97198

>  <SCORE.INTRA.DIHEDRAL>
-1.40564

>  <SCORE.INTRA.DIHEDRAL.0>
4.88905

>  <SCORE.INTRA.POLAR>
-0.41171

>  <SCORE.INTRA.POLAR.0>
0

>  <SCORE.INTRA.REPUL>
0

>  <SCORE.INTRA.REPUL.0>
0

>  <SCORE.INTRA.SOLV>
0.165469

>  <SCORE.INTRA.SOLV.lig_0>
-15.1033

>  <SCORE.INTRA.VDW>
0.0479171

>  <SCORE.INTRA.VDW.0>
-0.755285

>  <SCORE.INTRA.norm>
-0.151691

>  <SCORE.RESTR>
0

>  <SCORE.RESTR.CAVITY>
0

>  <SCORE.RESTR.norm>
0

>  <SCORE.SYSTEM>
0

>  <SCORE.SYSTEM.CONST>
0

>  <SCORE.SYSTEM.DIHEDRAL>
0

>  <SCORE.SYSTEM.SOLV>
0

>  <SCORE.SYSTEM.norm>
0

>  <SCORE.heavy>
13

>  <SCORE.norm>
-3.92642

>  <RMSD>
0.500

$$$$
ligand
 OpenBabel11021811513D
libRbt.so/2013.1/901 2013/11/27
 13 14  0  0  0  0  0  0  0  0999 V2000
   34.1979   29.6733  108.0343 N   0  0  0  0  0  0  0  0  0  0  0  0
   34.1360   30.8837  108.7625 C   0  0  0  0  0  0  0  0  0  0  0  0
   35.3590   31.5121  109.1935 N   0  0  0  0  0  0  0  0  0  0  0  0
   32.9370   31.4738  109.0700 N   0  0  0  0  0  0  0  0  0  0  0  0
   31.7195   30.9045  108.6751 C   0  0  0  0  0  0  0  0  0  0  0  0
   31.7366   29.6718  107.9320 C   0  0  0  0  0  0  0  0  0  0  0  0
   33.0283   29.0607  107.6163 C   0  0  0  0  0  0  0  0  0  0  0  0
   33.0846   27.8831  106.9083 O   0  0  0  0  0  0  0  0  0  0  0  0
   30.3477   29.3344  107.6738 C   0  0  0  0  0  0  0  0  0  0  0  0
   29.5759   30.3468  108.2454 C   0  0  0  0  0  0  0  0  0  0  0  0
   30.3980   31.2763  108.8421 N   0  0  0  0  0  0  0  0  0  0  0  0
   29.8457   28.1362  106.9252 C   0  0  0  0  0  0  0  0  0  0  0  0
   30.6144   27.9768  105.7046 N   0  0  0  0  0  0  0  0  0  0  0  0
  1  2  1  0  0  0  0
  1  7  1  0  0  0  0
  2  3  1  0  0  0  0
  2  4  2  0  0  0  0
  4  5  1  0  0  0  0
  5  6  2  0  0  0  0
  5 11  1  0  0  0  0
  6  7  1  0  0  0  0
  6  9  1  0  0  0  0
  7  8  2  0  0  0  0
  9 10  2  0  0  0  0
  9 12  1  0  0  0  0
 10 11  1  0  0  0  0
 12 13  1  0  0  0  0
M  END
>  <CHROM.1>
-0.69478646,-45.92578733,-154.05875221,32.13973763,29.82585028,107.93769796
-0.65655309,0.04947426,-2.51268797

>  <Name>
ligand

>  <RI>
2.51964e+07

>  <Rbt.Current_Directory>
/home/itssahil/PROJECTS/Mol_Feturizer/New_Systems/rnas/4RZD

>  <Rbt.Executable>
rbdock ($Id: //depot/dev/client3/rdock/2013.1/src/exe/rbdock.cxx#4 $)

>  <Rbt.Library>
libRbt.so (2013.1, Build901 2013/11/27)

>  <Rbt.Parameter_File>
/export/apps/rDock/src/rDock_2013.1_src/data/scripts/dock_solv.prm

>  <Rbt.Receptor>
prm/pocket_docking_4.prm

>  <SCORE>
-51.1212

>  <SCORE.INTER>
-49.1175

>  <SCORE.INTER.CONST>
1

>  <SCORE.INTER.POLAR>
-4.86221

>  <SCORE.INTER.ROT>
3

>  <SCORE.INTER.SOLV>
10.4252

>  <SCORE.INTER.VDW>
-25.6127

>  <SCORE.INTER.norm>
-3.77827

>  <SCORE.INTRA>
-2.00367

>  <SCORE.INTRA.DIHEDRAL>
-1.43882

>  <SCORE.INTRA.DIHEDRAL.0>
4.88905

>  <SCORE.INTRA.POLAR>
-0.41023

>  <SCORE.INTRA.POLAR.0>
0

>  <SCORE.INTRA.REPUL>
0

>  <SCORE.INTRA.REPUL.0>
0

>  <SCORE.INTRA.SOLV>
0.156332

>  <SCORE.INTRA.SOLV.lig_0>
-15.1033

>  <SCORE.INTRA.VDW>
0.0323523

>  <SCORE.INTRA.VDW.0>
-0.755285

>  <SCORE.INTRA.norm>
-0.154129

>  <SCORE.RESTR>
0

>  <SCORE.RESTR.CAVITY>
0

>  <SCORE.RESTR.norm>
0

>  <SCORE.SYSTEM>
0

>  <SCORE.SYSTEM.CONST>
0

>  <SCORE.SYSTEM.DIHEDRAL>
0

>  <SCORE.SYSTEM.SOLV>
0

>  <SCORE.SYSTEM.norm>
0

>  <SCORE.heavy>
13

>  <SCORE.norm>
-3.9324

>  <RMSD>
0.501

$$$$
ligand
 OpenBabel11021811513D
libRbt.so/2013.1/901 2013/11/27
 13 14  0  0  0  0  0  0  0  0999 V2000
   34.3460   29.7430  108.2014 N   0  0  0  0  0  0  0  0  0  0  0  0
   34.2443   31.0299  108.7783 C   0  0  0  0  0  0  0  0  0  0  0  0
   35.4454   31.7726  109.0646 N   0  0  0  0  0  0  0  0  0  0  0  0
   33.0271   31.5880  109.0737 N   0  0  0  0  0  0  0  0  0  0  0  0
   31.8294   30.9086  108.8156 C   0  0  0  0  0  0  0  0  0  0  0  0
   31.8871   29.5954  108.2290 C   0  0  0  0  0  0  0  0  0  0  0  0
   33.1977   29.0205  107.9232 C   0  0  0  0  0  0  0  0  0  0  0  0
   33.2928   27.7683  107.3625 O   0  0  0  0  0  0  0  0  0  0  0  0
   30.5108   29.1536  108.0870 C   0  0  0  0  0  0  0  0  0  0  0  0
   29.7061   30.1862  108.5701 C   0  0  0  0  0  0  0  0  0  0  0  0
   30.4968   31.2263  109.0048 N   0  0  0  0  0  0  0  0  0  0  0  0
   30.0486   27.8457  107.5179 C   0  0  0  0  0  0  0  0  0  0  0  0
   29.9639   27.9547  106.0732 N   0  0  0  0  0  0  0  0  0  0  0  0
  1  2  1  0  0  0  0
  1  7  1  0  0  0  0
  2  3  1  0  0  0  0
  2  4  2  0  0  0  0
  4  5  1  0  0  0  0
  5  6  2  0  0  0  0
  5 11  1  0  0  0  0
  6  7  1  0  0  0  0
  6  9  1  0  0  0  0
  7  8  2  0  0  0  0
  9 10  2  0  0  0  0
  9 12  1  0  0  0  0
 10 11  1  0  0  0  0
 12 13  1  0  0  0  0
M  END
>  <CHROM.1>
8.59444069,-84.96271121,35.42221155,32.20526079,29.81502381,108.17429162
-0.60984467,0.00942781,-2.61783201

>  <Name>
ligand

>  <RI>
1.38753e+07

>  <Rbt.Current_Directory>
/home/itssahil/PROJECTS/Mol_Feturizer/New_Systems/rnas/4RZD

>  <Rbt.Executable>
rbdock ($Id: //depot/dev/client3/rdock/2013.1/src/exe/rbdock.cxx#4 $)

>  <Rbt.Library>
libRbt.so (2013.1, Build901 2013/11/27)

>  <Rbt.Parameter_File>
/export/apps/rDock/src/rDock_2013.1_src/data/scripts/dock_solv.prm

>  <Rbt.Receptor>
prm/pocket_docking_7.prm

>  <SCORE>
-49.3383

>  <SCORE.INTER>
-48.5815

>  <SCORE.INTER.CONST>
1

>  <SCORE.INTER.POLAR>
-4.90845

>  <SCORE.INTER.ROT>
3

>  <SCORE.INTER.SOLV>
10.4687

>  <SCORE.INTER.VDW>
-25.1158

>  <SCORE.INTER.norm>
-3.73704

>  <SCORE.INTRA>
-0.756716

>  <SCORE.INTRA.DIHEDRAL>
-1.57775

>  <SCORE.INTRA.DIHEDRAL.0>
4.88905

>  <SCORE.INTRA.POLAR>
0

>  <SCORE.INTRA.POLAR.0>
0

>  <SCORE.INTRA.REPUL>
0

>  <SCORE.INTRA.REPUL.0>
0

>  <SCORE.INTRA.SOLV>
-0.36082

>  <SCORE.INTRA.SOLV.lig_0>
-15.1033

>  <SCORE.INTRA.VDW>
0.21257

>  <SCORE.INTRA.VDW.0>
-0.755285

>  <SCORE.INTRA.norm>
-0.0582089

>  <SCORE.RESTR>
0

>  <SCORE.RESTR.CAVITY>
0

>  <SCORE.RESTR.norm>
0

>  <SCORE.SYSTEM>
0

>  <SCORE.SYSTEM.CONST>
0

>  <SCORE.SYSTEM.DIHEDRAL>
0

>  <SCORE.SYSTEM.SOLV>
0

>  <SCORE.SYSTEM.norm>
0

>  <SCORE.heavy>
13

>  <SCORE.norm>
-3.79525

>  <RMSD>
0.501

$$$$
ligand
 OpenBabel11021811513D
libRbt.so/2013.1/901 2013/11/27
 13 14  0  0  0  0  0  0  0  0999 V2000
   34.3403   29.7904  108.1290 N   0  0  0  0  0  0  0  0  0  0  0  0
   34.2208   31.0812  108.6938 C   0  0  0  0  0  0  0  0  0  0  0  0
   35.4102   31.8530  108.9501 N   0  0  0  0  0  0  0  0  0  0  0  0
   32.9971   31.6159  109.0053 N   0  0  0  0  0  0  0  0  0  0  0  0
   31.8102   30.9078  108.7764 C   0  0  0  0  0  0  0  0  0  0  0  0
   31.8862   29.5897  108.2030 C   0  0  0  0  0  0  0  0  0  0  0  0
   33.2034   29.0401  107.8795 C   0  0  0  0  0  0  0  0  0  0  0  0
   33.3158   27.7841  107.3308 O   0  0  0  0  0  0  0  0  0  0  0  0
   30.5176   29.1165  108.0909 C   0  0  0  0  0  0  0  0  0  0  0  0
   29.6992   30.1366  108.5774 C   0  0  0  0  0  0  0  0  0  0  0  0
   30.4746   31.1985  108.9864 N   0  0  0  0  0  0  0  0  0  0  0  0
   30.0741   27.7926  107.5444 C   0  0  0  0  0  0  0  0  0  0  0  0
   29.8959   27.9022  106.1083 N   0  0  0  0  0  0  0  0  0  0  0  0
  1  2  1  0  0  0  0
  1  7  1  0  0  0  0
  2  3  1  0  0  0  0
  2  4  2  0  0  0  0
  4  5  1  0  0  0  0
  5  6  2  0  0  0  0
  5 11  1  0  0  0  0
  6  7  1  0  0  0  0
  6  9  1  0  0  0  0
  7  8  2  0  0  0  0
  9 10  2  0  0  0  0
  9 12  1  0  0  0  0
 10 11  1  0  0  0  0
 12 13  1  0  0  0  0
M  END
>  <CHROM.1>
-10.14873909,-87.81189078,36.77637678,32.19241972,29.81729223,108.14096789
-0.61473042,-0.01412851,-2.63149130

>  <Name>
ligand

>  <RI>
4.18181e+07

>  <Rbt.Current_Directory>
/home/itssahil/PROJECTS/Mol_Feturizer/New_Systems/rnas/4RZD

>  <Rbt.Executable>
rbdock ($Id: //depot/dev/client3/rdock/2013.1/src/exe/rbdock.cxx#4 $)

>  <Rbt.Library>
libRbt.so (2013.1, Build901 2013/11/27)

>  <Rbt.Parameter_File>
/export/apps/rDock/src/rDock_2013.1_src/data/scripts/dock_solv.prm

>  <Rbt.Receptor>
prm/pocket_docking_3.prm

>  <SCORE>
-49.4082

>  <SCORE.INTER>
-48.591

>  <SCORE.INTER.CONST>
1

>  <SCORE.INTER.POLAR>
-4.91047

>  <SCORE.INTER.ROT>
3

>  <SCORE.INTER.SOLV>
10.5451

>  <SCORE.INTER.VDW>
-25.1408

>  <SCORE.INTER.norm>
-3.73777

>  <SCORE.INTRA>
-0.81721

>  <SCORE.INTRA.DIHEDRAL>
-1.6592

>  <SCORE.INTRA.DIHEDRAL.0>
4.88905

>  <SCORE.INTRA.POLAR>
0

>  <SCORE.INTRA.POLAR.0>
0

>  <SCORE.INTRA.REPUL>
0

>  <SCORE.INTRA.REPUL.0>
0

>  <SCORE.INTRA.SOLV>
-0.397173

>  <SCORE.INTRA.SOLV.lig_0>
-15.1033

>  <SCORE.INTRA.VDW>
0.210974

>  <SCORE.INTRA.VDW.0>
-0.755285

>  <SCORE.INTRA.norm>
-0.0628623

>  <SCORE.RESTR>
0

>  <SCORE.RESTR.CAVITY>
0

>  <SCORE.RESTR.norm>
0

>  <SCORE.SYSTEM>
0

>  <SCORE.SYSTEM.CONST>
0

>  <SCORE.SYSTEM.DIHEDRAL>
0

>  <SCORE.SYSTEM.SOLV>
0

>  <SCORE.SYSTEM.norm>
0

>  <SCORE.heavy>
13

>  <SCORE.norm>
-3.80063

>  <RMSD>
0.502

$$$$
ligand
 OpenBabel11021811513D
libRbt.so/2013.1/901 2013/11/27
 13 14  0  0  0  0  0  0  0  0999 V2000
   34.1863   29.6759  108.0538 N   0  0  0  0  0  0  0  0  0  0  0  0
   34.1237   30.8925  108.7714 C   0  0  0  0  0  0  0  0  0  0  0  0
   35.3460   31.5216  109.2033 N   0  0  0  0  0  0  0  0  0  0  0  0
   32.9247   31.4881  109.0679 N   0  0  0  0  0  0  0  0  0  0  0  0
   31.7077   30.9184  108.6716 C   0  0  0  0  0  0  0  0  0  0  0  0
   31.7255   29.6795  107.9390 C   0  0  0  0  0  0  0  0  0  0  0  0
   33.0173   29.0627  107.6349 C   0  0  0  0  0  0  0  0  0  0  0  0
   33.0743   27.8790  106.9372 O   0  0  0  0  0  0  0  0  0  0  0  0
   30.3371   29.3433  107.6766 C   0  0  0  0  0  0  0  0  0  0  0  0
   29.5650   30.3623  108.2357 C   0  0  0  0  0  0  0  0  0  0  0  0
   30.3863   31.2949  108.8288 N   0  0  0  0  0  0  0  0  0  0  0  0
   29.8360   28.1401  106.9356 C   0  0  0  0  0  0  0  0  0  0  0  0
   30.6190   27.9610  105.7268 N   0  0  0  0  0  0  0  0  0  0  0  0
  1  2  1  0  0  0  0
  1  7  1  0  0  0  0
  2  3  1  0  0  0  0
  2  4  2  0  0  0  0
  4  5  1  0  0  0  0
  5  6  2  0  0  0  0
  5 11  1  0  0  0  0
  6  7  1  0  0  0  0
  6  9  1  0  0  0  0
  7  8  2  0  0  0  0
  9 10  2  0  0  0  0
  9 12  1  0  0  0  0
 10 11  1  0  0  0  0
 12 13  1  0  0  0  0
M  END
>  <CHROM.1>
-176.18351413,-45.37274434,-33.25778148,32.12698740,29.83928297,107.94305615
-0.65222803,0.05583449,-2.51676367

>  <Name>
ligand

>  <RI>
1.35221e+07

>  <Rbt.Current_Directory>
/home/itssahil/PROJECTS/Mol_Feturizer/New_Systems/rnas/4RZD

>  <Rbt.Executable>
rbdock ($Id: //depot/dev/client3/rdock/2013.1/src/exe/rbdock.cxx#4 $)

>  <Rbt.Library>
libRbt.so (2013.1, Build901 2013/11/27)

>  <Rbt.Parameter_File>
/export/apps/rDock/src/rDock_2013.1_src/data/scripts/dock_solv.prm

>  <Rbt.Receptor>
prm/pocket_docking_5.prm

>  <SCORE>
-49.9381

>  <SCORE.INTER>
-49.581

>  <SCORE.INTER.CONST>
1

>  <SCORE.INTER.POLAR>
-4.96573

>  <SCORE.INTER.ROT>
3

>  <SCORE.INTER.SOLV>
10.5459

>  <SCORE.INTER.VDW>
-25.6169

>  <SCORE.INTER.norm>
-3.81393

>  <SCORE.INTRA>
-0.357082

>  <SCORE.INTRA.DIHEDRAL>
-1.38875

>  <SCORE.INTRA.DIHEDRAL.0>
4.88905

>  <SCORE.INTRA.POLAR>
0

>  <SCORE.INTRA.POLAR.0>
0

>  <SCORE.INTRA.REPUL>
0

>  <SCORE.INTRA.REPUL.0>
0

>  <SCORE.INTRA.SOLV>
0.0783951

>  <SCORE.INTRA.SOLV.lig_0>
-15.1033

>  <SCORE.INTRA.VDW>
0.298095

>  <SCORE.INTRA.VDW.0>
-0.755285

>  <SCORE.INTRA.norm>
-0.0274678

>  <SCORE.RESTR>
0

>  <SCORE.RESTR.CAVITY>
0

>  <SCORE.RESTR.norm>
0

>  <SCORE.SYSTEM>
0

>  <SCORE.SYSTEM.CONST>
0

>  <SCORE.SYSTEM.DIHEDRAL>
0

>  <SCORE.SYSTEM.SOLV>
0

>  <SCORE.SYSTEM.norm>
0

>  <SCORE.heavy>
13

>  <SCORE.norm>
-3.84139

>  <RMSD>
0.503

$$$$
ligand
 OpenBabel11021811513D
libRbt.so/2013.1/901 2013/11/27
 13 14  0  0  0  0  0  0  0  0999 V2000
   34.1989   29.6674  108.0479 N   0  0  0  0  0  0  0  0  0  0  0  0
   34.1398   30.8749  108.7812 C   0  0  0  0  0  0  0  0  0  0  0  0
   35.3640   31.4965  109.2183 N   0  0  0  0  0  0  0  0  0  0  0  0
   32.9423   31.4685  109.0879 N   0  0  0  0  0  0  0  0  0  0  0  0
   31.7236   30.9058  108.6872 C   0  0  0  0  0  0  0  0  0  0  0  0
   31.7379   29.6764  107.9387 C   0  0  0  0  0  0  0  0  0  0  0  0
   33.0280   29.0614  107.6239 C   0  0  0  0  0  0  0  0  0  0  0  0
   33.0815   27.8867  106.9109 O   0  0  0  0  0  0  0  0  0  0  0  0
   30.3483   29.3457  107.6751 C   0  0  0  0  0  0  0  0  0  0  0  0
   29.5791   30.3586  108.2489 C   0  0  0  0  0  0  0  0  0  0  0  0
   30.4031   31.2823  108.8520 N   0  0  0  0  0  0  0  0  0  0  0  0
   29.8437   28.1528  106.9199 C   0  0  0  0  0  0  0  0  0  0  0  0
   30.6369   27.9758  105.7175 N   0  0  0  0  0  0  0  0  0  0  0  0
  1  2  1  0  0  0  0
  1  7  1  0  0  0  0
  2  3  1  0  0  0  0
  2  4  2  0  0  0  0
  4  5  1  0  0  0  0
  5  6  2  0  0  0  0
  5 11  1  0  0  0  0
  6  7  1  0  0  0  0
  6  9  1  0  0  0  0
  7  8  2  0  0  0  0
  9 10  2  0  0  0  0
  9 12  1  0  0  0  0
 10 11  1  0  0  0  0
 12 13  1  0  0  0  0
M  END
>  <CHROM.1>
177.41743193,-44.50883861,-154.69094882,32.14364585,29.82686967,107.94774896
-0.65617092,0.05339021,-2.51042879

>  <Name>
ligand

>  <RI>
4.18181e+07

>  <Rbt.Current_Directory>
/home/itssahil/PROJECTS/Mol_Feturizer/New_Systems/rnas/4RZD

>  <Rbt.Executable>
rbdock ($Id: //depot/dev/client3/rdock/2013.1/src/exe/rbdock.cxx#4 $)

>  <Rbt.Library>
libRbt.so (2013.1, Build901 2013/11/27)

>  <Rbt.Parameter_File>
/export/apps/rDock/src/rDock_2013.1_src/data/scripts/dock_solv.prm

>  <Rbt.Receptor>
prm/pocket_docking_3.prm

>  <SCORE>
-51.0841

>  <SCORE.INTER>
-49.071

>  <SCORE.INTER.CONST>
1

>  <SCORE.INTER.POLAR>
-4.86331

>  <SCORE.INTER.ROT>
3

>  <SCORE.INTER.SOLV>
10.4287

>  <SCORE.INTER.VDW>
-25.5792

>  <SCORE.INTER.norm>
-3.77469

>  <SCORE.INTRA>
-2.01317

>  <SCORE.INTRA.DIHEDRAL>
-1.47592

>  <SCORE.INTRA.DIHEDRAL.0>
4.88905

>  <SCORE.INTRA.POLAR>
-0.41888

>  <SCORE.INTRA.POLAR.0>
0

>  <SCORE.INTRA.REPUL>
0

>  <SCORE.INTRA.REPUL.0>
0

>  <SCORE.INTRA.SOLV>
0.174823

>  <SCORE.INTRA.SOLV.lig_0>
-15.1033

>  <SCORE.INTRA.VDW>
0.0615719

>  <SCORE.INTRA.VDW.0>
-0.755285

>  <SCORE.INTRA.norm>
-0.154859

>  <SCORE.RESTR>
0

>  <SCORE.RESTR.CAVITY>
0

>  <SCORE.RESTR.norm>
0

>  <SCORE.SYSTEM>
0

>  <SCORE.SYSTEM.CONST>
0

>  <SCORE.SYSTEM.DIHEDRAL>
0

>  <SCORE.SYSTEM.SOLV>
0

>  <SCORE.SYSTEM.norm>
0

>  <SCORE.heavy>
13

>  <SCORE.norm>
-3.92955

>  <RMSD>
0.505

$$$$
ligand
 OpenBabel11021811513D
libRbt.so/2013.1/901 2013/11/27
 13 14  0  0  0  0  0  0  0  0999 V2000
   34.1732   29.6860  108.0453 N   0  0  0  0  0  0  0  0  0  0  0  0
   34.1145   30.9051  108.7591 C   0  0  0  0  0  0  0  0  0  0  0  0
   35.3391   31.5342  109.1846 N   0  0  0  0  0  0  0  0  0  0  0  0
   32.9172   31.5029  109.0580 N   0  0  0  0  0  0  0  0  0  0  0  0
   31.6982   30.9333  108.6680 C   0  0  0  0  0  0  0  0  0  0  0  0
   31.7120   29.6920  107.9393 C   0  0  0  0  0  0  0  0  0  0  0  0
   33.0020   29.0727  107.6326 C   0  0  0  0  0  0  0  0  0  0  0  0
   33.0552   27.8867  106.9385 O   0  0  0  0  0  0  0  0  0  0  0  0
   30.3223   29.3564  107.6830 C   0  0  0  0  0  0  0  0  0  0  0  0
   29.5534   30.3781  108.2416 C   0  0  0  0  0  0  0  0  0  0  0  0
   30.3778   31.3117  108.8286 N   0  0  0  0  0  0  0  0  0  0  0  0
   29.8172   28.1514  106.9477 C   0  0  0  0  0  0  0  0  0  0  0  0
   30.6606   27.9064  105.7923 N   0  0  0  0  0  0  0  0  0  0  0  0
  1  2  1  0  0  0  0
  1  7  1  0  0  0  0
  2  3  1  0  0  0  0
  2  4  2  0  0  0  0
  4  5  1  0  0  0  0
  5  6  2  0  0  0  0
  5 11  1  0  0  0  0
  6  7  1  0  0  0  0
  6  9  1  0  0  0  0
  7  8  2  0  0  0  0
  9 10  2  0  0  0  0
  9 12  1  0  0  0  0
 10 11  1  0  0  0  0
 12 13  1  0  0  0  0
M  END
>  <CHROM.1>
1.41720019,-40.97871746,75.04048133,32.12630882,29.84617000,107.95093080
-0.64980681,0.05018869,-2.53008606

>  <Name>
ligand

>  <RI>
2.51964e+07

>  <Rbt.Current_Directory>
/home/itssahil/PROJECTS/Mol_Feturizer/New_Systems/rnas/4RZD

>  <Rbt.Executable>
rbdock ($Id: //depot/dev/client3/rdock/2013.1/src/exe/rbdock.cxx#4 $)

>  <Rbt.Library>
libRbt.so (2013.1, Build901 2013/11/27)

>  <Rbt.Parameter_File>
/export/apps/rDock/src/rDock_2013.1_src/data/scripts/dock_solv.prm

>  <Rbt.Receptor>
prm/pocket_docking_4.prm

>  <SCORE>
-47.3362

>  <SCORE.INTER>
-45.248

>  <SCORE.INTER.CONST>
1

>  <SCORE.INTER.POLAR>
-4.11031

>  <SCORE.INTER.ROT>
3

>  <SCORE.INTER.SOLV>
10.0888

>  <SCORE.INTER.VDW>
-25.4273

>  <SCORE.INTER.norm>
-3.48062

>  <SCORE.INTRA>
-2.08816

>  <SCORE.INTRA.DIHEDRAL>
-2.02832

>  <SCORE.INTRA.DIHEDRAL.0>
4.88905

>  <SCORE.INTRA.POLAR>
-0.428059

>  <SCORE.INTRA.POLAR.0>
0

>  <SCORE.INTRA.REPUL>
0

>  <SCORE.INTRA.REPUL.0>
0

>  <SCORE.INTRA.SOLV>
0.307562

>  <SCORE.INTRA.SOLV.lig_0>
-15.1033

>  <SCORE.INTRA.VDW>
0.227617

>  <SCORE.INTRA.VDW.0>
-0.755285

>  <SCORE.INTRA.norm>
-0.160628

>  <SCORE.RESTR>
0

>  <SCORE.RESTR.CAVITY>
0

>  <SCORE.RESTR.norm>
0

>  <SCORE.SYSTEM>
0

>  <SCORE.SYSTEM.CONST>
0

>  <SCORE.SYSTEM.DIHEDRAL>
0

>  <SCORE.SYSTEM.SOLV>
0

>  <SCORE.SYSTEM.norm>
0

>  <SCORE.heavy>
13

>  <SCORE.norm>
-3.64125

>  <RMSD>
0.505

$$$$
ligand
 OpenBabel11021811513D
libRbt.so/2013.1/901 2013/11/27
 13 14  0  0  0  0  0  0  0  0999 V2000
   34.2028   29.6796  108.0431 N   0  0  0  0  0  0  0  0  0  0  0  0
   34.1412   30.8890  108.7731 C   0  0  0  0  0  0  0  0  0  0  0  0
   35.3642   31.5154  109.2067 N   0  0  0  0  0  0  0  0  0  0  0  0
   32.9424   31.4798  109.0800 N   0  0  0  0  0  0  0  0  0  0  0  0
   31.7248   30.9124  108.6826 C   0  0  0  0  0  0  0  0  0  0  0  0
   31.7416   29.6809  107.9375 C   0  0  0  0  0  0  0  0  0  0  0  0
   33.0331   29.0690  107.6225 C   0  0  0  0  0  0  0  0  0  0  0  0
   33.0892   27.8924  106.9127 O   0  0  0  0  0  0  0  0  0  0  0  0
   30.3527   29.3453  107.6769 C   0  0  0  0  0  0  0  0  0  0  0  0
   29.5813   30.3576  108.2490 C   0  0  0  0  0  0  0  0  0  0  0  0
   30.4035   31.2853  108.8483 N   0  0  0  0  0  0  0  0  0  0  0  0
   29.8506   28.1489  106.9257 C   0  0  0  0  0  0  0  0  0  0  0  0
   30.6367   27.9763  105.7181 N   0  0  0  0  0  0  0  0  0  0  0  0
  1  2  1  0  0  0  0
  1  7  1  0  0  0  0
  2  3  1  0  0  0  0
  2  4  2  0  0  0  0
  4  5  1  0  0  0  0
  5  6  2  0  0  0  0
  5 11  1  0  0  0  0
  6  7  1  0  0  0  0
  6  9  1  0  0  0  0
  7  8  2  0  0  0  0
  9 10  2  0  0  0  0
  9 12  1  0  0  0  0
 10 11  1  0  0  0  0
 12 13  1  0  0  0  0
M  END
>  <CHROM.1>
179.50228526,-44.89238872,-154.37408990,32.14643856,29.83315404,107.94507988
-0.65737467,0.05056782,-2.51246992

>  <Name>
ligand

>  <RI>
1.0531e+07

>  <Rbt.Current_Directory>
/home/itssahil/PROJECTS/Mol_Feturizer/New_Systems/rnas/4RZD

>  <Rbt.Executable>
rbdock ($Id: //depot/dev/client3/rdock/2013.1/src/exe/rbdock.cxx#4 $)

>  <Rbt.Library>
libRbt.so (2013.1, Build901 2013/11/27)

>  <Rbt.Parameter_File>
/export/apps/rDock/src/rDock_2013.1_src/data/scripts/dock_solv.prm

>  <Rbt.Receptor>
prm/pocket_docking_8.prm

>  <SCORE>
-51.0967

>  <SCORE.INTER>
-49.091

>  <SCORE.INTER.CONST>
1

>  <SCORE.INTER.POLAR>
-4.86331

>  <SCORE.INTER.ROT>
3

>  <SCORE.INTER.SOLV>
10.4276

>  <SCORE.INTER.VDW>
-25.5922

>  <SCORE.INTER.norm>
-3.77623

>  <SCORE.INTRA>
-2.00566

>  <SCORE.INTRA.DIHEDRAL>
-1.45698

>  <SCORE.INTRA.DIHEDRAL.0>
4.88905

>  <SCORE.INTRA.POLAR>
-0.416153

>  <SCORE.INTRA.POLAR.0>
0

>  <SCORE.INTRA.REPUL>
0

>  <SCORE.INTRA.REPUL.0>
0

>  <SCORE.INTRA.SOLV>
0.169623

>  <SCORE.INTRA.SOLV.lig_0>
-15.1033

>  <SCORE.INTRA.VDW>
0.0529403

>  <SCORE.INTRA.VDW.0>
-0.755285

>  <SCORE.INTRA.norm>
-0.154281

>  <SCORE.RESTR>
0

>  <SCORE.RESTR.CAVITY>
0

>  <SCORE.RESTR.norm>
0

>  <SCORE.SYSTEM>
0

>  <SCORE.SYSTEM.CONST>
0

>  <SCORE.SYSTEM.DIHEDRAL>
0

>  <SCORE.SYSTEM.SOLV>
0

>  <SCORE.SYSTEM.norm>
0

>  <SCORE.heavy>
13

>  <SCORE.norm>
-3.93051

>  <RMSD>
0.505

$$$$
ligand
 OpenBabel11021811513D
libRbt.so/2013.1/901 2013/11/27
 13 14  0  0  0  0  0  0  0  0999 V2000
   34.1934   29.7009  108.0377 N   0  0  0  0  0  0  0  0  0  0  0  0
   34.1301   30.9199  108.7514 C   0  0  0  0  0  0  0  0  0  0  0  0
   35.3525   31.5574  109.1703 N   0  0  0  0  0  0  0  0  0  0  0  0
   32.9303   31.5097  109.0562 N   0  0  0  0  0  0  0  0  0  0  0  0
   31.7132   30.9317  108.6727 C   0  0  0  0  0  0  0  0  0  0  0  0
   31.7317   29.6902  107.9444 C   0  0  0  0  0  0  0  0  0  0  0  0
   33.0243   29.0796  107.6314 C   0  0  0  0  0  0  0  0  0  0  0  0
   33.0819   27.8937  106.9375 O   0  0  0  0  0  0  0  0  0  0  0  0
   30.3430   29.3452  107.6954 C   0  0  0  0  0  0  0  0  0  0  0  0
   29.5700   30.3618  108.2575 C   0  0  0  0  0  0  0  0  0  0  0  0
   30.3911   31.3012  108.8400 N   0  0  0  0  0  0  0  0  0  0  0  0
   29.8423   28.1364  106.9632 C   0  0  0  0  0  0  0  0  0  0  0  0
   30.6083   27.9638  105.7427 N   0  0  0  0  0  0  0  0  0  0  0  0
  1  2  1  0  0  0  0
  1  7  1  0  0  0  0
  2  3  1  0  0  0  0
  2  4  2  0  0  0  0
  4  5  1  0  0  0  0
  5  6  2  0  0  0  0
  5 11  1  0  0  0  0
  6  7  1  0  0  0  0
  6  9  1  0  0  0  0
  7  8  2  0  0  0  0
  9 10  2  0  0  0  0
  9 12  1  0  0  0  0
 10 11  1  0  0  0  0
 12 13  1  0  0  0  0
M  END
>  <CHROM.1>
4.95708445,-45.85111600,-152.96254203,32.13441581,29.84552594,107.94681740
-0.65721265,0.04439104,-2.52451415

>  <Name>
ligand

>  <RI>
1.0531e+07

>  <Rbt.Current_Directory>
/home/itssahil/PROJECTS/Mol_Feturizer/New_Systems/rnas/4RZD

>  <Rbt.Executable>
rbdock ($Id: //depot/dev/client3/rdock/2013.1/src/exe/rbdock.cxx#4 $)

>  <Rbt.Library>
libRbt.so (2013.1, Build901 2013/11/27)

>  <Rbt.Parameter_File>
/export/apps/rDock/src/rDock_2013.1_src/data/scripts/dock_solv.prm

>  <Rbt.Receptor>
prm/pocket_docking_8.prm

>  <SCORE>
-51.0171

>  <SCORE.INTER>
-49.0616

>  <SCORE.INTER.CONST>
1

>  <SCORE.INTER.POLAR>
-4.86116

>  <SCORE.INTER.ROT>
3

>  <SCORE.INTER.SOLV>
10.3463

>  <SCORE.INTER.VDW>
-25.5527

>  <SCORE.INTER.norm>
-3.77397

>  <SCORE.INTRA>
-1.95553

>  <SCORE.INTRA.DIHEDRAL>
-1.37098

>  <SCORE.INTRA.DIHEDRAL.0>
4.88905

>  <SCORE.INTRA.POLAR>
-0.406045

>  <SCORE.INTRA.POLAR.0>
0

>  <SCORE.INTRA.REPUL>
0

>  <SCORE.INTRA.REPUL.0>
0

>  <SCORE.INTRA.SOLV>
0.155029

>  <SCORE.INTRA.SOLV.lig_0>
-15.1033

>  <SCORE.INTRA.VDW>
0.0330006

>  <SCORE.INTRA.VDW.0>
-0.755285

>  <SCORE.INTRA.norm>
-0.150425

>  <SCORE.RESTR>
0

>  <SCORE.RESTR.CAVITY>
0

>  <SCORE.RESTR.norm>
0

>  <SCORE.SYSTEM>
0

>  <SCORE.SYSTEM.CONST>
0

>  <SCORE.SYSTEM.DIHEDRAL>
0

>  <SCORE.SYSTEM.SOLV>
0

>  <SCORE.SYSTEM.norm>
0

>  <SCORE.heavy>
13

>  <SCORE.norm>
-3.9244

>  <RMSD>
0.506

$$$$
ligand
 OpenBabel11021811513D
libRbt.so/2013.1/901 2013/11/27
 13 14  0  0  0  0  0  0  0  0999 V2000
   34.1817   29.6647  108.0384 N   0  0  0  0  0  0  0  0  0  0  0  0
   34.1298   30.8763  108.7653 C   0  0  0  0  0  0  0  0  0  0  0  0
   35.3579   31.4969  109.1927 N   0  0  0  0  0  0  0  0  0  0  0  0
   32.9355   31.4748  109.0750 N   0  0  0  0  0  0  0  0  0  0  0  0
   31.7132   30.9133  108.6837 C   0  0  0  0  0  0  0  0  0  0  0  0
   31.7202   29.6798  107.9419 C   0  0  0  0  0  0  0  0  0  0  0  0
   33.0070   29.0596  107.6238 C   0  0  0  0  0  0  0  0  0  0  0  0
   33.0537   27.8809  106.9169 O   0  0  0  0  0  0  0  0  0  0  0  0
   30.3285   29.3514  107.6873 C   0  0  0  0  0  0  0  0  0  0  0  0
   29.5650   30.3696  108.2596 C   0  0  0  0  0  0  0  0  0  0  0  0
   30.3946   31.2943  108.8533 N   0  0  0  0  0  0  0  0  0  0  0  0
   29.8167   28.1558  106.9413 C   0  0  0  0  0  0  0  0  0  0  0  0
   30.6191   27.9553  105.7487 N   0  0  0  0  0  0  0  0  0  0  0  0
  1  2  1  0  0  0  0
  1  7  1  0  0  0  0
  2  3  1  0  0  0  0
  2  4  2  0  0  0  0
  4  5  1  0  0  0  0
  5  6  2  0  0  0  0
  5 11  1  0  0  0  0
  6  7  1  0  0  0  0
  6  9  1  0  0  0  0
  7  8  2  0  0  0  0
  9 10  2  0  0  0  0
  9 12  1  0  0  0  0
 10 11  1  0  0  0  0
 12 13  1  0  0  0  0
M  END
>  <CHROM.1>
-0.93217622,-43.45026976,-34.09596412,32.12512166,29.83528512,107.94616981
-0.64649588,0.05135707,-2.51251652

>  <Name>
ligand

>  <RI>
2.51964e+07

>  <Rbt.Current_Directory>
/home/itssahil/PROJECTS/Mol_Feturizer/New_Systems/rnas/4RZD

>  <Rbt.Executable>
rbdock ($Id: //depot/dev/client3/rdock/2013.1/src/exe/rbdock.cxx#4 $)

>  <Rbt.Library>
libRbt.so (2013.1, Build901 2013/11/27)

>  <Rbt.Parameter_File>
/export/apps/rDock/src/rDock_2013.1_src/data/scripts/dock_solv.prm

>  <Rbt.Receptor>
prm/pocket_docking_4.prm

>  <SCORE>
-49.9953

>  <SCORE.INTER>
-49.6607

>  <SCORE.INTER.CONST>
1

>  <SCORE.INTER.POLAR>
-4.96425

>  <SCORE.INTER.ROT>
3

>  <SCORE.INTER.SOLV>
10.5156

>  <SCORE.INTER.VDW>
-25.6648

>  <SCORE.INTER.norm>
-3.82005

>  <SCORE.INTRA>
-0.334664

>  <SCORE.INTRA.DIHEDRAL>
-1.43836

>  <SCORE.INTRA.DIHEDRAL.0>
4.88905

>  <SCORE.INTRA.POLAR>
0

>  <SCORE.INTRA.POLAR.0>
0

>  <SCORE.INTRA.REPUL>
0

>  <SCORE.INTRA.REPUL.0>
0

>  <SCORE.INTRA.SOLV>
0.105302

>  <SCORE.INTRA.SOLV.lig_0>
-15.1033

>  <SCORE.INTRA.VDW>
0.331865

>  <SCORE.INTRA.VDW.0>
-0.755285

>  <SCORE.INTRA.norm>
-0.0257434

>  <SCORE.RESTR>
0

>  <SCORE.RESTR.CAVITY>
0

>  <SCORE.RESTR.norm>
0

>  <SCORE.SYSTEM>
0

>  <SCORE.SYSTEM.CONST>
0

>  <SCORE.SYSTEM.DIHEDRAL>
0

>  <SCORE.SYSTEM.SOLV>
0

>  <SCORE.SYSTEM.norm>
0

>  <SCORE.heavy>
13

>  <SCORE.norm>
-3.84579

>  <RMSD>
0.507

$$$$
ligand
 OpenBabel11021811513D
libRbt.so/2013.1/901 2013/11/27
 13 14  0  0  0  0  0  0  0  0999 V2000
   34.1976   29.6777  108.0349 N   0  0  0  0  0  0  0  0  0  0  0  0
   34.1386   30.8882  108.7632 C   0  0  0  0  0  0  0  0  0  0  0  0
   35.3631   31.5145  109.1929 N   0  0  0  0  0  0  0  0  0  0  0  0
   32.9410   31.4803  109.0722 N   0  0  0  0  0  0  0  0  0  0  0  0
   31.7220   30.9131  108.6787 C   0  0  0  0  0  0  0  0  0  0  0  0
   31.7362   29.6805  107.9355 C   0  0  0  0  0  0  0  0  0  0  0  0
   33.0265   29.0672  107.6182 C   0  0  0  0  0  0  0  0  0  0  0  0
   33.0800   27.8895  106.9100 O   0  0  0  0  0  0  0  0  0  0  0  0
   30.3464   29.3453  107.6789 C   0  0  0  0  0  0  0  0  0  0  0  0
   29.5771   30.3589  108.2514 C   0  0  0  0  0  0  0  0  0  0  0  0
   30.4013   31.2871  108.8473 N   0  0  0  0  0  0  0  0  0  0  0  0
   29.8416   28.1481  106.9308 C   0  0  0  0  0  0  0  0  0  0  0  0
   30.6156   27.9813  105.7145 N   0  0  0  0  0  0  0  0  0  0  0  0
  1  2  1  0  0  0  0
  1  7  1  0  0  0  0
  2  3  1  0  0  0  0
  2  4  2  0  0  0  0
  4  5  1  0  0  0  0
  5  6  2  0  0  0  0
  5 11  1  0  0  0  0
  6  7  1  0  0  0  0
  6  9  1  0  0  0  0
  7  8  2  0  0  0  0
  9 10  2  0  0  0  0
  9 12  1  0  0  0  0
 10 11  1  0  0  0  0
 12 13  1  0  0  0  0
M  END
>  <CHROM.1>
0.95654209,-45.47648821,-154.24204400,32.14026430,29.83320835,107.94120750
-0.65496152,0.04919669,-2.51321373

>  <Name>
ligand

>  <RI>
2.51964e+07

>  <Rbt.Current_Directory>
/home/itssahil/PROJECTS/Mol_Feturizer/New_Systems/rnas/4RZD

>  <Rbt.Executable>
rbdock ($Id: //depot/dev/client3/rdock/2013.1/src/exe/rbdock.cxx#4 $)

>  <Rbt.Library>
libRbt.so (2013.1, Build901 2013/11/27)

>  <Rbt.Parameter_File>
/export/apps/rDock/src/rDock_2013.1_src/data/scripts/dock_solv.prm

>  <Rbt.Receptor>
prm/pocket_docking_4.prm

>  <SCORE>
-51.1196

>  <SCORE.INTER>
-49.1124

>  <SCORE.INTER.CONST>
1

>  <SCORE.INTER.POLAR>
-4.86331

>  <SCORE.INTER.ROT>
3

>  <SCORE.INTER.SOLV>
10.4253

>  <SCORE.INTER.VDW>
-25.6057

>  <SCORE.INTER.norm>
-3.77788

>  <SCORE.INTRA>
-2.00723

>  <SCORE.INTRA.DIHEDRAL>
-1.44955

>  <SCORE.INTRA.DIHEDRAL.0>
4.88905

>  <SCORE.INTRA.POLAR>
-0.413116

>  <SCORE.INTRA.POLAR.0>
0

>  <SCORE.INTRA.REPUL>
0

>  <SCORE.INTRA.REPUL.0>
0

>  <SCORE.INTRA.SOLV>
0.162175

>  <SCORE.INTRA.SOLV.lig_0>
-15.1033

>  <SCORE.INTRA.VDW>
0.0410494

>  <SCORE.INTRA.VDW.0>
-0.755285

>  <SCORE.INTRA.norm>
-0.154402

>  <SCORE.RESTR>
0

>  <SCORE.RESTR.CAVITY>
0

>  <SCORE.RESTR.norm>
0

>  <SCORE.SYSTEM>
0

>  <SCORE.SYSTEM.CONST>
0

>  <SCORE.SYSTEM.DIHEDRAL>
0

>  <SCORE.SYSTEM.SOLV>
0

>  <SCORE.SYSTEM.norm>
0

>  <SCORE.heavy>
13

>  <SCORE.norm>
-3.93228

>  <RMSD>
0.507

$$$$
ligand
 OpenBabel11021811513D
libRbt.so/2013.1/901 2013/11/27
 13 14  0  0  0  0  0  0  0  0999 V2000
   34.1988   29.6790  108.0466 N   0  0  0  0  0  0  0  0  0  0  0  0
   34.1377   30.8898  108.7742 C   0  0  0  0  0  0  0  0  0  0  0  0
   35.3610   31.5160  109.2076 N   0  0  0  0  0  0  0  0  0  0  0  0
   32.9393   31.4824  109.0790 N   0  0  0  0  0  0  0  0  0  0  0  0
   31.7214   30.9153  108.6817 C   0  0  0  0  0  0  0  0  0  0  0  0
   31.7377   29.6824  107.9391 C   0  0  0  0  0  0  0  0  0  0  0  0
   33.0289   29.0686  107.6263 C   0  0  0  0  0  0  0  0  0  0  0  0
   33.0844   27.8906  106.9188 O   0  0  0  0  0  0  0  0  0  0  0  0
   30.3487   29.3476  107.6780 C   0  0  0  0  0  0  0  0  0  0  0  0
   29.5778   30.3616  108.2476 C   0  0  0  0  0  0  0  0  0  0  0  0
   30.4003   31.2898  108.8457 N   0  0  0  0  0  0  0  0  0  0  0  0
   29.8460   28.1501  106.9287 C   0  0  0  0  0  0  0  0  0  0  0  0
   30.6140   27.9915  105.7076 N   0  0  0  0  0  0  0  0  0  0  0  0
  1  2  1  0  0  0  0
  1  7  1  0  0  0  0
  2  3  1  0  0  0  0
  2  4  2  0  0  0  0
  4  5  1  0  0  0  0
  5  6  2  0  0  0  0
  5 11  1  0  0  0  0
  6  7  1  0  0  0  0
  6  9  1  0  0  0  0
  7  8  2  0  0  0  0
  9 10  2  0  0  0  0
  9 12  1  0  0  0  0
 10 11  1  0  0  0  0
 12 13  1  0  0  0  0
M  END
>  <CHROM.1>
-7.31273317,-46.11688750,-154.44863474,32.14094475,29.83583569,107.94534868
-0.65598893,0.05268794,-2.51313459

>  <Name>
ligand

>  <RI>
2.73617e+07

>  <Rbt.Current_Directory>
/home/itssahil/PROJECTS/Mol_Feturizer/New_Systems/rnas/4RZD

>  <Rbt.Executable>
rbdock ($Id: //depot/dev/client3/rdock/2013.1/src/exe/rbdock.cxx#4 $)

>  <Rbt.Library>
libRbt.so (2013.1, Build901 2013/11/27)

>  <Rbt.Parameter_File>
/export/apps/rDock/src/rDock_2013.1_src/data/scripts/dock_solv.prm

>  <Rbt.Receptor>
prm/pocket_docking_6.prm

>  <SCORE>
-51.0704

>  <SCORE.INTER>
-49.05

>  <SCORE.INTER.CONST>
1

>  <SCORE.INTER.POLAR>
-4.86331

>  <SCORE.INTER.ROT>
3

>  <SCORE.INTER.SOLV>
10.4595

>  <SCORE.INTER.VDW>
-25.5754

>  <SCORE.INTER.norm>
-3.77307

>  <SCORE.INTRA>
-2.0204

>  <SCORE.INTRA.DIHEDRAL>
-1.46295

>  <SCORE.INTRA.DIHEDRAL.0>
4.88905

>  <SCORE.INTRA.POLAR>
-0.41047

>  <SCORE.INTRA.POLAR.0>
0

>  <SCORE.INTRA.REPUL>
0

>  <SCORE.INTRA.REPUL.0>
0

>  <SCORE.INTRA.SOLV>
0.154574

>  <SCORE.INTRA.SOLV.lig_0>
-15.1033

>  <SCORE.INTRA.VDW>
0.0293898

>  <SCORE.INTRA.VDW.0>
-0.755285

>  <SCORE.INTRA.norm>
-0.155415

>  <SCORE.RESTR>
0

>  <SCORE.RESTR.CAVITY>
0

>  <SCORE.RESTR.norm>
0

>  <SCORE.SYSTEM>
0

>  <SCORE.SYSTEM.CONST>
0

>  <SCORE.SYSTEM.DIHEDRAL>
0

>  <SCORE.SYSTEM.SOLV>
0

>  <SCORE.SYSTEM.norm>
0

>  <SCORE.heavy>
13

>  <SCORE.norm>
-3.92849

>  <RMSD>
0.509

$$$$
ligand
 OpenBabel11021811513D
libRbt.so/2013.1/901 2013/11/27
 13 14  0  0  0  0  0  0  0  0999 V2000
   34.3062   29.7653  108.1482 N   0  0  0  0  0  0  0  0  0  0  0  0
   34.2038   31.0605  108.7061 C   0  0  0  0  0  0  0  0  0  0  0  0
   35.4036   31.8171  108.9601 N   0  0  0  0  0  0  0  0  0  0  0  0
   32.9873   31.6138  109.0131 N   0  0  0  0  0  0  0  0  0  0  0  0
   31.7910   30.9211  108.7862 C   0  0  0  0  0  0  0  0  0  0  0  0
   31.8494   29.5991  108.2198 C   0  0  0  0  0  0  0  0  0  0  0  0
   33.1593   29.0295  107.9011 C   0  0  0  0  0  0  0  0  0  0  0  0
   33.2550   27.7692  107.3590 O   0  0  0  0  0  0  0  0  0  0  0  0
   30.4746   29.1442  108.1082 C   0  0  0  0  0  0  0  0  0  0  0  0
   29.6698   30.1782  108.5882 C   0  0  0  0  0  0  0  0  0  0  0  0
   30.4592   31.2313  108.9928 N   0  0  0  0  0  0  0  0  0  0  0  0
   30.0134   27.8238  107.5680 C   0  0  0  0  0  0  0  0  0  0  0  0
   29.9124   27.9061  106.1226 N   0  0  0  0  0  0  0  0  0  0  0  0
  1  2  1  0  0  0  0
  1  7  1  0  0  0  0
  2  3  1  0  0  0  0
  2  4  2  0  0  0  0
  4  5  1  0  0  0  0
  5  6  2  0  0  0  0
  5 11  1  0  0  0  0
  6  7  1  0  0  0  0
  6  9  1  0  0  0  0
  7  8  2  0  0  0  0
  9 10  2  0  0  0  0
  9 12  1  0  0  0  0
 10 11  1  0  0  0  0
 12 13  1  0  0  0  0
M  END
>  <CHROM.1>
-10.99288896,-84.57461878,36.55264510,32.16574602,29.81998037,108.15611052
-0.60906028,-0.00872630,-2.63481477

>  <Name>
ligand

>  <RI>
1.38753e+07

>  <Rbt.Current_Directory>
/home/itssahil/PROJECTS/Mol_Feturizer/New_Systems/rnas/4RZD

>  <Rbt.Executable>
rbdock ($Id: //depot/dev/client3/rdock/2013.1/src/exe/rbdock.cxx#4 $)

>  <Rbt.Library>
libRbt.so (2013.1, Build901 2013/11/27)

>  <Rbt.Parameter_File>
/export/apps/rDock/src/rDock_2013.1_src/data/scripts/dock_solv.prm

>  <Rbt.Receptor>
prm/pocket_docking_7.prm

>  <SCORE>
-49.4655

>  <SCORE.INTER>
-48.6663

>  <SCORE.INTER.CONST>
1

>  <SCORE.INTER.POLAR>
-4.91008

>  <SCORE.INTER.ROT>
3

>  <SCORE.INTER.SOLV>
10.4342

>  <SCORE.INTER.VDW>
-25.1554

>  <SCORE.INTER.norm>
-3.74356

>  <SCORE.INTRA>
-0.799139

>  <SCORE.INTRA.DIHEDRAL>
-1.64509

>  <SCORE.INTRA.DIHEDRAL.0>
4.88905

>  <SCORE.INTRA.POLAR>
0

>  <SCORE.INTRA.POLAR.0>
0

>  <SCORE.INTRA.REPUL>
0

>  <SCORE.INTRA.REPUL.0>
0

>  <SCORE.INTRA.SOLV>
-0.354387

>  <SCORE.INTRA.SOLV.lig_0>
-15.1033

>  <SCORE.INTRA.VDW>
0.200598

>  <SCORE.INTRA.VDW.0>
-0.755285

>  <SCORE.INTRA.norm>
-0.0614722

>  <SCORE.RESTR>
0

>  <SCORE.RESTR.CAVITY>
0

>  <SCORE.RESTR.norm>
0

>  <SCORE.SYSTEM>
0

>  <SCORE.SYSTEM.CONST>
0

>  <SCORE.SYSTEM.DIHEDRAL>
0

>  <SCORE.SYSTEM.SOLV>
0

>  <SCORE.SYSTEM.norm>
0

>  <SCORE.heavy>
13

>  <SCORE.norm>
-3.80504

>  <RMSD>
0.509

$$$$
ligand
 OpenBabel11021811513D
libRbt.so/2013.1/901 2013/11/27
 13 14  0  0  0  0  0  0  0  0999 V2000
   34.1922   29.6783  108.0331 N   0  0  0  0  0  0  0  0  0  0  0  0
   34.1358   30.8884  108.7622 C   0  0  0  0  0  0  0  0  0  0  0  0
   35.3618   31.5129  109.1904 N   0  0  0  0  0  0  0  0  0  0  0  0
   32.9395   31.4819  109.0733 N   0  0  0  0  0  0  0  0  0  0  0  0
   31.7192   30.9165  108.6813 C   0  0  0  0  0  0  0  0  0  0  0  0
   31.7306   29.6843  107.9373 C   0  0  0  0  0  0  0  0  0  0  0  0
   33.0196   29.0695  107.6178 C   0  0  0  0  0  0  0  0  0  0  0  0
   33.0705   27.8922  106.9088 O   0  0  0  0  0  0  0  0  0  0  0  0
   30.3400   29.3512  107.6825 C   0  0  0  0  0  0  0  0  0  0  0  0
   29.5728   30.3655  108.2568 C   0  0  0  0  0  0  0  0  0  0  0  0
   30.3992   31.2922  108.8519 N   0  0  0  0  0  0  0  0  0  0  0  0
   29.8325   28.1550  106.9345 C   0  0  0  0  0  0  0  0  0  0  0  0
   30.6095   27.9834  105.7208 N   0  0  0  0  0  0  0  0  0  0  0  0
  1  2  1  0  0  0  0
  1  7  1  0  0  0  0
  2  3  1  0  0  0  0
  2  4  2  0  0  0  0
  4  5  1  0  0  0  0
  5  6  2  0  0  0  0
  5 11  1  0  0  0  0
  6  7  1  0  0  0  0
  6  9  1  0  0  0  0
  7  8  2  0  0  0  0
  9 10  2  0  0  0  0
  9 12  1  0  0  0  0
 10 11  1  0  0  0  0
 12 13  1  0  0  0  0
M  END
>  <CHROM.1>
-179.42586827,-45.15381091,-154.64463409,32.13540119,29.83607032,107.94285814
-0.65319412,0.04860522,-2.51321047

>  <Name>
ligand

>  <RI>
2.73617e+07

>  <Rbt.Current_Directory>
/home/itssahil/PROJECTS/Mol_Feturizer/New_Systems/rnas/4RZD

>  <Rbt.Executable>
rbdock ($Id: //depot/dev/client3/rdock/2013.1/src/exe/rbdock.cxx#4 $)

>  <Rbt.Library>
libRbt.so (2013.1, Build901 2013/11/27)

>  <Rbt.Parameter_File>
/export/apps/rDock/src/rDock_2013.1_src/data/scripts/dock_solv.prm

>  <Rbt.Receptor>
prm/pocket_docking_6.prm

>  <SCORE>
-51.1326

>  <SCORE.INTER>
-49.1124

>  <SCORE.INTER.CONST>
1

>  <SCORE.INTER.POLAR>
-4.85793

>  <SCORE.INTER.ROT>
3

>  <SCORE.INTER.SOLV>
10.4202

>  <SCORE.INTER.VDW>
-25.6219

>  <SCORE.INTER.norm>
-3.77787

>  <SCORE.INTRA>
-2.02023

>  <SCORE.INTRA.DIHEDRAL>
-1.47381

>  <SCORE.INTRA.DIHEDRAL.0>
4.88905

>  <SCORE.INTRA.POLAR>
-0.416069

>  <SCORE.INTRA.POLAR.0>
0

>  <SCORE.INTRA.REPUL>
0

>  <SCORE.INTRA.REPUL.0>
0

>  <SCORE.INTRA.SOLV>
0.166989

>  <SCORE.INTRA.SOLV.lig_0>
-15.1033

>  <SCORE.INTRA.VDW>
0.047815

>  <SCORE.INTRA.VDW.0>
-0.755285

>  <SCORE.INTRA.norm>
-0.155402

>  <SCORE.RESTR>
0

>  <SCORE.RESTR.CAVITY>
0

>  <SCORE.RESTR.norm>
0

>  <SCORE.SYSTEM>
0

>  <SCORE.SYSTEM.CONST>
0

>  <SCORE.SYSTEM.DIHEDRAL>
0

>  <SCORE.SYSTEM.SOLV>
0

>  <SCORE.SYSTEM.norm>
0

>  <SCORE.heavy>
13

>  <SCORE.norm>
-3.93328

>  <RMSD>
0.512

$$$$
ligand
 OpenBabel11021811513D
libRbt.so/2013.1/901 2013/11/27
 13 14  0  0  0  0  0  0  0  0999 V2000
   34.1774   29.6821  108.0422 N   0  0  0  0  0  0  0  0  0  0  0  0
   34.1203   30.8973  108.7628 C   0  0  0  0  0  0  0  0  0  0  0  0
   35.3458   31.5234  109.1902 N   0  0  0  0  0  0  0  0  0  0  0  0
   32.9238   31.4943  109.0664 N   0  0  0  0  0  0  0  0  0  0  0  0
   31.7039   30.9276  108.6747 C   0  0  0  0  0  0  0  0  0  0  0  0
   31.7161   29.6902  107.9393 C   0  0  0  0  0  0  0  0  0  0  0  0
   33.0054   29.0718  107.6277 C   0  0  0  0  0  0  0  0  0  0  0  0
   33.0570   27.8896  106.9271 O   0  0  0  0  0  0  0  0  0  0  0  0
   30.3259   29.3569  107.6829 C   0  0  0  0  0  0  0  0  0  0  0  0
   29.5582   30.3760  108.2479 C   0  0  0  0  0  0  0  0  0  0  0  0
   30.3839   31.3059  108.8390 N   0  0  0  0  0  0  0  0  0  0  0  0
   29.8192   28.1561  106.9416 C   0  0  0  0  0  0  0  0  0  0  0  0
   30.6090   27.9666  105.7389 N   0  0  0  0  0  0  0  0  0  0  0  0
  1  2  1  0  0  0  0
  1  7  1  0  0  0  0
  2  3  1  0  0  0  0
  2  4  2  0  0  0  0
  4  5  1  0  0  0  0
  5  6  2  0  0  0  0
  5 11  1  0  0  0  0
  6  7  1  0  0  0  0
  6  9  1  0  0  0  0
  7  8  2  0  0  0  0
  9 10  2  0  0  0  0
  9 12  1  0  0  0  0
 10 11  1  0  0  0  0
 12 13  1  0  0  0  0
M  END
>  <CHROM.1>
3.32478871,-44.52938348,-153.75505591,32.12183403,29.84081361,107.94568702
-0.65472901,0.05118910,-2.52075745

>  <Name>
ligand

>  <RI>
2.51964e+07

>  <Rbt.Current_Directory>
/home/itssahil/PROJECTS/Mol_Feturizer/New_Systems/rnas/4RZD

>  <Rbt.Executable>
rbdock ($Id: //depot/dev/client3/rdock/2013.1/src/exe/rbdock.cxx#4 $)

>  <Rbt.Library>
libRbt.so (2013.1, Build901 2013/11/27)

>  <Rbt.Parameter_File>
/export/apps/rDock/src/rDock_2013.1_src/data/scripts/dock_solv.prm

>  <Rbt.Receptor>
prm/pocket_docking_4.prm

>  <SCORE>
-51.1069

>  <SCORE.INTER>
-49.1344

>  <SCORE.INTER.CONST>
1

>  <SCORE.INTER.POLAR>
-4.86331

>  <SCORE.INTER.ROT>
3

>  <SCORE.INTER.SOLV>
10.3605

>  <SCORE.INTER.VDW>
-25.5987

>  <SCORE.INTER.norm>
-3.77957

>  <SCORE.INTRA>
-1.9725

>  <SCORE.INTRA.DIHEDRAL>
-1.41853

>  <SCORE.INTRA.DIHEDRAL.0>
4.88905

>  <SCORE.INTRA.POLAR>
-0.414644

>  <SCORE.INTRA.POLAR.0>
0

>  <SCORE.INTRA.REPUL>
0

>  <SCORE.INTRA.REPUL.0>
0

>  <SCORE.INTRA.SOLV>
0.172634

>  <SCORE.INTRA.SOLV.lig_0>
-15.1033

>  <SCORE.INTRA.VDW>
0.0602344

>  <SCORE.INTRA.VDW.0>
-0.755285

>  <SCORE.INTRA.norm>
-0.151731

>  <SCORE.RESTR>
0

>  <SCORE.RESTR.CAVITY>
0

>  <SCORE.RESTR.norm>
0

>  <SCORE.SYSTEM>
0

>  <SCORE.SYSTEM.CONST>
0

>  <SCORE.SYSTEM.DIHEDRAL>
0

>  <SCORE.SYSTEM.SOLV>
0

>  <SCORE.SYSTEM.norm>
0

>  <SCORE.heavy>
13

>  <SCORE.norm>
-3.9313

>  <RMSD>
0.514

$$$$
ligand
 OpenBabel11021811513D
libRbt.so/2013.1/901 2013/11/27
 13 14  0  0  0  0  0  0  0  0999 V2000
   34.1831   29.6810  108.0317 N   0  0  0  0  0  0  0  0  0  0  0  0
   34.1284   30.8928  108.7581 C   0  0  0  0  0  0  0  0  0  0  0  0
   35.3553   31.5177  109.1829 N   0  0  0  0  0  0  0  0  0  0  0  0
   32.9328   31.4876  109.0696 N   0  0  0  0  0  0  0  0  0  0  0  0
   31.7116   30.9219  108.6807 C   0  0  0  0  0  0  0  0  0  0  0  0
   31.7214   29.6879  107.9396 C   0  0  0  0  0  0  0  0  0  0  0  0
   33.0096   29.0718  107.6195 C   0  0  0  0  0  0  0  0  0  0  0  0
   33.0589   27.8928  106.9132 O   0  0  0  0  0  0  0  0  0  0  0  0
   30.3303   29.3549  107.6877 C   0  0  0  0  0  0  0  0  0  0  0  0
   29.5644   30.3708  108.2608 C   0  0  0  0  0  0  0  0  0  0  0  0
   30.3921   31.2986  108.8525 N   0  0  0  0  0  0  0  0  0  0  0  0
   29.8211   28.1572  106.9432 C   0  0  0  0  0  0  0  0  0  0  0  0
   30.5927   27.9855  105.7261 N   0  0  0  0  0  0  0  0  0  0  0  0
  1  2  1  0  0  0  0
  1  7  1  0  0  0  0
  2  3  1  0  0  0  0
  2  4  2  0  0  0  0
  4  5  1  0  0  0  0
  5  6  2  0  0  0  0
  5 11  1  0  0  0  0
  6  7  1  0  0  0  0
  6  9  1  0  0  0  0
  7  8  2  0  0  0  0
  9 10  2  0  0  0  0
  9 12  1  0  0  0  0
 10 11  1  0  0  0  0
 12 13  1  0  0  0  0
M  END
>  <CHROM.1>
1.25854739,-45.37707319,-154.14307903,32.12586318,29.83984981,107.94393763
-0.65186267,0.04777197,-2.51523300

>  <Name>
ligand

>  <RI>
4.18181e+07

>  <Rbt.Current_Directory>
/home/itssahil/PROJECTS/Mol_Feturizer/New_Systems/rnas/4RZD

>  <Rbt.Executable>
rbdock ($Id: //depot/dev/client3/rdock/2013.1/src/exe/rbdock.cxx#4 $)

>  <Rbt.Library>
libRbt.so (2013.1, Build901 2013/11/27)

>  <Rbt.Parameter_File>
/export/apps/rDock/src/rDock_2013.1_src/data/scripts/dock_solv.prm

>  <Rbt.Receptor>
prm/pocket_docking_3.prm

>  <SCORE>
-51.1029

>  <SCORE.INTER>
-49.1008

>  <SCORE.INTER.CONST>
1

>  <SCORE.INTER.POLAR>
-4.86331

>  <SCORE.INTER.ROT>
3

>  <SCORE.INTER.SOLV>
10.4068

>  <SCORE.INTER.VDW>
-25.5918

>  <SCORE.INTER.norm>
-3.77699

>  <SCORE.INTRA>
-2.00203

>  <SCORE.INTRA.DIHEDRAL>
-1.44336

>  <SCORE.INTRA.DIHEDRAL.0>
4.88905

>  <SCORE.INTRA.POLAR>
-0.413195

>  <SCORE.INTRA.POLAR.0>
0

>  <SCORE.INTRA.REPUL>
0

>  <SCORE.INTRA.REPUL.0>
0

>  <SCORE.INTRA.SOLV>
0.163189

>  <SCORE.INTRA.SOLV.lig_0>
-15.1033

>  <SCORE.INTRA.VDW>
0.0429129

>  <SCORE.INTRA.VDW.0>
-0.755285

>  <SCORE.INTRA.norm>
-0.154003

>  <SCORE.RESTR>
0

>  <SCORE.RESTR.CAVITY>
0

>  <SCORE.RESTR.norm>
0

>  <SCORE.SYSTEM>
0

>  <SCORE.SYSTEM.CONST>
0

>  <SCORE.SYSTEM.DIHEDRAL>
0

>  <SCORE.SYSTEM.SOLV>
0

>  <SCORE.SYSTEM.norm>
0

>  <SCORE.heavy>
13

>  <SCORE.norm>
-3.93099

>  <RMSD>
0.516

$$$$
ligand
 OpenBabel11021811513D
libRbt.so/2013.1/901 2013/11/27
 13 14  0  0  0  0  0  0  0  0999 V2000
   34.1849   29.6811  108.0437 N   0  0  0  0  0  0  0  0  0  0  0  0
   34.1298   30.8960  108.7648 C   0  0  0  0  0  0  0  0  0  0  0  0
   35.3562   31.5187  109.1945 N   0  0  0  0  0  0  0  0  0  0  0  0
   32.9343   31.4959  109.0668 N   0  0  0  0  0  0  0  0  0  0  0  0
   31.7136   30.9326  108.6729 C   0  0  0  0  0  0  0  0  0  0  0  0
   31.7238   29.6956  107.9368 C   0  0  0  0  0  0  0  0  0  0  0  0
   33.0120   29.0741  107.6269 C   0  0  0  0  0  0  0  0  0  0  0  0
   33.0616   27.8921  106.9257 O   0  0  0  0  0  0  0  0  0  0  0  0
   30.3332   29.3660  107.6779 C   0  0  0  0  0  0  0  0  0  0  0  0
   29.5672   30.3868  108.2423 C   0  0  0  0  0  0  0  0  0  0  0  0
   30.3944   31.3142  108.8352 N   0  0  0  0  0  0  0  0  0  0  0  0
   29.8245   28.1670  106.9352 C   0  0  0  0  0  0  0  0  0  0  0  0
   30.6214   27.9709  105.7383 N   0  0  0  0  0  0  0  0  0  0  0  0
  1  2  1  0  0  0  0
  1  7  1  0  0  0  0
  2  3  1  0  0  0  0
  2  4  2  0  0  0  0
  4  5  1  0  0  0  0
  5  6  2  0  0  0  0
  5 11  1  0  0  0  0
  6  7  1  0  0  0  0
  6  9  1  0  0  0  0
  7  8  2  0  0  0  0
  9 10  2  0  0  0  0
  9 12  1  0  0  0  0
 10 11  1  0  0  0  0
 12 13  1  0  0  0  0
M  END
>  <CHROM.1>
-179.06980411,-44.15250707,-34.04959716,32.12771429,29.85201036,107.94127600
-0.64817326,0.05509321,-2.51598969

>  <Name>
ligand

>  <RI>
4.18181e+07

>  <Rbt.Current_Directory>
/home/itssahil/PROJECTS/Mol_Feturizer/New_Systems/rnas/4RZD

>  <Rbt.Executable>
rbdock ($Id: //depot/dev/client3/rdock/2013.1/src/exe/rbdock.cxx#4 $)

>  <Rbt.Library>
libRbt.so (2013.1, Build901 2013/11/27)

>  <Rbt.Parameter_File>
/export/apps/rDock/src/rDock_2013.1_src/data/scripts/dock_solv.prm

>  <Rbt.Receptor>
prm/pocket_docking_3.prm

>  <SCORE>
-49.9895

>  <SCORE.INTER>
-49.6348

>  <SCORE.INTER.CONST>
1

>  <SCORE.INTER.POLAR>
-4.96983

>  <SCORE.INTER.ROT>
3

>  <SCORE.INTER.SOLV>
10.5667

>  <SCORE.INTER.VDW>
-25.646

>  <SCORE.INTER.norm>
-3.81806

>  <SCORE.INTRA>
-0.354733

>  <SCORE.INTRA.DIHEDRAL>
-1.43626

>  <SCORE.INTRA.DIHEDRAL.0>
4.88905

>  <SCORE.INTRA.POLAR>
0

>  <SCORE.INTRA.POLAR.0>
0

>  <SCORE.INTRA.REPUL>
0

>  <SCORE.INTRA.REPUL.0>
0

>  <SCORE.INTRA.SOLV>
0.09528

>  <SCORE.INTRA.SOLV.lig_0>
-15.1033

>  <SCORE.INTRA.VDW>
0.315756

>  <SCORE.INTRA.VDW.0>
-0.755285

>  <SCORE.INTRA.norm>
-0.0272871

>  <SCORE.RESTR>
0

>  <SCORE.RESTR.CAVITY>
0

>  <SCORE.RESTR.norm>
0

>  <SCORE.SYSTEM>
0

>  <SCORE.SYSTEM.CONST>
0

>  <SCORE.SYSTEM.DIHEDRAL>
0

>  <SCORE.SYSTEM.SOLV>
0

>  <SCORE.SYSTEM.norm>
0

>  <SCORE.heavy>
13

>  <SCORE.norm>
-3.84535

>  <RMSD>
0.517

$$$$
ligand
 OpenBabel11021811513D
libRbt.so/2013.1/901 2013/11/27
 13 14  0  0  0  0  0  0  0  0999 V2000
   34.1779   29.6921  108.0558 N   0  0  0  0  0  0  0  0  0  0  0  0
   34.1184   30.9084  108.7742 C   0  0  0  0  0  0  0  0  0  0  0  0
   35.3424   31.5350  109.2050 N   0  0  0  0  0  0  0  0  0  0  0  0
   32.9209   31.5060  109.0726 N   0  0  0  0  0  0  0  0  0  0  0  0
   31.7024   30.9388  108.6775 C   0  0  0  0  0  0  0  0  0  0  0  0
   31.7170   29.7003  107.9441 C   0  0  0  0  0  0  0  0  0  0  0  0
   33.0073   29.0813  107.6380 C   0  0  0  0  0  0  0  0  0  0  0  0
   33.0613   27.8979  106.9394 O   0  0  0  0  0  0  0  0  0  0  0  0
   30.3277   29.3667  107.6832 C   0  0  0  0  0  0  0  0  0  0  0  0
   29.5581   30.3867  108.2440 C   0  0  0  0  0  0  0  0  0  0  0  0
   30.3818   31.3174  108.8366 N   0  0  0  0  0  0  0  0  0  0  0  0
   29.8235   28.1648  106.9421 C   0  0  0  0  0  0  0  0  0  0  0  0
   30.6193   27.9718  105.7439 N   0  0  0  0  0  0  0  0  0  0  0  0
  1  2  1  0  0  0  0
  1  7  1  0  0  0  0
  2  3  1  0  0  0  0
  2  4  2  0  0  0  0
  4  5  1  0  0  0  0
  5  6  2  0  0  0  0
  5 11  1  0  0  0  0
  6  7  1  0  0  0  0
  6  9  1  0  0  0  0
  7  8  2  0  0  0  0
  9 10  2  0  0  0  0
  9 12  1  0  0  0  0
 10 11  1  0  0  0  0
 12 13  1  0  0  0  0
M  END
>  <CHROM.1>
-177.81572865,-44.41234507,-33.90870190,32.12015618,29.85803047,107.94875298
-0.65105823,0.05532154,-2.51753141

>  <Name>
ligand

>  <RI>
1.0531e+07

>  <Rbt.Current_Directory>
/home/itssahil/PROJECTS/Mol_Feturizer/New_Systems/rnas/4RZD

>  <Rbt.Executable>
rbdock ($Id: //depot/dev/client3/rdock/2013.1/src/exe/rbdock.cxx#4 $)

>  <Rbt.Library>
libRbt.so (2013.1, Build901 2013/11/27)

>  <Rbt.Parameter_File>
/export/apps/rDock/src/rDock_2013.1_src/data/scripts/dock_solv.prm

>  <Rbt.Receptor>
prm/pocket_docking_8.prm

>  <SCORE>
-49.9656

>  <SCORE.INTER>
-49.6089

>  <SCORE.INTER.CONST>
1

>  <SCORE.INTER.POLAR>
-4.9693

>  <SCORE.INTER.ROT>
3

>  <SCORE.INTER.SOLV>
10.5537

>  <SCORE.INTER.VDW>
-25.6261

>  <SCORE.INTER.norm>
-3.81607

>  <SCORE.INTRA>
-0.356706

>  <SCORE.INTRA.DIHEDRAL>
-1.42787

>  <SCORE.INTRA.DIHEDRAL.0>
4.88905

>  <SCORE.INTRA.POLAR>
0

>  <SCORE.INTRA.POLAR.0>
0

>  <SCORE.INTRA.REPUL>
0

>  <SCORE.INTRA.REPUL.0>
0

>  <SCORE.INTRA.SOLV>
0.0916596

>  <SCORE.INTRA.SOLV.lig_0>
-15.1033

>  <SCORE.INTRA.VDW>
0.311401

>  <SCORE.INTRA.VDW.0>
-0.755285

>  <SCORE.INTRA.norm>
-0.0274389

>  <SCORE.RESTR>
0

>  <SCORE.RESTR.CAVITY>
0

>  <SCORE.RESTR.norm>
0

>  <SCORE.SYSTEM>
0

>  <SCORE.SYSTEM.CONST>
0

>  <SCORE.SYSTEM.DIHEDRAL>
0

>  <SCORE.SYSTEM.SOLV>
0

>  <SCORE.SYSTEM.norm>
0

>  <SCORE.heavy>
13

>  <SCORE.norm>
-3.84351

>  <RMSD>
0.520

$$$$
ligand
 OpenBabel11021811513D
libRbt.so/2013.1/901 2013/11/27
 13 14  0  0  0  0  0  0  0  0999 V2000
   34.4053   29.7976  108.1234 N   0  0  0  0  0  0  0  0  0  0  0  0
   34.2916   31.0659  108.7379 C   0  0  0  0  0  0  0  0  0  0  0  0
   35.4856   31.8135  109.0412 N   0  0  0  0  0  0  0  0  0  0  0  0
   33.0695   31.6015  109.0540 N   0  0  0  0  0  0  0  0  0  0  0  0
   31.8784   30.9166  108.7807 C   0  0  0  0  0  0  0  0  0  0  0  0
   31.9484   29.6217  108.1559 C   0  0  0  0  0  0  0  0  0  0  0  0
   33.2640   29.0707  107.8286 C   0  0  0  0  0  0  0  0  0  0  0  0
   33.3707   27.8365  107.2314 O   0  0  0  0  0  0  0  0  0  0  0  0
   30.5765   29.1687  108.0063 C   0  0  0  0  0  0  0  0  0  0  0  0
   29.7623   30.1777  108.5222 C   0  0  0  0  0  0  0  0  0  0  0  0
   30.5431   31.2136  108.9840 N   0  0  0  0  0  0  0  0  0  0  0  0
   30.1266   27.8729  107.4010 C   0  0  0  0  0  0  0  0  0  0  0  0
   29.8817   28.0652  105.9835 N   0  0  0  0  0  0  0  0  0  0  0  0
  1  2  1  0  0  0  0
  1  7  1  0  0  0  0
  2  3  1  0  0  0  0
  2  4  2  0  0  0  0
  4  5  1  0  0  0  0
  5  6  2  0  0  0  0
  5 11  1  0  0  0  0
  6  7  1  0  0  0  0
  6  9  1  0  0  0  0
  7  8  2  0  0  0  0
  9 10  2  0  0  0  0
  9 12  1  0  0  0  0
 10 11  1  0  0  0  0
 12 13  1  0  0  0  0
M  END
>  <CHROM.1>
9.58481472,-91.67806168,-87.44700480,32.24676169,29.84211309,108.10819307
-0.61331664,0.00437444,-2.59327850

>  <Name>
ligand

>  <RI>
1.99388e+07

>  <Rbt.Current_Directory>
/home/itssahil/PROJECTS/Mol_Feturizer/New_Systems/rnas/4RZD

>  <Rbt.Executable>
rbdock ($Id: //depot/dev/client3/rdock/2013.1/src/exe/rbdock.cxx#4 $)

>  <Rbt.Library>
libRbt.so (2013.1, Build901 2013/11/27)

>  <Rbt.Parameter_File>
/export/apps/rDock/src/rDock_2013.1_src/data/scripts/dock_solv.prm

>  <Rbt.Receptor>
prm/pocket_docking_2.prm

>  <SCORE>
-49.6103

>  <SCORE.INTER>
-48.7516

>  <SCORE.INTER.CONST>
1

>  <SCORE.INTER.POLAR>
-4.96916

>  <SCORE.INTER.ROT>
3

>  <SCORE.INTER.SOLV>
11.0844

>  <SCORE.INTER.VDW>
-25.232

>  <SCORE.INTER.norm>
-3.75012

>  <SCORE.INTRA>
-0.858681

>  <SCORE.INTRA.DIHEDRAL>
-1.40241

>  <SCORE.INTRA.DIHEDRAL.0>
4.88905

>  <SCORE.INTRA.POLAR>
0

>  <SCORE.INTRA.POLAR.0>
0

>  <SCORE.INTRA.REPUL>
0

>  <SCORE.INTRA.REPUL.0>
0

>  <SCORE.INTRA.SOLV>
-0.517635

>  <SCORE.INTRA.SOLV.lig_0>
-15.1033

>  <SCORE.INTRA.VDW>
0.101339

>  <SCORE.INTRA.VDW.0>
-0.755285

>  <SCORE.INTRA.norm>
-0.0660524

>  <SCORE.RESTR>
0

>  <SCORE.RESTR.CAVITY>
0

>  <SCORE.RESTR.norm>
0

>  <SCORE.SYSTEM>
0

>  <SCORE.SYSTEM.CONST>
0

>  <SCORE.SYSTEM.DIHEDRAL>
0

>  <SCORE.SYSTEM.SOLV>
0

>  <SCORE.SYSTEM.norm>
0

>  <SCORE.heavy>
13

>  <SCORE.norm>
-3.81617

>  <RMSD>
0.525

$$$$
ligand
 OpenBabel11021811513D
libRbt.so/2013.1/901 2013/11/27
 13 14  0  0  0  0  0  0  0  0999 V2000
   34.3916   29.7996  108.0964 N   0  0  0  0  0  0  0  0  0  0  0  0
   34.2805   31.0661  108.7152 C   0  0  0  0  0  0  0  0  0  0  0  0
   35.4756   31.8133  109.0146 N   0  0  0  0  0  0  0  0  0  0  0  0
   33.0597   31.6002  109.0390 N   0  0  0  0  0  0  0  0  0  0  0  0
   31.8676   30.9154  108.7698 C   0  0  0  0  0  0  0  0  0  0  0  0
   31.9350   29.6224  108.1408 C   0  0  0  0  0  0  0  0  0  0  0  0
   33.2492   29.0730  107.8052 C   0  0  0  0  0  0  0  0  0  0  0  0
   33.3534   27.8406  107.2038 O   0  0  0  0  0  0  0  0  0  0  0  0
   30.5626   29.1693  107.9968 C   0  0  0  0  0  0  0  0  0  0  0  0
   29.7506   30.1764  108.5198 C   0  0  0  0  0  0  0  0  0  0  0  0
   30.5332   31.2112  108.9807 N   0  0  0  0  0  0  0  0  0  0  0  0
   30.1102   27.8750  107.3900 C   0  0  0  0  0  0  0  0  0  0  0  0
   29.8586   28.0712  105.9742 N   0  0  0  0  0  0  0  0  0  0  0  0
  1  2  1  0  0  0  0
  1  7  1  0  0  0  0
  2  3  1  0  0  0  0
  2  4  2  0  0  0  0
  4  5  1  0  0  0  0
  5  6  2  0  0  0  0
  5 11  1  0  0  0  0
  6  7  1  0  0  0  0
  6  9  1  0  0  0  0
  7  8  2  0  0  0  0
  9 10  2  0  0  0  0
  9 12  1  0  0  0  0
 10 11  1  0  0  0  0
 12 13  1  0  0  0  0
M  END
>  <CHROM.1>
-6.94689455,-91.65187075,-87.75890787,32.23310547,29.84312094,108.09217737
-0.61107292,0.00043941,-2.59127746

>  <Name>
ligand

>  <RI>
1.99388e+07

>  <Rbt.Current_Directory>
/home/itssahil/PROJECTS/Mol_Feturizer/New_Systems/rnas/4RZD

>  <Rbt.Executable>
rbdock ($Id: //depot/dev/client3/rdock/2013.1/src/exe/rbdock.cxx#4 $)

>  <Rbt.Library>
libRbt.so (2013.1, Build901 2013/11/27)

>  <Rbt.Parameter_File>
/export/apps/rDock/src/rDock_2013.1_src/data/scripts/dock_solv.prm

>  <Rbt.Receptor>
prm/pocket_docking_2.prm

>  <SCORE>
-49.6627

>  <SCORE.INTER>
-48.8135

>  <SCORE.INTER.CONST>
1

>  <SCORE.INTER.POLAR>
-4.97405

>  <SCORE.INTER.ROT>
3

>  <SCORE.INTER.SOLV>
11.1615

>  <SCORE.INTER.VDW>
-25.2827

>  <SCORE.INTER.norm>
-3.75489

>  <SCORE.INTRA>
-0.849149

>  <SCORE.INTRA.DIHEDRAL>
-1.38297

>  <SCORE.INTRA.DIHEDRAL.0>
4.88905

>  <SCORE.INTRA.POLAR>
0

>  <SCORE.INTRA.POLAR.0>
0

>  <SCORE.INTRA.REPUL>
0

>  <SCORE.INTRA.REPUL.0>
0

>  <SCORE.INTRA.SOLV>
-0.51731

>  <SCORE.INTRA.SOLV.lig_0>
-15.1033

>  <SCORE.INTRA.VDW>
0.100993

>  <SCORE.INTRA.VDW.0>
-0.755285

>  <SCORE.INTRA.norm>
-0.0653191

>  <SCORE.RESTR>
0

>  <SCORE.RESTR.CAVITY>
0

>  <SCORE.RESTR.norm>
0

>  <SCORE.SYSTEM>
0

>  <SCORE.SYSTEM.CONST>
0

>  <SCORE.SYSTEM.DIHEDRAL>
0

>  <SCORE.SYSTEM.SOLV>
0

>  <SCORE.SYSTEM.norm>
0

>  <SCORE.heavy>
13

>  <SCORE.norm>
-3.8202

>  <RMSD>
0.526

$$$$
ligand
 OpenBabel11021811513D
libRbt.so/2013.1/901 2013/11/27
 13 14  0  0  0  0  0  0  0  0999 V2000
   34.4030   29.7861  108.1632 N   0  0  0  0  0  0  0  0  0  0  0  0
   34.2846   31.0533  108.7792 C   0  0  0  0  0  0  0  0  0  0  0  0
   35.4763   31.7979  109.0980 N   0  0  0  0  0  0  0  0  0  0  0  0
   33.0598   31.5904  109.0823 N   0  0  0  0  0  0  0  0  0  0  0  0
   31.8707   30.9083  108.7937 C   0  0  0  0  0  0  0  0  0  0  0  0
   31.9456   29.6147  108.1668 C   0  0  0  0  0  0  0  0  0  0  0  0
   33.2639   29.0620  107.8535 C   0  0  0  0  0  0  0  0  0  0  0  0
   33.3753   27.8289  107.2548 O   0  0  0  0  0  0  0  0  0  0  0  0
   30.5747   29.1646  108.0002 C   0  0  0  0  0  0  0  0  0  0  0  0
   29.7565   30.1740  108.5089 C   0  0  0  0  0  0  0  0  0  0  0  0
   30.5337   31.2073  108.9821 N   0  0  0  0  0  0  0  0  0  0  0  0
   30.1295   27.8709  107.3869 C   0  0  0  0  0  0  0  0  0  0  0  0
   29.8304   28.0839  105.9828 N   0  0  0  0  0  0  0  0  0  0  0  0
  1  2  1  0  0  0  0
  1  7  1  0  0  0  0
  2  3  1  0  0  0  0
  2  4  2  0  0  0  0
  4  5  1  0  0  0  0
  5  6  2  0  0  0  0
  5 11  1  0  0  0  0
  6  7  1  0  0  0  0
  6  9  1  0  0  0  0
  7  8  2  0  0  0  0
  9 10  2  0  0  0  0
  9 12  1  0  0  0  0
 10 11  1  0  0  0  0
 12 13  1  0  0  0  0
M  END
>  <CHROM.1>
-175.66242130,-94.80246785,-88.46900327,32.23853992,29.83606440,108.12453386
-0.61200077,0.01733189,-2.59355565

>  <Name>
ligand

>  <RI>
1.99388e+07

>  <Rbt.Current_Directory>
/home/itssahil/PROJECTS/Mol_Feturizer/New_Systems/rnas/4RZD

>  <Rbt.Executable>
rbdock ($Id: //depot/dev/client3/rdock/2013.1/src/exe/rbdock.cxx#4 $)

>  <Rbt.Library>
libRbt.so (2013.1, Build901 2013/11/27)

>  <Rbt.Parameter_File>
/export/apps/rDock/src/rDock_2013.1_src/data/scripts/dock_solv.prm

>  <Rbt.Receptor>
prm/pocket_docking_2.prm

>  <SCORE>
-49.6973

>  <SCORE.INTER>
-48.8665

>  <SCORE.INTER.CONST>
1

>  <SCORE.INTER.POLAR>
-4.98705

>  <SCORE.INTER.ROT>
3

>  <SCORE.INTER.SOLV>
11.1805

>  <SCORE.INTER.VDW>
-25.281

>  <SCORE.INTER.norm>
-3.75896

>  <SCORE.INTRA>
-0.830819

>  <SCORE.INTRA.DIHEDRAL>
-1.33768

>  <SCORE.INTRA.DIHEDRAL.0>
4.88905

>  <SCORE.INTRA.POLAR>
0

>  <SCORE.INTRA.POLAR.0>
0

>  <SCORE.INTRA.REPUL>
0

>  <SCORE.INTRA.REPUL.0>
0

>  <SCORE.INTRA.SOLV>
-0.540134

>  <SCORE.INTRA.SOLV.lig_0>
-15.1033

>  <SCORE.INTRA.VDW>
0.108089

>  <SCORE.INTRA.VDW.0>
-0.755285

>  <SCORE.INTRA.norm>
-0.0639091

>  <SCORE.RESTR>
0

>  <SCORE.RESTR.CAVITY>
0

>  <SCORE.RESTR.norm>
0

>  <SCORE.SYSTEM>
0

>  <SCORE.SYSTEM.CONST>
0

>  <SCORE.SYSTEM.DIHEDRAL>
0

>  <SCORE.SYSTEM.SOLV>
0

>  <SCORE.SYSTEM.norm>
0

>  <SCORE.heavy>
13

>  <SCORE.norm>
-3.82287

>  <RMSD>
0.530

$$$$
ligand
 OpenBabel11021811513D
libRbt.so/2013.1/901 2013/11/27
 13 14  0  0  0  0  0  0  0  0999 V2000
   34.3907   29.7977  108.1243 N   0  0  0  0  0  0  0  0  0  0  0  0
   34.2762   31.0644  108.7420 C   0  0  0  0  0  0  0  0  0  0  0  0
   35.4698   31.8108  109.0496 N   0  0  0  0  0  0  0  0  0  0  0  0
   33.0536   31.5995  109.0573 N   0  0  0  0  0  0  0  0  0  0  0  0
   31.8629   30.9155  108.7799 C   0  0  0  0  0  0  0  0  0  0  0  0
   31.9337   29.6224  108.1516 C   0  0  0  0  0  0  0  0  0  0  0  0
   33.2498   29.0719  107.8253 C   0  0  0  0  0  0  0  0  0  0  0  0
   33.3573   27.8394  107.2249 O   0  0  0  0  0  0  0  0  0  0  0  0
   30.5620   29.1702  107.9982 C   0  0  0  0  0  0  0  0  0  0  0  0
   29.7471   30.1780  108.5153 C   0  0  0  0  0  0  0  0  0  0  0  0
   30.5273   31.2124  108.9815 N   0  0  0  0  0  0  0  0  0  0  0  0
   30.1129   27.8761  107.3885 C   0  0  0  0  0  0  0  0  0  0  0  0
   29.8356   28.0810  105.9788 N   0  0  0  0  0  0  0  0  0  0  0  0
  1  2  1  0  0  0  0
  1  7  1  0  0  0  0
  2  3  1  0  0  0  0
  2  4  2  0  0  0  0
  4  5  1  0  0  0  0
  5  6  2  0  0  0  0
  5 11  1  0  0  0  0
  6  7  1  0  0  0  0
  6  9  1  0  0  0  0
  7  8  2  0  0  0  0
  9 10  2  0  0  0  0
  9 12  1  0  0  0  0
 10 11  1  0  0  0  0
 12 13  1  0  0  0  0
M  END
>  <CHROM.1>
-7.35159847,-93.22293629,-88.88154513,32.22911392,29.84353729,108.10580647
-0.61128436,0.00771819,-2.59256189

>  <Name>
ligand

>  <RI>
1.99388e+07

>  <Rbt.Current_Directory>
/home/itssahil/PROJECTS/Mol_Feturizer/New_Systems/rnas/4RZD

>  <Rbt.Executable>
rbdock ($Id: //depot/dev/client3/rdock/2013.1/src/exe/rbdock.cxx#4 $)

>  <Rbt.Library>
libRbt.so (2013.1, Build901 2013/11/27)

>  <Rbt.Parameter_File>
/export/apps/rDock/src/rDock_2013.1_src/data/scripts/dock_solv.prm

>  <Rbt.Receptor>
prm/pocket_docking_2.prm

>  <SCORE>
-49.6998

>  <SCORE.INTER>
-48.883

>  <SCORE.INTER.CONST>
1

>  <SCORE.INTER.POLAR>
-4.98823

>  <SCORE.INTER.ROT>
3

>  <SCORE.INTER.SOLV>
11.1956

>  <SCORE.INTER.VDW>
-25.2931

>  <SCORE.INTER.norm>
-3.76023

>  <SCORE.INTRA>
-0.817052

>  <SCORE.INTRA.DIHEDRAL>
-1.31238

>  <SCORE.INTRA.DIHEDRAL.0>
4.88905

>  <SCORE.INTRA.POLAR>
0

>  <SCORE.INTRA.POLAR.0>
0

>  <SCORE.INTRA.REPUL>
0

>  <SCORE.INTRA.REPUL.0>
0

>  <SCORE.INTRA.SOLV>
-0.530482

>  <SCORE.INTRA.SOLV.lig_0>
-15.1033

>  <SCORE.INTRA.VDW>
0.10438

>  <SCORE.INTRA.VDW.0>
-0.755285

>  <SCORE.INTRA.norm>
-0.0628502

>  <SCORE.RESTR>
0.000234466

>  <SCORE.RESTR.CAVITY>
0.000234466

>  <SCORE.RESTR.norm>
1.80358e-05

>  <SCORE.SYSTEM>
0

>  <SCORE.SYSTEM.CONST>
0

>  <SCORE.SYSTEM.DIHEDRAL>
0

>  <SCORE.SYSTEM.SOLV>
0

>  <SCORE.SYSTEM.norm>
0

>  <SCORE.heavy>
13

>  <SCORE.norm>
-3.82306

>  <RMSD>
0.531

$$$$
ligand
 OpenBabel11021811513D
libRbt.so/2013.1/901 2013/11/27
 13 14  0  0  0  0  0  0  0  0999 V2000
   34.4003   29.7952  108.1554 N   0  0  0  0  0  0  0  0  0  0  0  0
   34.2839   31.0627  108.7710 C   0  0  0  0  0  0  0  0  0  0  0  0
   35.4766   31.8073  109.0858 N   0  0  0  0  0  0  0  0  0  0  0  0
   33.0601   31.6003  109.0773 N   0  0  0  0  0  0  0  0  0  0  0  0
   31.8701   30.9182  108.7927 C   0  0  0  0  0  0  0  0  0  0  0  0
   31.9428   29.6242  108.1663 C   0  0  0  0  0  0  0  0  0  0  0  0
   33.2601   29.0710  107.8495 C   0  0  0  0  0  0  0  0  0  0  0  0
   33.3695   27.8376  107.2512 O   0  0  0  0  0  0  0  0  0  0  0  0
   30.5714   29.1743  108.0041 C   0  0  0  0  0  0  0  0  0  0  0  0
   29.7548   30.1842  108.5146 C   0  0  0  0  0  0  0  0  0  0  0  0
   30.5337   31.2176  108.9849 N   0  0  0  0  0  0  0  0  0  0  0  0
   30.1241   27.8804  107.3928 C   0  0  0  0  0  0  0  0  0  0  0  0
   29.8646   28.0823  105.9792 N   0  0  0  0  0  0  0  0  0  0  0  0
  1  2  1  0  0  0  0
  1  7  1  0  0  0  0
  2  3  1  0  0  0  0
  2  4  2  0  0  0  0
  4  5  1  0  0  0  0
  5  6  2  0  0  0  0
  5 11  1  0  0  0  0
  6  7  1  0  0  0  0
  6  9  1  0  0  0  0
  7  8  2  0  0  0  0
  9 10  2  0  0  0  0
  9 12  1  0  0  0  0
 10 11  1  0  0  0  0
 12 13  1  0  0  0  0
M  END
>  <CHROM.1>
-8.42003369,-92.87506969,-87.99742764,32.23959274,29.84468311,108.12209722
-0.61385122,0.01429200,-2.59349141

>  <Name>
ligand

>  <RI>
1.99388e+07

>  <Rbt.Current_Directory>
/home/itssahil/PROJECTS/Mol_Feturizer/New_Systems/rnas/4RZD

>  <Rbt.Executable>
rbdock ($Id: //depot/dev/client3/rdock/2013.1/src/exe/rbdock.cxx#4 $)

>  <Rbt.Library>
libRbt.so (2013.1, Build901 2013/11/27)

>  <Rbt.Parameter_File>
/export/apps/rDock/src/rDock_2013.1_src/data/scripts/dock_solv.prm

>  <Rbt.Receptor>
prm/pocket_docking_2.prm

>  <SCORE>
-49.6867

>  <SCORE.INTER>
-48.8437

>  <SCORE.INTER.CONST>
1

>  <SCORE.INTER.POLAR>
-4.98097

>  <SCORE.INTER.ROT>
3

>  <SCORE.INTER.SOLV>
11.1515

>  <SCORE.INTER.VDW>
-25.2764

>  <SCORE.INTER.norm>
-3.75721

>  <SCORE.INTRA>
-0.844079

>  <SCORE.INTRA.DIHEDRAL>
-1.36782

>  <SCORE.INTRA.DIHEDRAL.0>
4.88905

>  <SCORE.INTRA.POLAR>
0

>  <SCORE.INTRA.POLAR.0>
0

>  <SCORE.INTRA.REPUL>
0

>  <SCORE.INTRA.REPUL.0>
0

>  <SCORE.INTRA.SOLV>
-0.528197

>  <SCORE.INTRA.SOLV.lig_0>
-15.1033

>  <SCORE.INTRA.VDW>
0.103931

>  <SCORE.INTRA.VDW.0>
-0.755285

>  <SCORE.INTRA.norm>
-0.0649292

>  <SCORE.RESTR>
0.0010262

>  <SCORE.RESTR.CAVITY>
0.0010262

>  <SCORE.RESTR.norm>
7.89381e-05

>  <SCORE.SYSTEM>
0

>  <SCORE.SYSTEM.CONST>
0

>  <SCORE.SYSTEM.DIHEDRAL>
0

>  <SCORE.SYSTEM.SOLV>
0

>  <SCORE.SYSTEM.norm>
0

>  <SCORE.heavy>
13

>  <SCORE.norm>
-3.82206

>  <RMSD>
0.531

$$$$
ligand
 OpenBabel11021811513D
libRbt.so/2013.1/901 2013/11/27
 13 14  0  0  0  0  0  0  0  0999 V2000
   34.3560   29.7617  108.1806 N   0  0  0  0  0  0  0  0  0  0  0  0
   34.2484   31.0329  108.7903 C   0  0  0  0  0  0  0  0  0  0  0  0
   35.4465   31.7688  109.1057 N   0  0  0  0  0  0  0  0  0  0  0  0
   33.0284   31.5821  109.0904 N   0  0  0  0  0  0  0  0  0  0  0  0
   31.8335   30.9089  108.8050 C   0  0  0  0  0  0  0  0  0  0  0  0
   31.8972   29.6116  108.1844 C   0  0  0  0  0  0  0  0  0  0  0  0
   33.2107   29.0459  107.8742 C   0  0  0  0  0  0  0  0  0  0  0  0
   33.3115   27.8090  107.2816 O   0  0  0  0  0  0  0  0  0  0  0  0
   30.5225   29.1726  108.0198 C   0  0  0  0  0  0  0  0  0  0  0  0
   29.7130   30.1916  108.5234 C   0  0  0  0  0  0  0  0  0  0  0  0
   30.4991   31.2204  108.9916 N   0  0  0  0  0  0  0  0  0  0  0  0
   30.0662   27.8798  107.4128 C   0  0  0  0  0  0  0  0  0  0  0  0
   29.7786   28.0862  106.0053 N   0  0  0  0  0  0  0  0  0  0  0  0
  1  2  1  0  0  0  0
  1  7  1  0  0  0  0
  2  3  1  0  0  0  0
  2  4  2  0  0  0  0
  4  5  1  0  0  0  0
  5  6  2  0  0  0  0
  5 11  1  0  0  0  0
  6  7  1  0  0  0  0
  6  9  1  0  0  0  0
  7  8  2  0  0  0  0
  9 10  2  0  0  0  0
  9 12  1  0  0  0  0
 10 11  1  0  0  0  0
 12 13  1  0  0  0  0
M  END
>  <CHROM.1>
166.63488775,-94.38897272,-90.01481284,32.19300589,29.82994514,108.14094524
-0.60547992,0.02238727,-2.59924313

>  <Name>
ligand

>  <RI>
1.99388e+07

>  <Rbt.Current_Directory>
/home/itssahil/PROJECTS/Mol_Feturizer/New_Systems/rnas/4RZD

>  <Rbt.Executable>
rbdock ($Id: //depot/dev/client3/rdock/2013.1/src/exe/rbdock.cxx#4 $)

>  <Rbt.Library>
libRbt.so (2013.1, Build901 2013/11/27)

>  <Rbt.Parameter_File>
/export/apps/rDock/src/rDock_2013.1_src/data/scripts/dock_solv.prm

>  <Rbt.Receptor>
prm/pocket_docking_2.prm

>  <SCORE>
-49.7271

>  <SCORE.INTER>
-48.9448

>  <SCORE.INTER.CONST>
1

>  <SCORE.INTER.POLAR>
-4.98811

>  <SCORE.INTER.ROT>
3

>  <SCORE.INTER.SOLV>
11.2083

>  <SCORE.INTER.VDW>
-25.3389

>  <SCORE.INTER.norm>
-3.76498

>  <SCORE.INTRA>
-0.782395

>  <SCORE.INTRA.DIHEDRAL>
-1.24084

>  <SCORE.INTRA.DIHEDRAL.0>
4.88905

>  <SCORE.INTRA.POLAR>
0

>  <SCORE.INTRA.POLAR.0>
0

>  <SCORE.INTRA.REPUL>
0

>  <SCORE.INTRA.REPUL.0>
0

>  <SCORE.INTRA.SOLV>
-0.538288

>  <SCORE.INTRA.SOLV.lig_0>
-15.1033

>  <SCORE.INTRA.VDW>
0.107166

>  <SCORE.INTRA.VDW.0>
-0.755285

>  <SCORE.INTRA.norm>
-0.0601842

>  <SCORE.RESTR>
0

>  <SCORE.RESTR.CAVITY>
0

>  <SCORE.RESTR.norm>
0

>  <SCORE.SYSTEM>
0

>  <SCORE.SYSTEM.CONST>
0

>  <SCORE.SYSTEM.DIHEDRAL>
0

>  <SCORE.SYSTEM.SOLV>
0

>  <SCORE.SYSTEM.norm>
0

>  <SCORE.heavy>
13

>  <SCORE.norm>
-3.82517

>  <RMSD>
0.536

$$$$
ligand
 OpenBabel11021811513D
libRbt.so/2013.1/901 2013/11/27
 13 14  0  0  0  0  0  0  0  0999 V2000
   34.3857   29.7904  108.1282 N   0  0  0  0  0  0  0  0  0  0  0  0
   34.2738   31.0592  108.7422 C   0  0  0  0  0  0  0  0  0  0  0  0
   35.4688   31.8046  109.0465 N   0  0  0  0  0  0  0  0  0  0  0  0
   33.0523   31.5971  109.0568 N   0  0  0  0  0  0  0  0  0  0  0  0
   31.8603   30.9143  108.7826 C   0  0  0  0  0  0  0  0  0  0  0  0
   31.9284   29.6191  108.1582 C   0  0  0  0  0  0  0  0  0  0  0  0
   33.2434   29.0655  107.8324 C   0  0  0  0  0  0  0  0  0  0  0  0
   33.3484   27.8310  107.2357 O   0  0  0  0  0  0  0  0  0  0  0  0
   30.5559   29.1687  108.0073 C   0  0  0  0  0  0  0  0  0  0  0  0
   29.7431   30.1794  108.5221 C   0  0  0  0  0  0  0  0  0  0  0  0
   30.5253   31.2139  108.9844 N   0  0  0  0  0  0  0  0  0  0  0  0
   30.1042   27.8735  107.4020 C   0  0  0  0  0  0  0  0  0  0  0  0
   29.7949   28.0818  105.9995 N   0  0  0  0  0  0  0  0  0  0  0  0
  1  2  1  0  0  0  0
  1  7  1  0  0  0  0
  2  3  1  0  0  0  0
  2  4  2  0  0  0  0
  4  5  1  0  0  0  0
  5  6  2  0  0  0  0
  5 11  1  0  0  0  0
  6  7  1  0  0  0  0
  6  9  1  0  0  0  0
  7  8  2  0  0  0  0
  9 10  2  0  0  0  0
  9 12  1  0  0  0  0
 10 11  1  0  0  0  0
 12 13  1  0  0  0  0
M  END
>  <CHROM.1>
-172.31454775,-94.59949182,-90.21109135,32.22145529,29.84016550,108.11216470
-0.60700001,0.00797296,-2.59572710

>  <Name>
ligand

>  <RI>
1.99388e+07

>  <Rbt.Current_Directory>
/home/itssahil/PROJECTS/Mol_Feturizer/New_Systems/rnas/4RZD

>  <Rbt.Executable>
rbdock ($Id: //depot/dev/client3/rdock/2013.1/src/exe/rbdock.cxx#4 $)

>  <Rbt.Library>
libRbt.so (2013.1, Build901 2013/11/27)

>  <Rbt.Parameter_File>
/export/apps/rDock/src/rDock_2013.1_src/data/scripts/dock_solv.prm

>  <Rbt.Receptor>
prm/pocket_docking_2.prm

>  <SCORE>
-49.6436

>  <SCORE.INTER>
-48.8669

>  <SCORE.INTER.CONST>
1

>  <SCORE.INTER.POLAR>
-4.99468

>  <SCORE.INTER.ROT>
3

>  <SCORE.INTER.SOLV>
11.2065

>  <SCORE.INTER.VDW>
-25.2645

>  <SCORE.INTER.norm>
-3.75899

>  <SCORE.INTRA>
-0.776644

>  <SCORE.INTRA.DIHEDRAL>
-1.22842

>  <SCORE.INTRA.DIHEDRAL.0>
4.88905

>  <SCORE.INTRA.POLAR>
0

>  <SCORE.INTRA.POLAR.0>
0

>  <SCORE.INTRA.REPUL>
0

>  <SCORE.INTRA.REPUL.0>
0

>  <SCORE.INTRA.SOLV>
-0.539262

>  <SCORE.INTRA.SOLV.lig_0>
-15.1033

>  <SCORE.INTRA.VDW>
0.107197

>  <SCORE.INTRA.VDW.0>
-0.755285

>  <SCORE.INTRA.norm>
-0.0597418

>  <SCORE.RESTR>
0

>  <SCORE.RESTR.CAVITY>
0

>  <SCORE.RESTR.norm>
0

>  <SCORE.SYSTEM>
0

>  <SCORE.SYSTEM.CONST>
0

>  <SCORE.SYSTEM.DIHEDRAL>
0

>  <SCORE.SYSTEM.SOLV>
0

>  <SCORE.SYSTEM.norm>
0

>  <SCORE.heavy>
13

>  <SCORE.norm>
-3.81874

>  <RMSD>
0.536

$$$$
ligand
 OpenBabel11021811513D
libRbt.so/2013.1/901 2013/11/27
 13 14  0  0  0  0  0  0  0  0999 V2000
   34.3572   29.7584  108.1781 N   0  0  0  0  0  0  0  0  0  0  0  0
   34.2526   31.0298  108.7879 C   0  0  0  0  0  0  0  0  0  0  0  0
   35.4523   31.7634  109.1022 N   0  0  0  0  0  0  0  0  0  0  0  0
   33.0338   31.5813  109.0892 N   0  0  0  0  0  0  0  0  0  0  0  0
   31.8374   30.9103  108.8048 C   0  0  0  0  0  0  0  0  0  0  0  0
   31.8981   29.6129  108.1843 C   0  0  0  0  0  0  0  0  0  0  0  0
   33.2103   29.0448  107.8728 C   0  0  0  0  0  0  0  0  0  0  0  0
   33.3082   27.8077  107.2801 O   0  0  0  0  0  0  0  0  0  0  0  0
   30.5224   29.1765  108.0209 C   0  0  0  0  0  0  0  0  0  0  0  0
   29.7152   30.1969  108.5253 C   0  0  0  0  0  0  0  0  0  0  0  0
   30.5037   31.2243  108.9928 N   0  0  0  0  0  0  0  0  0  0  0  0
   30.0631   27.8846  107.4143 C   0  0  0  0  0  0  0  0  0  0  0  0
   29.7823   28.0896  106.0053 N   0  0  0  0  0  0  0  0  0  0  0  0
  1  2  1  0  0  0  0
  1  7  1  0  0  0  0
  2  3  1  0  0  0  0
  2  4  2  0  0  0  0
  4  5  1  0  0  0  0
  5  6  2  0  0  0  0
  5 11  1  0  0  0  0
  6  7  1  0  0  0  0
  6  9  1  0  0  0  0
  7  8  2  0  0  0  0
  9 10  2  0  0  0  0
  9 12  1  0  0  0  0
 10 11  1  0  0  0  0
 12 13  1  0  0  0  0
M  END
>  <CHROM.1>
178.70481925,-94.04443828,-89.86994131,32.19495711,29.83051661,108.14028871
-0.60407937,0.02186158,-2.59834646

>  <Name>
ligand

>  <RI>
1.99388e+07

>  <Rbt.Current_Directory>
/home/itssahil/PROJECTS/Mol_Feturizer/New_Systems/rnas/4RZD

>  <Rbt.Executable>
rbdock ($Id: //depot/dev/client3/rdock/2013.1/src/exe/rbdock.cxx#4 $)

>  <Rbt.Library>
libRbt.so (2013.1, Build901 2013/11/27)

>  <Rbt.Parameter_File>
/export/apps/rDock/src/rDock_2013.1_src/data/scripts/dock_solv.prm

>  <Rbt.Receptor>
prm/pocket_docking_2.prm

>  <SCORE>
-49.7015

>  <SCORE.INTER>
-48.9145

>  <SCORE.INTER.CONST>
1

>  <SCORE.INTER.POLAR>
-4.98438

>  <SCORE.INTER.ROT>
3

>  <SCORE.INTER.SOLV>
11.1775

>  <SCORE.INTER.VDW>
-25.3209

>  <SCORE.INTER.norm>
-3.76265

>  <SCORE.INTRA>
-0.787024

>  <SCORE.INTRA.DIHEDRAL>
-1.25007

>  <SCORE.INTRA.DIHEDRAL.0>
4.88905

>  <SCORE.INTRA.POLAR>
0

>  <SCORE.INTRA.POLAR.0>
0

>  <SCORE.INTRA.REPUL>
0

>  <SCORE.INTRA.REPUL.0>
0

>  <SCORE.INTRA.SOLV>
-0.535534

>  <SCORE.INTRA.SOLV.lig_0>
-15.1033

>  <SCORE.INTRA.VDW>
0.105776

>  <SCORE.INTRA.VDW.0>
-0.755285

>  <SCORE.INTRA.norm>
-0.0605403

>  <SCORE.RESTR>
0

>  <SCORE.RESTR.CAVITY>
0

>  <SCORE.RESTR.norm>
0

>  <SCORE.SYSTEM>
0

>  <SCORE.SYSTEM.CONST>
0

>  <SCORE.SYSTEM.DIHEDRAL>
0

>  <SCORE.SYSTEM.SOLV>
0

>  <SCORE.SYSTEM.norm>
0

>  <SCORE.heavy>
13

>  <SCORE.norm>
-3.82319

>  <RMSD>
0.537

$$$$
ligand
 OpenBabel11021811513D
libRbt.so/2013.1/901 2013/11/27
 13 14  0  0  0  0  0  0  0  0999 V2000
   34.3999   29.7969  108.1551 N   0  0  0  0  0  0  0  0  0  0  0  0
   34.2820   31.0643  108.7708 C   0  0  0  0  0  0  0  0  0  0  0  0
   35.4738   31.8105  109.0853 N   0  0  0  0  0  0  0  0  0  0  0  0
   33.0576   31.6001  109.0777 N   0  0  0  0  0  0  0  0  0  0  0  0
   31.8684   30.9164  108.7934 C   0  0  0  0  0  0  0  0  0  0  0  0
   31.9427   29.6225  108.1669 C   0  0  0  0  0  0  0  0  0  0  0  0
   33.2607   29.0712  107.8496 C   0  0  0  0  0  0  0  0  0  0  0  0
   33.3715   27.8380  107.2512 O   0  0  0  0  0  0  0  0  0  0  0  0
   30.5718   29.1707  108.0052 C   0  0  0  0  0  0  0  0  0  0  0  0
   29.7541   30.1794  108.5161 C   0  0  0  0  0  0  0  0  0  0  0  0
   30.5317   31.2139  108.9861 N   0  0  0  0  0  0  0  0  0  0  0  0
   30.1261   27.8762  107.3941 C   0  0  0  0  0  0  0  0  0  0  0  0
   29.8150   28.0896  105.9927 N   0  0  0  0  0  0  0  0  0  0  0  0
  1  2  1  0  0  0  0
  1  7  1  0  0  0  0
  2  3  1  0  0  0  0
  2  4  2  0  0  0  0
  4  5  1  0  0  0  0
  5  6  2  0  0  0  0
  5 11  1  0  0  0  0
  6  7  1  0  0  0  0
  6  9  1  0  0  0  0
  7  8  2  0  0  0  0
  9 10  2  0  0  0  0
  9 12  1  0  0  0  0
 10 11  1  0  0  0  0
 12 13  1  0  0  0  0
M  END
>  <CHROM.1>
-174.41402334,-95.11952084,-89.86980114,32.23468675,29.84427995,108.12377591
-0.61082735,0.01393191,-2.59421766

>  <Name>
ligand

>  <RI>
1.99388e+07

>  <Rbt.Current_Directory>
/home/itssahil/PROJECTS/Mol_Feturizer/New_Systems/rnas/4RZD

>  <Rbt.Executable>
rbdock ($Id: //depot/dev/client3/rdock/2013.1/src/exe/rbdock.cxx#4 $)

>  <Rbt.Library>
libRbt.so (2013.1, Build901 2013/11/27)

>  <Rbt.Parameter_File>
/export/apps/rDock/src/rDock_2013.1_src/data/scripts/dock_solv.prm

>  <Rbt.Receptor>
prm/pocket_docking_2.prm

>  <SCORE>
-49.7117

>  <SCORE.INTER>
-48.9241

>  <SCORE.INTER.CONST>
1

>  <SCORE.INTER.POLAR>
-4.99844

>  <SCORE.INTER.ROT>
3

>  <SCORE.INTER.SOLV>
11.2063

>  <SCORE.INTER.VDW>
-25.2901

>  <SCORE.INTER.norm>
-3.76339

>  <SCORE.INTRA>
-0.78758

>  <SCORE.INTRA.DIHEDRAL>
-1.24965

>  <SCORE.INTRA.DIHEDRAL.0>
4.88905

>  <SCORE.INTRA.POLAR>
0

>  <SCORE.INTRA.POLAR.0>
0

>  <SCORE.INTRA.REPUL>
0

>  <SCORE.INTRA.REPUL.0>
0

>  <SCORE.INTRA.SOLV>
-0.542371

>  <SCORE.INTRA.SOLV.lig_0>
-15.1033

>  <SCORE.INTRA.VDW>
0.108429

>  <SCORE.INTRA.VDW.0>
-0.755285

>  <SCORE.INTRA.norm>
-0.060583

>  <SCORE.RESTR>
0

>  <SCORE.RESTR.CAVITY>
0

>  <SCORE.RESTR.norm>
0

>  <SCORE.SYSTEM>
0

>  <SCORE.SYSTEM.CONST>
0

>  <SCORE.SYSTEM.DIHEDRAL>
0

>  <SCORE.SYSTEM.SOLV>
0

>  <SCORE.SYSTEM.norm>
0

>  <SCORE.heavy>
13

>  <SCORE.norm>
-3.82398

>  <RMSD>
0.538

$$$$
ligand
 OpenBabel11021811513D
libRbt.so/2013.1/901 2013/11/27
 13 14  0  0  0  0  0  0  0  0999 V2000
   34.3535   29.7524  108.1834 N   0  0  0  0  0  0  0  0  0  0  0  0
   34.2480   31.0224  108.7959 C   0  0  0  0  0  0  0  0  0  0  0  0
   35.4473   31.7546  109.1151 N   0  0  0  0  0  0  0  0  0  0  0  0
   33.0287   31.5740  109.0951 N   0  0  0  0  0  0  0  0  0  0  0  0
   31.8327   30.9043  108.8060 C   0  0  0  0  0  0  0  0  0  0  0  0
   31.8943   29.6083  108.1826 C   0  0  0  0  0  0  0  0  0  0  0  0
   33.2070   29.0401  107.8734 C   0  0  0  0  0  0  0  0  0  0  0  0
   33.3059   27.8044  107.2781 O   0  0  0  0  0  0  0  0  0  0  0  0
   30.5189   29.1730  108.0146 C   0  0  0  0  0  0  0  0  0  0  0  0
   29.7109   30.1928  108.5190 C   0  0  0  0  0  0  0  0  0  0  0  0
   30.4987   31.2187  108.9910 N   0  0  0  0  0  0  0  0  0  0  0  0
   30.0605   27.8828  107.4037 C   0  0  0  0  0  0  0  0  0  0  0  0
   29.7591   28.0971  106.0004 N   0  0  0  0  0  0  0  0  0  0  0  0
  1  2  1  0  0  0  0
  1  7  1  0  0  0  0
  2  3  1  0  0  0  0
  2  4  2  0  0  0  0
  4  5  1  0  0  0  0
  5  6  2  0  0  0  0
  5 11  1  0  0  0  0
  6  7  1  0  0  0  0
  6  9  1  0  0  0  0
  7  8  2  0  0  0  0
  9 10  2  0  0  0  0
  9 12  1  0  0  0  0
 10 11  1  0  0  0  0
 12 13  1  0  0  0  0
M  END
>  <CHROM.1>
-1.88317944,-95.12777740,-91.06742083,32.18925695,29.82633592,108.14053964
-0.60319775,0.02510038,-2.59687028

>  <Name>
ligand

>  <RI>
1.99388e+07

>  <Rbt.Current_Directory>
/home/itssahil/PROJECTS/Mol_Feturizer/New_Systems/rnas/4RZD

>  <Rbt.Executable>
rbdock ($Id: //depot/dev/client3/rdock/2013.1/src/exe/rbdock.cxx#4 $)

>  <Rbt.Library>
libRbt.so (2013.1, Build901 2013/11/27)

>  <Rbt.Parameter_File>
/export/apps/rDock/src/rDock_2013.1_src/data/scripts/dock_solv.prm

>  <Rbt.Receptor>
prm/pocket_docking_2.prm

>  <SCORE>
-49.7082

>  <SCORE.INTER>
-48.9578

>  <SCORE.INTER.CONST>
1

>  <SCORE.INTER.POLAR>
-5.00286

>  <SCORE.INTER.ROT>
3

>  <SCORE.INTER.SOLV>
11.2306

>  <SCORE.INTER.VDW>
-25.3058

>  <SCORE.INTER.norm>
-3.76598

>  <SCORE.INTRA>
-0.750389

>  <SCORE.INTRA.DIHEDRAL>
-1.17442

>  <SCORE.INTRA.DIHEDRAL.0>
4.88905

>  <SCORE.INTRA.POLAR>
0

>  <SCORE.INTRA.POLAR.0>
0

>  <SCORE.INTRA.REPUL>
0

>  <SCORE.INTRA.REPUL.0>
0

>  <SCORE.INTRA.SOLV>
-0.542628

>  <SCORE.INTRA.SOLV.lig_0>
-15.1033

>  <SCORE.INTRA.VDW>
0.108134

>  <SCORE.INTRA.VDW.0>
-0.755285

>  <SCORE.INTRA.norm>
-0.0577222

>  <SCORE.RESTR>
0

>  <SCORE.RESTR.CAVITY>
0

>  <SCORE.RESTR.norm>
0

>  <SCORE.SYSTEM>
0

>  <SCORE.SYSTEM.CONST>
0

>  <SCORE.SYSTEM.DIHEDRAL>
0

>  <SCORE.SYSTEM.SOLV>
0

>  <SCORE.SYSTEM.norm>
0

>  <SCORE.heavy>
13

>  <SCORE.norm>
-3.82371

>  <RMSD>
0.538

$$$$
ligand
 OpenBabel11021811513D
libRbt.so/2013.1/901 2013/11/27
 13 14  0  0  0  0  0  0  0  0999 V2000
   34.3987   29.7912  108.1612 N   0  0  0  0  0  0  0  0  0  0  0  0
   34.2805   31.0587  108.7764 C   0  0  0  0  0  0  0  0  0  0  0  0
   35.4723   31.8039  109.0937 N   0  0  0  0  0  0  0  0  0  0  0  0
   33.0559   31.5957  109.0802 N   0  0  0  0  0  0  0  0  0  0  0  0
   31.8667   30.9131  108.7932 C   0  0  0  0  0  0  0  0  0  0  0  0
   31.9413   29.6191  108.1670 C   0  0  0  0  0  0  0  0  0  0  0  0
   33.2595   29.0665  107.8529 C   0  0  0  0  0  0  0  0  0  0  0  0
   33.3707   27.8331  107.2549 O   0  0  0  0  0  0  0  0  0  0  0  0
   30.5704   29.1685  108.0020 C   0  0  0  0  0  0  0  0  0  0  0  0
   29.7524   30.1780  108.5107 C   0  0  0  0  0  0  0  0  0  0  0  0
   30.5298   31.2119  108.9826 N   0  0  0  0  0  0  0  0  0  0  0  0
   30.1250   27.8744  107.3899 C   0  0  0  0  0  0  0  0  0  0  0  0
   29.7924   28.0935  105.9943 N   0  0  0  0  0  0  0  0  0  0  0  0
  1  2  1  0  0  0  0
  1  7  1  0  0  0  0
  2  3  1  0  0  0  0
  2  4  2  0  0  0  0
  4  5  1  0  0  0  0
  5  6  2  0  0  0  0
  5 11  1  0  0  0  0
  6  7  1  0  0  0  0
  6  9  1  0  0  0  0
  7  8  2  0  0  0  0
  9 10  2  0  0  0  0
  9 12  1  0  0  0  0
 10 11  1  0  0  0  0
 12 13  1  0  0  0  0
M  END
>  <CHROM.1>
164.36672682,-96.22741660,-90.80767750,32.23140068,29.84099863,108.12514735
-0.60921905,0.01794614,-2.59634987

>  <Name>
ligand

>  <RI>
1.99388e+07

>  <Rbt.Current_Directory>
/home/itssahil/PROJECTS/Mol_Feturizer/New_Systems/rnas/4RZD

>  <Rbt.Executable>
rbdock ($Id: //depot/dev/client3/rdock/2013.1/src/exe/rbdock.cxx#4 $)

>  <Rbt.Library>
libRbt.so (2013.1, Build901 2013/11/27)

>  <Rbt.Parameter_File>
/export/apps/rDock/src/rDock_2013.1_src/data/scripts/dock_solv.prm

>  <Rbt.Receptor>
prm/pocket_docking_2.prm

>  <SCORE>
-49.7646

>  <SCORE.INTER>
-49.006

>  <SCORE.INTER.CONST>
1

>  <SCORE.INTER.POLAR>
-5.00949

>  <SCORE.INTER.ROT>
3

>  <SCORE.INTER.SOLV>
11.2821

>  <SCORE.INTER.VDW>
-25.3331

>  <SCORE.INTER.norm>
-3.76969

>  <SCORE.INTRA>
-0.758583

>  <SCORE.INTRA.DIHEDRAL>
-1.19019

>  <SCORE.INTRA.DIHEDRAL.0>
4.88905

>  <SCORE.INTRA.POLAR>
0

>  <SCORE.INTRA.POLAR.0>
0

>  <SCORE.INTRA.REPUL>
0

>  <SCORE.INTRA.REPUL.0>
0

>  <SCORE.INTRA.SOLV>
-0.550079

>  <SCORE.INTRA.SOLV.lig_0>
-15.1033

>  <SCORE.INTRA.VDW>
0.111552

>  <SCORE.INTRA.VDW.0>
-0.755285

>  <SCORE.INTRA.norm>
-0.0583525

>  <SCORE.RESTR>
0

>  <SCORE.RESTR.CAVITY>
0

>  <SCORE.RESTR.norm>
0

>  <SCORE.SYSTEM>
0

>  <SCORE.SYSTEM.CONST>
0

>  <SCORE.SYSTEM.DIHEDRAL>
0

>  <SCORE.SYSTEM.SOLV>
0

>  <SCORE.SYSTEM.norm>
0

>  <SCORE.heavy>
13

>  <SCORE.norm>
-3.82805

>  <RMSD>
0.539

$$$$
ligand
 OpenBabel11021811513D
libRbt.so/2013.1/901 2013/11/27
 13 14  0  0  0  0  0  0  0  0999 V2000
   34.3606   29.7578  108.1766 N   0  0  0  0  0  0  0  0  0  0  0  0
   34.2570   31.0303  108.7841 C   0  0  0  0  0  0  0  0  0  0  0  0
   35.4573   31.7644  109.0953 N   0  0  0  0  0  0  0  0  0  0  0  0
   33.0387   31.5825  109.0863 N   0  0  0  0  0  0  0  0  0  0  0  0
   31.8418   30.9111  108.8050 C   0  0  0  0  0  0  0  0  0  0  0  0
   31.9015   29.6126  108.1867 C   0  0  0  0  0  0  0  0  0  0  0  0
   33.2131   29.0437  107.8743 C   0  0  0  0  0  0  0  0  0  0  0  0
   33.3101   27.8055  107.2838 O   0  0  0  0  0  0  0  0  0  0  0  0
   30.5255   29.1759  108.0263 C   0  0  0  0  0  0  0  0  0  0  0  0
   29.7192   30.1974  108.5299 C   0  0  0  0  0  0  0  0  0  0  0  0
   30.5085   31.2256  108.9944 N   0  0  0  0  0  0  0  0  0  0  0  0
   30.0652   27.8829  107.4228 C   0  0  0  0  0  0  0  0  0  0  0  0
   29.7707   28.0882  106.0166 N   0  0  0  0  0  0  0  0  0  0  0  0
  1  2  1  0  0  0  0
  1  7  1  0  0  0  0
  2  3  1  0  0  0  0
  2  4  2  0  0  0  0
  4  5  1  0  0  0  0
  5  6  2  0  0  0  0
  5 11  1  0  0  0  0
  6  7  1  0  0  0  0
  6  9  1  0  0  0  0
  7  8  2  0  0  0  0
  9 10  2  0  0  0  0
  9 12  1  0  0  0  0
 10 11  1  0  0  0  0
 12 13  1  0  0  0  0
M  END
>  <CHROM.1>
168.00622378,-94.55997902,-90.34994508,32.19728039,29.83026588,108.14219423
-0.60225321,0.02132519,-2.60121298

>  <Name>
ligand

>  <RI>
1.99388e+07

>  <Rbt.Current_Directory>
/home/itssahil/PROJECTS/Mol_Feturizer/New_Systems/rnas/4RZD

>  <Rbt.Executable>
rbdock ($Id: //depot/dev/client3/rdock/2013.1/src/exe/rbdock.cxx#4 $)

>  <Rbt.Library>
libRbt.so (2013.1, Build901 2013/11/27)

>  <Rbt.Parameter_File>
/export/apps/rDock/src/rDock_2013.1_src/data/scripts/dock_solv.prm

>  <Rbt.Receptor>
prm/pocket_docking_2.prm

>  <SCORE>
-49.7024

>  <SCORE.INTER>
-48.9302

>  <SCORE.INTER.CONST>
1

>  <SCORE.INTER.POLAR>
-4.98234

>  <SCORE.INTER.ROT>
3

>  <SCORE.INTER.SOLV>
11.2036

>  <SCORE.INTER.VDW>
-25.3469

>  <SCORE.INTER.norm>
-3.76386

>  <SCORE.INTRA>
-0.77215

>  <SCORE.INTRA.DIHEDRAL>
-1.21971

>  <SCORE.INTRA.DIHEDRAL.0>
4.88905

>  <SCORE.INTRA.POLAR>
0

>  <SCORE.INTRA.POLAR.0>
0

>  <SCORE.INTRA.REPUL>
0

>  <SCORE.INTRA.REPUL.0>
0

>  <SCORE.INTRA.SOLV>
-0.539301

>  <SCORE.INTRA.SOLV.lig_0>
-15.1033

>  <SCORE.INTRA.VDW>
0.107357

>  <SCORE.INTRA.VDW.0>
-0.755285

>  <SCORE.INTRA.norm>
-0.0593961

>  <SCORE.RESTR>
0

>  <SCORE.RESTR.CAVITY>
0

>  <SCORE.RESTR.norm>
0

>  <SCORE.SYSTEM>
0

>  <SCORE.SYSTEM.CONST>
0

>  <SCORE.SYSTEM.DIHEDRAL>
0

>  <SCORE.SYSTEM.SOLV>
0

>  <SCORE.SYSTEM.norm>
0

>  <SCORE.heavy>
13

>  <SCORE.norm>
-3.82326

>  <RMSD>
0.539

$$$$
ligand
 OpenBabel11021811513D
libRbt.so/2013.1/901 2013/11/27
 13 14  0  0  0  0  0  0  0  0999 V2000
   34.4067   29.7848  108.1598 N   0  0  0  0  0  0  0  0  0  0  0  0
   34.2888   31.0518  108.7764 C   0  0  0  0  0  0  0  0  0  0  0  0
   35.4808   31.7961  109.0948 N   0  0  0  0  0  0  0  0  0  0  0  0
   33.0643   31.5890  109.0806 N   0  0  0  0  0  0  0  0  0  0  0  0
   31.8750   30.9071  108.7925 C   0  0  0  0  0  0  0  0  0  0  0  0
   31.9492   29.6138  108.1649 C   0  0  0  0  0  0  0  0  0  0  0  0
   33.2672   29.0610  107.8505 C   0  0  0  0  0  0  0  0  0  0  0  0
   33.3780   27.8282  107.2512 O   0  0  0  0  0  0  0  0  0  0  0  0
   30.5781   29.1639  107.9991 C   0  0  0  0  0  0  0  0  0  0  0  0
   29.7604   30.1732  108.5088 C   0  0  0  0  0  0  0  0  0  0  0  0
   30.5381   31.2062  108.9820 N   0  0  0  0  0  0  0  0  0  0  0  0
   30.1323   27.8706  107.3855 C   0  0  0  0  0  0  0  0  0  0  0  0
   29.7691   28.0979  105.9989 N   0  0  0  0  0  0  0  0  0  0  0  0
  1  2  1  0  0  0  0
  1  7  1  0  0  0  0
  2  3  1  0  0  0  0
  2  4  2  0  0  0  0
  4  5  1  0  0  0  0
  5  6  2  0  0  0  0
  5 11  1  0  0  0  0
  6  7  1  0  0  0  0
  6  9  1  0  0  0  0
  7  8  2  0  0  0  0
  9 10  2  0  0  0  0
  9 12  1  0  0  0  0
 10 11  1  0  0  0  0
 12 13  1  0  0  0  0
M  END
>  <CHROM.1>
-15.80961942,-97.60068200,-92.38985263,32.23658902,29.83613391,108.12422148
-0.60668600,0.01901110,-2.59636265

>  <Name>
ligand

>  <RI>
1.99388e+07

>  <Rbt.Current_Directory>
/home/itssahil/PROJECTS/Mol_Feturizer/New_Systems/rnas/4RZD

>  <Rbt.Executable>
rbdock ($Id: //depot/dev/client3/rdock/2013.1/src/exe/rbdock.cxx#4 $)

>  <Rbt.Library>
libRbt.so (2013.1, Build901 2013/11/27)

>  <Rbt.Parameter_File>
/export/apps/rDock/src/rDock_2013.1_src/data/scripts/dock_solv.prm

>  <Rbt.Receptor>
prm/pocket_docking_2.prm

>  <SCORE>
-49.7561

>  <SCORE.INTER>
-49.0461

>  <SCORE.INTER.CONST>
1

>  <SCORE.INTER.POLAR>
-5.02214

>  <SCORE.INTER.ROT>
3

>  <SCORE.INTER.SOLV>
11.324

>  <SCORE.INTER.VDW>
-25.3316

>  <SCORE.INTER.norm>
-3.77278

>  <SCORE.INTRA>
-0.710048

>  <SCORE.INTRA.DIHEDRAL>
-1.09033

>  <SCORE.INTRA.DIHEDRAL.0>
4.88905

>  <SCORE.INTRA.POLAR>
0

>  <SCORE.INTRA.POLAR.0>
0

>  <SCORE.INTRA.REPUL>
0

>  <SCORE.INTRA.REPUL.0>
0

>  <SCORE.INTRA.SOLV>
-0.558907

>  <SCORE.INTRA.SOLV.lig_0>
-15.1033

>  <SCORE.INTRA.VDW>
0.114571

>  <SCORE.INTRA.VDW.0>
-0.755285

>  <SCORE.INTRA.norm>
-0.0546191

>  <SCORE.RESTR>
0

>  <SCORE.RESTR.CAVITY>
0

>  <SCORE.RESTR.norm>
0

>  <SCORE.SYSTEM>
0

>  <SCORE.SYSTEM.CONST>
0

>  <SCORE.SYSTEM.DIHEDRAL>
0

>  <SCORE.SYSTEM.SOLV>
0

>  <SCORE.SYSTEM.norm>
0

>  <SCORE.heavy>
13

>  <SCORE.norm>
-3.8274

>  <RMSD>
0.540

$$$$
ligand
 OpenBabel11021811513D
libRbt.so/2013.1/901 2013/11/27
 13 14  0  0  0  0  0  0  0  0999 V2000
   34.3803   29.8033  108.0946 N   0  0  0  0  0  0  0  0  0  0  0  0
   34.2690   31.0725  108.7077 C   0  0  0  0  0  0  0  0  0  0  0  0
   35.4639   31.8227  109.0006 N   0  0  0  0  0  0  0  0  0  0  0  0
   33.0484   31.6063  109.0323 N   0  0  0  0  0  0  0  0  0  0  0  0
   31.8565   30.9187  108.7694 C   0  0  0  0  0  0  0  0  0  0  0  0
   31.9240   29.6229  108.1462 C   0  0  0  0  0  0  0  0  0  0  0  0
   33.2381   29.0737  107.8098 C   0  0  0  0  0  0  0  0  0  0  0  0
   33.3425   27.8387  107.2139 O   0  0  0  0  0  0  0  0  0  0  0  0
   30.5519   29.1671  108.0080 C   0  0  0  0  0  0  0  0  0  0  0  0
   29.7399   30.1755  108.5284 C   0  0  0  0  0  0  0  0  0  0  0  0
   30.5223   31.2136  108.9825 N   0  0  0  0  0  0  0  0  0  0  0  0
   30.0997   27.8694  107.4084 C   0  0  0  0  0  0  0  0  0  0  0  0
   29.7741   28.0754  106.0092 N   0  0  0  0  0  0  0  0  0  0  0  0
  1  2  1  0  0  0  0
  1  7  1  0  0  0  0
  2  3  1  0  0  0  0
  2  4  2  0  0  0  0
  4  5  1  0  0  0  0
  5  6  2  0  0  0  0
  5 11  1  0  0  0  0
  6  7  1  0  0  0  0
  6  9  1  0  0  0  0
  7  8  2  0  0  0  0
  9 10  2  0  0  0  0
  9 12  1  0  0  0  0
 10 11  1  0  0  0  0
 12 13  1  0  0  0  0
M  END
>  <CHROM.1>
165.69019267,-94.74460475,-90.24572126,32.21553253,29.84503150,108.09744076
-0.60529405,-0.00046396,-2.59848633

>  <Name>
ligand

>  <RI>
1.99388e+07

>  <Rbt.Current_Directory>
/home/itssahil/PROJECTS/Mol_Feturizer/New_Systems/rnas/4RZD

>  <Rbt.Executable>
rbdock ($Id: //depot/dev/client3/rdock/2013.1/src/exe/rbdock.cxx#4 $)

>  <Rbt.Library>
libRbt.so (2013.1, Build901 2013/11/27)

>  <Rbt.Parameter_File>
/export/apps/rDock/src/rDock_2013.1_src/data/scripts/dock_solv.prm

>  <Rbt.Receptor>
prm/pocket_docking_2.prm

>  <SCORE>
-49.7578

>  <SCORE.INTER>
-48.9824

>  <SCORE.INTER.CONST>
1

>  <SCORE.INTER.POLAR>
-4.9849

>  <SCORE.INTER.ROT>
3

>  <SCORE.INTER.SOLV>
11.2706

>  <SCORE.INTER.VDW>
-25.3955

>  <SCORE.INTER.norm>
-3.76788

>  <SCORE.INTRA>
-0.775366

>  <SCORE.INTRA.DIHEDRAL>
-1.22619

>  <SCORE.INTRA.DIHEDRAL.0>
4.88905

>  <SCORE.INTRA.POLAR>
0

>  <SCORE.INTRA.POLAR.0>
0

>  <SCORE.INTRA.REPUL>
0

>  <SCORE.INTRA.REPUL.0>
0

>  <SCORE.INTRA.SOLV>
-0.540636

>  <SCORE.INTRA.SOLV.lig_0>
-15.1033

>  <SCORE.INTRA.VDW>
0.108045

>  <SCORE.INTRA.VDW.0>
-0.755285

>  <SCORE.INTRA.norm>
-0.0596435

>  <SCORE.RESTR>
0

>  <SCORE.RESTR.CAVITY>
0

>  <SCORE.RESTR.norm>
0

>  <SCORE.SYSTEM>
0

>  <SCORE.SYSTEM.CONST>
0

>  <SCORE.SYSTEM.DIHEDRAL>
0

>  <SCORE.SYSTEM.SOLV>
0

>  <SCORE.SYSTEM.norm>
0

>  <SCORE.heavy>
13

>  <SCORE.norm>
-3.82752

>  <RMSD>
0.540

$$$$
ligand
 OpenBabel11021811513D
libRbt.so/2013.1/901 2013/11/27
 13 14  0  0  0  0  0  0  0  0999 V2000
   34.4157   29.7955  108.1604 N   0  0  0  0  0  0  0  0  0  0  0  0
   34.2978   31.0629  108.7760 C   0  0  0  0  0  0  0  0  0  0  0  0
   35.4898   31.8082  109.0923 N   0  0  0  0  0  0  0  0  0  0  0  0
   33.0734   31.5996  109.0811 N   0  0  0  0  0  0  0  0  0  0  0  0
   31.8841   30.9168  108.7950 C   0  0  0  0  0  0  0  0  0  0  0  0
   31.9583   29.6230  108.1685 C   0  0  0  0  0  0  0  0  0  0  0  0
   33.2763   29.0707  107.8531 C   0  0  0  0  0  0  0  0  0  0  0  0
   33.3872   27.8374  107.2548 O   0  0  0  0  0  0  0  0  0  0  0  0
   30.5874   29.1722  108.0047 C   0  0  0  0  0  0  0  0  0  0  0  0
   29.7696   30.1815  108.5145 C   0  0  0  0  0  0  0  0  0  0  0  0
   30.5473   31.2154  108.9858 N   0  0  0  0  0  0  0  0  0  0  0  0
   30.1416   27.8781  107.3928 C   0  0  0  0  0  0  0  0  0  0  0  0
   29.8216   28.0943  105.9938 N   0  0  0  0  0  0  0  0  0  0  0  0
  1  2  1  0  0  0  0
  1  7  1  0  0  0  0
  2  3  1  0  0  0  0
  2  4  2  0  0  0  0
  4  5  1  0  0  0  0
  5  6  2  0  0  0  0
  5 11  1  0  0  0  0
  6  7  1  0  0  0  0
  6  9  1  0  0  0  0
  7  8  2  0  0  0  0
  9 10  2  0  0  0  0
  9 12  1  0  0  0  0
 10 11  1  0  0  0  0
 12 13  1  0  0  0  0
M  END
>  <CHROM.1>
6.90955030,-95.60697592,-90.12801790,32.24952808,29.84477126,108.12612864
-0.61018522,0.01583974,-2.59442910

>  <Name>
ligand

>  <RI>
1.99388e+07

>  <Rbt.Current_Directory>
/home/itssahil/PROJECTS/Mol_Feturizer/New_Systems/rnas/4RZD

>  <Rbt.Executable>
rbdock ($Id: //depot/dev/client3/rdock/2013.1/src/exe/rbdock.cxx#4 $)

>  <Rbt.Library>
libRbt.so (2013.1, Build901 2013/11/27)

>  <Rbt.Parameter_File>
/export/apps/rDock/src/rDock_2013.1_src/data/scripts/dock_solv.prm

>  <Rbt.Receptor>
prm/pocket_docking_2.prm

>  <SCORE>
-49.7072

>  <SCORE.INTER>
-48.9275

>  <SCORE.INTER.CONST>
1

>  <SCORE.INTER.POLAR>
-5.00248

>  <SCORE.INTER.ROT>
3

>  <SCORE.INTER.SOLV>
11.2087

>  <SCORE.INTER.VDW>
-25.2796

>  <SCORE.INTER.norm>
-3.76365

>  <SCORE.INTRA>
-0.779761

>  <SCORE.INTRA.DIHEDRAL>
-1.23319

>  <SCORE.INTRA.DIHEDRAL.0>
4.88905

>  <SCORE.INTRA.POLAR>
0

>  <SCORE.INTRA.POLAR.0>
0

>  <SCORE.INTRA.REPUL>
0

>  <SCORE.INTRA.REPUL.0>
0

>  <SCORE.INTRA.SOLV>
-0.545613

>  <SCORE.INTRA.SOLV.lig_0>
-15.1033

>  <SCORE.INTRA.VDW>
0.109642

>  <SCORE.INTRA.VDW.0>
-0.755285

>  <SCORE.INTRA.norm>
-0.0599816

>  <SCORE.RESTR>
0

>  <SCORE.RESTR.CAVITY>
0

>  <SCORE.RESTR.norm>
0

>  <SCORE.SYSTEM>
0

>  <SCORE.SYSTEM.CONST>
0

>  <SCORE.SYSTEM.DIHEDRAL>
0

>  <SCORE.SYSTEM.SOLV>
0

>  <SCORE.SYSTEM.norm>
0

>  <SCORE.heavy>
13

>  <SCORE.norm>
-3.82363

>  <RMSD>
0.540

$$$$
ligand
 OpenBabel11021811513D
libRbt.so/2013.1/901 2013/11/27
 13 14  0  0  0  0  0  0  0  0999 V2000
   34.3972   29.7899  108.1536 N   0  0  0  0  0  0  0  0  0  0  0  0
   34.2807   31.0580  108.7681 C   0  0  0  0  0  0  0  0  0  0  0  0
   35.4734   31.8032  109.0817 N   0  0  0  0  0  0  0  0  0  0  0  0
   33.0570   31.5955  109.0745 N   0  0  0  0  0  0  0  0  0  0  0  0
   31.8669   30.9128  108.7910 C   0  0  0  0  0  0  0  0  0  0  0  0
   31.9397   29.6183  108.1658 C   0  0  0  0  0  0  0  0  0  0  0  0
   33.2570   29.0652  107.8489 C   0  0  0  0  0  0  0  0  0  0  0  0
   33.3665   27.8313  107.2517 O   0  0  0  0  0  0  0  0  0  0  0  0
   30.5683   29.1679  108.0046 C   0  0  0  0  0  0  0  0  0  0  0  0
   29.7518   30.1779  108.5146 C   0  0  0  0  0  0  0  0  0  0  0  0
   30.5306   31.2121  108.9836 N   0  0  0  0  0  0  0  0  0  0  0  0
   30.1211   27.8732  107.3948 C   0  0  0  0  0  0  0  0  0  0  0  0
   29.7843   28.0914  106.0001 N   0  0  0  0  0  0  0  0  0  0  0  0
  1  2  1  0  0  0  0
  1  7  1  0  0  0  0
  2  3  1  0  0  0  0
  2  4  2  0  0  0  0
  4  5  1  0  0  0  0
  5  6  2  0  0  0  0
  5 11  1  0  0  0  0
  6  7  1  0  0  0  0
  6  9  1  0  0  0  0
  7  8  2  0  0  0  0
  9 10  2  0  0  0  0
  9 12  1  0  0  0  0
 10 11  1  0  0  0  0
 12 13  1  0  0  0  0
M  END
>  <CHROM.1>
179.85509649,-96.25822995,-91.24411962,32.22970399,29.84010424,108.12302937
-0.60779854,0.01526471,-2.59638928

>  <Name>
ligand

>  <RI>
1.99388e+07

>  <Rbt.Current_Directory>
/home/itssahil/PROJECTS/Mol_Feturizer/New_Systems/rnas/4RZD

>  <Rbt.Executable>
rbdock ($Id: //depot/dev/client3/rdock/2013.1/src/exe/rbdock.cxx#4 $)

>  <Rbt.Library>
libRbt.so (2013.1, Build901 2013/11/27)

>  <Rbt.Parameter_File>
/export/apps/rDock/src/rDock_2013.1_src/data/scripts/dock_solv.prm

>  <Rbt.Receptor>
prm/pocket_docking_2.prm

>  <SCORE>
-49.7003

>  <SCORE.INTER>
-48.9548

>  <SCORE.INTER.CONST>
1

>  <SCORE.INTER.POLAR>
-5.00842

>  <SCORE.INTER.ROT>
3

>  <SCORE.INTER.SOLV>
11.2407

>  <SCORE.INTER.VDW>
-25.2887

>  <SCORE.INTER.norm>
-3.76576

>  <SCORE.INTRA>
-0.745504

>  <SCORE.INTRA.DIHEDRAL>
-1.16279

>  <SCORE.INTRA.DIHEDRAL.0>
4.88905

>  <SCORE.INTRA.POLAR>
0

>  <SCORE.INTRA.POLAR.0>
0

>  <SCORE.INTRA.REPUL>
0

>  <SCORE.INTRA.REPUL.0>
0

>  <SCORE.INTRA.SOLV>
-0.549557

>  <SCORE.INTRA.SOLV.lig_0>
-15.1033

>  <SCORE.INTRA.VDW>
0.110669

>  <SCORE.INTRA.VDW.0>
-0.755285

>  <SCORE.INTRA.norm>
-0.0573465

>  <SCORE.RESTR>
0

>  <SCORE.RESTR.CAVITY>
0

>  <SCORE.RESTR.norm>
0

>  <SCORE.SYSTEM>
0

>  <SCORE.SYSTEM.CONST>
0

>  <SCORE.SYSTEM.DIHEDRAL>
0

>  <SCORE.SYSTEM.SOLV>
0

>  <SCORE.SYSTEM.norm>
0

>  <SCORE.heavy>
13

>  <SCORE.norm>
-3.8231

>  <RMSD>
0.540

$$$$
ligand
 OpenBabel11021811513D
libRbt.so/2013.1/901 2013/11/27
 13 14  0  0  0  0  0  0  0  0999 V2000
   34.4061   29.7888  108.1322 N   0  0  0  0  0  0  0  0  0  0  0  0
   34.2937   31.0563  108.7487 C   0  0  0  0  0  0  0  0  0  0  0  0
   35.4885   31.8003  109.0570 N   0  0  0  0  0  0  0  0  0  0  0  0
   33.0719   31.5943  109.0621 N   0  0  0  0  0  0  0  0  0  0  0  0
   31.8800   30.9127  108.7840 C   0  0  0  0  0  0  0  0  0  0  0  0
   31.9487   29.6189  108.1569 C   0  0  0  0  0  0  0  0  0  0  0  0
   33.2639   29.0652  107.8325 C   0  0  0  0  0  0  0  0  0  0  0  0
   33.3694   27.8319  107.2334 O   0  0  0  0  0  0  0  0  0  0  0  0
   30.5761   29.1696  108.0023 C   0  0  0  0  0  0  0  0  0  0  0  0
   29.7629   30.1796  108.5177 C   0  0  0  0  0  0  0  0  0  0  0  0
   30.5448   31.2127  108.9838 N   0  0  0  0  0  0  0  0  0  0  0  0
   30.1249   27.8760  107.3933 C   0  0  0  0  0  0  0  0  0  0  0  0
   29.7770   28.0968  106.0017 N   0  0  0  0  0  0  0  0  0  0  0  0
  1  2  1  0  0  0  0
  1  7  1  0  0  0  0
  2  3  1  0  0  0  0
  2  4  2  0  0  0  0
  4  5  1  0  0  0  0
  5  6  2  0  0  0  0
  5 11  1  0  0  0  0
  6  7  1  0  0  0  0
  6  9  1  0  0  0  0
  7  8  2  0  0  0  0
  9 10  2  0  0  0  0
  9 12  1  0  0  0  0
 10 11  1  0  0  0  0
 12 13  1  0  0  0  0
M  END
>  <CHROM.1>
7.65462429,-96.43550277,-91.83308426,32.23818397,29.84062365,108.11302329
-0.60439356,0.01096410,-2.59494111

>  <Name>
ligand

>  <RI>
1.99388e+07

>  <Rbt.Current_Directory>
/home/itssahil/PROJECTS/Mol_Feturizer/New_Systems/rnas/4RZD

>  <Rbt.Executable>
rbdock ($Id: //depot/dev/client3/rdock/2013.1/src/exe/rbdock.cxx#4 $)

>  <Rbt.Library>
libRbt.so (2013.1, Build901 2013/11/27)

>  <Rbt.Parameter_File>
/export/apps/rDock/src/rDock_2013.1_src/data/scripts/dock_solv.prm

>  <Rbt.Receptor>
prm/pocket_docking_2.prm

>  <SCORE>
-49.6515

>  <SCORE.INTER>
-48.9244

>  <SCORE.INTER.CONST>
1

>  <SCORE.INTER.POLAR>
-5.01158

>  <SCORE.INTER.ROT>
3

>  <SCORE.INTER.SOLV>
11.2685

>  <SCORE.INTER.VDW>
-25.2671

>  <SCORE.INTER.norm>
-3.76341

>  <SCORE.INTRA>
-0.727174

>  <SCORE.INTRA.DIHEDRAL>
-1.12579

>  <SCORE.INTRA.DIHEDRAL.0>
4.88905

>  <SCORE.INTRA.POLAR>
0

>  <SCORE.INTRA.POLAR.0>
0

>  <SCORE.INTRA.REPUL>
0

>  <SCORE.INTRA.REPUL.0>
0

>  <SCORE.INTRA.SOLV>
-0.551046

>  <SCORE.INTRA.SOLV.lig_0>
-15.1033

>  <SCORE.INTRA.VDW>
0.111247

>  <SCORE.INTRA.VDW.0>
-0.755285

>  <SCORE.INTRA.norm>
-0.0559365

>  <SCORE.RESTR>
0

>  <SCORE.RESTR.CAVITY>
0

>  <SCORE.RESTR.norm>
0

>  <SCORE.SYSTEM>
0

>  <SCORE.SYSTEM.CONST>
0

>  <SCORE.SYSTEM.DIHEDRAL>
0

>  <SCORE.SYSTEM.SOLV>
0

>  <SCORE.SYSTEM.norm>
0

>  <SCORE.heavy>
13

>  <SCORE.norm>
-3.81935

>  <RMSD>
0.542

$$$$
ligand
 OpenBabel11021811513D
libRbt.so/2013.1/901 2013/11/27
 13 14  0  0  0  0  0  0  0  0999 V2000
   34.3894   29.7773  108.1337 N   0  0  0  0  0  0  0  0  0  0  0  0
   34.2819   31.0454  108.7498 C   0  0  0  0  0  0  0  0  0  0  0  0
   35.4796   31.7850  109.0578 N   0  0  0  0  0  0  0  0  0  0  0  0
   33.0622   31.5882  109.0631 N   0  0  0  0  0  0  0  0  0  0  0  0
   31.8677   30.9111  108.7854 C   0  0  0  0  0  0  0  0  0  0  0  0
   31.9314   29.6167  108.1587 C   0  0  0  0  0  0  0  0  0  0  0  0
   33.2445   29.0580  107.8345 C   0  0  0  0  0  0  0  0  0  0  0  0
   33.3452   27.8240  107.2357 O   0  0  0  0  0  0  0  0  0  0  0  0
   30.5571   29.1726  108.0044 C   0  0  0  0  0  0  0  0  0  0  0  0
   29.7478   30.1859  108.5195 C   0  0  0  0  0  0  0  0  0  0  0  0
   30.5337   31.2161  108.9852 N   0  0  0  0  0  0  0  0  0  0  0  0
   30.1009   27.8805  107.3959 C   0  0  0  0  0  0  0  0  0  0  0  0
   29.7585   28.1011  106.0030 N   0  0  0  0  0  0  0  0  0  0  0  0
  1  2  1  0  0  0  0
  1  7  1  0  0  0  0
  2  3  1  0  0  0  0
  2  4  2  0  0  0  0
  4  5  1  0  0  0  0
  5  6  2  0  0  0  0
  5 11  1  0  0  0  0
  6  7  1  0  0  0  0
  6  9  1  0  0  0  0
  7  8  2  0  0  0  0
  9 10  2  0  0  0  0
  9 12  1  0  0  0  0
 10 11  1  0  0  0  0
 12 13  1  0  0  0  0
M  END
>  <CHROM.1>
165.60291996,-96.22692465,-91.62481922,32.22217167,29.83721858,108.11458585
-0.60125016,0.01362653,-2.59643149

>  <Name>
ligand

>  <RI>
1.99388e+07

>  <Rbt.Current_Directory>
/home/itssahil/PROJECTS/Mol_Feturizer/New_Systems/rnas/4RZD

>  <Rbt.Executable>
rbdock ($Id: //depot/dev/client3/rdock/2013.1/src/exe/rbdock.cxx#4 $)

>  <Rbt.Library>
libRbt.so (2013.1, Build901 2013/11/27)

>  <Rbt.Parameter_File>
/export/apps/rDock/src/rDock_2013.1_src/data/scripts/dock_solv.prm

>  <Rbt.Receptor>
prm/pocket_docking_2.prm

>  <SCORE>
-49.7291

>  <SCORE.INTER>
-48.9965

>  <SCORE.INTER.CONST>
1

>  <SCORE.INTER.POLAR>
-5.00481

>  <SCORE.INTER.ROT>
3

>  <SCORE.INTER.SOLV>
11.3213

>  <SCORE.INTER.VDW>
-25.3554

>  <SCORE.INTER.norm>
-3.76896

>  <SCORE.INTRA>
-0.733275

>  <SCORE.INTRA.DIHEDRAL>
-1.13895

>  <SCORE.INTRA.DIHEDRAL.0>
4.88905

>  <SCORE.INTRA.POLAR>
0

>  <SCORE.INTRA.POLAR.0>
0

>  <SCORE.INTRA.REPUL>
0

>  <SCORE.INTRA.REPUL.0>
0

>  <SCORE.INTRA.SOLV>
-0.550083

>  <SCORE.INTRA.SOLV.lig_0>
-15.1033

>  <SCORE.INTRA.VDW>
0.11124

>  <SCORE.INTRA.VDW.0>
-0.755285

>  <SCORE.INTRA.norm>
-0.0564057

>  <SCORE.RESTR>
0.000756457

>  <SCORE.RESTR.CAVITY>
0.000756457

>  <SCORE.RESTR.norm>
5.8189e-05

>  <SCORE.SYSTEM>
0

>  <SCORE.SYSTEM.CONST>
0

>  <SCORE.SYSTEM.DIHEDRAL>
0

>  <SCORE.SYSTEM.SOLV>
0

>  <SCORE.SYSTEM.norm>
0

>  <SCORE.heavy>
13

>  <SCORE.norm>
-3.82531

>  <RMSD>
0.542

$$$$
ligand
 OpenBabel11021811513D
libRbt.so/2013.1/901 2013/11/27
 13 14  0  0  0  0  0  0  0  0999 V2000
   34.3910   29.7851  108.1788 N   0  0  0  0  0  0  0  0  0  0  0  0
   34.2758   31.0543  108.7911 C   0  0  0  0  0  0  0  0  0  0  0  0
   35.4696   31.7950  109.1113 N   0  0  0  0  0  0  0  0  0  0  0  0
   33.0524   31.5970  109.0895 N   0  0  0  0  0  0  0  0  0  0  0  0
   31.8614   30.9188  108.7995 C   0  0  0  0  0  0  0  0  0  0  0  0
   31.9329   29.6233  108.1761 C   0  0  0  0  0  0  0  0  0  0  0  0
   33.2498   29.0646  107.8678 C   0  0  0  0  0  0  0  0  0  0  0  0
   33.3580   27.8296  107.2726 O   0  0  0  0  0  0  0  0  0  0  0  0
   30.5607   29.1782  108.0070 C   0  0  0  0  0  0  0  0  0  0  0  0
   29.7451   30.1921  108.5109 C   0  0  0  0  0  0  0  0  0  0  0  0
   30.5251   31.2236  108.9836 N   0  0  0  0  0  0  0  0  0  0  0  0
   30.1120   27.8847  107.3958 C   0  0  0  0  0  0  0  0  0  0  0  0
   29.7992   28.0994  105.9950 N   0  0  0  0  0  0  0  0  0  0  0  0
  1  2  1  0  0  0  0
  1  7  1  0  0  0  0
  2  3  1  0  0  0  0
  2  4  2  0  0  0  0
  4  5  1  0  0  0  0
  5  6  2  0  0  0  0
  5 11  1  0  0  0  0
  6  7  1  0  0  0  0
  6  9  1  0  0  0  0
  7  8  2  0  0  0  0
  9 10  2  0  0  0  0
  9 12  1  0  0  0  0
 10 11  1  0  0  0  0
 12 13  1  0  0  0  0
M  END
>  <CHROM.1>
177.80540055,-95.61178022,-90.25055768,32.22522919,29.84367529,108.13452816
-0.60864074,0.02233382,-2.59712123

>  <Name>
ligand

>  <RI>
1.99388e+07

>  <Rbt.Current_Directory>
/home/itssahil/PROJECTS/Mol_Feturizer/New_Systems/rnas/4RZD

>  <Rbt.Executable>
rbdock ($Id: //depot/dev/client3/rdock/2013.1/src/exe/rbdock.cxx#4 $)

>  <Rbt.Library>
libRbt.so (2013.1, Build901 2013/11/27)

>  <Rbt.Parameter_File>
/export/apps/rDock/src/rDock_2013.1_src/data/scripts/dock_solv.prm

>  <Rbt.Receptor>
prm/pocket_docking_2.prm

>  <SCORE>
-49.7002

>  <SCORE.INTER>
-48.928

>  <SCORE.INTER.CONST>
1

>  <SCORE.INTER.POLAR>
-5.00123

>  <SCORE.INTER.ROT>
3

>  <SCORE.INTER.SOLV>
11.2297

>  <SCORE.INTER.VDW>
-25.2911

>  <SCORE.INTER.norm>
-3.76369

>  <SCORE.INTRA>
-0.776055

>  <SCORE.INTRA.DIHEDRAL>
-1.22549

>  <SCORE.INTRA.DIHEDRAL.0>
4.88905

>  <SCORE.INTRA.POLAR>
0

>  <SCORE.INTRA.POLAR.0>
0

>  <SCORE.INTRA.REPUL>
0

>  <SCORE.INTRA.REPUL.0>
0

>  <SCORE.INTRA.SOLV>
-0.545408

>  <SCORE.INTRA.SOLV.lig_0>
-15.1033

>  <SCORE.INTRA.VDW>
0.109396

>  <SCORE.INTRA.VDW.0>
-0.755285

>  <SCORE.INTRA.norm>
-0.0596966

>  <SCORE.RESTR>
0.00378053

>  <SCORE.RESTR.CAVITY>
0.00378053

>  <SCORE.RESTR.norm>
0.00029081

>  <SCORE.SYSTEM>
0

>  <SCORE.SYSTEM.CONST>
0

>  <SCORE.SYSTEM.DIHEDRAL>
0

>  <SCORE.SYSTEM.SOLV>
0

>  <SCORE.SYSTEM.norm>
0

>  <SCORE.heavy>
13

>  <SCORE.norm>
-3.8231

>  <RMSD>
0.542

$$$$
ligand
 OpenBabel11021811513D
libRbt.so/2013.1/901 2013/11/27
 13 14  0  0  0  0  0  0  0  0999 V2000
   34.3162   29.7305  108.2152 N   0  0  0  0  0  0  0  0  0  0  0  0
   34.2243   31.0088  108.8124 C   0  0  0  0  0  0  0  0  0  0  0  0
   35.4314   31.7313  109.1241 N   0  0  0  0  0  0  0  0  0  0  0  0
   33.0110   31.5774  109.1039 N   0  0  0  0  0  0  0  0  0  0  0  0
   31.8078   30.9177  108.8215 C   0  0  0  0  0  0  0  0  0  0  0  0
   31.8555   29.6138  108.2136 C   0  0  0  0  0  0  0  0  0  0  0  0
   33.1621   29.0274  107.9125 C   0  0  0  0  0  0  0  0  0  0  0  0
   33.2477   27.7836  107.3320 O   0  0  0  0  0  0  0  0  0  0  0  0
   30.4755   29.1919  108.0494 C   0  0  0  0  0  0  0  0  0  0  0  0
   29.6785   30.2265  108.5409 C   0  0  0  0  0  0  0  0  0  0  0  0
   30.4773   31.2491  109.0015 N   0  0  0  0  0  0  0  0  0  0  0  0
   30.0032   27.8997  107.4535 C   0  0  0  0  0  0  0  0  0  0  0  0
   29.7944   28.0769  106.0283 N   0  0  0  0  0  0  0  0  0  0  0  0
  1  2  1  0  0  0  0
  1  7  1  0  0  0  0
  2  3  1  0  0  0  0
  2  4  2  0  0  0  0
  4  5  1  0  0  0  0
  5  6  2  0  0  0  0
  5 11  1  0  0  0  0
  6  7  1  0  0  0  0
  6  9  1  0  0  0  0
  7  8  2  0  0  0  0
  9 10  2  0  0  0  0
  9 12  1  0  0  0  0
 10 11  1  0  0  0  0
 12 13  1  0  0  0  0
M  END
>  <CHROM.1>
163.32053163,-91.19622015,-89.51225816,32.16097305,29.82596970,108.16737941
-0.60105594,0.02982257,-2.60693654

>  <Name>
ligand

>  <RI>
2.51964e+07

>  <Rbt.Current_Directory>
/home/itssahil/PROJECTS/Mol_Feturizer/New_Systems/rnas/4RZD

>  <Rbt.Executable>
rbdock ($Id: //depot/dev/client3/rdock/2013.1/src/exe/rbdock.cxx#4 $)

>  <Rbt.Library>
libRbt.so (2013.1, Build901 2013/11/27)

>  <Rbt.Parameter_File>
/export/apps/rDock/src/rDock_2013.1_src/data/scripts/dock_solv.prm

>  <Rbt.Receptor>
prm/pocket_docking_4.prm

>  <SCORE>
-49.6168

>  <SCORE.INTER>
-48.8136

>  <SCORE.INTER.CONST>
1

>  <SCORE.INTER.POLAR>
-4.95925

>  <SCORE.INTER.ROT>
3

>  <SCORE.INTER.SOLV>
11.0828

>  <SCORE.INTER.VDW>
-25.3059

>  <SCORE.INTER.norm>
-3.7549

>  <SCORE.INTRA>
-0.803123

>  <SCORE.INTRA.DIHEDRAL>
-1.27322

>  <SCORE.INTRA.DIHEDRAL.0>
4.88905

>  <SCORE.INTRA.POLAR>
0

>  <SCORE.INTRA.POLAR.0>
0

>  <SCORE.INTRA.REPUL>
0

>  <SCORE.INTRA.REPUL.0>
0

>  <SCORE.INTRA.SOLV>
-0.510003

>  <SCORE.INTRA.SOLV.lig_0>
-15.1033

>  <SCORE.INTRA.VDW>
0.0884902

>  <SCORE.INTRA.VDW.0>
-0.755285

>  <SCORE.INTRA.norm>
-0.0617787

>  <SCORE.RESTR>
0

>  <SCORE.RESTR.CAVITY>
0

>  <SCORE.RESTR.norm>
0

>  <SCORE.SYSTEM>
0

>  <SCORE.SYSTEM.CONST>
0

>  <SCORE.SYSTEM.DIHEDRAL>
0

>  <SCORE.SYSTEM.SOLV>
0

>  <SCORE.SYSTEM.norm>
0

>  <SCORE.heavy>
13

>  <SCORE.norm>
-3.81667

>  <RMSD>
0.542

$$$$
ligand
 OpenBabel11021811513D
libRbt.so/2013.1/901 2013/11/27
 13 14  0  0  0  0  0  0  0  0999 V2000
   34.3926   29.7953  108.1532 N   0  0  0  0  0  0  0  0  0  0  0  0
   34.2771   31.0629  108.7688 C   0  0  0  0  0  0  0  0  0  0  0  0
   35.4704   31.8073  109.0822 N   0  0  0  0  0  0  0  0  0  0  0  0
   33.0539   31.6007  109.0765 N   0  0  0  0  0  0  0  0  0  0  0  0
   31.8633   30.9188  108.7933 C   0  0  0  0  0  0  0  0  0  0  0  0
   31.9351   29.6248  108.1669 C   0  0  0  0  0  0  0  0  0  0  0  0
   33.2519   29.0713  107.8486 C   0  0  0  0  0  0  0  0  0  0  0  0
   33.3604   27.8378  107.2503 O   0  0  0  0  0  0  0  0  0  0  0  0
   30.5634   29.1751  108.0063 C   0  0  0  0  0  0  0  0  0  0  0  0
   29.7476   30.1851  108.5177 C   0  0  0  0  0  0  0  0  0  0  0  0
   30.5272   31.2185  108.9870 N   0  0  0  0  0  0  0  0  0  0  0  0
   30.1152   27.8812  107.3957 C   0  0  0  0  0  0  0  0  0  0  0  0
   29.7933   28.0971  105.9971 N   0  0  0  0  0  0  0  0  0  0  0  0
  1  2  1  0  0  0  0
  1  7  1  0  0  0  0
  2  3  1  0  0  0  0
  2  4  2  0  0  0  0
  4  5  1  0  0  0  0
  5  6  2  0  0  0  0
  5 11  1  0  0  0  0
  6  7  1  0  0  0  0
  6  9  1  0  0  0  0
  7  8  2  0  0  0  0
  9 10  2  0  0  0  0
  9 12  1  0  0  0  0
 10 11  1  0  0  0  0
 12 13  1  0  0  0  0
M  END
>  <CHROM.1>
172.27426557,-95.55969044,-90.20430762,32.22651775,29.84623108,108.12374186
-0.60821982,0.01487880,-2.59549542

>  <Name>
ligand

>  <RI>
1.99388e+07

>  <Rbt.Current_Directory>
/home/itssahil/PROJECTS/Mol_Feturizer/New_Systems/rnas/4RZD

>  <Rbt.Executable>
rbdock ($Id: //depot/dev/client3/rdock/2013.1/src/exe/rbdock.cxx#4 $)

>  <Rbt.Library>
libRbt.so (2013.1, Build901 2013/11/27)

>  <Rbt.Parameter_File>
/export/apps/rDock/src/rDock_2013.1_src/data/scripts/dock_solv.prm

>  <Rbt.Receptor>
prm/pocket_docking_2.prm

>  <SCORE>
-49.7254

>  <SCORE.INTER>
-48.948

>  <SCORE.INTER.CONST>
1

>  <SCORE.INTER.POLAR>
-4.99756

>  <SCORE.INTER.ROT>
3

>  <SCORE.INTER.SOLV>
11.2576

>  <SCORE.INTER.VDW>
-25.326

>  <SCORE.INTER.norm>
-3.76523

>  <SCORE.INTRA>
-0.777372

>  <SCORE.INTRA.DIHEDRAL>
-1.22843

>  <SCORE.INTRA.DIHEDRAL.0>
4.88905

>  <SCORE.INTRA.POLAR>
0

>  <SCORE.INTRA.POLAR.0>
0

>  <SCORE.INTRA.REPUL>
0

>  <SCORE.INTRA.REPUL.0>
0

>  <SCORE.INTRA.SOLV>
-0.545253

>  <SCORE.INTRA.SOLV.lig_0>
-15.1033

>  <SCORE.INTRA.VDW>
0.109467

>  <SCORE.INTRA.VDW.0>
-0.755285

>  <SCORE.INTRA.norm>
-0.0597979

>  <SCORE.RESTR>
0

>  <SCORE.RESTR.CAVITY>
0

>  <SCORE.RESTR.norm>
0

>  <SCORE.SYSTEM>
0

>  <SCORE.SYSTEM.CONST>
0

>  <SCORE.SYSTEM.DIHEDRAL>
0

>  <SCORE.SYSTEM.SOLV>
0

>  <SCORE.SYSTEM.norm>
0

>  <SCORE.heavy>
13

>  <SCORE.norm>
-3.82503

>  <RMSD>
0.543

$$$$
ligand
 OpenBabel11021811513D
libRbt.so/2013.1/901 2013/11/27
 13 14  0  0  0  0  0  0  0  0999 V2000
   34.4077   29.8139  108.1208 N   0  0  0  0  0  0  0  0  0  0  0  0
   34.2906   31.0805  108.7384 C   0  0  0  0  0  0  0  0  0  0  0  0
   35.4826   31.8301  109.0442 N   0  0  0  0  0  0  0  0  0  0  0  0
   33.0670   31.6123  109.0551 N   0  0  0  0  0  0  0  0  0  0  0  0
   31.8778   30.9251  108.7795 C   0  0  0  0  0  0  0  0  0  0  0  0
   31.9512   29.6319  108.1514 C   0  0  0  0  0  0  0  0  0  0  0  0
   33.2684   29.0849  107.8235 C   0  0  0  0  0  0  0  0  0  0  0  0
   33.3785   27.8525  107.2233 O   0  0  0  0  0  0  0  0  0  0  0  0
   30.5806   29.1760  107.9999 C   0  0  0  0  0  0  0  0  0  0  0  0
   29.7637   30.1817  108.5179 C   0  0  0  0  0  0  0  0  0  0  0  0
   30.5417   31.2183  108.9828 N   0  0  0  0  0  0  0  0  0  0  0  0
   30.1341   27.8806  107.3912 C   0  0  0  0  0  0  0  0  0  0  0  0
   29.8110   28.0942  105.9926 N   0  0  0  0  0  0  0  0  0  0  0  0
  1  2  1  0  0  0  0
  1  7  1  0  0  0  0
  2  3  1  0  0  0  0
  2  4  2  0  0  0  0
  4  5  1  0  0  0  0
  5  6  2  0  0  0  0
  5 11  1  0  0  0  0
  6  7  1  0  0  0  0
  6  9  1  0  0  0  0
  7  8  2  0  0  0  0
  9 10  2  0  0  0  0
  9 12  1  0  0  0  0
 10 11  1  0  0  0  0
 12 13  1  0  0  0  0
M  END
>  <CHROM.1>
175.28180581,-95.14346320,-90.30381678,32.24216334,29.85461378,108.10618856
-0.60939051,0.00615510,-2.59405014

>  <Name>
ligand

>  <RI>
1.99388e+07

>  <Rbt.Current_Directory>
/home/itssahil/PROJECTS/Mol_Feturizer/New_Systems/rnas/4RZD

>  <Rbt.Executable>
rbdock ($Id: //depot/dev/client3/rdock/2013.1/src/exe/rbdock.cxx#4 $)

>  <Rbt.Library>
libRbt.so (2013.1, Build901 2013/11/27)

>  <Rbt.Parameter_File>
/export/apps/rDock/src/rDock_2013.1_src/data/scripts/dock_solv.prm

>  <Rbt.Receptor>
prm/pocket_docking_2.prm

>  <SCORE>
-49.6816

>  <SCORE.INTER>
-48.9084

>  <SCORE.INTER.CONST>
1

>  <SCORE.INTER.POLAR>
-5.00313

>  <SCORE.INTER.ROT>
3

>  <SCORE.INTER.SOLV>
11.2585

>  <SCORE.INTER.VDW>
-25.2813

>  <SCORE.INTER.norm>
-3.76218

>  <SCORE.INTRA>
-0.774126

>  <SCORE.INTRA.DIHEDRAL>
-1.22237

>  <SCORE.INTRA.DIHEDRAL.0>
4.88905

>  <SCORE.INTRA.POLAR>
0

>  <SCORE.INTRA.POLAR.0>
0

>  <SCORE.INTRA.REPUL>
0

>  <SCORE.INTRA.REPUL.0>
0

>  <SCORE.INTRA.SOLV>
-0.542554

>  <SCORE.INTRA.SOLV.lig_0>
-15.1033

>  <SCORE.INTRA.VDW>
0.108334

>  <SCORE.INTRA.VDW.0>
-0.755285

>  <SCORE.INTRA.norm>
-0.0595481

>  <SCORE.RESTR>
0.000850483

>  <SCORE.RESTR.CAVITY>
0.000850483

>  <SCORE.RESTR.norm>
6.54218e-05

>  <SCORE.SYSTEM>
0

>  <SCORE.SYSTEM.CONST>
0

>  <SCORE.SYSTEM.DIHEDRAL>
0

>  <SCORE.SYSTEM.SOLV>
0

>  <SCORE.SYSTEM.norm>
0

>  <SCORE.heavy>
13

>  <SCORE.norm>
-3.82166

>  <RMSD>
0.545

$$$$
ligand
 OpenBabel11021811513D
libRbt.so/2013.1/901 2013/11/27
 13 14  0  0  0  0  0  0  0  0999 V2000
   34.3674   29.8017  108.1280 N   0  0  0  0  0  0  0  0  0  0  0  0
   34.2594   31.0711  108.7412 C   0  0  0  0  0  0  0  0  0  0  0  0
   35.4566   31.8138  109.0433 N   0  0  0  0  0  0  0  0  0  0  0  0
   33.0397   31.6123  109.0572 N   0  0  0  0  0  0  0  0  0  0  0  0
   31.8455   30.9321  108.7851 C   0  0  0  0  0  0  0  0  0  0  0  0
   31.9097   29.6363  108.1615 C   0  0  0  0  0  0  0  0  0  0  0  0
   33.2228   29.0794  107.8343 C   0  0  0  0  0  0  0  0  0  0  0  0
   33.3240   27.8441  107.2383 O   0  0  0  0  0  0  0  0  0  0  0  0
   30.5359   29.1891  108.0129 C   0  0  0  0  0  0  0  0  0  0  0  0
   29.7262   30.2021  108.5281 C   0  0  0  0  0  0  0  0  0  0  0  0
   30.5116   31.2351  108.9886 N   0  0  0  0  0  0  0  0  0  0  0  0
   30.0802   27.8946  107.4091 C   0  0  0  0  0  0  0  0  0  0  0  0
   29.7911   28.0976  106.0014 N   0  0  0  0  0  0  0  0  0  0  0  0
  1  2  1  0  0  0  0
  1  7  1  0  0  0  0
  2  3  1  0  0  0  0
  2  4  2  0  0  0  0
  4  5  1  0  0  0  0
  5  6  2  0  0  0  0
  5 11  1  0  0  0  0
  6  7  1  0  0  0  0
  6  9  1  0  0  0  0
  7  8  2  0  0  0  0
  9 10  2  0  0  0  0
  9 12  1  0  0  0  0
 10 11  1  0  0  0  0
 12 13  1  0  0  0  0
M  END
>  <CHROM.1>
166.00474941,-93.63738061,-89.26414180,32.20512526,29.85625455,108.11439958
-0.60579269,0.00835496,-2.59697438

>  <Name>
ligand

>  <RI>
1.99388e+07

>  <Rbt.Current_Directory>
/home/itssahil/PROJECTS/Mol_Feturizer/New_Systems/rnas/4RZD

>  <Rbt.Executable>
rbdock ($Id: //depot/dev/client3/rdock/2013.1/src/exe/rbdock.cxx#4 $)

>  <Rbt.Library>
libRbt.so (2013.1, Build901 2013/11/27)

>  <Rbt.Parameter_File>
/export/apps/rDock/src/rDock_2013.1_src/data/scripts/dock_solv.prm

>  <Rbt.Receptor>
prm/pocket_docking_2.prm

>  <SCORE>
-49.6767

>  <SCORE.INTER>
-48.8715

>  <SCORE.INTER.CONST>
1

>  <SCORE.INTER.POLAR>
-4.97717

>  <SCORE.INTER.ROT>
3

>  <SCORE.INTER.SOLV>
11.2622

>  <SCORE.INTER.VDW>
-25.3445

>  <SCORE.INTER.norm>
-3.75935

>  <SCORE.INTRA>
-0.805213

>  <SCORE.INTRA.DIHEDRAL>
-1.28825

>  <SCORE.INTRA.DIHEDRAL.0>
4.88905

>  <SCORE.INTRA.POLAR>
0

>  <SCORE.INTRA.POLAR.0>
0

>  <SCORE.INTRA.REPUL>
0

>  <SCORE.INTRA.REPUL.0>
0

>  <SCORE.INTRA.SOLV>
-0.533498

>  <SCORE.INTRA.SOLV.lig_0>
-15.1033

>  <SCORE.INTRA.VDW>
0.105663

>  <SCORE.INTRA.VDW.0>
-0.755285

>  <SCORE.INTRA.norm>
-0.0619394

>  <SCORE.RESTR>
0

>  <SCORE.RESTR.CAVITY>
0

>  <SCORE.RESTR.norm>
0

>  <SCORE.SYSTEM>
0

>  <SCORE.SYSTEM.CONST>
0

>  <SCORE.SYSTEM.DIHEDRAL>
0

>  <SCORE.SYSTEM.SOLV>
0

>  <SCORE.SYSTEM.norm>
0

>  <SCORE.heavy>
13

>  <SCORE.norm>
-3.82129

>  <RMSD>
0.549

$$$$
ligand
 OpenBabel11021811513D
libRbt.so/2013.1/901 2013/11/27
 13 14  0  0  0  0  0  0  0  0999 V2000
   34.3725   29.7844  108.1844 N   0  0  0  0  0  0  0  0  0  0  0  0
   34.2636   31.0568  108.7914 C   0  0  0  0  0  0  0  0  0  0  0  0
   35.4609   31.7944  109.1054 N   0  0  0  0  0  0  0  0  0  0  0  0
   33.0430   31.6055  109.0903 N   0  0  0  0  0  0  0  0  0  0  0  0
   31.8487   30.9305  108.8061 C   0  0  0  0  0  0  0  0  0  0  0  0
   31.9137   29.6320  108.1883 C   0  0  0  0  0  0  0  0  0  0  0  0
   33.2278   29.0669  107.8794 C   0  0  0  0  0  0  0  0  0  0  0  0
   33.3299   27.8289  107.2894 O   0  0  0  0  0  0  0  0  0  0  0  0
   30.5395   29.1914  108.0245 C   0  0  0  0  0  0  0  0  0  0  0  0
   29.7289   30.2106  108.5258 C   0  0  0  0  0  0  0  0  0  0  0  0
   30.5140   31.2412  108.9920 N   0  0  0  0  0  0  0  0  0  0  0  0
   30.0844   27.8969  107.4201 C   0  0  0  0  0  0  0  0  0  0  0  0
   29.7838   28.1032  106.0153 N   0  0  0  0  0  0  0  0  0  0  0  0
  1  2  1  0  0  0  0
  1  7  1  0  0  0  0
  2  3  1  0  0  0  0
  2  4  2  0  0  0  0
  4  5  1  0  0  0  0
  5  6  2  0  0  0  0
  5 11  1  0  0  0  0
  6  7  1  0  0  0  0
  6  9  1  0  0  0  0
  7  8  2  0  0  0  0
  9 10  2  0  0  0  0
  9 12  1  0  0  0  0
 10 11  1  0  0  0  0
 12 13  1  0  0  0  0
M  END
>  <CHROM.1>
-172.80168799,-94.95994153,-89.95070261,32.20817418,29.85079470,108.14469567
-0.60538465,0.02149650,-2.60057540

>  <Name>
ligand

>  <RI>
1.99388e+07

>  <Rbt.Current_Directory>
/home/itssahil/PROJECTS/Mol_Feturizer/New_Systems/rnas/4RZD

>  <Rbt.Executable>
rbdock ($Id: //depot/dev/client3/rdock/2013.1/src/exe/rbdock.cxx#4 $)

>  <Rbt.Library>
libRbt.so (2013.1, Build901 2013/11/27)

>  <Rbt.Parameter_File>
/export/apps/rDock/src/rDock_2013.1_src/data/scripts/dock_solv.prm

>  <Rbt.Receptor>
prm/pocket_docking_2.prm

>  <SCORE>
-49.6863

>  <SCORE.INTER>
-48.9027

>  <SCORE.INTER.CONST>
1

>  <SCORE.INTER.POLAR>
-4.97916

>  <SCORE.INTER.ROT>
3

>  <SCORE.INTER.SOLV>
11.2051

>  <SCORE.INTER.VDW>
-25.3396

>  <SCORE.INTER.norm>
-3.76175

>  <SCORE.INTRA>
-0.784944

>  <SCORE.INTRA.DIHEDRAL>
-1.24463

>  <SCORE.INTRA.DIHEDRAL.0>
4.88905

>  <SCORE.INTRA.POLAR>
0

>  <SCORE.INTRA.POLAR.0>
0

>  <SCORE.INTRA.REPUL>
0

>  <SCORE.INTRA.REPUL.0>
0

>  <SCORE.INTRA.SOLV>
-0.541454

>  <SCORE.INTRA.SOLV.lig_0>
-15.1033

>  <SCORE.INTRA.VDW>
0.108099

>  <SCORE.INTRA.VDW.0>
-0.755285

>  <SCORE.INTRA.norm>
-0.0603803

>  <SCORE.RESTR>
0.00136024

>  <SCORE.RESTR.CAVITY>
0.00136024

>  <SCORE.RESTR.norm>
0.000104634

>  <SCORE.SYSTEM>
0

>  <SCORE.SYSTEM.CONST>
0

>  <SCORE.SYSTEM.DIHEDRAL>
0

>  <SCORE.SYSTEM.SOLV>
0

>  <SCORE.SYSTEM.norm>
0

>  <SCORE.heavy>
13

>  <SCORE.norm>
-3.82202

>  <RMSD>
0.552

$$$$
ligand
 OpenBabel11021811513D
libRbt.so/2013.1/901 2013/11/27
 13 14  0  0  0  0  0  0  0  0999 V2000
   34.2655   29.7739  108.1265 N   0  0  0  0  0  0  0  0  0  0  0  0
   34.1764   31.0516  108.7255 C   0  0  0  0  0  0  0  0  0  0  0  0
   35.3841   31.7841  109.0102 N   0  0  0  0  0  0  0  0  0  0  0  0
   32.9652   31.6102  109.0439 N   0  0  0  0  0  0  0  0  0  0  0  0
   31.7615   30.9405  108.7884 C   0  0  0  0  0  0  0  0  0  0  0  0
   31.8065   29.6369  108.1797 C   0  0  0  0  0  0  0  0  0  0  0  0
   33.1108   29.0612  107.8496 C   0  0  0  0  0  0  0  0  0  0  0  0
   33.1936   27.8180  107.2675 O   0  0  0  0  0  0  0  0  0  0  0  0
   30.4266   29.2036  108.0463 C   0  0  0  0  0  0  0  0  0  0  0  0
   29.6323   30.2317  108.5554 C   0  0  0  0  0  0  0  0  0  0  0  0
   30.4327   31.2610  108.9980 N   0  0  0  0  0  0  0  0  0  0  0  0
   29.9519   27.9074  107.4611 C   0  0  0  0  0  0  0  0  0  0  0  0
   29.7712   28.0652  106.0298 N   0  0  0  0  0  0  0  0  0  0  0  0
  1  2  1  0  0  0  0
  1  7  1  0  0  0  0
  2  3  1  0  0  0  0
  2  4  2  0  0  0  0
  4  5  1  0  0  0  0
  5  6  2  0  0  0  0
  5 11  1  0  0  0  0
  6  7  1  0  0  0  0
  6  9  1  0  0  0  0
  7  8  2  0  0  0  0
  9 10  2  0  0  0  0
  9 12  1  0  0  0  0
 10 11  1  0  0  0  0
 12 13  1  0  0  0  0
M  END
>  <CHROM.1>
-12.60868333,-88.49354187,-88.85882361,32.11453900,29.85012972,108.12557142
-0.60181696,0.00452144,-2.60528066

>  <Name>
ligand

>  <RI>
1.99388e+07

>  <Rbt.Current_Directory>
/home/itssahil/PROJECTS/Mol_Feturizer/New_Systems/rnas/4RZD

>  <Rbt.Executable>
rbdock ($Id: //depot/dev/client3/rdock/2013.1/src/exe/rbdock.cxx#4 $)

>  <Rbt.Library>
libRbt.so (2013.1, Build901 2013/11/27)

>  <Rbt.Parameter_File>
/export/apps/rDock/src/rDock_2013.1_src/data/scripts/dock_solv.prm

>  <Rbt.Receptor>
prm/pocket_docking_2.prm

>  <SCORE>
-49.5601

>  <SCORE.INTER>
-48.7446

>  <SCORE.INTER.CONST>
1

>  <SCORE.INTER.POLAR>
-4.94771

>  <SCORE.INTER.ROT>
3

>  <SCORE.INTER.SOLV>
11.0721

>  <SCORE.INTER.VDW>
-25.2947

>  <SCORE.INTER.norm>
-3.74958

>  <SCORE.INTRA>
-0.815551

>  <SCORE.INTRA.DIHEDRAL>
-1.31427

>  <SCORE.INTRA.DIHEDRAL.0>
4.88905

>  <SCORE.INTRA.POLAR>
0

>  <SCORE.INTRA.POLAR.0>
0

>  <SCORE.INTRA.REPUL>
0

>  <SCORE.INTRA.REPUL.0>
0

>  <SCORE.INTRA.SOLV>
-0.479056

>  <SCORE.INTRA.SOLV.lig_0>
-15.1033

>  <SCORE.INTRA.VDW>
0.0811126

>  <SCORE.INTRA.VDW.0>
-0.755285

>  <SCORE.INTRA.norm>
-0.0627347

>  <SCORE.RESTR>
0

>  <SCORE.RESTR.CAVITY>
0

>  <SCORE.RESTR.norm>
0

>  <SCORE.SYSTEM>
0

>  <SCORE.SYSTEM.CONST>
0

>  <SCORE.SYSTEM.DIHEDRAL>
0

>  <SCORE.SYSTEM.SOLV>
0

>  <SCORE.SYSTEM.norm>
0

>  <SCORE.heavy>
13

>  <SCORE.norm>
-3.81232

>  <RMSD>
0.556

$$$$
ligand
 OpenBabel11021811513D
libRbt.so/2013.1/901 2013/11/27
 13 14  0  0  0  0  0  0  0  0999 V2000
   34.2086   29.6623  108.0372 N   0  0  0  0  0  0  0  0  0  0  0  0
   34.1390   30.8735  108.7634 C   0  0  0  0  0  0  0  0  0  0  0  0
   35.3576   31.5055  109.2014 N   0  0  0  0  0  0  0  0  0  0  0  0
   32.9366   31.4609  109.0626 N   0  0  0  0  0  0  0  0  0  0  0  0
   31.7230   30.8880  108.6606 C   0  0  0  0  0  0  0  0  0  0  0  0
   31.7480   29.6544  107.9192 C   0  0  0  0  0  0  0  0  0  0  0  0
   33.0433   29.0462  107.6124 C   0  0  0  0  0  0  0  0  0  0  0  0
   33.1071   27.8679  106.9063 O   0  0  0  0  0  0  0  0  0  0  0  0
   30.3617   29.3131  107.6525 C   0  0  0  0  0  0  0  0  0  0  0  0
   29.5837   30.3242  108.2179 C   0  0  0  0  0  0  0  0  0  0  0  0
   30.3996   31.2566  108.8187 N   0  0  0  0  0  0  0  0  0  0  0  0
   29.8676   28.1127  106.9022 C   0  0  0  0  0  0  0  0  0  0  0  0
   30.6131   26.9420  107.3263 N   0  0  0  0  0  0  0  0  0  0  0  0
  1  2  1  0  0  0  0
  1  7  1  0  0  0  0
  2  3  1  0  0  0  0
  2  4  2  0  0  0  0
  4  5  1  0  0  0  0
  5  6  2  0  0  0  0
  5 11  1  0  0  0  0
  6  7  1  0  0  0  0
  6  9  1  0  0  0  0
  7  8  2  0  0  0  0
  9 10  2  0  0  0  0
  9 12  1  0  0  0  0
 10 11  1  0  0  0  0
 12 13  1  0  0  0  0
M  END
>  <CHROM.1>
178.69079808,43.46636864,-76.53308580,32.14867376,29.71945544,108.07347238
-0.65894024,0.02858237,-2.68124018

>  <Name>
ligand

>  <RI>
2.51964e+07

>  <Rbt.Current_Directory>
/home/itssahil/PROJECTS/Mol_Feturizer/New_Systems/rnas/4RZD

>  <Rbt.Executable>
rbdock ($Id: //depot/dev/client3/rdock/2013.1/src/exe/rbdock.cxx#4 $)

>  <Rbt.Library>
libRbt.so (2013.1, Build901 2013/11/27)

>  <Rbt.Parameter_File>
/export/apps/rDock/src/rDock_2013.1_src/data/scripts/dock_solv.prm

>  <Rbt.Receptor>
prm/pocket_docking_4.prm

>  <SCORE>
-46.4128

>  <SCORE.INTER>
-44.1737

>  <SCORE.INTER.CONST>
1

>  <SCORE.INTER.POLAR>
-4.03869

>  <SCORE.INTER.ROT>
3

>  <SCORE.INTER.SOLV>
8.63218

>  <SCORE.INTER.VDW>
-24.4642

>  <SCORE.INTER.norm>
-3.39797

>  <SCORE.INTRA>
-2.23915

>  <SCORE.INTRA.DIHEDRAL>
-2.01275

>  <SCORE.INTRA.DIHEDRAL.0>
4.88905

>  <SCORE.INTRA.POLAR>
-0.425467

>  <SCORE.INTRA.POLAR.0>
0

>  <SCORE.INTRA.REPUL>
0

>  <SCORE.INTRA.REPUL.0>
0

>  <SCORE.INTRA.SOLV>
0.206736

>  <SCORE.INTRA.SOLV.lig_0>
-15.1033

>  <SCORE.INTRA.VDW>
0.110442

>  <SCORE.INTRA.VDW.0>
-0.755285

>  <SCORE.INTRA.norm>
-0.172243

>  <SCORE.RESTR>
0

>  <SCORE.RESTR.CAVITY>
0

>  <SCORE.RESTR.norm>
0

>  <SCORE.SYSTEM>
0

>  <SCORE.SYSTEM.CONST>
0

>  <SCORE.SYSTEM.DIHEDRAL>
0

>  <SCORE.SYSTEM.SOLV>
0

>  <SCORE.SYSTEM.norm>
0

>  <SCORE.heavy>
13

>  <SCORE.norm>
-3.57022

>  <RMSD>
0.585

$$$$
ligand
 OpenBabel11021811513D
libRbt.so/2013.1/901 2013/11/27
 13 14  0  0  0  0  0  0  0  0999 V2000
   34.2133   29.6762  108.0379 N   0  0  0  0  0  0  0  0  0  0  0  0
   34.1442   30.8862  108.7661 C   0  0  0  0  0  0  0  0  0  0  0  0
   35.3631   31.5180  109.2036 N   0  0  0  0  0  0  0  0  0  0  0  0
   32.9419   31.4727  109.0678 N   0  0  0  0  0  0  0  0  0  0  0  0
   31.7280   30.9000  108.6665 C   0  0  0  0  0  0  0  0  0  0  0  0
   31.7526   29.6677  107.9230 C   0  0  0  0  0  0  0  0  0  0  0  0
   33.0476   29.0604  107.6136 C   0  0  0  0  0  0  0  0  0  0  0  0
   33.1110   27.8833  106.9055 O   0  0  0  0  0  0  0  0  0  0  0  0
   30.3660   29.3263  107.6576 C   0  0  0  0  0  0  0  0  0  0  0  0
   29.5884   30.3362  108.2255 C   0  0  0  0  0  0  0  0  0  0  0  0
   30.4046   31.2680  108.8268 N   0  0  0  0  0  0  0  0  0  0  0  0
   29.8713   28.1269  106.9060 C   0  0  0  0  0  0  0  0  0  0  0  0
   30.6154   26.9552  107.3297 N   0  0  0  0  0  0  0  0  0  0  0  0
  1  2  1  0  0  0  0
  1  7  1  0  0  0  0
  2  3  1  0  0  0  0
  2  4  2  0  0  0  0
  4  5  1  0  0  0  0
  5  6  2  0  0  0  0
  5 11  1  0  0  0  0
  6  7  1  0  0  0  0
  6  9  1  0  0  0  0
  7  8  2  0  0  0  0
  9 10  2  0  0  0  0
  9 12  1  0  0  0  0
 10 11  1  0  0  0  0
 12 13  1  0  0  0  0
M  END
>  <CHROM.1>
178.67616501,43.61340284,-77.38948926,32.15307716,29.73250635,108.07713928
-0.65855947,0.02718866,-2.67989238

>  <Name>
ligand

>  <RI>
1.35221e+07

>  <Rbt.Current_Directory>
/home/itssahil/PROJECTS/Mol_Feturizer/New_Systems/rnas/4RZD

>  <Rbt.Executable>
rbdock ($Id: //depot/dev/client3/rdock/2013.1/src/exe/rbdock.cxx#4 $)

>  <Rbt.Library>
libRbt.so (2013.1, Build901 2013/11/27)

>  <Rbt.Parameter_File>
/export/apps/rDock/src/rDock_2013.1_src/data/scripts/dock_solv.prm

>  <Rbt.Receptor>
prm/pocket_docking_5.prm

>  <SCORE>
-46.4134

>  <SCORE.INTER>
-44.1767

>  <SCORE.INTER.CONST>
1

>  <SCORE.INTER.POLAR>
-4.03869

>  <SCORE.INTER.ROT>
3

>  <SCORE.INTER.SOLV>
8.66672

>  <SCORE.INTER.VDW>
-24.4777

>  <SCORE.INTER.norm>
-3.39821

>  <SCORE.INTRA>
-2.23667

>  <SCORE.INTRA.DIHEDRAL>
-1.97096

>  <SCORE.INTRA.DIHEDRAL.0>
4.88905

>  <SCORE.INTRA.POLAR>
-0.42819

>  <SCORE.INTRA.POLAR.0>
0

>  <SCORE.INTRA.REPUL>
0

>  <SCORE.INTRA.REPUL.0>
0

>  <SCORE.INTRA.SOLV>
0.203447

>  <SCORE.INTRA.SOLV.lig_0>
-15.1033

>  <SCORE.INTRA.VDW>
0.102933

>  <SCORE.INTRA.VDW.0>
-0.755285

>  <SCORE.INTRA.norm>
-0.172052

>  <SCORE.RESTR>
0

>  <SCORE.RESTR.CAVITY>
0

>  <SCORE.RESTR.norm>
0

>  <SCORE.SYSTEM>
0

>  <SCORE.SYSTEM.CONST>
0

>  <SCORE.SYSTEM.DIHEDRAL>
0

>  <SCORE.SYSTEM.SOLV>
0

>  <SCORE.SYSTEM.norm>
0

>  <SCORE.heavy>
13

>  <SCORE.norm>
-3.57026

>  <RMSD>
0.592

$$$$
ligand
 OpenBabel11021811513D
libRbt.so/2013.1/901 2013/11/27
 13 14  0  0  0  0  0  0  0  0999 V2000
   34.4814   29.8491  108.1063 N   0  0  0  0  0  0  0  0  0  0  0  0
   34.3760   31.0940  108.7683 C   0  0  0  0  0  0  0  0  0  0  0  0
   35.5753   31.8139  109.1143 N   0  0  0  0  0  0  0  0  0  0  0  0
   33.1568   31.6325  109.0908 N   0  0  0  0  0  0  0  0  0  0  0  0
   31.9607   30.9740  108.7774 C   0  0  0  0  0  0  0  0  0  0  0  0
   32.0223   29.7035  108.1034 C   0  0  0  0  0  0  0  0  0  0  0  0
   33.3348   29.1488  107.7702 C   0  0  0  0  0  0  0  0  0  0  0  0
   33.4335   27.9375  107.1266 O   0  0  0  0  0  0  0  0  0  0  0  0
   30.6468   29.2743  107.9204 C   0  0  0  0  0  0  0  0  0  0  0  0
   29.8390   30.2729  108.4658 C   0  0  0  0  0  0  0  0  0  0  0  0
   30.6269   31.2799  108.9766 N   0  0  0  0  0  0  0  0  0  0  0  0
   30.1883   28.0087  107.2600 C   0  0  0  0  0  0  0  0  0  0  0  0
   29.9593   28.2600  105.8491 N   0  0  0  0  0  0  0  0  0  0  0  0
  1  2  1  0  0  0  0
  1  7  1  0  0  0  0
  2  3  1  0  0  0  0
  2  4  2  0  0  0  0
  4  5  1  0  0  0  0
  5  6  2  0  0  0  0
  5 11  1  0  0  0  0
  6  7  1  0  0  0  0
  6  9  1  0  0  0  0
  7  8  2  0  0  0  0
  9 10  2  0  0  0  0
  9 12  1  0  0  0  0
 10 11  1  0  0  0  0
 12 13  1  0  0  0  0
M  END
>  <CHROM.1>
4.80038062,-91.83598477,-90.79981600,32.32377287,29.92168725,108.06780964
-0.60902961,0.02122703,-2.55469327

>  <Name>
ligand

>  <RI>
1.38753e+07

>  <Rbt.Current_Directory>
/home/itssahil/PROJECTS/Mol_Feturizer/New_Systems/rnas/4RZD

>  <Rbt.Executable>
rbdock ($Id: //depot/dev/client3/rdock/2013.1/src/exe/rbdock.cxx#4 $)

>  <Rbt.Library>
libRbt.so (2013.1, Build901 2013/11/27)

>  <Rbt.Parameter_File>
/export/apps/rDock/src/rDock_2013.1_src/data/scripts/dock_solv.prm

>  <Rbt.Receptor>
prm/pocket_docking_7.prm

>  <SCORE>
-50.0239

>  <SCORE.INTER>
-49.2592

>  <SCORE.INTER.CONST>
1

>  <SCORE.INTER.POLAR>
-5.0691

>  <SCORE.INTER.ROT>
3

>  <SCORE.INTER.SOLV>
11.5412

>  <SCORE.INTER.VDW>
-25.3895

>  <SCORE.INTER.norm>
-3.78917

>  <SCORE.INTRA>
-0.764761

>  <SCORE.INTRA.DIHEDRAL>
-1.19224

>  <SCORE.INTRA.DIHEDRAL.0>
4.88905

>  <SCORE.INTRA.POLAR>
0

>  <SCORE.INTRA.POLAR.0>
0

>  <SCORE.INTRA.REPUL>
0

>  <SCORE.INTRA.REPUL.0>
0

>  <SCORE.INTRA.SOLV>
-0.514839

>  <SCORE.INTRA.SOLV.lig_0>
-15.1033

>  <SCORE.INTRA.VDW>
0.0887778

>  <SCORE.INTRA.VDW.0>
-0.755285

>  <SCORE.INTRA.norm>
-0.0588277

>  <SCORE.RESTR>
0

>  <SCORE.RESTR.CAVITY>
0

>  <SCORE.RESTR.norm>
0

>  <SCORE.SYSTEM>
0

>  <SCORE.SYSTEM.CONST>
0

>  <SCORE.SYSTEM.DIHEDRAL>
0

>  <SCORE.SYSTEM.SOLV>
0

>  <SCORE.SYSTEM.norm>
0

>  <SCORE.heavy>
13

>  <SCORE.norm>
-3.84799

>  <RMSD>
0.598

$$$$
ligand
 OpenBabel11021811513D
libRbt.so/2013.1/901 2013/11/27
 13 14  0  0  0  0  0  0  0  0999 V2000
   34.4898   29.8379  108.0964 N   0  0  0  0  0  0  0  0  0  0  0  0
   34.3339   31.0986  108.7174 C   0  0  0  0  0  0  0  0  0  0  0  0
   35.5024   31.8824  109.0279 N   0  0  0  0  0  0  0  0  0  0  0  0
   33.0944   31.5929  109.0329 N   0  0  0  0  0  0  0  0  0  0  0  0
   31.9266   30.8715  108.7528 C   0  0  0  0  0  0  0  0  0  0  0  0
   32.0398   29.5830  108.1213 C   0  0  0  0  0  0  0  0  0  0  0  0
   33.3732   29.0763  107.7946 C   0  0  0  0  0  0  0  0  0  0  0  0
   33.5211   27.8494  107.1911 O   0  0  0  0  0  0  0  0  0  0  0  0
   30.6835   29.0870  107.9655 C   0  0  0  0  0  0  0  0  0  0  0  0
   29.8361   30.0665  108.4846 C   0  0  0  0  0  0  0  0  0  0  0  0
   30.5820   31.1244  108.9541 N   0  0  0  0  0  0  0  0  0  0  0  0
   30.2770   27.7806  107.3521 C   0  0  0  0  0  0  0  0  0  0  0  0
   29.3814   28.0321  106.2382 N   0  0  0  0  0  0  0  0  0  0  0  0
  1  2  1  0  0  0  0
  1  7  1  0  0  0  0
  2  3  1  0  0  0  0
  2  4  2  0  0  0  0
  4  5  1  0  0  0  0
  5  6  2  0  0  0  0
  5 11  1  0  0  0  0
  6  7  1  0  0  0  0
  6  9  1  0  0  0  0
  7  8  2  0  0  0  0
  9 10  2  0  0  0  0
  9 12  1  0  0  0  0
 10 11  1  0  0  0  0
 12 13  1  0  0  0  0
M  END
>  <CHROM.1>
-9.07927802,-122.07339158,96.41133185,32.27717451,29.82606191,108.10226385
-0.58477707,0.00198153,-2.61858495

>  <Name>
ligand

>  <RI>
1.99388e+07

>  <Rbt.Current_Directory>
/home/itssahil/PROJECTS/Mol_Feturizer/New_Systems/rnas/4RZD

>  <Rbt.Executable>
rbdock ($Id: //depot/dev/client3/rdock/2013.1/src/exe/rbdock.cxx#4 $)

>  <Rbt.Library>
libRbt.so (2013.1, Build901 2013/11/27)

>  <Rbt.Parameter_File>
/export/apps/rDock/src/rDock_2013.1_src/data/scripts/dock_solv.prm

>  <Rbt.Receptor>
prm/pocket_docking_2.prm

>  <SCORE>
-45.326

>  <SCORE.INTER>
-45.1266

>  <SCORE.INTER.CONST>
1

>  <SCORE.INTER.POLAR>
-4.34608

>  <SCORE.INTER.ROT>
3

>  <SCORE.INTER.SOLV>
11.5215

>  <SCORE.INTER.VDW>
-25.038

>  <SCORE.INTER.norm>
-3.47128

>  <SCORE.INTRA>
-0.199384

>  <SCORE.INTRA.DIHEDRAL>
-0.806476

>  <SCORE.INTRA.DIHEDRAL.0>
4.88905

>  <SCORE.INTRA.POLAR>
0

>  <SCORE.INTRA.POLAR.0>
0

>  <SCORE.INTRA.REPUL>
0

>  <SCORE.INTRA.REPUL.0>
0

>  <SCORE.INTRA.SOLV>
-0.677202

>  <SCORE.INTRA.SOLV.lig_0>
-15.1033

>  <SCORE.INTRA.VDW>
0.542454

>  <SCORE.INTRA.VDW.0>
-0.755285

>  <SCORE.INTRA.norm>
-0.0153373

>  <SCORE.RESTR>
0

>  <SCORE.RESTR.CAVITY>
0

>  <SCORE.RESTR.norm>
0

>  <SCORE.SYSTEM>
0

>  <SCORE.SYSTEM.CONST>
0

>  <SCORE.SYSTEM.DIHEDRAL>
0

>  <SCORE.SYSTEM.SOLV>
0

>  <SCORE.SYSTEM.norm>
0

>  <SCORE.heavy>
13

>  <SCORE.norm>
-3.48662

>  <RMSD>
0.601

$$$$
ligand
 OpenBabel11021811513D
libRbt.so/2013.1/901 2013/11/27
 13 14  0  0  0  0  0  0  0  0999 V2000
   34.5113   29.8248  108.1012 N   0  0  0  0  0  0  0  0  0  0  0  0
   34.3587   31.0865  108.7209 C   0  0  0  0  0  0  0  0  0  0  0  0
   35.5294   31.8672  109.0312 N   0  0  0  0  0  0  0  0  0  0  0  0
   33.1205   31.5847  109.0355 N   0  0  0  0  0  0  0  0  0  0  0  0
   31.9508   30.8664  108.7556 C   0  0  0  0  0  0  0  0  0  0  0  0
   32.0604   29.5770  108.1253 C   0  0  0  0  0  0  0  0  0  0  0  0
   33.3926   29.0661  107.7997 C   0  0  0  0  0  0  0  0  0  0  0  0
   33.5371   27.8382  107.1974 O   0  0  0  0  0  0  0  0  0  0  0  0
   30.7028   29.0848  107.9695 C   0  0  0  0  0  0  0  0  0  0  0  0
   29.8580   30.0673  108.4873 C   0  0  0  0  0  0  0  0  0  0  0  0
   30.6068   31.1234  108.9561 N   0  0  0  0  0  0  0  0  0  0  0  0
   30.2928   27.7790  107.3572 C   0  0  0  0  0  0  0  0  0  0  0  0
   29.3785   28.0308  106.2586 N   0  0  0  0  0  0  0  0  0  0  0  0
  1  2  1  0  0  0  0
  1  7  1  0  0  0  0
  2  3  1  0  0  0  0
  2  4  2  0  0  0  0
  4  5  1  0  0  0  0
  5  6  2  0  0  0  0
  5 11  1  0  0  0  0
  6  7  1  0  0  0  0
  6  9  1  0  0  0  0
  7  8  2  0  0  0  0
  9 10  2  0  0  0  0
  9 12  1  0  0  0  0
 10 11  1  0  0  0  0
 12 13  1  0  0  0  0
M  END
>  <CHROM.1>
-171.39276875,-123.13581711,98.05987325,32.29680333,29.81914832,108.10751425
-0.58087903,0.00291712,-2.61975221

>  <Name>
ligand

>  <RI>
1.99388e+07

>  <Rbt.Current_Directory>
/home/itssahil/PROJECTS/Mol_Feturizer/New_Systems/rnas/4RZD

>  <Rbt.Executable>
rbdock ($Id: //depot/dev/client3/rdock/2013.1/src/exe/rbdock.cxx#4 $)

>  <Rbt.Library>
libRbt.so (2013.1, Build901 2013/11/27)

>  <Rbt.Parameter_File>
/export/apps/rDock/src/rDock_2013.1_src/data/scripts/dock_solv.prm

>  <Rbt.Receptor>
prm/pocket_docking_2.prm

>  <SCORE>
-45.2647

>  <SCORE.INTER>
-45.15

>  <SCORE.INTER.CONST>
1

>  <SCORE.INTER.POLAR>
-4.36571

>  <SCORE.INTER.ROT>
3

>  <SCORE.INTER.SOLV>
11.4757

>  <SCORE.INTER.VDW>
-24.9729

>  <SCORE.INTER.norm>
-3.47308

>  <SCORE.INTRA>
-0.1147

>  <SCORE.INTRA.DIHEDRAL>
-0.708749

>  <SCORE.INTRA.DIHEDRAL.0>
4.88905

>  <SCORE.INTRA.POLAR>
0

>  <SCORE.INTRA.POLAR.0>
0

>  <SCORE.INTRA.REPUL>
0

>  <SCORE.INTRA.REPUL.0>
0

>  <SCORE.INTRA.SOLV>
-0.681956

>  <SCORE.INTRA.SOLV.lig_0>
-15.1033

>  <SCORE.INTRA.VDW>
0.580652

>  <SCORE.INTRA.VDW.0>
-0.755285

>  <SCORE.INTRA.norm>
-0.00882311

>  <SCORE.RESTR>
0

>  <SCORE.RESTR.CAVITY>
0

>  <SCORE.RESTR.norm>
0

>  <SCORE.SYSTEM>
0

>  <SCORE.SYSTEM.CONST>
0

>  <SCORE.SYSTEM.DIHEDRAL>
0

>  <SCORE.SYSTEM.SOLV>
0

>  <SCORE.SYSTEM.norm>
0

>  <SCORE.heavy>
13

>  <SCORE.norm>
-3.4819

>  <RMSD>
0.604

$$$$
ligand
 OpenBabel11021811513D
libRbt.so/2013.1/901 2013/11/27
 13 14  0  0  0  0  0  0  0  0999 V2000
   34.4920   29.8264  108.1119 N   0  0  0  0  0  0  0  0  0  0  0  0
   34.3927   31.0744  108.7690 C   0  0  0  0  0  0  0  0  0  0  0  0
   35.5956   31.7903  109.1110 N   0  0  0  0  0  0  0  0  0  0  0  0
   33.1763   31.6196  109.0906 N   0  0  0  0  0  0  0  0  0  0  0  0
   31.9770   30.9651  108.7810 C   0  0  0  0  0  0  0  0  0  0  0  0
   32.0322   29.6917  108.1121 C   0  0  0  0  0  0  0  0  0  0  0  0
   33.3420   29.1298  107.7797 C   0  0  0  0  0  0  0  0  0  0  0  0
   33.4346   27.9155  107.1410 O   0  0  0  0  0  0  0  0  0  0  0  0
   30.6547   29.2679  107.9321 C   0  0  0  0  0  0  0  0  0  0  0  0
   29.8519   30.2722  108.4743 C   0  0  0  0  0  0  0  0  0  0  0  0
   30.6447   31.2778  108.9803 N   0  0  0  0  0  0  0  0  0  0  0  0
   30.1898   28.0018  107.2773 C   0  0  0  0  0  0  0  0  0  0  0  0
   29.8674   28.2709  105.8881 N   0  0  0  0  0  0  0  0  0  0  0  0
  1  2  1  0  0  0  0
  1  7  1  0  0  0  0
  2  3  1  0  0  0  0
  2  4  2  0  0  0  0
  4  5  1  0  0  0  0
  5  6  2  0  0  0  0
  5 11  1  0  0  0  0
  6  7  1  0  0  0  0
  6  9  1  0  0  0  0
  7  8  2  0  0  0  0
  9 10  2  0  0  0  0
  9 12  1  0  0  0  0
 10 11  1  0  0  0  0
 12 13  1  0  0  0  0
M  END
>  <CHROM.1>
-175.88448361,-95.95463767,-92.92401256,32.32632652,29.91021053,108.07738541
-0.59720834,0.02524246,-2.56186836

>  <Name>
ligand

>  <RI>
2.73617e+07

>  <Rbt.Current_Directory>
/home/itssahil/PROJECTS/Mol_Feturizer/New_Systems/rnas/4RZD

>  <Rbt.Executable>
rbdock ($Id: //depot/dev/client3/rdock/2013.1/src/exe/rbdock.cxx#4 $)

>  <Rbt.Library>
libRbt.so (2013.1, Build901 2013/11/27)

>  <Rbt.Parameter_File>
/export/apps/rDock/src/rDock_2013.1_src/data/scripts/dock_solv.prm

>  <Rbt.Receptor>
prm/pocket_docking_6.prm

>  <SCORE>
-50.1076

>  <SCORE.INTER>
-49.4143

>  <SCORE.INTER.CONST>
1

>  <SCORE.INTER.POLAR>
-5.10012

>  <SCORE.INTER.ROT>
3

>  <SCORE.INTER.SOLV>
11.6507

>  <SCORE.INTER.VDW>
-25.426

>  <SCORE.INTER.norm>
-3.8011

>  <SCORE.INTRA>
-0.693282

>  <SCORE.INTRA.DIHEDRAL>
-1.05802

>  <SCORE.INTRA.DIHEDRAL.0>
4.88905

>  <SCORE.INTRA.POLAR>
0

>  <SCORE.INTRA.POLAR.0>
0

>  <SCORE.INTRA.REPUL>
0

>  <SCORE.INTRA.REPUL.0>
0

>  <SCORE.INTRA.SOLV>
-0.547987

>  <SCORE.INTRA.SOLV.lig_0>
-15.1033

>  <SCORE.INTRA.VDW>
0.109722

>  <SCORE.INTRA.VDW.0>
-0.755285

>  <SCORE.INTRA.norm>
-0.0533294

>  <SCORE.RESTR>
0

>  <SCORE.RESTR.CAVITY>
0

>  <SCORE.RESTR.norm>
0

>  <SCORE.SYSTEM>
0

>  <SCORE.SYSTEM.CONST>
0

>  <SCORE.SYSTEM.DIHEDRAL>
0

>  <SCORE.SYSTEM.SOLV>
0

>  <SCORE.SYSTEM.norm>
0

>  <SCORE.heavy>
13

>  <SCORE.norm>
-3.85443

>  <RMSD>
0.605

$$$$
ligand
 OpenBabel11021811513D
libRbt.so/2013.1/901 2013/11/27
 13 14  0  0  0  0  0  0  0  0999 V2000
   34.4904   29.8042  108.1100 N   0  0  0  0  0  0  0  0  0  0  0  0
   34.4022   31.0510  108.7709 C   0  0  0  0  0  0  0  0  0  0  0  0
   35.6113   31.7552  109.1151 N   0  0  0  0  0  0  0  0  0  0  0  0
   33.1906   31.6059  109.0941 N   0  0  0  0  0  0  0  0  0  0  0  0
   31.9856   30.9630  108.7825 C   0  0  0  0  0  0  0  0  0  0  0  0
   32.0296   29.6912  108.1096 C   0  0  0  0  0  0  0  0  0  0  0  0
   33.3344   29.1188  107.7756 C   0  0  0  0  0  0  0  0  0  0  0  0
   33.4164   27.9057  107.1331 O   0  0  0  0  0  0  0  0  0  0  0  0
   30.6484   29.2800  107.9284 C   0  0  0  0  0  0  0  0  0  0  0  0
   29.8544   30.2897  108.4736 C   0  0  0  0  0  0  0  0  0  0  0  0
   30.6561   31.2868  108.9827 N   0  0  0  0  0  0  0  0  0  0  0  0
   30.1725   28.0201  107.2696 C   0  0  0  0  0  0  0  0  0  0  0  0
   29.8663   28.2931  105.8775 N   0  0  0  0  0  0  0  0  0  0  0  0
  1  2  1  0  0  0  0
  1  7  1  0  0  0  0
  2  3  1  0  0  0  0
  2  4  2  0  0  0  0
  4  5  1  0  0  0  0
  5  6  2  0  0  0  0
  5 11  1  0  0  0  0
  6  7  1  0  0  0  0
  6  9  1  0  0  0  0
  7  8  2  0  0  0  0
  9 10  2  0  0  0  0
  9 12  1  0  0  0  0
 10 11  1  0  0  0  0
 12 13  1  0  0  0  0
M  END
>  <CHROM.1>
-0.22016368,-95.34314743,-93.72796264,32.32690264,29.90690227,108.07529977
-0.59116286,0.02991622,-2.55872171

>  <Name>
ligand

>  <RI>
1.38753e+07

>  <Rbt.Current_Directory>
/home/itssahil/PROJECTS/Mol_Feturizer/New_Systems/rnas/4RZD

>  <Rbt.Executable>
rbdock ($Id: //depot/dev/client3/rdock/2013.1/src/exe/rbdock.cxx#4 $)

>  <Rbt.Library>
libRbt.so (2013.1, Build901 2013/11/27)

>  <Rbt.Parameter_File>
/export/apps/rDock/src/rDock_2013.1_src/data/scripts/dock_solv.prm

>  <Rbt.Receptor>
prm/pocket_docking_7.prm

>  <SCORE>
-50.0798

>  <SCORE.INTER>
-49.4002

>  <SCORE.INTER.CONST>
1

>  <SCORE.INTER.POLAR>
-5.10591

>  <SCORE.INTER.ROT>
3

>  <SCORE.INTER.SOLV>
11.6997

>  <SCORE.INTER.VDW>
-25.4137

>  <SCORE.INTER.norm>
-3.80002

>  <SCORE.INTRA>
-0.679511

>  <SCORE.INTRA.DIHEDRAL>
-1.00854

>  <SCORE.INTRA.DIHEDRAL.0>
4.88905

>  <SCORE.INTRA.POLAR>
0

>  <SCORE.INTRA.POLAR.0>
0

>  <SCORE.INTRA.REPUL>
0

>  <SCORE.INTRA.REPUL.0>
0

>  <SCORE.INTRA.SOLV>
-0.544362

>  <SCORE.INTRA.SOLV.lig_0>
-15.1033

>  <SCORE.INTRA.VDW>
0.09694

>  <SCORE.INTRA.VDW.0>
-0.755285

>  <SCORE.INTRA.norm>
-0.0522701

>  <SCORE.RESTR>
0

>  <SCORE.RESTR.CAVITY>
0

>  <SCORE.RESTR.norm>
0

>  <SCORE.SYSTEM>
0

>  <SCORE.SYSTEM.CONST>
0

>  <SCORE.SYSTEM.DIHEDRAL>
0

>  <SCORE.SYSTEM.SOLV>
0

>  <SCORE.SYSTEM.norm>
0

>  <SCORE.heavy>
13

>  <SCORE.norm>
-3.85229

>  <RMSD>
0.608

$$$$
ligand
 OpenBabel11021811513D
libRbt.so/2013.1/901 2013/11/27
 13 14  0  0  0  0  0  0  0  0999 V2000
   34.4878   29.8303  108.1109 N   0  0  0  0  0  0  0  0  0  0  0  0
   34.3876   31.0771  108.7703 C   0  0  0  0  0  0  0  0  0  0  0  0
   35.5900   31.7927  109.1145 N   0  0  0  0  0  0  0  0  0  0  0  0
   33.1708   31.6213  109.0919 N   0  0  0  0  0  0  0  0  0  0  0  0
   31.9720   30.9670  108.7800 C   0  0  0  0  0  0  0  0  0  0  0  0
   32.0281   29.6949  108.1088 C   0  0  0  0  0  0  0  0  0  0  0  0
   33.3383   29.1341  107.7765 C   0  0  0  0  0  0  0  0  0  0  0  0
   33.4319   27.9209  107.1355 O   0  0  0  0  0  0  0  0  0  0  0  0
   30.6508   29.2710  107.9269 C   0  0  0  0  0  0  0  0  0  0  0  0
   29.8473   30.2740  108.4703 C   0  0  0  0  0  0  0  0  0  0  0  0
   30.6394   31.2789  108.9788 N   0  0  0  0  0  0  0  0  0  0  0  0
   30.1870   28.0059  107.2693 C   0  0  0  0  0  0  0  0  0  0  0  0
   29.8425   28.2826  105.8869 N   0  0  0  0  0  0  0  0  0  0  0  0
  1  2  1  0  0  0  0
  1  7  1  0  0  0  0
  2  3  1  0  0  0  0
  2  4  2  0  0  0  0
  4  5  1  0  0  0  0
  5  6  2  0  0  0  0
  5 11  1  0  0  0  0
  6  7  1  0  0  0  0
  6  9  1  0  0  0  0
  7  8  2  0  0  0  0
  9 10  2  0  0  0  0
  9 12  1  0  0  0  0
 10 11  1  0  0  0  0
 12 13  1  0  0  0  0
M  END
>  <CHROM.1>
6.42199572,-96.98142186,-93.85860754,32.32009738,29.91398275,108.07539714
-0.59622309,0.02618578,-2.56064904

>  <Name>
ligand

>  <RI>
4.18181e+07

>  <Rbt.Current_Directory>
/home/itssahil/PROJECTS/Mol_Feturizer/New_Systems/rnas/4RZD

>  <Rbt.Executable>
rbdock ($Id: //depot/dev/client3/rdock/2013.1/src/exe/rbdock.cxx#4 $)

>  <Rbt.Library>
libRbt.so (2013.1, Build901 2013/11/27)

>  <Rbt.Parameter_File>
/export/apps/rDock/src/rDock_2013.1_src/data/scripts/dock_solv.prm

>  <Rbt.Receptor>
prm/pocket_docking_3.prm

>  <SCORE>
-50.1141

>  <SCORE.INTER>
-49.4492

>  <SCORE.INTER.CONST>
1

>  <SCORE.INTER.POLAR>
-5.1136

>  <SCORE.INTER.ROT>
3

>  <SCORE.INTER.SOLV>
11.7146

>  <SCORE.INTER.VDW>
-25.4257

>  <SCORE.INTER.norm>
-3.80378

>  <SCORE.INTRA>
-0.664952

>  <SCORE.INTRA.DIHEDRAL>
-0.999631

>  <SCORE.INTRA.DIHEDRAL.0>
4.88905

>  <SCORE.INTRA.POLAR>
0

>  <SCORE.INTRA.POLAR.0>
0

>  <SCORE.INTRA.REPUL>
0

>  <SCORE.INTRA.REPUL.0>
0

>  <SCORE.INTRA.SOLV>
-0.554665

>  <SCORE.INTRA.SOLV.lig_0>
-15.1033

>  <SCORE.INTRA.VDW>
0.112196

>  <SCORE.INTRA.VDW.0>
-0.755285

>  <SCORE.INTRA.norm>
-0.0511502

>  <SCORE.RESTR>
0

>  <SCORE.RESTR.CAVITY>
0

>  <SCORE.RESTR.norm>
0

>  <SCORE.SYSTEM>
0

>  <SCORE.SYSTEM.CONST>
0

>  <SCORE.SYSTEM.DIHEDRAL>
0

>  <SCORE.SYSTEM.SOLV>
0

>  <SCORE.SYSTEM.norm>
0

>  <SCORE.heavy>
13

>  <SCORE.norm>
-3.85493

>  <RMSD>
0.610

$$$$
ligand
 OpenBabel11021811513D
libRbt.so/2013.1/901 2013/11/27
 13 14  0  0  0  0  0  0  0  0999 V2000
   34.4829   29.8420  108.1039 N   0  0  0  0  0  0  0  0  0  0  0  0
   34.3825   31.0869  108.7667 C   0  0  0  0  0  0  0  0  0  0  0  0
   35.5847   31.8023  109.1118 N   0  0  0  0  0  0  0  0  0  0  0  0
   33.1656   31.6295  109.0908 N   0  0  0  0  0  0  0  0  0  0  0  0
   31.9669   30.9753  108.7782 C   0  0  0  0  0  0  0  0  0  0  0  0
   32.0232   29.7050  108.1035 C   0  0  0  0  0  0  0  0  0  0  0  0
   33.3335   29.1459  107.7686 C   0  0  0  0  0  0  0  0  0  0  0  0
   33.4273   27.9345  107.1243 O   0  0  0  0  0  0  0  0  0  0  0  0
   30.6461   29.2807  107.9217 C   0  0  0  0  0  0  0  0  0  0  0  0
   29.8424   30.2818  108.4685 C   0  0  0  0  0  0  0  0  0  0  0  0
   30.6343   31.2858  108.9790 N   0  0  0  0  0  0  0  0  0  0  0  0
   30.1824   28.0171  107.2611 C   0  0  0  0  0  0  0  0  0  0  0  0
   29.8566   28.2929  105.8741 N   0  0  0  0  0  0  0  0  0  0  0  0
  1  2  1  0  0  0  0
  1  7  1  0  0  0  0
  2  3  1  0  0  0  0
  2  4  2  0  0  0  0
  4  5  1  0  0  0  0
  5  6  2  0  0  0  0
  5 11  1  0  0  0  0
  6  7  1  0  0  0  0
  6  9  1  0  0  0  0
  7  8  2  0  0  0  0
  9 10  2  0  0  0  0
  9 12  1  0  0  0  0
 10 11  1  0  0  0  0
 12 13  1  0  0  0  0
M  END
>  <CHROM.1>
-3.66077365,-96.09179327,-93.22852217,32.31686283,29.92399800,108.06994180
-0.59780758,0.02506574,-2.55786250

>  <Name>
ligand

>  <RI>
4.18181e+07

>  <Rbt.Current_Directory>
/home/itssahil/PROJECTS/Mol_Feturizer/New_Systems/rnas/4RZD

>  <Rbt.Executable>
rbdock ($Id: //depot/dev/client3/rdock/2013.1/src/exe/rbdock.cxx#4 $)

>  <Rbt.Library>
libRbt.so (2013.1, Build901 2013/11/27)

>  <Rbt.Parameter_File>
/export/apps/rDock/src/rDock_2013.1_src/data/scripts/dock_solv.prm

>  <Rbt.Receptor>
prm/pocket_docking_3.prm

>  <SCORE>
-50.1435

>  <SCORE.INTER>
-49.4595

>  <SCORE.INTER.CONST>
1

>  <SCORE.INTER.POLAR>
-5.10835

>  <SCORE.INTER.ROT>
3

>  <SCORE.INTER.SOLV>
11.7535

>  <SCORE.INTER.VDW>
-25.463

>  <SCORE.INTER.norm>
-3.80458

>  <SCORE.INTRA>
-0.683943

>  <SCORE.INTRA.DIHEDRAL>
-1.03905

>  <SCORE.INTRA.DIHEDRAL.0>
4.88905

>  <SCORE.INTRA.POLAR>
0

>  <SCORE.INTRA.POLAR.0>
0

>  <SCORE.INTRA.REPUL>
0

>  <SCORE.INTRA.REPUL.0>
0

>  <SCORE.INTRA.SOLV>
-0.548984

>  <SCORE.INTRA.SOLV.lig_0>
-15.1033

>  <SCORE.INTRA.VDW>
0.110076

>  <SCORE.INTRA.VDW.0>
-0.755285

>  <SCORE.INTRA.norm>
-0.052611

>  <SCORE.RESTR>
0

>  <SCORE.RESTR.CAVITY>
0

>  <SCORE.RESTR.norm>
0

>  <SCORE.SYSTEM>
0

>  <SCORE.SYSTEM.CONST>
0

>  <SCORE.SYSTEM.DIHEDRAL>
0

>  <SCORE.SYSTEM.SOLV>
0

>  <SCORE.SYSTEM.norm>
0

>  <SCORE.heavy>
13

>  <SCORE.norm>
-3.85719

>  <RMSD>
0.615

$$$$
ligand
 OpenBabel11021811513D
libRbt.so/2013.1/901 2013/11/27
 13 14  0  0  0  0  0  0  0  0999 V2000
   34.4900   29.8564  108.1043 N   0  0  0  0  0  0  0  0  0  0  0  0
   34.3811   31.1015  108.7654 C   0  0  0  0  0  0  0  0  0  0  0  0
   35.5784   31.8257  109.1095 N   0  0  0  0  0  0  0  0  0  0  0  0
   33.1605   31.6363  109.0887 N   0  0  0  0  0  0  0  0  0  0  0  0
   31.9663   30.9735  108.7771 C   0  0  0  0  0  0  0  0  0  0  0  0
   32.0313   29.7027  108.1042 C   0  0  0  0  0  0  0  0  0  0  0  0
   33.3454   29.1520  107.7700 C   0  0  0  0  0  0  0  0  0  0  0  0
   33.4474   27.9405  107.1274 O   0  0  0  0  0  0  0  0  0  0  0  0
   30.6571   29.2688  107.9230 C   0  0  0  0  0  0  0  0  0  0  0  0
   29.8466   30.2651  108.4684 C   0  0  0  0  0  0  0  0  0  0  0  0
   30.6317   31.2752  108.9775 N   0  0  0  0  0  0  0  0  0  0  0  0
   30.2020   28.0011  107.2642 C   0  0  0  0  0  0  0  0  0  0  0  0
   29.8419   28.2796  105.8862 N   0  0  0  0  0  0  0  0  0  0  0  0
  1  2  1  0  0  0  0
  1  7  1  0  0  0  0
  2  3  1  0  0  0  0
  2  4  2  0  0  0  0
  4  5  1  0  0  0  0
  5  6  2  0  0  0  0
  5 11  1  0  0  0  0
  6  7  1  0  0  0  0
  6  9  1  0  0  0  0
  7  8  2  0  0  0  0
  9 10  2  0  0  0  0
  9 12  1  0  0  0  0
 10 11  1  0  0  0  0
 12 13  1  0  0  0  0
M  END
>  <CHROM.1>
-3.73528552,-97.53315038,-93.55117467,32.32050733,29.92422597,108.07119920
-0.60085364,0.02208237,-2.56034198

>  <Name>
ligand

>  <RI>
2.51964e+07

>  <Rbt.Current_Directory>
/home/itssahil/PROJECTS/Mol_Feturizer/New_Systems/rnas/4RZD

>  <Rbt.Executable>
rbdock ($Id: //depot/dev/client3/rdock/2013.1/src/exe/rbdock.cxx#4 $)

>  <Rbt.Library>
libRbt.so (2013.1, Build901 2013/11/27)

>  <Rbt.Parameter_File>
/export/apps/rDock/src/rDock_2013.1_src/data/scripts/dock_solv.prm

>  <Rbt.Receptor>
prm/pocket_docking_4.prm

>  <SCORE>
-50.1263

>  <SCORE.INTER>
-49.4516

>  <SCORE.INTER.CONST>
1

>  <SCORE.INTER.POLAR>
-5.11333

>  <SCORE.INTER.ROT>
3

>  <SCORE.INTER.SOLV>
11.7578

>  <SCORE.INTER.VDW>
-25.4426

>  <SCORE.INTER.norm>
-3.80397

>  <SCORE.INTRA>
-0.674661

>  <SCORE.INTRA.DIHEDRAL>
-1.01826

>  <SCORE.INTRA.DIHEDRAL.0>
4.88905

>  <SCORE.INTRA.POLAR>
0

>  <SCORE.INTRA.POLAR.0>
0

>  <SCORE.INTRA.REPUL>
0

>  <SCORE.INTRA.REPUL.0>
0

>  <SCORE.INTRA.SOLV>
-0.55792

>  <SCORE.INTRA.SOLV.lig_0>
-15.1033

>  <SCORE.INTRA.VDW>
0.11343

>  <SCORE.INTRA.VDW.0>
-0.755285

>  <SCORE.INTRA.norm>
-0.051897

>  <SCORE.RESTR>
0

>  <SCORE.RESTR.CAVITY>
0

>  <SCORE.RESTR.norm>
0

>  <SCORE.SYSTEM>
0

>  <SCORE.SYSTEM.CONST>
0

>  <SCORE.SYSTEM.DIHEDRAL>
0

>  <SCORE.SYSTEM.SOLV>
0

>  <SCORE.SYSTEM.norm>
0

>  <SCORE.heavy>
13

>  <SCORE.norm>
-3.85587

>  <RMSD>
0.615

$$$$
ligand
 OpenBabel11021811513D
libRbt.so/2013.1/901 2013/11/27
 13 14  0  0  0  0  0  0  0  0999 V2000
   34.4831   29.8516  108.1047 N   0  0  0  0  0  0  0  0  0  0  0  0
   34.3777   31.0982  108.7636 C   0  0  0  0  0  0  0  0  0  0  0  0
   35.5770   31.8204  109.1048 N   0  0  0  0  0  0  0  0  0  0  0  0
   33.1587   31.6361  109.0874 N   0  0  0  0  0  0  0  0  0  0  0  0
   31.9627   30.9752  108.7786 C   0  0  0  0  0  0  0  0  0  0  0  0
   32.0242   29.7030  108.1080 C   0  0  0  0  0  0  0  0  0  0  0  0
   33.3367   29.1490  107.7732 C   0  0  0  0  0  0  0  0  0  0  0  0
   33.4353   27.9360  107.1327 O   0  0  0  0  0  0  0  0  0  0  0  0
   30.6488   29.2716  107.9293 C   0  0  0  0  0  0  0  0  0  0  0  0
   29.8411   30.2707  108.4738 C   0  0  0  0  0  0  0  0  0  0  0  0
   30.6289   31.2801  108.9801 N   0  0  0  0  0  0  0  0  0  0  0  0
   30.1903   28.0037  107.2735 C   0  0  0  0  0  0  0  0  0  0  0  0
   29.8392   28.2781  105.8923 N   0  0  0  0  0  0  0  0  0  0  0  0
  1  2  1  0  0  0  0
  1  7  1  0  0  0  0
  2  3  1  0  0  0  0
  2  4  2  0  0  0  0
  4  5  1  0  0  0  0
  5  6  2  0  0  0  0
  5 11  1  0  0  0  0
  6  7  1  0  0  0  0
  6  9  1  0  0  0  0
  7  8  2  0  0  0  0
  9 10  2  0  0  0  0
  9 12  1  0  0  0  0
 10 11  1  0  0  0  0
 12 13  1  0  0  0  0
M  END
>  <CHROM.1>
-175.32234874,-97.08025335,-93.72753426,32.31477181,29.92360720,108.07384668
-0.59920466,0.02156406,-2.56136000

>  <Name>
ligand

>  <RI>
2.51964e+07

>  <Rbt.Current_Directory>
/home/itssahil/PROJECTS/Mol_Feturizer/New_Systems/rnas/4RZD

>  <Rbt.Executable>
rbdock ($Id: //depot/dev/client3/rdock/2013.1/src/exe/rbdock.cxx#4 $)

>  <Rbt.Library>
libRbt.so (2013.1, Build901 2013/11/27)

>  <Rbt.Parameter_File>
/export/apps/rDock/src/rDock_2013.1_src/data/scripts/dock_solv.prm

>  <Rbt.Receptor>
prm/pocket_docking_4.prm

>  <SCORE>
-50.1105

>  <SCORE.INTER>
-49.4414

>  <SCORE.INTER.CONST>
1

>  <SCORE.INTER.POLAR>
-5.11061

>  <SCORE.INTER.ROT>
3

>  <SCORE.INTER.SOLV>
11.7217

>  <SCORE.INTER.VDW>
-25.4328

>  <SCORE.INTER.norm>
-3.80318

>  <SCORE.INTRA>
-0.669071

>  <SCORE.INTRA.DIHEDRAL>
-1.00766

>  <SCORE.INTRA.DIHEDRAL.0>
4.88905

>  <SCORE.INTRA.POLAR>
0

>  <SCORE.INTRA.POLAR.0>
0

>  <SCORE.INTRA.REPUL>
0

>  <SCORE.INTRA.REPUL.0>
0

>  <SCORE.INTRA.SOLV>
-0.555079

>  <SCORE.INTRA.SOLV.lig_0>
-15.1033

>  <SCORE.INTRA.VDW>
0.112296

>  <SCORE.INTRA.VDW.0>
-0.755285

>  <SCORE.INTRA.norm>
-0.051467

>  <SCORE.RESTR>
0

>  <SCORE.RESTR.CAVITY>
0

>  <SCORE.RESTR.norm>
0

>  <SCORE.SYSTEM>
0

>  <SCORE.SYSTEM.CONST>
0

>  <SCORE.SYSTEM.DIHEDRAL>
0

>  <SCORE.SYSTEM.SOLV>
0

>  <SCORE.SYSTEM.norm>
0

>  <SCORE.heavy>
13

>  <SCORE.norm>
-3.85465

>  <RMSD>
0.615

$$$$
ligand
 OpenBabel11021811513D
libRbt.so/2013.1/901 2013/11/27
 13 14  0  0  0  0  0  0  0  0999 V2000
   34.4794   29.8512  108.1415 N   0  0  0  0  0  0  0  0  0  0  0  0
   34.3690   31.0962  108.8025 C   0  0  0  0  0  0  0  0  0  0  0  0
   35.5657   31.8159  109.1578 N   0  0  0  0  0  0  0  0  0  0  0  0
   33.1475   31.6349  109.1155 N   0  0  0  0  0  0  0  0  0  0  0  0
   31.9538   30.9765  108.7928 C   0  0  0  0  0  0  0  0  0  0  0  0
   32.0203   29.7060  108.1195 C   0  0  0  0  0  0  0  0  0  0  0  0
   33.3354   29.1510  107.7966 C   0  0  0  0  0  0  0  0  0  0  0  0
   33.4389   27.9396  107.1540 O   0  0  0  0  0  0  0  0  0  0  0  0
   30.6463   29.2769  107.9259 C   0  0  0  0  0  0  0  0  0  0  0  0
   29.8344   30.2757  108.4648 C   0  0  0  0  0  0  0  0  0  0  0  0
   30.6185   31.2827  108.9816 N   0  0  0  0  0  0  0  0  0  0  0  0
   30.1927   28.0113  107.2621 C   0  0  0  0  0  0  0  0  0  0  0  0
   29.8665   28.2877  105.8752 N   0  0  0  0  0  0  0  0  0  0  0  0
  1  2  1  0  0  0  0
  1  7  1  0  0  0  0
  2  3  1  0  0  0  0
  2  4  2  0  0  0  0
  4  5  1  0  0  0  0
  5  6  2  0  0  0  0
  5 11  1  0  0  0  0
  6  7  1  0  0  0  0
  6  9  1  0  0  0  0
  7  8  2  0  0  0  0
  9 10  2  0  0  0  0
  9 12  1  0  0  0  0
 10 11  1  0  0  0  0
 12 13  1  0  0  0  0
M  END
>  <CHROM.1>
6.34642522,-96.60936457,-92.66394159,32.31240399,29.92617172,108.08872165
-0.60452758,0.03050687,-2.55819397

>  <Name>
ligand

>  <RI>
2.51964e+07

>  <Rbt.Current_Directory>
/home/itssahil/PROJECTS/Mol_Feturizer/New_Systems/rnas/4RZD

>  <Rbt.Executable>
rbdock ($Id: //depot/dev/client3/rdock/2013.1/src/exe/rbdock.cxx#4 $)

>  <Rbt.Library>
libRbt.so (2013.1, Build901 2013/11/27)

>  <Rbt.Parameter_File>
/export/apps/rDock/src/rDock_2013.1_src/data/scripts/dock_solv.prm

>  <Rbt.Receptor>
prm/pocket_docking_4.prm

>  <SCORE>
-50.0662

>  <SCORE.INTER>
-49.3646

>  <SCORE.INTER.CONST>
1

>  <SCORE.INTER.POLAR>
-5.10656

>  <SCORE.INTER.ROT>
3

>  <SCORE.INTER.SOLV>
11.7073

>  <SCORE.INTER.VDW>
-25.3903

>  <SCORE.INTER.norm>
-3.79728

>  <SCORE.INTRA>
-0.701556

>  <SCORE.INTRA.DIHEDRAL>
-1.07384

>  <SCORE.INTRA.DIHEDRAL.0>
4.88905

>  <SCORE.INTRA.POLAR>
0

>  <SCORE.INTRA.POLAR.0>
0

>  <SCORE.INTRA.REPUL>
0

>  <SCORE.INTRA.REPUL.0>
0

>  <SCORE.INTRA.SOLV>
-0.552188

>  <SCORE.INTRA.SOLV.lig_0>
-15.1033

>  <SCORE.INTRA.VDW>
0.111459

>  <SCORE.INTRA.VDW.0>
-0.755285

>  <SCORE.INTRA.norm>
-0.0539658

>  <SCORE.RESTR>
0

>  <SCORE.RESTR.CAVITY>
0

>  <SCORE.RESTR.norm>
0

>  <SCORE.SYSTEM>
0

>  <SCORE.SYSTEM.CONST>
0

>  <SCORE.SYSTEM.DIHEDRAL>
0

>  <SCORE.SYSTEM.SOLV>
0

>  <SCORE.SYSTEM.norm>
0

>  <SCORE.heavy>
13

>  <SCORE.norm>
-3.85124

>  <RMSD>
0.615

$$$$
ligand
 OpenBabel11021811513D
libRbt.so/2013.1/901 2013/11/27
 13 14  0  0  0  0  0  0  0  0999 V2000
   34.4874   29.8449  108.1095 N   0  0  0  0  0  0  0  0  0  0  0  0
   34.3865   31.0923  108.7676 C   0  0  0  0  0  0  0  0  0  0  0  0
   35.5884   31.8102  109.1088 N   0  0  0  0  0  0  0  0  0  0  0  0
   33.1694   31.6350  109.0907 N   0  0  0  0  0  0  0  0  0  0  0  0
   31.9710   30.9785  108.7818 C   0  0  0  0  0  0  0  0  0  0  0  0
   32.0279   29.7057  108.1120 C   0  0  0  0  0  0  0  0  0  0  0  0
   33.3384   29.1465  107.7780 C   0  0  0  0  0  0  0  0  0  0  0  0
   33.4327   27.9327  107.1384 O   0  0  0  0  0  0  0  0  0  0  0  0
   30.6510   29.2794  107.9331 C   0  0  0  0  0  0  0  0  0  0  0  0
   29.8469   30.2819  108.4767 C   0  0  0  0  0  0  0  0  0  0  0  0
   30.6383   31.2886  108.9826 N   0  0  0  0  0  0  0  0  0  0  0  0
   30.1879   28.0128  107.2779 C   0  0  0  0  0  0  0  0  0  0  0  0
   29.8653   28.2819  105.8887 N   0  0  0  0  0  0  0  0  0  0  0  0
  1  2  1  0  0  0  0
  1  7  1  0  0  0  0
  2  3  1  0  0  0  0
  2  4  2  0  0  0  0
  4  5  1  0  0  0  0
  5  6  2  0  0  0  0
  5 11  1  0  0  0  0
  6  7  1  0  0  0  0
  6  9  1  0  0  0  0
  7  8  2  0  0  0  0
  9 10  2  0  0  0  0
  9 12  1  0  0  0  0
 10 11  1  0  0  0  0
 12 13  1  0  0  0  0
M  END
>  <CHROM.1>
-176.91823813,-95.87908596,-92.89209420,32.32174941,29.92470345,108.07714728
-0.59836652,0.02340581,-2.56117764

>  <Name>
ligand

>  <RI>
1.0531e+07

>  <Rbt.Current_Directory>
/home/itssahil/PROJECTS/Mol_Feturizer/New_Systems/rnas/4RZD

>  <Rbt.Executable>
rbdock ($Id: //depot/dev/client3/rdock/2013.1/src/exe/rbdock.cxx#4 $)

>  <Rbt.Library>
libRbt.so (2013.1, Build901 2013/11/27)

>  <Rbt.Parameter_File>
/export/apps/rDock/src/rDock_2013.1_src/data/scripts/dock_solv.prm

>  <Rbt.Receptor>
prm/pocket_docking_8.prm

>  <SCORE>
-50.1284

>  <SCORE.INTER>
-49.4341

>  <SCORE.INTER.CONST>
1

>  <SCORE.INTER.POLAR>
-5.09919

>  <SCORE.INTER.ROT>
3

>  <SCORE.INTER.SOLV>
11.6809

>  <SCORE.INTER.VDW>
-25.4524

>  <SCORE.INTER.norm>
-3.80263

>  <SCORE.INTRA>
-0.694243

>  <SCORE.INTRA.DIHEDRAL>
-1.06004

>  <SCORE.INTRA.DIHEDRAL.0>
4.88905

>  <SCORE.INTRA.POLAR>
0

>  <SCORE.INTRA.POLAR.0>
0

>  <SCORE.INTRA.REPUL>
0

>  <SCORE.INTRA.REPUL.0>
0

>  <SCORE.INTRA.SOLV>
-0.547488

>  <SCORE.INTRA.SOLV.lig_0>
-15.1033

>  <SCORE.INTRA.VDW>
0.109523

>  <SCORE.INTRA.VDW.0>
-0.755285

>  <SCORE.INTRA.norm>
-0.0534033

>  <SCORE.RESTR>
0

>  <SCORE.RESTR.CAVITY>
0

>  <SCORE.RESTR.norm>
0

>  <SCORE.SYSTEM>
0

>  <SCORE.SYSTEM.CONST>
0

>  <SCORE.SYSTEM.DIHEDRAL>
0

>  <SCORE.SYSTEM.SOLV>
0

>  <SCORE.SYSTEM.norm>
0

>  <SCORE.heavy>
13

>  <SCORE.norm>
-3.85603

>  <RMSD>
0.615

$$$$
ligand
 OpenBabel11021811513D
libRbt.so/2013.1/901 2013/11/27
 13 14  0  0  0  0  0  0  0  0999 V2000
   34.4949   29.8157  108.1455 N   0  0  0  0  0  0  0  0  0  0  0  0
   34.3951   31.0608  108.8080 C   0  0  0  0  0  0  0  0  0  0  0  0
   35.5979   31.7690  109.1658 N   0  0  0  0  0  0  0  0  0  0  0  0
   33.1782   31.6105  109.1198 N   0  0  0  0  0  0  0  0  0  0  0  0
   31.9789   30.9636  108.7946 C   0  0  0  0  0  0  0  0  0  0  0  0
   32.0346   29.6933  108.1198 C   0  0  0  0  0  0  0  0  0  0  0  0
   33.3449   29.1266  107.7980 C   0  0  0  0  0  0  0  0  0  0  0  0
   33.4381   27.9151  107.1540 O   0  0  0  0  0  0  0  0  0  0  0  0
   30.6569   29.2773  107.9236 C   0  0  0  0  0  0  0  0  0  0  0  0
   29.8536   30.2829  108.4626 C   0  0  0  0  0  0  0  0  0  0  0  0
   30.6462   31.2819  108.9819 N   0  0  0  0  0  0  0  0  0  0  0  0
   30.1926   28.0168  107.2576 C   0  0  0  0  0  0  0  0  0  0  0  0
   29.8377   28.3051  105.8802 N   0  0  0  0  0  0  0  0  0  0  0  0
  1  2  1  0  0  0  0
  1  7  1  0  0  0  0
  2  3  1  0  0  0  0
  2  4  2  0  0  0  0
  4  5  1  0  0  0  0
  5  6  2  0  0  0  0
  5 11  1  0  0  0  0
  6  7  1  0  0  0  0
  6  9  1  0  0  0  0
  7  8  2  0  0  0  0
  9 10  2  0  0  0  0
  9 12  1  0  0  0  0
 10 11  1  0  0  0  0
 12 13  1  0  0  0  0
M  END
>  <CHROM.1>
-7.55224008,-98.08980105,-94.41496256,32.32585853,29.91140022,108.09055848
-0.59487884,0.03808295,-2.55917167

>  <Name>
ligand

>  <RI>
2.73617e+07

>  <Rbt.Current_Directory>
/home/itssahil/PROJECTS/Mol_Feturizer/New_Systems/rnas/4RZD

>  <Rbt.Executable>
rbdock ($Id: //depot/dev/client3/rdock/2013.1/src/exe/rbdock.cxx#4 $)

>  <Rbt.Library>
libRbt.so (2013.1, Build901 2013/11/27)

>  <Rbt.Parameter_File>
/export/apps/rDock/src/rDock_2013.1_src/data/scripts/dock_solv.prm

>  <Rbt.Receptor>
prm/pocket_docking_6.prm

>  <SCORE>
-50.0368

>  <SCORE.INTER>
-49.3884

>  <SCORE.INTER.CONST>
1

>  <SCORE.INTER.POLAR>
-5.12635

>  <SCORE.INTER.ROT>
3

>  <SCORE.INTER.SOLV>
11.7958

>  <SCORE.INTER.VDW>
-25.3697

>  <SCORE.INTER.norm>
-3.79911

>  <SCORE.INTRA>
-0.64838

>  <SCORE.INTRA.DIHEDRAL>
-0.964773

>  <SCORE.INTRA.DIHEDRAL.0>
4.88905

>  <SCORE.INTRA.POLAR>
0

>  <SCORE.INTRA.POLAR.0>
0

>  <SCORE.INTRA.REPUL>
0

>  <SCORE.INTRA.REPUL.0>
0

>  <SCORE.INTRA.SOLV>
-0.561592

>  <SCORE.INTRA.SOLV.lig_0>
-15.1033

>  <SCORE.INTRA.VDW>
0.114802

>  <SCORE.INTRA.VDW.0>
-0.755285

>  <SCORE.INTRA.norm>
-0.0498754

>  <SCORE.RESTR>
0

>  <SCORE.RESTR.CAVITY>
0

>  <SCORE.RESTR.norm>
0

>  <SCORE.SYSTEM>
0

>  <SCORE.SYSTEM.CONST>
0

>  <SCORE.SYSTEM.DIHEDRAL>
0

>  <SCORE.SYSTEM.SOLV>
0

>  <SCORE.SYSTEM.norm>
0

>  <SCORE.heavy>
13

>  <SCORE.norm>
-3.84899

>  <RMSD>
0.616

$$$$
ligand
 OpenBabel11021811513D
libRbt.so/2013.1/901 2013/11/27
 13 14  0  0  0  0  0  0  0  0999 V2000
   34.4864   29.8438  108.1128 N   0  0  0  0  0  0  0  0  0  0  0  0
   34.3848   31.0902  108.7727 C   0  0  0  0  0  0  0  0  0  0  0  0
   35.5862   31.8073  109.1170 N   0  0  0  0  0  0  0  0  0  0  0  0
   33.1673   31.6327  109.0948 N   0  0  0  0  0  0  0  0  0  0  0  0
   31.9692   30.9769  108.7829 C   0  0  0  0  0  0  0  0  0  0  0  0
   32.0269   29.7052  108.1111 C   0  0  0  0  0  0  0  0  0  0  0  0
   33.3378   29.1462  107.7783 C   0  0  0  0  0  0  0  0  0  0  0  0
   33.4328   27.9335  107.1368 O   0  0  0  0  0  0  0  0  0  0  0  0
   30.6502   29.2795  107.9294 C   0  0  0  0  0  0  0  0  0  0  0  0
   29.8454   30.2812  108.4734 C   0  0  0  0  0  0  0  0  0  0  0  0
   30.6363   31.2870  108.9822 N   0  0  0  0  0  0  0  0  0  0  0  0
   30.1878   28.0141  107.2714 C   0  0  0  0  0  0  0  0  0  0  0  0
   29.8483   28.2897  105.8875 N   0  0  0  0  0  0  0  0  0  0  0  0
  1  2  1  0  0  0  0
  1  7  1  0  0  0  0
  2  3  1  0  0  0  0
  2  4  2  0  0  0  0
  4  5  1  0  0  0  0
  5  6  2  0  0  0  0
  5 11  1  0  0  0  0
  6  7  1  0  0  0  0
  6  9  1  0  0  0  0
  7  8  2  0  0  0  0
  9 10  2  0  0  0  0
  9 12  1  0  0  0  0
 10 11  1  0  0  0  0
 12 13  1  0  0  0  0
M  END
>  <CHROM.1>
173.94262798,-96.73211324,-93.43773934,32.31914170,29.92450704,108.07761431
-0.59746221,0.02566070,-2.56074802

>  <Name>
ligand

>  <RI>
2.51964e+07

>  <Rbt.Current_Directory>
/home/itssahil/PROJECTS/Mol_Feturizer/New_Systems/rnas/4RZD

>  <Rbt.Executable>
rbdock ($Id: //depot/dev/client3/rdock/2013.1/src/exe/rbdock.cxx#4 $)

>  <Rbt.Library>
libRbt.so (2013.1, Build901 2013/11/27)

>  <Rbt.Parameter_File>
/export/apps/rDock/src/rDock_2013.1_src/data/scripts/dock_solv.prm

>  <Rbt.Receptor>
prm/pocket_docking_4.prm

>  <SCORE>
-50.1521

>  <SCORE.INTER>
-49.4743

>  <SCORE.INTER.CONST>
1

>  <SCORE.INTER.POLAR>
-5.10719

>  <SCORE.INTER.ROT>
3

>  <SCORE.INTER.SOLV>
11.75

>  <SCORE.INTER.VDW>
-25.4755

>  <SCORE.INTER.norm>
-3.80571

>  <SCORE.INTRA>
-0.677792

>  <SCORE.INTRA.DIHEDRAL>
-1.02576

>  <SCORE.INTRA.DIHEDRAL.0>
4.88905

>  <SCORE.INTRA.POLAR>
0

>  <SCORE.INTRA.POLAR.0>
0

>  <SCORE.INTRA.REPUL>
0

>  <SCORE.INTRA.REPUL.0>
0

>  <SCORE.INTRA.SOLV>
-0.552934

>  <SCORE.INTRA.SOLV.lig_0>
-15.1033

>  <SCORE.INTRA.VDW>
0.111554

>  <SCORE.INTRA.VDW.0>
-0.755285

>  <SCORE.INTRA.norm>
-0.0521378

>  <SCORE.RESTR>
0

>  <SCORE.RESTR.CAVITY>
0

>  <SCORE.RESTR.norm>
0

>  <SCORE.SYSTEM>
0

>  <SCORE.SYSTEM.CONST>
0

>  <SCORE.SYSTEM.DIHEDRAL>
0

>  <SCORE.SYSTEM.SOLV>
0

>  <SCORE.SYSTEM.norm>
0

>  <SCORE.heavy>
13

>  <SCORE.norm>
-3.85785

>  <RMSD>
0.617

$$$$
ligand
 OpenBabel11021811513D
libRbt.so/2013.1/901 2013/11/27
 13 14  0  0  0  0  0  0  0  0999 V2000
   34.4866   29.8406  108.1165 N   0  0  0  0  0  0  0  0  0  0  0  0
   34.3851   31.0875  108.7753 C   0  0  0  0  0  0  0  0  0  0  0  0
   35.5868   31.8038  109.1208 N   0  0  0  0  0  0  0  0  0  0  0  0
   33.1677   31.6314  109.0952 N   0  0  0  0  0  0  0  0  0  0  0  0
   31.9695   30.9765  108.7821 C   0  0  0  0  0  0  0  0  0  0  0  0
   32.0269   29.7042  108.1114 C   0  0  0  0  0  0  0  0  0  0  0  0
   33.3378   29.1437  107.7809 C   0  0  0  0  0  0  0  0  0  0  0  0
   33.4326   27.9304  107.1405 O   0  0  0  0  0  0  0  0  0  0  0  0
   30.6501   29.2796  107.9280 C   0  0  0  0  0  0  0  0  0  0  0  0
   29.8454   30.2825  108.4700 C   0  0  0  0  0  0  0  0  0  0  0  0
   30.6366   31.2879  108.9792 N   0  0  0  0  0  0  0  0  0  0  0  0
   30.1875   28.0141  107.2703 C   0  0  0  0  0  0  0  0  0  0  0  0
   29.8460   28.2899  105.8870 N   0  0  0  0  0  0  0  0  0  0  0  0
  1  2  1  0  0  0  0
  1  7  1  0  0  0  0
  2  3  1  0  0  0  0
  2  4  2  0  0  0  0
  4  5  1  0  0  0  0
  5  6  2  0  0  0  0
  5 11  1  0  0  0  0
  6  7  1  0  0  0  0
  6  9  1  0  0  0  0
  7  8  2  0  0  0  0
  9 10  2  0  0  0  0
  9 12  1  0  0  0  0
 10 11  1  0  0  0  0
 12 13  1  0  0  0  0
M  END
>  <CHROM.1>
2.88945666,-96.92237011,-93.35804546,32.31898071,29.92334282,108.07825787
-0.59728265,0.02712758,-2.56116412

>  <Name>
ligand

>  <RI>
1.35221e+07

>  <Rbt.Current_Directory>
/home/itssahil/PROJECTS/Mol_Feturizer/New_Systems/rnas/4RZD

>  <Rbt.Executable>
rbdock ($Id: //depot/dev/client3/rdock/2013.1/src/exe/rbdock.cxx#4 $)

>  <Rbt.Library>
libRbt.so (2013.1, Build901 2013/11/27)

>  <Rbt.Parameter_File>
/export/apps/rDock/src/rDock_2013.1_src/data/scripts/dock_solv.prm

>  <Rbt.Receptor>
prm/pocket_docking_5.prm

>  <SCORE>
-50.1301

>  <SCORE.INTER>
-49.4497

>  <SCORE.INTER.CONST>
1

>  <SCORE.INTER.POLAR>
-5.10711

>  <SCORE.INTER.ROT>
3

>  <SCORE.INTER.SOLV>
11.7286

>  <SCORE.INTER.VDW>
-25.4523

>  <SCORE.INTER.norm>
-3.80383

>  <SCORE.INTRA>
-0.680347

>  <SCORE.INTRA.DIHEDRAL>
-1.03057

>  <SCORE.INTRA.DIHEDRAL.0>
4.88905

>  <SCORE.INTRA.POLAR>
0

>  <SCORE.INTRA.POLAR.0>
0

>  <SCORE.INTRA.REPUL>
0

>  <SCORE.INTRA.REPUL.0>
0

>  <SCORE.INTRA.SOLV>
-0.55412

>  <SCORE.INTRA.SOLV.lig_0>
-15.1033

>  <SCORE.INTRA.VDW>
0.112

>  <SCORE.INTRA.VDW.0>
-0.755285

>  <SCORE.INTRA.norm>
-0.0523344

>  <SCORE.RESTR>
0

>  <SCORE.RESTR.CAVITY>
0

>  <SCORE.RESTR.norm>
0

>  <SCORE.SYSTEM>
0

>  <SCORE.SYSTEM.CONST>
0

>  <SCORE.SYSTEM.DIHEDRAL>
0

>  <SCORE.SYSTEM.SOLV>
0

>  <SCORE.SYSTEM.norm>
0

>  <SCORE.heavy>
13

>  <SCORE.norm>
-3.85616

>  <RMSD>
0.617

$$$$
ligand
 OpenBabel11021811513D
libRbt.so/2013.1/901 2013/11/27
 13 14  0  0  0  0  0  0  0  0999 V2000
   34.4907   29.8284  108.1107 N   0  0  0  0  0  0  0  0  0  0  0  0
   34.3952   31.0759  108.7694 C   0  0  0  0  0  0  0  0  0  0  0  0
   35.6002   31.7880  109.1119 N   0  0  0  0  0  0  0  0  0  0  0  0
   33.1804   31.6241  109.0919 N   0  0  0  0  0  0  0  0  0  0  0  0
   31.9792   30.9734  108.7818 C   0  0  0  0  0  0  0  0  0  0  0  0
   32.0306   29.7007  108.1113 C   0  0  0  0  0  0  0  0  0  0  0  0
   33.3387   29.1355  107.7780 C   0  0  0  0  0  0  0  0  0  0  0  0
   33.4278   27.9217  107.1377 O   0  0  0  0  0  0  0  0  0  0  0  0
   30.6518   29.2810  107.9313 C   0  0  0  0  0  0  0  0  0  0  0  0
   29.8520   30.2869  108.4748 C   0  0  0  0  0  0  0  0  0  0  0  0
   30.6478   31.2896  108.9819 N   0  0  0  0  0  0  0  0  0  0  0  0
   30.1833   28.0169  107.2750 C   0  0  0  0  0  0  0  0  0  0  0  0
   29.8382   28.2938  105.8928 N   0  0  0  0  0  0  0  0  0  0  0  0
  1  2  1  0  0  0  0
  1  7  1  0  0  0  0
  2  3  1  0  0  0  0
  2  4  2  0  0  0  0
  4  5  1  0  0  0  0
  5  6  2  0  0  0  0
  5 11  1  0  0  0  0
  6  7  1  0  0  0  0
  6  9  1  0  0  0  0
  7  8  2  0  0  0  0
  9 10  2  0  0  0  0
  9 12  1  0  0  0  0
 10 11  1  0  0  0  0
 12 13  1  0  0  0  0
M  END
>  <CHROM.1>
-1.53513446,-96.98175340,-94.37895810,32.32328428,29.91880436,108.07748686
-0.59300361,0.02729895,-2.56183321

>  <Name>
ligand

>  <RI>
1.35221e+07

>  <Rbt.Current_Directory>
/home/itssahil/PROJECTS/Mol_Feturizer/New_Systems/rnas/4RZD

>  <Rbt.Executable>
rbdock ($Id: //depot/dev/client3/rdock/2013.1/src/exe/rbdock.cxx#4 $)

>  <Rbt.Library>
libRbt.so (2013.1, Build901 2013/11/27)

>  <Rbt.Parameter_File>
/export/apps/rDock/src/rDock_2013.1_src/data/scripts/dock_solv.prm

>  <Rbt.Receptor>
prm/pocket_docking_5.prm

>  <SCORE>
-50.1475

>  <SCORE.INTER>
-49.4983

>  <SCORE.INTER.CONST>
1

>  <SCORE.INTER.POLAR>
-5.11658

>  <SCORE.INTER.ROT>
3

>  <SCORE.INTER.SOLV>
11.7437

>  <SCORE.INTER.VDW>
-25.4582

>  <SCORE.INTER.norm>
-3.80756

>  <SCORE.INTRA>
-0.649122

>  <SCORE.INTRA.DIHEDRAL>
-0.967673

>  <SCORE.INTRA.DIHEDRAL.0>
4.88905

>  <SCORE.INTRA.POLAR>
0

>  <SCORE.INTRA.POLAR.0>
0

>  <SCORE.INTRA.REPUL>
0

>  <SCORE.INTRA.REPUL.0>
0

>  <SCORE.INTRA.SOLV>
-0.55462

>  <SCORE.INTRA.SOLV.lig_0>
-15.1033

>  <SCORE.INTRA.VDW>
0.112024

>  <SCORE.INTRA.VDW.0>
-0.755285

>  <SCORE.INTRA.norm>
-0.0499325

>  <SCORE.RESTR>
0

>  <SCORE.RESTR.CAVITY>
0

>  <SCORE.RESTR.norm>
0

>  <SCORE.SYSTEM>
0

>  <SCORE.SYSTEM.CONST>
0

>  <SCORE.SYSTEM.DIHEDRAL>
0

>  <SCORE.SYSTEM.SOLV>
0

>  <SCORE.SYSTEM.norm>
0

>  <SCORE.heavy>
13

>  <SCORE.norm>
-3.8575

>  <RMSD>
0.617

$$$$
ligand
 OpenBabel11021811513D
libRbt.so/2013.1/901 2013/11/27
 13 14  0  0  0  0  0  0  0  0999 V2000
   34.4857   29.8401  108.1078 N   0  0  0  0  0  0  0  0  0  0  0  0
   34.3870   31.0868  108.7676 C   0  0  0  0  0  0  0  0  0  0  0  0
   35.5902   31.8017  109.1103 N   0  0  0  0  0  0  0  0  0  0  0  0
   33.1709   31.6315  109.0911 N   0  0  0  0  0  0  0  0  0  0  0  0
   31.9713   30.9779  108.7808 C   0  0  0  0  0  0  0  0  0  0  0  0
   32.0259   29.7059  108.1091 C   0  0  0  0  0  0  0  0  0  0  0  0
   33.3354   29.1445  107.7748 C   0  0  0  0  0  0  0  0  0  0  0  0
   33.4274   27.9315  107.1335 O   0  0  0  0  0  0  0  0  0  0  0  0
   30.6482   29.2826  107.9291 C   0  0  0  0  0  0  0  0  0  0  0  0
   29.8459   30.2860  108.4739 C   0  0  0  0  0  0  0  0  0  0  0  0
   30.6392   31.2903  108.9815 N   0  0  0  0  0  0  0  0  0  0  0  0
   30.1828   28.0180  107.2719 C   0  0  0  0  0  0  0  0  0  0  0  0
   29.8524   28.2917  105.8855 N   0  0  0  0  0  0  0  0  0  0  0  0
  1  2  1  0  0  0  0
  1  7  1  0  0  0  0
  2  3  1  0  0  0  0
  2  4  2  0  0  0  0
  4  5  1  0  0  0  0
  5  6  2  0  0  0  0
  5 11  1  0  0  0  0
  6  7  1  0  0  0  0
  6  9  1  0  0  0  0
  7  8  2  0  0  0  0
  9 10  2  0  0  0  0
  9 12  1  0  0  0  0
 10 11  1  0  0  0  0
 12 13  1  0  0  0  0
M  END
>  <CHROM.1>
-178.03643246,-96.27212468,-93.74143934,32.31942294,29.92448157,108.07492359
-0.59621583,0.02505062,-2.56011523

>  <Name>
ligand

>  <RI>
2.73617e+07

>  <Rbt.Current_Directory>
/home/itssahil/PROJECTS/Mol_Feturizer/New_Systems/rnas/4RZD

>  <Rbt.Executable>
rbdock ($Id: //depot/dev/client3/rdock/2013.1/src/exe/rbdock.cxx#4 $)

>  <Rbt.Library>
libRbt.so (2013.1, Build901 2013/11/27)

>  <Rbt.Parameter_File>
/export/apps/rDock/src/rDock_2013.1_src/data/scripts/dock_solv.prm

>  <Rbt.Receptor>
prm/pocket_docking_6.prm

>  <SCORE>
-50.1414

>  <SCORE.INTER>
-49.4731

>  <SCORE.INTER.CONST>
1

>  <SCORE.INTER.POLAR>
-5.11154

>  <SCORE.INTER.ROT>
3

>  <SCORE.INTER.SOLV>
11.7245

>  <SCORE.INTER.VDW>
-25.4518

>  <SCORE.INTER.norm>
-3.80562

>  <SCORE.INTRA>
-0.668313

>  <SCORE.INTRA.DIHEDRAL>
-1.00725

>  <SCORE.INTRA.DIHEDRAL.0>
4.88905

>  <SCORE.INTRA.POLAR>
0

>  <SCORE.INTRA.POLAR.0>
0

>  <SCORE.INTRA.REPUL>
0

>  <SCORE.INTRA.REPUL.0>
0

>  <SCORE.INTRA.SOLV>
-0.550034

>  <SCORE.INTRA.SOLV.lig_0>
-15.1033

>  <SCORE.INTRA.VDW>
0.110331

>  <SCORE.INTRA.VDW.0>
-0.755285

>  <SCORE.INTRA.norm>
-0.0514087

>  <SCORE.RESTR>
0

>  <SCORE.RESTR.CAVITY>
0

>  <SCORE.RESTR.norm>
0

>  <SCORE.SYSTEM>
0

>  <SCORE.SYSTEM.CONST>
0

>  <SCORE.SYSTEM.DIHEDRAL>
0

>  <SCORE.SYSTEM.SOLV>
0

>  <SCORE.SYSTEM.norm>
0

>  <SCORE.heavy>
13

>  <SCORE.norm>
-3.85703

>  <RMSD>
0.617

$$$$
ligand
 OpenBabel11021811513D
libRbt.so/2013.1/901 2013/11/27
 13 14  0  0  0  0  0  0  0  0999 V2000
   34.4862   29.8477  108.1034 N   0  0  0  0  0  0  0  0  0  0  0  0
   34.3854   31.0921  108.7670 C   0  0  0  0  0  0  0  0  0  0  0  0
   35.5874   31.8077  109.1129 N   0  0  0  0  0  0  0  0  0  0  0  0
   33.1683   31.6342  109.0913 N   0  0  0  0  0  0  0  0  0  0  0  0
   31.9699   30.9799  108.7781 C   0  0  0  0  0  0  0  0  0  0  0  0
   32.0267   29.7101  108.1025 C   0  0  0  0  0  0  0  0  0  0  0  0
   33.3371   29.1515  107.7675 C   0  0  0  0  0  0  0  0  0  0  0  0
   33.4313   27.9407  107.1224 O   0  0  0  0  0  0  0  0  0  0  0  0
   30.6497   29.2856  107.9202 C   0  0  0  0  0  0  0  0  0  0  0  0
   29.8456   30.2861  108.4675 C   0  0  0  0  0  0  0  0  0  0  0  0
   30.6372   31.2900  108.9789 N   0  0  0  0  0  0  0  0  0  0  0  0
   30.1864   28.0223  107.2587 C   0  0  0  0  0  0  0  0  0  0  0  0
   29.8714   28.2966  105.8688 N   0  0  0  0  0  0  0  0  0  0  0  0
  1  2  1  0  0  0  0
  1  7  1  0  0  0  0
  2  3  1  0  0  0  0
  2  4  2  0  0  0  0
  4  5  1  0  0  0  0
  5  6  2  0  0  0  0
  5 11  1  0  0  0  0
  6  7  1  0  0  0  0
  6  9  1  0  0  0  0
  7  8  2  0  0  0  0
  9 10  2  0  0  0  0
  9 12  1  0  0  0  0
 10 11  1  0  0  0  0
 12 13  1  0  0  0  0
M  END
>  <CHROM.1>
-177.78591455,-95.62006780,-93.11622061,32.32122120,29.92896797,108.06884291
-0.59890831,0.02456455,-2.55644498

>  <Name>
ligand

>  <RI>
4.18181e+07

>  <Rbt.Current_Directory>
/home/itssahil/PROJECTS/Mol_Feturizer/New_Systems/rnas/4RZD

>  <Rbt.Executable>
rbdock ($Id: //depot/dev/client3/rdock/2013.1/src/exe/rbdock.cxx#4 $)

>  <Rbt.Library>
libRbt.so (2013.1, Build901 2013/11/27)

>  <Rbt.Parameter_File>
/export/apps/rDock/src/rDock_2013.1_src/data/scripts/dock_solv.prm

>  <Rbt.Receptor>
prm/pocket_docking_3.prm

>  <SCORE>
-50.131

>  <SCORE.INTER>
-49.4438

>  <SCORE.INTER.CONST>
1

>  <SCORE.INTER.POLAR>
-5.1101

>  <SCORE.INTER.ROT>
3

>  <SCORE.INTER.SOLV>
11.7323

>  <SCORE.INTER.VDW>
-25.4396

>  <SCORE.INTER.norm>
-3.80337

>  <SCORE.INTRA>
-0.687213

>  <SCORE.INTRA.DIHEDRAL>
-1.04626

>  <SCORE.INTRA.DIHEDRAL.0>
4.88905

>  <SCORE.INTRA.POLAR>
0

>  <SCORE.INTRA.POLAR.0>
0

>  <SCORE.INTRA.REPUL>
0

>  <SCORE.INTRA.REPUL.0>
0

>  <SCORE.INTRA.SOLV>
-0.545897

>  <SCORE.INTRA.SOLV.lig_0>
-15.1033

>  <SCORE.INTRA.VDW>
0.108864

>  <SCORE.INTRA.VDW.0>
-0.755285

>  <SCORE.INTRA.norm>
-0.0528625

>  <SCORE.RESTR>
0

>  <SCORE.RESTR.CAVITY>
0

>  <SCORE.RESTR.norm>
0

>  <SCORE.SYSTEM>
0

>  <SCORE.SYSTEM.CONST>
0

>  <SCORE.SYSTEM.DIHEDRAL>
0

>  <SCORE.SYSTEM.SOLV>
0

>  <SCORE.SYSTEM.norm>
0

>  <SCORE.heavy>
13

>  <SCORE.norm>
-3.85623

>  <RMSD>
0.618

$$$$
ligand
 OpenBabel11021811513D
libRbt.so/2013.1/901 2013/11/27
 13 14  0  0  0  0  0  0  0  0999 V2000
   34.4862   29.8427  108.1085 N   0  0  0  0  0  0  0  0  0  0  0  0
   34.3860   31.0885  108.7697 C   0  0  0  0  0  0  0  0  0  0  0  0
   35.5882   31.8041  109.1143 N   0  0  0  0  0  0  0  0  0  0  0  0
   33.1691   31.6318  109.0927 N   0  0  0  0  0  0  0  0  0  0  0  0
   31.9703   30.9775  108.7806 C   0  0  0  0  0  0  0  0  0  0  0  0
   32.0266   29.7063  108.1075 C   0  0  0  0  0  0  0  0  0  0  0  0
   33.3368   29.1464  107.7737 C   0  0  0  0  0  0  0  0  0  0  0  0
   33.4305   27.9343  107.1310 O   0  0  0  0  0  0  0  0  0  0  0  0
   30.6494   29.2821  107.9258 C   0  0  0  0  0  0  0  0  0  0  0  0
   29.8457   30.2841  108.4710 C   0  0  0  0  0  0  0  0  0  0  0  0
   30.6378   31.2886  108.9806 N   0  0  0  0  0  0  0  0  0  0  0  0
   30.1856   28.0178  107.2667 C   0  0  0  0  0  0  0  0  0  0  0  0
   29.8495   28.2943  105.8822 N   0  0  0  0  0  0  0  0  0  0  0  0
  1  2  1  0  0  0  0
  1  7  1  0  0  0  0
  2  3  1  0  0  0  0
  2  4  2  0  0  0  0
  4  5  1  0  0  0  0
  5  6  2  0  0  0  0
  5 11  1  0  0  0  0
  6  7  1  0  0  0  0
  6  9  1  0  0  0  0
  7  8  2  0  0  0  0
  9 10  2  0  0  0  0
  9 12  1  0  0  0  0
 10 11  1  0  0  0  0
 12 13  1  0  0  0  0
M  END
>  <CHROM.1>
175.53833691,-96.57124003,-93.72641863,32.31934229,29.92533338,108.07400806
-0.59682553,0.02573422,-2.55955042

>  <Name>
ligand

>  <RI>
2.51964e+07

>  <Rbt.Current_Directory>
/home/itssahil/PROJECTS/Mol_Feturizer/New_Systems/rnas/4RZD

>  <Rbt.Executable>
rbdock ($Id: //depot/dev/client3/rdock/2013.1/src/exe/rbdock.cxx#4 $)

>  <Rbt.Library>
libRbt.so (2013.1, Build901 2013/11/27)

>  <Rbt.Parameter_File>
/export/apps/rDock/src/rDock_2013.1_src/data/scripts/dock_solv.prm

>  <Rbt.Receptor>
prm/pocket_docking_4.prm

>  <SCORE>
-50.156

>  <SCORE.INTER>
-49.4871

>  <SCORE.INTER.CONST>
1

>  <SCORE.INTER.POLAR>
-5.11396

>  <SCORE.INTER.ROT>
3

>  <SCORE.INTER.SOLV>
11.7593

>  <SCORE.INTER.VDW>
-25.4646

>  <SCORE.INTER.norm>
-3.8067

>  <SCORE.INTRA>
-0.668885

>  <SCORE.INTRA.DIHEDRAL>
-1.00802

>  <SCORE.INTRA.DIHEDRAL.0>
4.88905

>  <SCORE.INTRA.POLAR>
0

>  <SCORE.INTRA.POLAR.0>
0

>  <SCORE.INTRA.REPUL>
0

>  <SCORE.INTRA.REPUL.0>
0

>  <SCORE.INTRA.SOLV>
-0.551931

>  <SCORE.INTRA.SOLV.lig_0>
-15.1033

>  <SCORE.INTRA.VDW>
0.111089

>  <SCORE.INTRA.VDW.0>
-0.755285

>  <SCORE.INTRA.norm>
-0.0514527

>  <SCORE.RESTR>
0

>  <SCORE.RESTR.CAVITY>
0

>  <SCORE.RESTR.norm>
0

>  <SCORE.SYSTEM>
0

>  <SCORE.SYSTEM.CONST>
0

>  <SCORE.SYSTEM.DIHEDRAL>
0

>  <SCORE.SYSTEM.SOLV>
0

>  <SCORE.SYSTEM.norm>
0

>  <SCORE.heavy>
13

>  <SCORE.norm>
-3.85815

>  <RMSD>
0.618

$$$$
ligand
 OpenBabel11021811513D
libRbt.so/2013.1/901 2013/11/27
 13 14  0  0  0  0  0  0  0  0999 V2000
   34.4841   29.8393  108.1044 N   0  0  0  0  0  0  0  0  0  0  0  0
   34.3848   31.0841  108.7677 C   0  0  0  0  0  0  0  0  0  0  0  0
   35.5877   31.7986  109.1127 N   0  0  0  0  0  0  0  0  0  0  0  0
   33.1684   31.6275  109.0924 N   0  0  0  0  0  0  0  0  0  0  0  0
   31.9691   30.9743  108.7799 C   0  0  0  0  0  0  0  0  0  0  0  0
   32.0244   29.7042  108.1048 C   0  0  0  0  0  0  0  0  0  0  0  0
   33.3341   29.1442  107.7692 C   0  0  0  0  0  0  0  0  0  0  0  0
   33.4268   27.9330  107.1245 O   0  0  0  0  0  0  0  0  0  0  0  0
   30.6469   29.2809  107.9232 C   0  0  0  0  0  0  0  0  0  0  0  0
   29.8440   30.2825  108.4706 C   0  0  0  0  0  0  0  0  0  0  0  0
   30.6369   31.2857  108.9812 N   0  0  0  0  0  0  0  0  0  0  0  0
   30.1821   28.0180  107.2623 C   0  0  0  0  0  0  0  0  0  0  0  0
   29.8354   28.2990  105.8814 N   0  0  0  0  0  0  0  0  0  0  0  0
  1  2  1  0  0  0  0
  1  7  1  0  0  0  0
  2  3  1  0  0  0  0
  2  4  2  0  0  0  0
  4  5  1  0  0  0  0
  5  6  2  0  0  0  0
  5 11  1  0  0  0  0
  6  7  1  0  0  0  0
  6  9  1  0  0  0  0
  7  8  2  0  0  0  0
  9 10  2  0  0  0  0
  9 12  1  0  0  0  0
 10 11  1  0  0  0  0
 12 13  1  0  0  0  0
M  END
>  <CHROM.1>
-5.58166891,-97.01088797,-94.10812139,32.31630114,29.92334166,108.07171824
-0.59539354,0.02576206,-2.55836162

>  <Name>
ligand

>  <RI>
1.35221e+07

>  <Rbt.Current_Directory>
/home/itssahil/PROJECTS/Mol_Feturizer/New_Systems/rnas/4RZD

>  <Rbt.Executable>
rbdock ($Id: //depot/dev/client3/rdock/2013.1/src/exe/rbdock.cxx#4 $)

>  <Rbt.Library>
libRbt.so (2013.1, Build901 2013/11/27)

>  <Rbt.Parameter_File>
/export/apps/rDock/src/rDock_2013.1_src/data/scripts/dock_solv.prm

>  <Rbt.Receptor>
prm/pocket_docking_5.prm

>  <SCORE>
-50.1507

>  <SCORE.INTER>
-49.4934

>  <SCORE.INTER.CONST>
1

>  <SCORE.INTER.POLAR>
-5.1157

>  <SCORE.INTER.ROT>
3

>  <SCORE.INTER.SOLV>
11.795

>  <SCORE.INTER.VDW>
-25.4749

>  <SCORE.INTER.norm>
-3.80718

>  <SCORE.INTRA>
-0.657349

>  <SCORE.INTRA.DIHEDRAL>
-0.984266

>  <SCORE.INTRA.DIHEDRAL.0>
4.88905

>  <SCORE.INTRA.POLAR>
0

>  <SCORE.INTRA.POLAR.0>
0

>  <SCORE.INTRA.REPUL>
0

>  <SCORE.INTRA.REPUL.0>
0

>  <SCORE.INTRA.SOLV>
-0.554851

>  <SCORE.INTRA.SOLV.lig_0>
-15.1033

>  <SCORE.INTRA.VDW>
0.112209

>  <SCORE.INTRA.VDW.0>
-0.755285

>  <SCORE.INTRA.norm>
-0.0505653

>  <SCORE.RESTR>
0

>  <SCORE.RESTR.CAVITY>
0

>  <SCORE.RESTR.norm>
0

>  <SCORE.SYSTEM>
0

>  <SCORE.SYSTEM.CONST>
0

>  <SCORE.SYSTEM.DIHEDRAL>
0

>  <SCORE.SYSTEM.SOLV>
0

>  <SCORE.SYSTEM.norm>
0

>  <SCORE.heavy>
13

>  <SCORE.norm>
-3.85775

>  <RMSD>
0.618

$$$$
ligand
 OpenBabel11021811513D
libRbt.so/2013.1/901 2013/11/27
 13 14  0  0  0  0  0  0  0  0999 V2000
   34.4887   29.8429  108.1151 N   0  0  0  0  0  0  0  0  0  0  0  0
   34.3873   31.0900  108.7737 C   0  0  0  0  0  0  0  0  0  0  0  0
   35.5889   31.8072  109.1172 N   0  0  0  0  0  0  0  0  0  0  0  0
   33.1699   31.6330  109.0952 N   0  0  0  0  0  0  0  0  0  0  0  0
   31.9717   30.9772  108.7840 C   0  0  0  0  0  0  0  0  0  0  0  0
   32.0291   29.7047  108.1136 C   0  0  0  0  0  0  0  0  0  0  0  0
   33.3399   29.1451  107.7813 C   0  0  0  0  0  0  0  0  0  0  0  0
   33.4347   27.9317  107.1411 O   0  0  0  0  0  0  0  0  0  0  0  0
   30.6523   29.2791  107.9323 C   0  0  0  0  0  0  0  0  0  0  0  0
   29.8477   30.2816  108.4752 C   0  0  0  0  0  0  0  0  0  0  0  0
   30.6388   31.2877  108.9829 N   0  0  0  0  0  0  0  0  0  0  0  0
   30.1897   28.0131  107.2756 C   0  0  0  0  0  0  0  0  0  0  0  0
   29.8355   28.2904  105.8958 N   0  0  0  0  0  0  0  0  0  0  0  0
  1  2  1  0  0  0  0
  1  7  1  0  0  0  0
  2  3  1  0  0  0  0
  2  4  2  0  0  0  0
  4  5  1  0  0  0  0
  5  6  2  0  0  0  0
  5 11  1  0  0  0  0
  6  7  1  0  0  0  0
  6  9  1  0  0  0  0
  7  8  2  0  0  0  0
  9 10  2  0  0  0  0
  9 12  1  0  0  0  0
 10 11  1  0  0  0  0
 12 13  1  0  0  0  0
M  END
>  <CHROM.1>
175.62344711,-97.38764909,-94.28497229,32.32010762,29.92417751,108.08020992
-0.59616686,0.02600046,-2.56223062

>  <Name>
ligand

>  <RI>
4.18181e+07

>  <Rbt.Current_Directory>
/home/itssahil/PROJECTS/Mol_Feturizer/New_Systems/rnas/4RZD

>  <Rbt.Executable>
rbdock ($Id: //depot/dev/client3/rdock/2013.1/src/exe/rbdock.cxx#4 $)

>  <Rbt.Library>
libRbt.so (2013.1, Build901 2013/11/27)

>  <Rbt.Parameter_File>
/export/apps/rDock/src/rDock_2013.1_src/data/scripts/dock_solv.prm

>  <Rbt.Receptor>
prm/pocket_docking_3.prm

>  <SCORE>
-50.1627

>  <SCORE.INTER>
-49.5105

>  <SCORE.INTER.CONST>
1

>  <SCORE.INTER.POLAR>
-5.11638

>  <SCORE.INTER.ROT>
3

>  <SCORE.INTER.SOLV>
11.7559

>  <SCORE.INTER.VDW>
-25.471

>  <SCORE.INTER.norm>
-3.8085

>  <SCORE.INTRA>
-0.652158

>  <SCORE.INTRA.DIHEDRAL>
-0.973193

>  <SCORE.INTRA.DIHEDRAL.0>
4.88905

>  <SCORE.INTRA.POLAR>
0

>  <SCORE.INTRA.POLAR.0>
0

>  <SCORE.INTRA.REPUL>
0

>  <SCORE.INTRA.REPUL.0>
0

>  <SCORE.INTRA.SOLV>
-0.557039

>  <SCORE.INTRA.SOLV.lig_0>
-15.1033

>  <SCORE.INTRA.VDW>
0.112957

>  <SCORE.INTRA.VDW.0>
-0.755285

>  <SCORE.INTRA.norm>
-0.050166

>  <SCORE.RESTR>
0

>  <SCORE.RESTR.CAVITY>
0

>  <SCORE.RESTR.norm>
0

>  <SCORE.SYSTEM>
0

>  <SCORE.SYSTEM.CONST>
0

>  <SCORE.SYSTEM.DIHEDRAL>
0

>  <SCORE.SYSTEM.SOLV>
0

>  <SCORE.SYSTEM.norm>
0

>  <SCORE.heavy>
13

>  <SCORE.norm>
-3.85867

>  <RMSD>
0.619

$$$$
ligand
 OpenBabel11021811513D
libRbt.so/2013.1/901 2013/11/27
 13 14  0  0  0  0  0  0  0  0999 V2000
   34.4855   29.8402  108.1134 N   0  0  0  0  0  0  0  0  0  0  0  0
   34.3850   31.0865  108.7736 C   0  0  0  0  0  0  0  0  0  0  0  0
   35.5872   31.8019  109.1189 N   0  0  0  0  0  0  0  0  0  0  0  0
   33.1680   31.6305  109.0949 N   0  0  0  0  0  0  0  0  0  0  0  0
   31.9693   30.9764  108.7820 C   0  0  0  0  0  0  0  0  0  0  0  0
   32.0258   29.7048  108.1099 C   0  0  0  0  0  0  0  0  0  0  0  0
   33.3362   29.1442  107.7779 C   0  0  0  0  0  0  0  0  0  0  0  0
   33.4301   27.9315  107.1361 O   0  0  0  0  0  0  0  0  0  0  0  0
   30.6487   29.2809  107.9270 C   0  0  0  0  0  0  0  0  0  0  0  0
   29.8448   30.2836  108.4707 C   0  0  0  0  0  0  0  0  0  0  0  0
   30.6367   31.2882  108.9803 N   0  0  0  0  0  0  0  0  0  0  0  0
   30.1851   28.0164  107.2683 C   0  0  0  0  0  0  0  0  0  0  0  0
   29.8337   28.2957  105.8882 N   0  0  0  0  0  0  0  0  0  0  0  0
  1  2  1  0  0  0  0
  1  7  1  0  0  0  0
  2  3  1  0  0  0  0
  2  4  2  0  0  0  0
  4  5  1  0  0  0  0
  5  6  2  0  0  0  0
  5 11  1  0  0  0  0
  6  7  1  0  0  0  0
  6  9  1  0  0  0  0
  7  8  2  0  0  0  0
  9 10  2  0  0  0  0
  9 12  1  0  0  0  0
 10 11  1  0  0  0  0
 12 13  1  0  0  0  0
M  END
>  <CHROM.1>
-5.35697956,-97.32418466,-94.25392037,32.31715653,29.92399922,108.07700969
-0.59584277,0.02725665,-2.56092909

>  <Name>
ligand

>  <RI>
4.18181e+07

>  <Rbt.Current_Directory>
/home/itssahil/PROJECTS/Mol_Feturizer/New_Systems/rnas/4RZD

>  <Rbt.Executable>
rbdock ($Id: //depot/dev/client3/rdock/2013.1/src/exe/rbdock.cxx#4 $)

>  <Rbt.Library>
libRbt.so (2013.1, Build901 2013/11/27)

>  <Rbt.Parameter_File>
/export/apps/rDock/src/rDock_2013.1_src/data/scripts/dock_solv.prm

>  <Rbt.Receptor>
prm/pocket_docking_3.prm

>  <SCORE>
-50.1624

>  <SCORE.INTER>
-49.5094

>  <SCORE.INTER.CONST>
1

>  <SCORE.INTER.POLAR>
-5.11909

>  <SCORE.INTER.ROT>
3

>  <SCORE.INTER.SOLV>
11.7785

>  <SCORE.INTER.VDW>
-25.4688

>  <SCORE.INTER.norm>
-3.80842

>  <SCORE.INTRA>
-0.653035

>  <SCORE.INTRA.DIHEDRAL>
-0.97513

>  <SCORE.INTRA.DIHEDRAL.0>
4.88905

>  <SCORE.INTRA.POLAR>
0

>  <SCORE.INTRA.POLAR.0>
0

>  <SCORE.INTRA.REPUL>
0

>  <SCORE.INTRA.REPUL.0>
0

>  <SCORE.INTRA.SOLV>
-0.556791

>  <SCORE.INTRA.SOLV.lig_0>
-15.1033

>  <SCORE.INTRA.VDW>
0.112926

>  <SCORE.INTRA.VDW.0>
-0.755285

>  <SCORE.INTRA.norm>
-0.0502335

>  <SCORE.RESTR>
0

>  <SCORE.RESTR.CAVITY>
0

>  <SCORE.RESTR.norm>
0

>  <SCORE.SYSTEM>
0

>  <SCORE.SYSTEM.CONST>
0

>  <SCORE.SYSTEM.DIHEDRAL>
0

>  <SCORE.SYSTEM.SOLV>
0

>  <SCORE.SYSTEM.norm>
0

>  <SCORE.heavy>
13

>  <SCORE.norm>
-3.85865

>  <RMSD>
0.619

$$$$
ligand
 OpenBabel11021811513D
libRbt.so/2013.1/901 2013/11/27
 13 14  0  0  0  0  0  0  0  0999 V2000
   34.4843   29.8320  108.1075 N   0  0  0  0  0  0  0  0  0  0  0  0
   34.3874   31.0774  108.7700 C   0  0  0  0  0  0  0  0  0  0  0  0
   35.5916   31.7891  109.1160 N   0  0  0  0  0  0  0  0  0  0  0  0
   33.1719   31.6239  109.0931 N   0  0  0  0  0  0  0  0  0  0  0  0
   31.9714   30.9734  108.7797 C   0  0  0  0  0  0  0  0  0  0  0  0
   32.0243   29.7028  108.1052 C   0  0  0  0  0  0  0  0  0  0  0  0
   33.3331   29.1395  107.7714 C   0  0  0  0  0  0  0  0  0  0  0  0
   33.4235   27.9278  107.1274 O   0  0  0  0  0  0  0  0  0  0  0  0
   30.6460   29.2828  107.9225 C   0  0  0  0  0  0  0  0  0  0  0  0
   29.8450   30.2866  108.4684 C   0  0  0  0  0  0  0  0  0  0  0  0
   30.6397   31.2882  108.9794 N   0  0  0  0  0  0  0  0  0  0  0  0
   30.1788   28.0206  107.2617 C   0  0  0  0  0  0  0  0  0  0  0  0
   29.8283   28.3031  105.8820 N   0  0  0  0  0  0  0  0  0  0  0  0
  1  2  1  0  0  0  0
  1  7  1  0  0  0  0
  2  3  1  0  0  0  0
  2  4  2  0  0  0  0
  4  5  1  0  0  0  0
  5  6  2  0  0  0  0
  5 11  1  0  0  0  0
  6  7  1  0  0  0  0
  6  9  1  0  0  0  0
  7  8  2  0  0  0  0
  9 10  2  0  0  0  0
  9 12  1  0  0  0  0
 10 11  1  0  0  0  0
 12 13  1  0  0  0  0
M  END
>  <CHROM.1>
-174.54457258,-97.28053874,-94.66896419,32.31632359,29.92129136,108.07252882
-0.59346455,0.02764914,-2.55846021

>  <Name>
ligand

>  <RI>
1.35221e+07

>  <Rbt.Current_Directory>
/home/itssahil/PROJECTS/Mol_Feturizer/New_Systems/rnas/4RZD

>  <Rbt.Executable>
rbdock ($Id: //depot/dev/client3/rdock/2013.1/src/exe/rbdock.cxx#4 $)

>  <Rbt.Library>
libRbt.so (2013.1, Build901 2013/11/27)

>  <Rbt.Parameter_File>
/export/apps/rDock/src/rDock_2013.1_src/data/scripts/dock_solv.prm

>  <Rbt.Receptor>
prm/pocket_docking_5.prm

>  <SCORE>
-50.1422

>  <SCORE.INTER>
-49.5018

>  <SCORE.INTER.CONST>
1

>  <SCORE.INTER.POLAR>
-5.12391

>  <SCORE.INTER.ROT>
3

>  <SCORE.INTER.SOLV>
11.7812

>  <SCORE.INTER.VDW>
-25.4486

>  <SCORE.INTER.norm>
-3.80783

>  <SCORE.INTRA>
-0.640408

>  <SCORE.INTRA.DIHEDRAL>
-0.949774

>  <SCORE.INTRA.DIHEDRAL.0>
4.88905

>  <SCORE.INTRA.POLAR>
0

>  <SCORE.INTRA.POLAR.0>
0

>  <SCORE.INTRA.REPUL>
0

>  <SCORE.INTRA.REPUL.0>
0

>  <SCORE.INTRA.SOLV>
-0.556477

>  <SCORE.INTRA.SOLV.lig_0>
-15.1033

>  <SCORE.INTRA.VDW>
0.112718

>  <SCORE.INTRA.VDW.0>
-0.755285

>  <SCORE.INTRA.norm>
-0.0492622

>  <SCORE.RESTR>
0

>  <SCORE.RESTR.CAVITY>
0

>  <SCORE.RESTR.norm>
0

>  <SCORE.SYSTEM>
0

>  <SCORE.SYSTEM.CONST>
0

>  <SCORE.SYSTEM.DIHEDRAL>
0

>  <SCORE.SYSTEM.SOLV>
0

>  <SCORE.SYSTEM.norm>
0

>  <SCORE.heavy>
13

>  <SCORE.norm>
-3.85709

>  <RMSD>
0.619

$$$$
ligand
 OpenBabel11021811513D
libRbt.so/2013.1/901 2013/11/27
 13 14  0  0  0  0  0  0  0  0999 V2000
   34.4895   29.8451  108.1123 N   0  0  0  0  0  0  0  0  0  0  0  0
   34.3890   31.0915  108.7723 C   0  0  0  0  0  0  0  0  0  0  0  0
   35.5911   31.8074  109.1166 N   0  0  0  0  0  0  0  0  0  0  0  0
   33.1720   31.6351  109.0943 N   0  0  0  0  0  0  0  0  0  0  0  0
   31.9733   30.9805  108.7824 C   0  0  0  0  0  0  0  0  0  0  0  0
   32.0298   29.7087  108.1106 C   0  0  0  0  0  0  0  0  0  0  0  0
   33.3402   29.1485  107.7778 C   0  0  0  0  0  0  0  0  0  0  0  0
   33.4342   27.9357  107.1363 O   0  0  0  0  0  0  0  0  0  0  0  0
   30.6527   29.2843  107.9288 C   0  0  0  0  0  0  0  0  0  0  0  0
   29.8489   30.2868  108.4727 C   0  0  0  0  0  0  0  0  0  0  0  0
   30.6407   31.2918  108.9816 N   0  0  0  0  0  0  0  0  0  0  0  0
   30.1892   28.0193  107.2707 C   0  0  0  0  0  0  0  0  0  0  0  0
   29.8605   28.2930  105.8839 N   0  0  0  0  0  0  0  0  0  0  0  0
  1  2  1  0  0  0  0
  1  7  1  0  0  0  0
  2  3  1  0  0  0  0
  2  4  2  0  0  0  0
  4  5  1  0  0  0  0
  5  6  2  0  0  0  0
  5 11  1  0  0  0  0
  6  7  1  0  0  0  0
  6  9  1  0  0  0  0
  7  8  2  0  0  0  0
  9 10  2  0  0  0  0
  9 12  1  0  0  0  0
 10 11  1  0  0  0  0
 12 13  1  0  0  0  0
M  END
>  <CHROM.1>
-173.53938627,-96.26894046,-93.44588642,32.32323088,29.92755954,108.07677911
-0.59763295,0.02544277,-2.55963111

>  <Name>
ligand

>  <RI>
1.35221e+07

>  <Rbt.Current_Directory>
/home/itssahil/PROJECTS/Mol_Feturizer/New_Systems/rnas/4RZD

>  <Rbt.Executable>
rbdock ($Id: //depot/dev/client3/rdock/2013.1/src/exe/rbdock.cxx#4 $)

>  <Rbt.Library>
libRbt.so (2013.1, Build901 2013/11/27)

>  <Rbt.Parameter_File>
/export/apps/rDock/src/rDock_2013.1_src/data/scripts/dock_solv.prm

>  <Rbt.Receptor>
prm/pocket_docking_5.prm

>  <SCORE>
-50.1304

>  <SCORE.INTER>
-49.4531

>  <SCORE.INTER.CONST>
1

>  <SCORE.INTER.POLAR>
-5.11034

>  <SCORE.INTER.ROT>
3

>  <SCORE.INTER.SOLV>
11.7121

>  <SCORE.INTER.VDW>
-25.4383

>  <SCORE.INTER.norm>
-3.80408

>  <SCORE.INTRA>
-0.677318

>  <SCORE.INTRA.DIHEDRAL>
-1.02551

>  <SCORE.INTRA.DIHEDRAL.0>
4.88905

>  <SCORE.INTRA.POLAR>
0

>  <SCORE.INTRA.POLAR.0>
0

>  <SCORE.INTRA.REPUL>
0

>  <SCORE.INTRA.REPUL.0>
0

>  <SCORE.INTRA.SOLV>
-0.550095

>  <SCORE.INTRA.SOLV.lig_0>
-15.1033

>  <SCORE.INTRA.VDW>
0.110483

>  <SCORE.INTRA.VDW.0>
-0.755285

>  <SCORE.INTRA.norm>
-0.0521014

>  <SCORE.RESTR>
0

>  <SCORE.RESTR.CAVITY>
0

>  <SCORE.RESTR.norm>
0

>  <SCORE.SYSTEM>
0

>  <SCORE.SYSTEM.CONST>
0

>  <SCORE.SYSTEM.DIHEDRAL>
0

>  <SCORE.SYSTEM.SOLV>
0

>  <SCORE.SYSTEM.norm>
0

>  <SCORE.heavy>
13

>  <SCORE.norm>
-3.85618

>  <RMSD>
0.619

$$$$
ligand
 OpenBabel11021811513D
libRbt.so/2013.1/901 2013/11/27
 13 14  0  0  0  0  0  0  0  0999 V2000
   34.4907   29.8322  108.1129 N   0  0  0  0  0  0  0  0  0  0  0  0
   34.3936   31.0794  108.7720 C   0  0  0  0  0  0  0  0  0  0  0  0
   35.5976   31.7924  109.1156 N   0  0  0  0  0  0  0  0  0  0  0  0
   33.1781   31.6264  109.0939 N   0  0  0  0  0  0  0  0  0  0  0  0
   31.9777   30.9747  108.7826 C   0  0  0  0  0  0  0  0  0  0  0  0
   32.0307   29.7022  108.1117 C   0  0  0  0  0  0  0  0  0  0  0  0
   33.3396   29.1384  107.7790 C   0  0  0  0  0  0  0  0  0  0  0  0
   33.4302   27.9249  107.1384 O   0  0  0  0  0  0  0  0  0  0  0  0
   30.6525   29.2813  107.9304 C   0  0  0  0  0  0  0  0  0  0  0  0
   29.8513   30.2863  108.4738 C   0  0  0  0  0  0  0  0  0  0  0  0
   30.6459   31.2896  108.9818 N   0  0  0  0  0  0  0  0  0  0  0  0
   30.1856   28.0171  107.2733 C   0  0  0  0  0  0  0  0  0  0  0  0
   29.8322   28.2962  105.8936 N   0  0  0  0  0  0  0  0  0  0  0  0
  1  2  1  0  0  0  0
  1  7  1  0  0  0  0
  2  3  1  0  0  0  0
  2  4  2  0  0  0  0
  4  5  1  0  0  0  0
  5  6  2  0  0  0  0
  5 11  1  0  0  0  0
  6  7  1  0  0  0  0
  6  9  1  0  0  0  0
  7  8  2  0  0  0  0
  9 10  2  0  0  0  0
  9 12  1  0  0  0  0
 10 11  1  0  0  0  0
 12 13  1  0  0  0  0
M  END
>  <CHROM.1>
-178.64513271,-97.38609879,-94.35154225,32.32245866,29.92077440,108.07834374
-0.59333153,0.02748496,-2.56157914

>  <Name>
ligand

>  <RI>
2.73617e+07

>  <Rbt.Current_Directory>
/home/itssahil/PROJECTS/Mol_Feturizer/New_Systems/rnas/4RZD

>  <Rbt.Executable>
rbdock ($Id: //depot/dev/client3/rdock/2013.1/src/exe/rbdock.cxx#4 $)

>  <Rbt.Library>
libRbt.so (2013.1, Build901 2013/11/27)

>  <Rbt.Parameter_File>
/export/apps/rDock/src/rDock_2013.1_src/data/scripts/dock_solv.prm

>  <Rbt.Receptor>
prm/pocket_docking_6.prm

>  <SCORE>
-50.1427

>  <SCORE.INTER>
-49.4925

>  <SCORE.INTER.CONST>
1

>  <SCORE.INTER.POLAR>
-5.11629

>  <SCORE.INTER.ROT>
3

>  <SCORE.INTER.SOLV>
11.7534

>  <SCORE.INTER.VDW>
-25.4585

>  <SCORE.INTER.norm>
-3.80712

>  <SCORE.INTRA>
-0.650156

>  <SCORE.INTRA.DIHEDRAL>
-0.969114

>  <SCORE.INTRA.DIHEDRAL.0>
4.88905

>  <SCORE.INTRA.POLAR>
0

>  <SCORE.INTRA.POLAR.0>
0

>  <SCORE.INTRA.REPUL>
0

>  <SCORE.INTRA.REPUL.0>
0

>  <SCORE.INTRA.SOLV>
-0.556985

>  <SCORE.INTRA.SOLV.lig_0>
-15.1033

>  <SCORE.INTRA.VDW>
0.112894

>  <SCORE.INTRA.VDW.0>
-0.755285

>  <SCORE.INTRA.norm>
-0.050012

>  <SCORE.RESTR>
0

>  <SCORE.RESTR.CAVITY>
0

>  <SCORE.RESTR.norm>
0

>  <SCORE.SYSTEM>
0

>  <SCORE.SYSTEM.CONST>
0

>  <SCORE.SYSTEM.DIHEDRAL>
0

>  <SCORE.SYSTEM.SOLV>
0

>  <SCORE.SYSTEM.norm>
0

>  <SCORE.heavy>
13

>  <SCORE.norm>
-3.85713

>  <RMSD>
0.619

$$$$
ligand
 OpenBabel11021811513D
libRbt.so/2013.1/901 2013/11/27
 13 14  0  0  0  0  0  0  0  0999 V2000
   34.4876   29.8474  108.1151 N   0  0  0  0  0  0  0  0  0  0  0  0
   34.3854   31.0943  108.7740 C   0  0  0  0  0  0  0  0  0  0  0  0
   35.5866   31.8118  109.1183 N   0  0  0  0  0  0  0  0  0  0  0  0
   33.1677   31.6368  109.0950 N   0  0  0  0  0  0  0  0  0  0  0  0
   31.9699   30.9807  108.7830 C   0  0  0  0  0  0  0  0  0  0  0  0
   32.0281   29.7084  108.1123 C   0  0  0  0  0  0  0  0  0  0  0  0
   33.3393   29.1493  107.7806 C   0  0  0  0  0  0  0  0  0  0  0  0
   33.4348   27.9361  107.1402 O   0  0  0  0  0  0  0  0  0  0  0  0
   30.6516   29.2823  107.9302 C   0  0  0  0  0  0  0  0  0  0  0  0
   29.8463   30.2844  108.4729 C   0  0  0  0  0  0  0  0  0  0  0  0
   30.6368   31.2907  108.9813 N   0  0  0  0  0  0  0  0  0  0  0  0
   30.1897   28.0163  107.2729 C   0  0  0  0  0  0  0  0  0  0  0  0
   29.8502   28.2909  105.8889 N   0  0  0  0  0  0  0  0  0  0  0  0
  1  2  1  0  0  0  0
  1  7  1  0  0  0  0
  2  3  1  0  0  0  0
  2  4  2  0  0  0  0
  4  5  1  0  0  0  0
  5  6  2  0  0  0  0
  5 11  1  0  0  0  0
  6  7  1  0  0  0  0
  6  9  1  0  0  0  0
  7  8  2  0  0  0  0
  9 10  2  0  0  0  0
  9 12  1  0  0  0  0
 10 11  1  0  0  0  0
 12 13  1  0  0  0  0
M  END
>  <CHROM.1>
-0.91363277,-96.76285279,-93.56082787,32.32024712,29.92778984,108.07878795
-0.59796484,0.02582863,-2.56127670

>  <Name>
ligand

>  <RI>
2.73617e+07

>  <Rbt.Current_Directory>
/home/itssahil/PROJECTS/Mol_Feturizer/New_Systems/rnas/4RZD

>  <Rbt.Executable>
rbdock ($Id: //depot/dev/client3/rdock/2013.1/src/exe/rbdock.cxx#4 $)

>  <Rbt.Library>
libRbt.so (2013.1, Build901 2013/11/27)

>  <Rbt.Parameter_File>
/export/apps/rDock/src/rDock_2013.1_src/data/scripts/dock_solv.prm

>  <Rbt.Receptor>
prm/pocket_docking_6.prm

>  <SCORE>
-50.1433

>  <SCORE.INTER>
-49.4692

>  <SCORE.INTER.CONST>
1

>  <SCORE.INTER.POLAR>
-5.11068

>  <SCORE.INTER.ROT>
3

>  <SCORE.INTER.SOLV>
11.7313

>  <SCORE.INTER.VDW>
-25.4543

>  <SCORE.INTER.norm>
-3.80533

>  <SCORE.INTRA>
-0.674056

>  <SCORE.INTRA.DIHEDRAL>
-1.01813

>  <SCORE.INTRA.DIHEDRAL.0>
4.88905

>  <SCORE.INTRA.POLAR>
0

>  <SCORE.INTRA.POLAR.0>
0

>  <SCORE.INTRA.REPUL>
0

>  <SCORE.INTRA.REPUL.0>
0

>  <SCORE.INTRA.SOLV>
-0.553143

>  <SCORE.INTRA.SOLV.lig_0>
-15.1033

>  <SCORE.INTRA.VDW>
0.111578

>  <SCORE.INTRA.VDW.0>
-0.755285

>  <SCORE.INTRA.norm>
-0.0518505

>  <SCORE.RESTR>
0

>  <SCORE.RESTR.CAVITY>
0

>  <SCORE.RESTR.norm>
0

>  <SCORE.SYSTEM>
0

>  <SCORE.SYSTEM.CONST>
0

>  <SCORE.SYSTEM.DIHEDRAL>
0

>  <SCORE.SYSTEM.SOLV>
0

>  <SCORE.SYSTEM.norm>
0

>  <SCORE.heavy>
13

>  <SCORE.norm>
-3.85718

>  <RMSD>
0.619

$$$$
ligand
 OpenBabel11021811513D
libRbt.so/2013.1/901 2013/11/27
 13 14  0  0  0  0  0  0  0  0999 V2000
   34.4874   29.8338  108.1141 N   0  0  0  0  0  0  0  0  0  0  0  0
   34.3887   31.0808  108.7731 C   0  0  0  0  0  0  0  0  0  0  0  0
   35.5918   31.7951  109.1173 N   0  0  0  0  0  0  0  0  0  0  0  0
   33.1724   31.6266  109.0944 N   0  0  0  0  0  0  0  0  0  0  0  0
   31.9728   30.9737  108.7827 C   0  0  0  0  0  0  0  0  0  0  0  0
   32.0275   29.7013  108.1118 C   0  0  0  0  0  0  0  0  0  0  0  0
   33.3371   29.1388  107.7797 C   0  0  0  0  0  0  0  0  0  0  0  0
   33.4292   27.9254  107.1391 O   0  0  0  0  0  0  0  0  0  0  0  0
   30.6498   29.2790  107.9299 C   0  0  0  0  0  0  0  0  0  0  0  0
   29.8473   30.2832  108.4729 C   0  0  0  0  0  0  0  0  0  0  0  0
   30.6406   31.2873  108.9813 N   0  0  0  0  0  0  0  0  0  0  0  0
   30.1844   28.0143  107.2726 C   0  0  0  0  0  0  0  0  0  0  0  0
   29.8135   28.2968  105.8982 N   0  0  0  0  0  0  0  0  0  0  0  0
  1  2  1  0  0  0  0
  1  7  1  0  0  0  0
  2  3  1  0  0  0  0
  2  4  2  0  0  0  0
  4  5  1  0  0  0  0
  5  6  2  0  0  0  0
  5 11  1  0  0  0  0
  6  7  1  0  0  0  0
  6  9  1  0  0  0  0
  7  8  2  0  0  0  0
  9 10  2  0  0  0  0
  9 12  1  0  0  0  0
 10 11  1  0  0  0  0
 12 13  1  0  0  0  0
M  END
>  <CHROM.1>
3.75942556,-98.18011892,-95.23721590,32.31740689,29.92048701,108.07909193
-0.59314410,0.02758548,-2.56206017

>  <Name>
ligand

>  <RI>
4.18181e+07

>  <Rbt.Current_Directory>
/home/itssahil/PROJECTS/Mol_Feturizer/New_Systems/rnas/4RZD

>  <Rbt.Executable>
rbdock ($Id: //depot/dev/client3/rdock/2013.1/src/exe/rbdock.cxx#4 $)

>  <Rbt.Library>
libRbt.so (2013.1, Build901 2013/11/27)

>  <Rbt.Parameter_File>
/export/apps/rDock/src/rDock_2013.1_src/data/scripts/dock_solv.prm

>  <Rbt.Receptor>
prm/pocket_docking_3.prm

>  <SCORE>
-50.1524

>  <SCORE.INTER>
-49.5288

>  <SCORE.INTER.CONST>
1

>  <SCORE.INTER.POLAR>
-5.12604

>  <SCORE.INTER.ROT>
3

>  <SCORE.INTER.SOLV>
11.7747

>  <SCORE.INTER.VDW>
-25.4573

>  <SCORE.INTER.norm>
-3.80991

>  <SCORE.INTRA>
-0.623565

>  <SCORE.INTRA.DIHEDRAL>
-0.914654

>  <SCORE.INTRA.DIHEDRAL.0>
4.88905

>  <SCORE.INTRA.POLAR>
0

>  <SCORE.INTRA.POLAR.0>
0

>  <SCORE.INTRA.REPUL>
0

>  <SCORE.INTRA.REPUL.0>
0

>  <SCORE.INTRA.SOLV>
-0.562129

>  <SCORE.INTRA.SOLV.lig_0>
-15.1033

>  <SCORE.INTRA.VDW>
0.114827

>  <SCORE.INTRA.VDW.0>
-0.755285

>  <SCORE.INTRA.norm>
-0.0479665

>  <SCORE.RESTR>
0

>  <SCORE.RESTR.CAVITY>
0

>  <SCORE.RESTR.norm>
0

>  <SCORE.SYSTEM>
0

>  <SCORE.SYSTEM.CONST>
0

>  <SCORE.SYSTEM.DIHEDRAL>
0

>  <SCORE.SYSTEM.SOLV>
0

>  <SCORE.SYSTEM.norm>
0

>  <SCORE.heavy>
13

>  <SCORE.norm>
-3.85788

>  <RMSD>
0.620

$$$$
ligand
 OpenBabel11021811513D
libRbt.so/2013.1/901 2013/11/27
 13 14  0  0  0  0  0  0  0  0999 V2000
   34.4883   29.8370  108.1101 N   0  0  0  0  0  0  0  0  0  0  0  0
   34.3894   31.0829  108.7712 C   0  0  0  0  0  0  0  0  0  0  0  0
   35.5924   31.7976  109.1151 N   0  0  0  0  0  0  0  0  0  0  0  0
   33.1731   31.6273  109.0948 N   0  0  0  0  0  0  0  0  0  0  0  0
   31.9737   30.9739  108.7835 C   0  0  0  0  0  0  0  0  0  0  0  0
   32.0285   29.7026  108.1105 C   0  0  0  0  0  0  0  0  0  0  0  0
   33.3381   29.1417  107.7760 C   0  0  0  0  0  0  0  0  0  0  0  0
   33.4305   27.9293  107.1334 O   0  0  0  0  0  0  0  0  0  0  0  0
   30.6509   29.2795  107.9296 C   0  0  0  0  0  0  0  0  0  0  0  0
   29.8483   30.2822  108.4752 C   0  0  0  0  0  0  0  0  0  0  0  0
   30.6415   31.2861  108.9841 N   0  0  0  0  0  0  0  0  0  0  0  0
   30.1857   28.0155  107.2709 C   0  0  0  0  0  0  0  0  0  0  0  0
   29.8240   28.2975  105.8940 N   0  0  0  0  0  0  0  0  0  0  0  0
  1  2  1  0  0  0  0
  1  7  1  0  0  0  0
  2  3  1  0  0  0  0
  2  4  2  0  0  0  0
  4  5  1  0  0  0  0
  5  6  2  0  0  0  0
  5 11  1  0  0  0  0
  6  7  1  0  0  0  0
  6  9  1  0  0  0  0
  7  8  2  0  0  0  0
  9 10  2  0  0  0  0
  9 12  1  0  0  0  0
 10 11  1  0  0  0  0
 12 13  1  0  0  0  0
M  END
>  <CHROM.1>
-1.88354761,-97.68980634,-94.77954291,32.31918580,29.92186291,108.07750840
-0.59398524,0.02616096,-2.56043236

>  <Name>
ligand

>  <RI>
2.73617e+07

>  <Rbt.Current_Directory>
/home/itssahil/PROJECTS/Mol_Feturizer/New_Systems/rnas/4RZD

>  <Rbt.Executable>
rbdock ($Id: //depot/dev/client3/rdock/2013.1/src/exe/rbdock.cxx#4 $)

>  <Rbt.Library>
libRbt.so (2013.1, Build901 2013/11/27)

>  <Rbt.Parameter_File>
/export/apps/rDock/src/rDock_2013.1_src/data/scripts/dock_solv.prm

>  <Rbt.Receptor>
prm/pocket_docking_6.prm

>  <SCORE>
-50.1498

>  <SCORE.INTER>
-49.5126

>  <SCORE.INTER.CONST>
1

>  <SCORE.INTER.POLAR>
-5.1189

>  <SCORE.INTER.ROT>
3

>  <SCORE.INTER.SOLV>
11.7812

>  <SCORE.INTER.VDW>
-25.4725

>  <SCORE.INTER.norm>
-3.80866

>  <SCORE.INTRA>
-0.637236

>  <SCORE.INTRA.DIHEDRAL>
-0.942772

>  <SCORE.INTRA.DIHEDRAL.0>
4.88905

>  <SCORE.INTRA.POLAR>
0

>  <SCORE.INTRA.POLAR.0>
0

>  <SCORE.INTRA.REPUL>
0

>  <SCORE.INTRA.REPUL.0>
0

>  <SCORE.INTRA.SOLV>
-0.559031

>  <SCORE.INTRA.SOLV.lig_0>
-15.1033

>  <SCORE.INTRA.VDW>
0.113665

>  <SCORE.INTRA.VDW.0>
-0.755285

>  <SCORE.INTRA.norm>
-0.0490182

>  <SCORE.RESTR>
0

>  <SCORE.RESTR.CAVITY>
0

>  <SCORE.RESTR.norm>
0

>  <SCORE.SYSTEM>
0

>  <SCORE.SYSTEM.CONST>
0

>  <SCORE.SYSTEM.DIHEDRAL>
0

>  <SCORE.SYSTEM.SOLV>
0

>  <SCORE.SYSTEM.norm>
0

>  <SCORE.heavy>
13

>  <SCORE.norm>
-3.85768

>  <RMSD>
0.620

$$$$
ligand
 OpenBabel11021811513D
libRbt.so/2013.1/901 2013/11/27
 13 14  0  0  0  0  0  0  0  0999 V2000
   34.4876   29.8264  108.1114 N   0  0  0  0  0  0  0  0  0  0  0  0
   34.3925   31.0738  108.7703 C   0  0  0  0  0  0  0  0  0  0  0  0
   35.5977   31.7854  109.1131 N   0  0  0  0  0  0  0  0  0  0  0  0
   33.1778   31.6225  109.0928 N   0  0  0  0  0  0  0  0  0  0  0  0
   31.9764   30.9722  108.7825 C   0  0  0  0  0  0  0  0  0  0  0  0
   32.0274   29.6996  108.1117 C   0  0  0  0  0  0  0  0  0  0  0  0
   33.3354   29.1340  107.7784 C   0  0  0  0  0  0  0  0  0  0  0  0
   33.4241   27.9203  107.1380 O   0  0  0  0  0  0  0  0  0  0  0  0
   30.6485   29.2804  107.9314 C   0  0  0  0  0  0  0  0  0  0  0  0
   29.8490   30.2866  108.4751 C   0  0  0  0  0  0  0  0  0  0  0  0
   30.6452   31.2889  108.9824 N   0  0  0  0  0  0  0  0  0  0  0  0
   30.1796   28.0167  107.2748 C   0  0  0  0  0  0  0  0  0  0  0  0
   29.8107   28.2991  105.8999 N   0  0  0  0  0  0  0  0  0  0  0  0
  1  2  1  0  0  0  0
  1  7  1  0  0  0  0
  2  3  1  0  0  0  0
  2  4  2  0  0  0  0
  4  5  1  0  0  0  0
  5  6  2  0  0  0  0
  5 11  1  0  0  0  0
  6  7  1  0  0  0  0
  6  9  1  0  0  0  0
  7  8  2  0  0  0  0
  9 10  2  0  0  0  0
  9 12  1  0  0  0  0
 10 11  1  0  0  0  0
 12 13  1  0  0  0  0
M  END
>  <CHROM.1>
178.86450698,-98.05334777,-95.46677844,32.31813481,29.91799163,108.07860562
-0.59075256,0.02807408,-2.56249288

>  <Name>
ligand

>  <RI>
2.73617e+07

>  <Rbt.Current_Directory>
/home/itssahil/PROJECTS/Mol_Feturizer/New_Systems/rnas/4RZD

>  <Rbt.Executable>
rbdock ($Id: //depot/dev/client3/rdock/2013.1/src/exe/rbdock.cxx#4 $)

>  <Rbt.Library>
libRbt.so (2013.1, Build901 2013/11/27)

>  <Rbt.Parameter_File>
/export/apps/rDock/src/rDock_2013.1_src/data/scripts/dock_solv.prm

>  <Rbt.Receptor>
prm/pocket_docking_6.prm

>  <SCORE>
-50.1551

>  <SCORE.INTER>
-49.5384

>  <SCORE.INTER.CONST>
1

>  <SCORE.INTER.POLAR>
-5.12632

>  <SCORE.INTER.ROT>
3

>  <SCORE.INTER.SOLV>
11.7867

>  <SCORE.INTER.VDW>
-25.4668

>  <SCORE.INTER.norm>
-3.81065

>  <SCORE.INTRA>
-0.616655

>  <SCORE.INTRA.DIHEDRAL>
-0.900871

>  <SCORE.INTRA.DIHEDRAL.0>
4.88905

>  <SCORE.INTRA.POLAR>
0

>  <SCORE.INTRA.POLAR.0>
0

>  <SCORE.INTRA.REPUL>
0

>  <SCORE.INTRA.REPUL.0>
0

>  <SCORE.INTRA.SOLV>
-0.561233

>  <SCORE.INTRA.SOLV.lig_0>
-15.1033

>  <SCORE.INTRA.VDW>
0.114398

>  <SCORE.INTRA.VDW.0>
-0.755285

>  <SCORE.INTRA.norm>
-0.047435

>  <SCORE.RESTR>
0

>  <SCORE.RESTR.CAVITY>
0

>  <SCORE.RESTR.norm>
0

>  <SCORE.SYSTEM>
0

>  <SCORE.SYSTEM.CONST>
0

>  <SCORE.SYSTEM.DIHEDRAL>
0

>  <SCORE.SYSTEM.SOLV>
0

>  <SCORE.SYSTEM.norm>
0

>  <SCORE.heavy>
13

>  <SCORE.norm>
-3.85808

>  <RMSD>
0.620

$$$$
ligand
 OpenBabel11021811513D
libRbt.so/2013.1/901 2013/11/27
 13 14  0  0  0  0  0  0  0  0999 V2000
   34.4866   29.8316  108.1140 N   0  0  0  0  0  0  0  0  0  0  0  0
   34.3896   31.0783  108.7739 C   0  0  0  0  0  0  0  0  0  0  0  0
   35.5937   31.7907  109.1186 N   0  0  0  0  0  0  0  0  0  0  0  0
   33.1741   31.6255  109.0956 N   0  0  0  0  0  0  0  0  0  0  0  0
   31.9736   30.9744  108.7833 C   0  0  0  0  0  0  0  0  0  0  0  0
   32.0265   29.7025  108.1115 C   0  0  0  0  0  0  0  0  0  0  0  0
   33.3354   29.1384  107.7791 C   0  0  0  0  0  0  0  0  0  0  0  0
   33.4259   27.9253  107.1376 O   0  0  0  0  0  0  0  0  0  0  0  0
   30.6482   29.2821  107.9293 C   0  0  0  0  0  0  0  0  0  0  0  0
   29.8472   30.2870  108.4730 C   0  0  0  0  0  0  0  0  0  0  0  0
   30.6418   31.2896  108.9821 N   0  0  0  0  0  0  0  0  0  0  0  0
   30.1812   28.0186  107.2711 C   0  0  0  0  0  0  0  0  0  0  0  0
   29.8126   28.3021  105.8963 N   0  0  0  0  0  0  0  0  0  0  0  0
  1  2  1  0  0  0  0
  1  7  1  0  0  0  0
  2  3  1  0  0  0  0
  2  4  2  0  0  0  0
  4  5  1  0  0  0  0
  5  6  2  0  0  0  0
  5 11  1  0  0  0  0
  6  7  1  0  0  0  0
  6  9  1  0  0  0  0
  7  8  2  0  0  0  0
  9 10  2  0  0  0  0
  9 12  1  0  0  0  0
 10 11  1  0  0  0  0
 12 13  1  0  0  0  0
M  END
>  <CHROM.1>
1.85322220,-98.09711374,-95.22311464,32.31692659,29.92119742,108.07893163
-0.59216818,0.02839934,-2.56143232

>  <Name>
ligand

>  <RI>
4.18181e+07

>  <Rbt.Current_Directory>
/home/itssahil/PROJECTS/Mol_Feturizer/New_Systems/rnas/4RZD

>  <Rbt.Executable>
rbdock ($Id: //depot/dev/client3/rdock/2013.1/src/exe/rbdock.cxx#4 $)

>  <Rbt.Library>
libRbt.so (2013.1, Build901 2013/11/27)

>  <Rbt.Parameter_File>
/export/apps/rDock/src/rDock_2013.1_src/data/scripts/dock_solv.prm

>  <Rbt.Receptor>
prm/pocket_docking_3.prm

>  <SCORE>
-50.1488

>  <SCORE.INTER>
-49.5249

>  <SCORE.INTER.CONST>
1

>  <SCORE.INTER.POLAR>
-5.12575

>  <SCORE.INTER.ROT>
3

>  <SCORE.INTER.SOLV>
11.7898

>  <SCORE.INTER.VDW>
-25.4607

>  <SCORE.INTER.norm>
-3.8096

>  <SCORE.INTRA>
-0.623977

>  <SCORE.INTRA.DIHEDRAL>
-0.915564

>  <SCORE.INTRA.DIHEDRAL.0>
4.88905

>  <SCORE.INTRA.POLAR>
0

>  <SCORE.INTRA.POLAR.0>
0

>  <SCORE.INTRA.REPUL>
0

>  <SCORE.INTRA.REPUL.0>
0

>  <SCORE.INTRA.SOLV>
-0.561586

>  <SCORE.INTRA.SOLV.lig_0>
-15.1033

>  <SCORE.INTRA.VDW>
0.114598

>  <SCORE.INTRA.VDW.0>
-0.755285

>  <SCORE.INTRA.norm>
-0.0479982

>  <SCORE.RESTR>
0

>  <SCORE.RESTR.CAVITY>
0

>  <SCORE.RESTR.norm>
0

>  <SCORE.SYSTEM>
0

>  <SCORE.SYSTEM.CONST>
0

>  <SCORE.SYSTEM.DIHEDRAL>
0

>  <SCORE.SYSTEM.SOLV>
0

>  <SCORE.SYSTEM.norm>
0

>  <SCORE.heavy>
13

>  <SCORE.norm>
-3.8576

>  <RMSD>
0.621

$$$$
ligand
 OpenBabel11021811513D
libRbt.so/2013.1/901 2013/11/27
 13 14  0  0  0  0  0  0  0  0999 V2000
   34.4867   29.8427  108.1122 N   0  0  0  0  0  0  0  0  0  0  0  0
   34.3856   31.0903  108.7698 C   0  0  0  0  0  0  0  0  0  0  0  0
   35.5874   31.8080  109.1119 N   0  0  0  0  0  0  0  0  0  0  0  0
   33.1683   31.6335  109.0916 N   0  0  0  0  0  0  0  0  0  0  0  0
   31.9701   30.9773  108.7818 C   0  0  0  0  0  0  0  0  0  0  0  0
   32.0272   29.7042  108.1124 C   0  0  0  0  0  0  0  0  0  0  0  0
   33.3378   29.1445  107.7798 C   0  0  0  0  0  0  0  0  0  0  0  0
   33.4323   27.9306  107.1406 O   0  0  0  0  0  0  0  0  0  0  0  0
   30.6503   29.2783  107.9324 C   0  0  0  0  0  0  0  0  0  0  0  0
   29.8460   30.2812  108.4749 C   0  0  0  0  0  0  0  0  0  0  0  0
   30.6373   31.2878  108.9813 N   0  0  0  0  0  0  0  0  0  0  0  0
   30.1874   28.0117  107.2770 C   0  0  0  0  0  0  0  0  0  0  0  0
   29.8104   28.2924  105.9040 N   0  0  0  0  0  0  0  0  0  0  0  0
  1  2  1  0  0  0  0
  1  7  1  0  0  0  0
  2  3  1  0  0  0  0
  2  4  2  0  0  0  0
  4  5  1  0  0  0  0
  5  6  2  0  0  0  0
  5 11  1  0  0  0  0
  6  7  1  0  0  0  0
  6  9  1  0  0  0  0
  7  8  2  0  0  0  0
  9 10  2  0  0  0  0
  9 12  1  0  0  0  0
 10 11  1  0  0  0  0
 12 13  1  0  0  0  0
M  END
>  <CHROM.1>
-0.43843890,-98.36351470,-95.36367286,32.31616812,29.92411850,108.07929383
-0.59431614,0.02571782,-2.56366703

>  <Name>
ligand

>  <RI>
4.18181e+07

>  <Rbt.Current_Directory>
/home/itssahil/PROJECTS/Mol_Feturizer/New_Systems/rnas/4RZD

>  <Rbt.Executable>
rbdock ($Id: //depot/dev/client3/rdock/2013.1/src/exe/rbdock.cxx#4 $)

>  <Rbt.Library>
libRbt.so (2013.1, Build901 2013/11/27)

>  <Rbt.Parameter_File>
/export/apps/rDock/src/rDock_2013.1_src/data/scripts/dock_solv.prm

>  <Rbt.Receptor>
prm/pocket_docking_3.prm

>  <SCORE>
-50.1538

>  <SCORE.INTER>
-49.534

>  <SCORE.INTER.CONST>
1

>  <SCORE.INTER.POLAR>
-5.12502

>  <SCORE.INTER.ROT>
3

>  <SCORE.INTER.SOLV>
11.7769

>  <SCORE.INTER.VDW>
-25.4649

>  <SCORE.INTER.norm>
-3.8103

>  <SCORE.INTRA>
-0.619844

>  <SCORE.INTRA.DIHEDRAL>
-0.906881

>  <SCORE.INTRA.DIHEDRAL.0>
4.88905

>  <SCORE.INTRA.POLAR>
0

>  <SCORE.INTRA.POLAR.0>
0

>  <SCORE.INTRA.REPUL>
0

>  <SCORE.INTRA.REPUL.0>
0

>  <SCORE.INTRA.SOLV>
-0.56322

>  <SCORE.INTRA.SOLV.lig_0>
-15.1033

>  <SCORE.INTRA.VDW>
0.115206

>  <SCORE.INTRA.VDW.0>
-0.755285

>  <SCORE.INTRA.norm>
-0.0476803

>  <SCORE.RESTR>
0

>  <SCORE.RESTR.CAVITY>
0

>  <SCORE.RESTR.norm>
0

>  <SCORE.SYSTEM>
0

>  <SCORE.SYSTEM.CONST>
0

>  <SCORE.SYSTEM.DIHEDRAL>
0

>  <SCORE.SYSTEM.SOLV>
0

>  <SCORE.SYSTEM.norm>
0

>  <SCORE.heavy>
13

>  <SCORE.norm>
-3.85798

>  <RMSD>
0.622

$$$$
ligand
 OpenBabel11021811513D
libRbt.so/2013.1/901 2013/11/27
 13 14  0  0  0  0  0  0  0  0999 V2000
   34.4843   29.8590  108.1101 N   0  0  0  0  0  0  0  0  0  0  0  0
   34.3788   31.1040  108.7720 C   0  0  0  0  0  0  0  0  0  0  0  0
   35.5781   31.8238  109.1182 N   0  0  0  0  0  0  0  0  0  0  0  0
   33.1596   31.6426  109.0942 N   0  0  0  0  0  0  0  0  0  0  0  0
   31.9636   30.9841  108.7805 C   0  0  0  0  0  0  0  0  0  0  0  0
   32.0251   29.7136  108.1066 C   0  0  0  0  0  0  0  0  0  0  0  0
   33.3378   29.1588  107.7737 C   0  0  0  0  0  0  0  0  0  0  0  0
   33.4365   27.9474  107.1303 O   0  0  0  0  0  0  0  0  0  0  0  0
   30.6497   29.2844  107.9233 C   0  0  0  0  0  0  0  0  0  0  0  0
   29.8418   30.2831  108.4684 C   0  0  0  0  0  0  0  0  0  0  0  0
   30.6297   31.2901  108.9794 N   0  0  0  0  0  0  0  0  0  0  0  0
   30.1912   28.0189  107.2629 C   0  0  0  0  0  0  0  0  0  0  0  0
   29.8569   28.2948  105.8779 N   0  0  0  0  0  0  0  0  0  0  0  0
  1  2  1  0  0  0  0
  1  7  1  0  0  0  0
  2  3  1  0  0  0  0
  2  4  2  0  0  0  0
  4  5  1  0  0  0  0
  5  6  2  0  0  0  0
  5 11  1  0  0  0  0
  6  7  1  0  0  0  0
  6  9  1  0  0  0  0
  7  8  2  0  0  0  0
  9 10  2  0  0  0  0
  9 12  1  0  0  0  0
 10 11  1  0  0  0  0
 12 13  1  0  0  0  0
M  END
>  <CHROM.1>
-177.13872543,-96.50558433,-93.27420380,32.31724013,29.93373127,108.07351561
-0.60055731,0.02419063,-2.55832224

>  <Name>
ligand

>  <RI>
2.51964e+07

>  <Rbt.Current_Directory>
/home/itssahil/PROJECTS/Mol_Feturizer/New_Systems/rnas/4RZD

>  <Rbt.Executable>
rbdock ($Id: //depot/dev/client3/rdock/2013.1/src/exe/rbdock.cxx#4 $)

>  <Rbt.Library>
libRbt.so (2013.1, Build901 2013/11/27)

>  <Rbt.Parameter_File>
/export/apps/rDock/src/rDock_2013.1_src/data/scripts/dock_solv.prm

>  <Rbt.Receptor>
prm/pocket_docking_4.prm

>  <SCORE>
-50.1338

>  <SCORE.INTER>
-49.451

>  <SCORE.INTER.CONST>
1

>  <SCORE.INTER.POLAR>
-5.11282

>  <SCORE.INTER.ROT>
3

>  <SCORE.INTER.SOLV>
11.7463

>  <SCORE.INTER.VDW>
-25.44

>  <SCORE.INTER.norm>
-3.80392

>  <SCORE.INTRA>
-0.682766

>  <SCORE.INTRA.DIHEDRAL>
-1.03601

>  <SCORE.INTRA.DIHEDRAL.0>
4.88905

>  <SCORE.INTRA.POLAR>
0

>  <SCORE.INTRA.POLAR.0>
0

>  <SCORE.INTRA.REPUL>
0

>  <SCORE.INTRA.REPUL.0>
0

>  <SCORE.INTRA.SOLV>
-0.551422

>  <SCORE.INTRA.SOLV.lig_0>
-15.1033

>  <SCORE.INTRA.VDW>
0.110948

>  <SCORE.INTRA.VDW.0>
-0.755285

>  <SCORE.INTRA.norm>
-0.0525205

>  <SCORE.RESTR>
0

>  <SCORE.RESTR.CAVITY>
0

>  <SCORE.RESTR.norm>
0

>  <SCORE.SYSTEM>
0

>  <SCORE.SYSTEM.CONST>
0

>  <SCORE.SYSTEM.DIHEDRAL>
0

>  <SCORE.SYSTEM.SOLV>
0

>  <SCORE.SYSTEM.norm>
0

>  <SCORE.heavy>
13

>  <SCORE.norm>
-3.85645

>  <RMSD>
0.622

$$$$
ligand
 OpenBabel11021811513D
libRbt.so/2013.1/901 2013/11/27
 13 14  0  0  0  0  0  0  0  0999 V2000
   34.4872   29.8346  108.1087 N   0  0  0  0  0  0  0  0  0  0  0  0
   34.3890   31.0817  108.7677 C   0  0  0  0  0  0  0  0  0  0  0  0
   35.5925   31.7967  109.1095 N   0  0  0  0  0  0  0  0  0  0  0  0
   33.1731   31.6269  109.0912 N   0  0  0  0  0  0  0  0  0  0  0  0
   31.9733   30.9732  108.7818 C   0  0  0  0  0  0  0  0  0  0  0  0
   32.0274   29.7008  108.1110 C   0  0  0  0  0  0  0  0  0  0  0  0
   33.3367   29.1389  107.7767 C   0  0  0  0  0  0  0  0  0  0  0  0
   33.4283   27.9255  107.1361 O   0  0  0  0  0  0  0  0  0  0  0  0
   30.6496   29.2777  107.9318 C   0  0  0  0  0  0  0  0  0  0  0  0
   29.8476   30.2815  108.4762 C   0  0  0  0  0  0  0  0  0  0  0  0
   30.6413   31.2861  108.9828 N   0  0  0  0  0  0  0  0  0  0  0  0
   30.1837   28.0126  107.2756 C   0  0  0  0  0  0  0  0  0  0  0  0
   29.7962   28.2974  105.9063 N   0  0  0  0  0  0  0  0  0  0  0  0
  1  2  1  0  0  0  0
  1  7  1  0  0  0  0
  2  3  1  0  0  0  0
  2  4  2  0  0  0  0
  4  5  1  0  0  0  0
  5  6  2  0  0  0  0
  5 11  1  0  0  0  0
  6  7  1  0  0  0  0
  6  9  1  0  0  0  0
  7  8  2  0  0  0  0
  9 10  2  0  0  0  0
  9 12  1  0  0  0  0
 10 11  1  0  0  0  0
 12 13  1  0  0  0  0
M  END
>  <CHROM.1>
-0.78324983,-98.80004595,-96.09581111,32.31592625,29.92028825,108.07818182
-0.59147800,0.02616651,-2.56305266

>  <Name>
ligand

>  <RI>
1.38753e+07

>  <Rbt.Current_Directory>
/home/itssahil/PROJECTS/Mol_Feturizer/New_Systems/rnas/4RZD

>  <Rbt.Executable>
rbdock ($Id: //depot/dev/client3/rdock/2013.1/src/exe/rbdock.cxx#4 $)

>  <Rbt.Library>
libRbt.so (2013.1, Build901 2013/11/27)

>  <Rbt.Parameter_File>
/export/apps/rDock/src/rDock_2013.1_src/data/scripts/dock_solv.prm

>  <Rbt.Receptor>
prm/pocket_docking_7.prm

>  <SCORE>
-50.1517

>  <SCORE.INTER>
-49.5536

>  <SCORE.INTER.CONST>
1

>  <SCORE.INTER.POLAR>
-5.12932

>  <SCORE.INTER.ROT>
3

>  <SCORE.INTER.SOLV>
11.8044

>  <SCORE.INTER.VDW>
-25.4728

>  <SCORE.INTER.norm>
-3.81182

>  <SCORE.INTRA>
-0.598072

>  <SCORE.INTRA.DIHEDRAL>
-0.862587

>  <SCORE.INTRA.DIHEDRAL.0>
4.88905

>  <SCORE.INTRA.POLAR>
0

>  <SCORE.INTRA.POLAR.0>
0

>  <SCORE.INTRA.REPUL>
0

>  <SCORE.INTRA.REPUL.0>
0

>  <SCORE.INTRA.SOLV>
-0.565984

>  <SCORE.INTRA.SOLV.lig_0>
-15.1033

>  <SCORE.INTRA.VDW>
0.116214

>  <SCORE.INTRA.VDW.0>
-0.755285

>  <SCORE.INTRA.norm>
-0.0460055

>  <SCORE.RESTR>
0

>  <SCORE.RESTR.CAVITY>
0

>  <SCORE.RESTR.norm>
0

>  <SCORE.SYSTEM>
0

>  <SCORE.SYSTEM.CONST>
0

>  <SCORE.SYSTEM.DIHEDRAL>
0

>  <SCORE.SYSTEM.SOLV>
0

>  <SCORE.SYSTEM.norm>
0

>  <SCORE.heavy>
13

>  <SCORE.norm>
-3.85782

>  <RMSD>
0.622

$$$$
ligand
 OpenBabel11021811513D
libRbt.so/2013.1/901 2013/11/27
 13 14  0  0  0  0  0  0  0  0999 V2000
   34.4850   29.8520  108.1098 N   0  0  0  0  0  0  0  0  0  0  0  0
   34.3826   31.0976  108.7709 C   0  0  0  0  0  0  0  0  0  0  0  0
   35.5837   31.8154  109.1153 N   0  0  0  0  0  0  0  0  0  0  0  0
   33.1648   31.6388  109.0939 N   0  0  0  0  0  0  0  0  0  0  0  0
   31.9672   30.9824  108.7819 C   0  0  0  0  0  0  0  0  0  0  0  0
   32.0256   29.7113  108.1090 C   0  0  0  0  0  0  0  0  0  0  0  0
   33.3368   29.1537  107.7751 C   0  0  0  0  0  0  0  0  0  0  0  0
   33.4326   27.9416  107.1325 O   0  0  0  0  0  0  0  0  0  0  0  0
   30.6492   29.2847  107.9274 C   0  0  0  0  0  0  0  0  0  0  0  0
   29.8438   30.2853  108.4725 C   0  0  0  0  0  0  0  0  0  0  0  0
   30.6341   31.2912  108.9819 N   0  0  0  0  0  0  0  0  0  0  0  0
   30.1876   28.0195  107.2684 C   0  0  0  0  0  0  0  0  0  0  0  0
   29.8480   28.2959  105.8847 N   0  0  0  0  0  0  0  0  0  0  0  0
  1  2  1  0  0  0  0
  1  7  1  0  0  0  0
  2  3  1  0  0  0  0
  2  4  2  0  0  0  0
  4  5  1  0  0  0  0
  5  6  2  0  0  0  0
  5 11  1  0  0  0  0
  6  7  1  0  0  0  0
  6  9  1  0  0  0  0
  7  8  2  0  0  0  0
  9 10  2  0  0  0  0
  9 12  1  0  0  0  0
 10 11  1  0  0  0  0
 12 13  1  0  0  0  0
M  END
>  <CHROM.1>
3.72501590,-96.70331199,-93.76243023,32.31769360,29.93093418,108.07551901
-0.59816455,0.02448177,-2.55923835

>  <Name>
ligand

>  <RI>
1.0531e+07

>  <Rbt.Current_Directory>
/home/itssahil/PROJECTS/Mol_Feturizer/New_Systems/rnas/4RZD

>  <Rbt.Executable>
rbdock ($Id: //depot/dev/client3/rdock/2013.1/src/exe/rbdock.cxx#4 $)

>  <Rbt.Library>
libRbt.so (2013.1, Build901 2013/11/27)

>  <Rbt.Parameter_File>
/export/apps/rDock/src/rDock_2013.1_src/data/scripts/dock_solv.prm

>  <Rbt.Receptor>
prm/pocket_docking_8.prm

>  <SCORE>
-50.134

>  <SCORE.INTER>
-49.4662

>  <SCORE.INTER.CONST>
1

>  <SCORE.INTER.POLAR>
-5.11399

>  <SCORE.INTER.ROT>
3

>  <SCORE.INTER.SOLV>
11.7446

>  <SCORE.INTER.VDW>
-25.4457

>  <SCORE.INTER.norm>
-3.80509

>  <SCORE.INTRA>
-0.667823

>  <SCORE.INTRA.DIHEDRAL>
-1.00572

>  <SCORE.INTRA.DIHEDRAL.0>
4.88905

>  <SCORE.INTRA.POLAR>
0

>  <SCORE.INTRA.POLAR.0>
0

>  <SCORE.INTRA.REPUL>
0

>  <SCORE.INTRA.REPUL.0>
0

>  <SCORE.INTRA.SOLV>
-0.552848

>  <SCORE.INTRA.SOLV.lig_0>
-15.1033

>  <SCORE.INTRA.VDW>
0.11146

>  <SCORE.INTRA.VDW.0>
-0.755285

>  <SCORE.INTRA.norm>
-0.051371

>  <SCORE.RESTR>
0

>  <SCORE.RESTR.CAVITY>
0

>  <SCORE.RESTR.norm>
0

>  <SCORE.SYSTEM>
0

>  <SCORE.SYSTEM.CONST>
0

>  <SCORE.SYSTEM.DIHEDRAL>
0

>  <SCORE.SYSTEM.SOLV>
0

>  <SCORE.SYSTEM.norm>
0

>  <SCORE.heavy>
13

>  <SCORE.norm>
-3.85646

>  <RMSD>
0.622

$$$$
ligand
 OpenBabel11021811513D
libRbt.so/2013.1/901 2013/11/27
 13 14  0  0  0  0  0  0  0  0999 V2000
   34.4866   29.8519  108.1125 N   0  0  0  0  0  0  0  0  0  0  0  0
   34.3834   31.0987  108.7713 C   0  0  0  0  0  0  0  0  0  0  0  0
   35.5839   31.8179  109.1143 N   0  0  0  0  0  0  0  0  0  0  0  0
   33.1652   31.6397  109.0935 N   0  0  0  0  0  0  0  0  0  0  0  0
   31.9680   30.9819  108.7828 C   0  0  0  0  0  0  0  0  0  0  0  0
   32.0273   29.7096  108.1122 C   0  0  0  0  0  0  0  0  0  0  0  0
   33.3388   29.1522  107.7793 C   0  0  0  0  0  0  0  0  0  0  0  0
   33.4354   27.9390  107.1389 O   0  0  0  0  0  0  0  0  0  0  0  0
   30.6511   29.2816  107.9315 C   0  0  0  0  0  0  0  0  0  0  0  0
   29.8451   30.2827  108.4749 C   0  0  0  0  0  0  0  0  0  0  0  0
   30.6347   31.2901  108.9824 N   0  0  0  0  0  0  0  0  0  0  0  0
   30.1903   28.0149  107.2749 C   0  0  0  0  0  0  0  0  0  0  0  0
   29.8291   28.2931  105.8971 N   0  0  0  0  0  0  0  0  0  0  0  0
  1  2  1  0  0  0  0
  1  7  1  0  0  0  0
  2  3  1  0  0  0  0
  2  4  2  0  0  0  0
  4  5  1  0  0  0  0
  5  6  2  0  0  0  0
  5 11  1  0  0  0  0
  6  7  1  0  0  0  0
  6  9  1  0  0  0  0
  7  8  2  0  0  0  0
  9 10  2  0  0  0  0
  9 12  1  0  0  0  0
 10 11  1  0  0  0  0
 12 13  1  0  0  0  0
M  END
>  <CHROM.1>
-179.38115093,-97.64931335,-94.56003506,32.31735417,29.92963917,108.07886233
-0.59688185,0.02460371,-2.56201319

>  <Name>
ligand

>  <RI>
4.18181e+07

>  <Rbt.Current_Directory>
/home/itssahil/PROJECTS/Mol_Feturizer/New_Systems/rnas/4RZD

>  <Rbt.Executable>
rbdock ($Id: //depot/dev/client3/rdock/2013.1/src/exe/rbdock.cxx#4 $)

>  <Rbt.Library>
libRbt.so (2013.1, Build901 2013/11/27)

>  <Rbt.Parameter_File>
/export/apps/rDock/src/rDock_2013.1_src/data/scripts/dock_solv.prm

>  <Rbt.Receptor>
prm/pocket_docking_3.prm

>  <SCORE>
-50.1494

>  <SCORE.INTER>
-49.5054

>  <SCORE.INTER.CONST>
1

>  <SCORE.INTER.POLAR>
-5.11997

>  <SCORE.INTER.ROT>
3

>  <SCORE.INTER.SOLV>
11.7612

>  <SCORE.INTER.VDW>
-25.4575

>  <SCORE.INTER.norm>
-3.80811

>  <SCORE.INTRA>
-0.643918

>  <SCORE.INTRA.DIHEDRAL>
-0.956195

>  <SCORE.INTRA.DIHEDRAL.0>
4.88905

>  <SCORE.INTRA.POLAR>
0

>  <SCORE.INTRA.POLAR.0>
0

>  <SCORE.INTRA.REPUL>
0

>  <SCORE.INTRA.REPUL.0>
0

>  <SCORE.INTRA.SOLV>
-0.558625

>  <SCORE.INTRA.SOLV.lig_0>
-15.1033

>  <SCORE.INTRA.VDW>
0.113492

>  <SCORE.INTRA.VDW.0>
-0.755285

>  <SCORE.INTRA.norm>
-0.0495322

>  <SCORE.RESTR>
0

>  <SCORE.RESTR.CAVITY>
0

>  <SCORE.RESTR.norm>
0

>  <SCORE.SYSTEM>
0

>  <SCORE.SYSTEM.CONST>
0

>  <SCORE.SYSTEM.DIHEDRAL>
0

>  <SCORE.SYSTEM.SOLV>
0

>  <SCORE.SYSTEM.norm>
0

>  <SCORE.heavy>
13

>  <SCORE.norm>
-3.85764

>  <RMSD>
0.623

$$$$
ligand
 OpenBabel11021811513D
libRbt.so/2013.1/901 2013/11/27
 13 14  0  0  0  0  0  0  0  0999 V2000
   34.4863   29.8449  108.1067 N   0  0  0  0  0  0  0  0  0  0  0  0
   34.3852   31.0906  108.7679 C   0  0  0  0  0  0  0  0  0  0  0  0
   35.5869   31.8074  109.1118 N   0  0  0  0  0  0  0  0  0  0  0  0
   33.1679   31.6328  109.0915 N   0  0  0  0  0  0  0  0  0  0  0  0
   31.9696   30.9773  108.7800 C   0  0  0  0  0  0  0  0  0  0  0  0
   32.0268   29.7062  108.1070 C   0  0  0  0  0  0  0  0  0  0  0  0
   33.3374   29.1475  107.7726 C   0  0  0  0  0  0  0  0  0  0  0  0
   33.4319   27.9354  107.1299 O   0  0  0  0  0  0  0  0  0  0  0  0
   30.6499   29.2806  107.9261 C   0  0  0  0  0  0  0  0  0  0  0  0
   29.8456   30.2819  108.4716 C   0  0  0  0  0  0  0  0  0  0  0  0
   30.6369   31.2872  108.9807 N   0  0  0  0  0  0  0  0  0  0  0  0
   30.1870   28.0158  107.2673 C   0  0  0  0  0  0  0  0  0  0  0  0
   29.8162   28.2990  105.8930 N   0  0  0  0  0  0  0  0  0  0  0  0
  1  2  1  0  0  0  0
  1  7  1  0  0  0  0
  2  3  1  0  0  0  0
  2  4  2  0  0  0  0
  4  5  1  0  0  0  0
  5  6  2  0  0  0  0
  5 11  1  0  0  0  0
  6  7  1  0  0  0  0
  6  9  1  0  0  0  0
  7  8  2  0  0  0  0
  9 10  2  0  0  0  0
  9 12  1  0  0  0  0
 10 11  1  0  0  0  0
 12 13  1  0  0  0  0
M  END
>  <CHROM.1>
-179.00154570,-98.07427689,-94.95308587,32.31632401,29.92604600,108.07428827
-0.59469471,0.02529658,-2.56051299

>  <Name>
ligand

>  <RI>
4.18181e+07

>  <Rbt.Current_Directory>
/home/itssahil/PROJECTS/Mol_Feturizer/New_Systems/rnas/4RZD

>  <Rbt.Executable>
rbdock ($Id: //depot/dev/client3/rdock/2013.1/src/exe/rbdock.cxx#4 $)

>  <Rbt.Library>
libRbt.so (2013.1, Build901 2013/11/27)

>  <Rbt.Parameter_File>
/export/apps/rDock/src/rDock_2013.1_src/data/scripts/dock_solv.prm

>  <Rbt.Receptor>
prm/pocket_docking_3.prm

>  <SCORE>
-50.152

>  <SCORE.INTER>
-49.5198

>  <SCORE.INTER.CONST>
1

>  <SCORE.INTER.POLAR>
-5.12469

>  <SCORE.INTER.ROT>
3

>  <SCORE.INTER.SOLV>
11.797

>  <SCORE.INTER.VDW>
-25.4633

>  <SCORE.INTER.norm>
-3.80922

>  <SCORE.INTRA>
-0.632158

>  <SCORE.INTRA.DIHEDRAL>
-0.931966

>  <SCORE.INTRA.DIHEDRAL.0>
4.88905

>  <SCORE.INTRA.POLAR>
0

>  <SCORE.INTRA.POLAR.0>
0

>  <SCORE.INTRA.REPUL>
0

>  <SCORE.INTRA.REPUL.0>
0

>  <SCORE.INTRA.SOLV>
-0.561284

>  <SCORE.INTRA.SOLV.lig_0>
-15.1033

>  <SCORE.INTRA.VDW>
0.114467

>  <SCORE.INTRA.VDW.0>
-0.755285

>  <SCORE.INTRA.norm>
-0.0486275

>  <SCORE.RESTR>
0

>  <SCORE.RESTR.CAVITY>
0

>  <SCORE.RESTR.norm>
0

>  <SCORE.SYSTEM>
0

>  <SCORE.SYSTEM.CONST>
0

>  <SCORE.SYSTEM.DIHEDRAL>
0

>  <SCORE.SYSTEM.SOLV>
0

>  <SCORE.SYSTEM.norm>
0

>  <SCORE.heavy>
13

>  <SCORE.norm>
-3.85784

>  <RMSD>
0.623

$$$$
ligand
 OpenBabel11021811513D
libRbt.so/2013.1/901 2013/11/27
 13 14  0  0  0  0  0  0  0  0999 V2000
   34.4866   29.8460  108.1115 N   0  0  0  0  0  0  0  0  0  0  0  0
   34.3856   31.0915  108.7730 C   0  0  0  0  0  0  0  0  0  0  0  0
   35.5875   31.8073  109.1185 N   0  0  0  0  0  0  0  0  0  0  0  0
   33.1684   31.6345  109.0955 N   0  0  0  0  0  0  0  0  0  0  0  0
   31.9700   30.9800  108.7825 C   0  0  0  0  0  0  0  0  0  0  0  0
   32.0270   29.7090  108.1091 C   0  0  0  0  0  0  0  0  0  0  0  0
   33.3375   29.1496  107.7759 C   0  0  0  0  0  0  0  0  0  0  0  0
   33.4319   27.9376  107.1328 O   0  0  0  0  0  0  0  0  0  0  0  0
   30.6500   29.2845  107.9264 C   0  0  0  0  0  0  0  0  0  0  0  0
   29.8458   30.2862  108.4715 C   0  0  0  0  0  0  0  0  0  0  0  0
   30.6373   31.2907  108.9817 N   0  0  0  0  0  0  0  0  0  0  0  0
   30.1869   28.0203  107.2666 C   0  0  0  0  0  0  0  0  0  0  0  0
   29.8300   28.3018  105.8884 N   0  0  0  0  0  0  0  0  0  0  0  0
  1  2  1  0  0  0  0
  1  7  1  0  0  0  0
  2  3  1  0  0  0  0
  2  4  2  0  0  0  0
  4  5  1  0  0  0  0
  5  6  2  0  0  0  0
  5 11  1  0  0  0  0
  6  7  1  0  0  0  0
  6  9  1  0  0  0  0
  7  8  2  0  0  0  0
  9 10  2  0  0  0  0
  9 12  1  0  0  0  0
 10 11  1  0  0  0  0
 12 13  1  0  0  0  0
M  END
>  <CHROM.1>
-174.10531395,-97.53210953,-94.60008586,32.31778790,29.92849801,108.07635980
-0.59569787,0.02614027,-2.55939302

>  <Name>
ligand

>  <RI>
2.51964e+07

>  <Rbt.Current_Directory>
/home/itssahil/PROJECTS/Mol_Feturizer/New_Systems/rnas/4RZD

>  <Rbt.Executable>
rbdock ($Id: //depot/dev/client3/rdock/2013.1/src/exe/rbdock.cxx#4 $)

>  <Rbt.Library>
libRbt.so (2013.1, Build901 2013/11/27)

>  <Rbt.Parameter_File>
/export/apps/rDock/src/rDock_2013.1_src/data/scripts/dock_solv.prm

>  <Rbt.Receptor>
prm/pocket_docking_4.prm

>  <SCORE>
-50.1424

>  <SCORE.INTER>
-49.4998

>  <SCORE.INTER.CONST>
1

>  <SCORE.INTER.POLAR>
-5.12313

>  <SCORE.INTER.ROT>
3

>  <SCORE.INTER.SOLV>
11.7749

>  <SCORE.INTER.VDW>
-25.4478

>  <SCORE.INTER.norm>
-3.80768

>  <SCORE.INTRA>
-0.642595

>  <SCORE.INTRA.DIHEDRAL>
-0.953823

>  <SCORE.INTRA.DIHEDRAL.0>
4.88905

>  <SCORE.INTRA.POLAR>
0

>  <SCORE.INTRA.POLAR.0>
0

>  <SCORE.INTRA.REPUL>
0

>  <SCORE.INTRA.REPUL.0>
0

>  <SCORE.INTRA.SOLV>
-0.558027

>  <SCORE.INTRA.SOLV.lig_0>
-15.1033

>  <SCORE.INTRA.VDW>
0.11333

>  <SCORE.INTRA.VDW.0>
-0.755285

>  <SCORE.INTRA.norm>
-0.0494304

>  <SCORE.RESTR>
0

>  <SCORE.RESTR.CAVITY>
0

>  <SCORE.RESTR.norm>
0

>  <SCORE.SYSTEM>
0

>  <SCORE.SYSTEM.CONST>
0

>  <SCORE.SYSTEM.DIHEDRAL>
0

>  <SCORE.SYSTEM.SOLV>
0

>  <SCORE.SYSTEM.norm>
0

>  <SCORE.heavy>
13

>  <SCORE.norm>
-3.85711

>  <RMSD>
0.623

$$$$
ligand
 OpenBabel11021811513D
libRbt.so/2013.1/901 2013/11/27
 13 14  0  0  0  0  0  0  0  0999 V2000
   34.4876   29.8444  108.1095 N   0  0  0  0  0  0  0  0  0  0  0  0
   34.3879   31.0887  108.7736 C   0  0  0  0  0  0  0  0  0  0  0  0
   35.5906   31.8019  109.1218 N   0  0  0  0  0  0  0  0  0  0  0  0
   33.1712   31.6327  109.0961 N   0  0  0  0  0  0  0  0  0  0  0  0
   31.9721   30.9807  108.7805 C   0  0  0  0  0  0  0  0  0  0  0  0
   32.0278   29.7112  108.1044 C   0  0  0  0  0  0  0  0  0  0  0  0
   33.3378   29.1504  107.7713 C   0  0  0  0  0  0  0  0  0  0  0  0
   33.4310   27.9397  107.1257 O   0  0  0  0  0  0  0  0  0  0  0  0
   30.6504   29.2891  107.9196 C   0  0  0  0  0  0  0  0  0  0  0  0
   29.8471   30.2908  108.4660 C   0  0  0  0  0  0  0  0  0  0  0  0
   30.6397   31.2930  108.9792 N   0  0  0  0  0  0  0  0  0  0  0  0
   30.1860   28.0271  107.2566 C   0  0  0  0  0  0  0  0  0  0  0  0
   29.8499   28.3079  105.8730 N   0  0  0  0  0  0  0  0  0  0  0  0
  1  2  1  0  0  0  0
  1  7  1  0  0  0  0
  2  3  1  0  0  0  0
  2  4  2  0  0  0  0
  4  5  1  0  0  0  0
  5  6  2  0  0  0  0
  5 11  1  0  0  0  0
  6  7  1  0  0  0  0
  6  9  1  0  0  0  0
  7  8  2  0  0  0  0
  9 10  2  0  0  0  0
  9 12  1  0  0  0  0
 10 11  1  0  0  0  0
 12 13  1  0  0  0  0
M  END
>  <CHROM.1>
177.42184679,-96.68051841,-93.93123888,32.32068617,29.92992818,108.07198195
-0.59642844,0.02769599,-2.55707284

>  <Name>
ligand

>  <RI>
2.51964e+07

>  <Rbt.Current_Directory>
/home/itssahil/PROJECTS/Mol_Feturizer/New_Systems/rnas/4RZD

>  <Rbt.Executable>
rbdock ($Id: //depot/dev/client3/rdock/2013.1/src/exe/rbdock.cxx#4 $)

>  <Rbt.Library>
libRbt.so (2013.1, Build901 2013/11/27)

>  <Rbt.Parameter_File>
/export/apps/rDock/src/rDock_2013.1_src/data/scripts/dock_solv.prm

>  <Rbt.Receptor>
prm/pocket_docking_4.prm

>  <SCORE>
-50.1463

>  <SCORE.INTER>
-49.4836

>  <SCORE.INTER.CONST>
1

>  <SCORE.INTER.POLAR>
-5.12094

>  <SCORE.INTER.ROT>
3

>  <SCORE.INTER.SOLV>
11.7912

>  <SCORE.INTER.VDW>
-25.4497

>  <SCORE.INTER.norm>
-3.80643

>  <SCORE.INTRA>
-0.662682

>  <SCORE.INTRA.DIHEDRAL>
-0.995338

>  <SCORE.INTRA.DIHEDRAL.0>
4.88905

>  <SCORE.INTRA.POLAR>
0

>  <SCORE.INTRA.POLAR.0>
0

>  <SCORE.INTRA.REPUL>
0

>  <SCORE.INTRA.REPUL.0>
0

>  <SCORE.INTRA.SOLV>
-0.552594

>  <SCORE.INTRA.SOLV.lig_0>
-15.1033

>  <SCORE.INTRA.VDW>
0.111284

>  <SCORE.INTRA.VDW.0>
-0.755285

>  <SCORE.INTRA.norm>
-0.0509756

>  <SCORE.RESTR>
0

>  <SCORE.RESTR.CAVITY>
0

>  <SCORE.RESTR.norm>
0

>  <SCORE.SYSTEM>
0

>  <SCORE.SYSTEM.CONST>
0

>  <SCORE.SYSTEM.DIHEDRAL>
0

>  <SCORE.SYSTEM.SOLV>
0

>  <SCORE.SYSTEM.norm>
0

>  <SCORE.heavy>
13

>  <SCORE.norm>
-3.8574

>  <RMSD>
0.623

$$$$
ligand
 OpenBabel11021811513D
libRbt.so/2013.1/901 2013/11/27
 13 14  0  0  0  0  0  0  0  0999 V2000
   34.4887   29.8453  108.1096 N   0  0  0  0  0  0  0  0  0  0  0  0
   34.3891   31.0898  108.7733 C   0  0  0  0  0  0  0  0  0  0  0  0
   35.5918   31.8033  109.1208 N   0  0  0  0  0  0  0  0  0  0  0  0
   33.1725   31.6338  109.0961 N   0  0  0  0  0  0  0  0  0  0  0  0
   31.9733   30.9815  108.7813 C   0  0  0  0  0  0  0  0  0  0  0  0
   32.0289   29.7117  108.1056 C   0  0  0  0  0  0  0  0  0  0  0  0
   33.3389   29.1511  107.7721 C   0  0  0  0  0  0  0  0  0  0  0  0
   33.4319   27.9401  107.1269 O   0  0  0  0  0  0  0  0  0  0  0  0
   30.6515   29.2894  107.9214 C   0  0  0  0  0  0  0  0  0  0  0  0
   29.8483   30.2912  108.4678 C   0  0  0  0  0  0  0  0  0  0  0  0
   30.6409   31.2937  108.9804 N   0  0  0  0  0  0  0  0  0  0  0  0
   30.1870   28.0271  107.2591 C   0  0  0  0  0  0  0  0  0  0  0  0
   29.8517   28.3071  105.8751 N   0  0  0  0  0  0  0  0  0  0  0  0
  1  2  1  0  0  0  0
  1  7  1  0  0  0  0
  2  3  1  0  0  0  0
  2  4  2  0  0  0  0
  4  5  1  0  0  0  0
  5  6  2  0  0  0  0
  5 11  1  0  0  0  0
  6  7  1  0  0  0  0
  6  9  1  0  0  0  0
  7  8  2  0  0  0  0
  9 10  2  0  0  0  0
  9 12  1  0  0  0  0
 10 11  1  0  0  0  0
 12 13  1  0  0  0  0
M  END
>  <CHROM.1>
174.64506827,-96.61905712,-93.93936570,32.32188112,29.93049262,108.07287337
-0.59642248,0.02735711,-2.55751880

>  <Name>
ligand

>  <RI>
2.51964e+07

>  <Rbt.Current_Directory>
/home/itssahil/PROJECTS/Mol_Feturizer/New_Systems/rnas/4RZD

>  <Rbt.Executable>
rbdock ($Id: //depot/dev/client3/rdock/2013.1/src/exe/rbdock.cxx#4 $)

>  <Rbt.Library>
libRbt.so (2013.1, Build901 2013/11/27)

>  <Rbt.Parameter_File>
/export/apps/rDock/src/rDock_2013.1_src/data/scripts/dock_solv.prm

>  <Rbt.Receptor>
prm/pocket_docking_4.prm

>  <SCORE>
-50.1514

>  <SCORE.INTER>
-49.4891

>  <SCORE.INTER.CONST>
1

>  <SCORE.INTER.POLAR>
-5.12039

>  <SCORE.INTER.ROT>
3

>  <SCORE.INTER.SOLV>
11.7925

>  <SCORE.INTER.VDW>
-25.4556

>  <SCORE.INTER.norm>
-3.80685

>  <SCORE.INTRA>
-0.662369

>  <SCORE.INTRA.DIHEDRAL>
-0.994872

>  <SCORE.INTRA.DIHEDRAL.0>
4.88905

>  <SCORE.INTRA.POLAR>
0

>  <SCORE.INTRA.POLAR.0>
0

>  <SCORE.INTRA.REPUL>
0

>  <SCORE.INTRA.REPUL.0>
0

>  <SCORE.INTRA.SOLV>
-0.552287

>  <SCORE.INTRA.SOLV.lig_0>
-15.1033

>  <SCORE.INTRA.VDW>
0.11121

>  <SCORE.INTRA.VDW.0>
-0.755285

>  <SCORE.INTRA.norm>
-0.0509515

>  <SCORE.RESTR>
0

>  <SCORE.RESTR.CAVITY>
0

>  <SCORE.RESTR.norm>
0

>  <SCORE.SYSTEM>
0

>  <SCORE.SYSTEM.CONST>
0

>  <SCORE.SYSTEM.DIHEDRAL>
0

>  <SCORE.SYSTEM.SOLV>
0

>  <SCORE.SYSTEM.norm>
0

>  <SCORE.heavy>
13

>  <SCORE.norm>
-3.8578

>  <RMSD>
0.623

$$$$
ligand
 OpenBabel11021811513D
libRbt.so/2013.1/901 2013/11/27
 13 14  0  0  0  0  0  0  0  0999 V2000
   34.4895   29.8462  108.1096 N   0  0  0  0  0  0  0  0  0  0  0  0
   34.3886   31.0927  108.7692 C   0  0  0  0  0  0  0  0  0  0  0  0
   35.5904   31.8099  109.1120 N   0  0  0  0  0  0  0  0  0  0  0  0
   33.1714   31.6354  109.0923 N   0  0  0  0  0  0  0  0  0  0  0  0
   31.9730   30.9795  108.7819 C   0  0  0  0  0  0  0  0  0  0  0  0
   32.0300   29.7075  108.1105 C   0  0  0  0  0  0  0  0  0  0  0  0
   33.3405   29.1484  107.7765 C   0  0  0  0  0  0  0  0  0  0  0  0
   33.4349   27.9355  107.1354 O   0  0  0  0  0  0  0  0  0  0  0  0
   30.6531   29.2818  107.9304 C   0  0  0  0  0  0  0  0  0  0  0  0
   29.8489   30.2838  108.4748 C   0  0  0  0  0  0  0  0  0  0  0  0
   30.6403   31.2897  108.9824 N   0  0  0  0  0  0  0  0  0  0  0  0
   30.1900   28.0162  107.2732 C   0  0  0  0  0  0  0  0  0  0  0  0
   29.8240   28.2966  105.8971 N   0  0  0  0  0  0  0  0  0  0  0  0
  1  2  1  0  0  0  0
  1  7  1  0  0  0  0
  2  3  1  0  0  0  0
  2  4  2  0  0  0  0
  4  5  1  0  0  0  0
  5  6  2  0  0  0  0
  5 11  1  0  0  0  0
  6  7  1  0  0  0  0
  6  9  1  0  0  0  0
  7  8  2  0  0  0  0
  9 10  2  0  0  0  0
  9 12  1  0  0  0  0
 10 11  1  0  0  0  0
 12 13  1  0  0  0  0
M  END
>  <CHROM.1>
-174.39395510,-97.84761151,-94.66419863,32.31998570,29.92727005,108.07729884
-0.59497968,0.02485605,-2.56130671

>  <Name>
ligand

>  <RI>
1.0531e+07

>  <Rbt.Current_Directory>
/home/itssahil/PROJECTS/Mol_Feturizer/New_Systems/rnas/4RZD

>  <Rbt.Executable>
rbdock ($Id: //depot/dev/client3/rdock/2013.1/src/exe/rbdock.cxx#4 $)

>  <Rbt.Library>
libRbt.so (2013.1, Build901 2013/11/27)

>  <Rbt.Parameter_File>
/export/apps/rDock/src/rDock_2013.1_src/data/scripts/dock_solv.prm

>  <Rbt.Receptor>
prm/pocket_docking_8.prm

>  <SCORE>
-50.1391

>  <SCORE.INTER>
-49.4983

>  <SCORE.INTER.CONST>
1

>  <SCORE.INTER.POLAR>
-5.11978

>  <SCORE.INTER.ROT>
3

>  <SCORE.INTER.SOLV>
11.7644

>  <SCORE.INTER.VDW>
-25.4544

>  <SCORE.INTER.norm>
-3.80756

>  <SCORE.INTRA>
-0.640778

>  <SCORE.INTRA.DIHEDRAL>
-0.949708

>  <SCORE.INTRA.DIHEDRAL.0>
4.88905

>  <SCORE.INTRA.POLAR>
0

>  <SCORE.INTRA.POLAR.0>
0

>  <SCORE.INTRA.REPUL>
0

>  <SCORE.INTRA.REPUL.0>
0

>  <SCORE.INTRA.SOLV>
-0.559957

>  <SCORE.INTRA.SOLV.lig_0>
-15.1033

>  <SCORE.INTRA.VDW>
0.114054

>  <SCORE.INTRA.VDW.0>
-0.755285

>  <SCORE.INTRA.norm>
-0.0492906

>  <SCORE.RESTR>
0

>  <SCORE.RESTR.CAVITY>
0

>  <SCORE.RESTR.norm>
0

>  <SCORE.SYSTEM>
0

>  <SCORE.SYSTEM.CONST>
0

>  <SCORE.SYSTEM.DIHEDRAL>
0

>  <SCORE.SYSTEM.SOLV>
0

>  <SCORE.SYSTEM.norm>
0

>  <SCORE.heavy>
13

>  <SCORE.norm>
-3.85685

>  <RMSD>
0.623

$$$$
ligand
 OpenBabel11021811513D
libRbt.so/2013.1/901 2013/11/27
 13 14  0  0  0  0  0  0  0  0999 V2000
   34.4894   29.8458  108.1096 N   0  0  0  0  0  0  0  0  0  0  0  0
   34.3897   31.0918  108.7705 C   0  0  0  0  0  0  0  0  0  0  0  0
   35.5924   31.8069  109.1148 N   0  0  0  0  0  0  0  0  0  0  0  0
   33.1731   31.6358  109.0935 N   0  0  0  0  0  0  0  0  0  0  0  0
   31.9740   30.9819  108.7817 C   0  0  0  0  0  0  0  0  0  0  0  0
   32.0296   29.7106  108.1089 C   0  0  0  0  0  0  0  0  0  0  0  0
   33.3396   29.1501  107.7751 C   0  0  0  0  0  0  0  0  0  0  0  0
   33.4327   27.9377  107.1326 O   0  0  0  0  0  0  0  0  0  0  0  0
   30.6523   29.2870  107.9274 C   0  0  0  0  0  0  0  0  0  0  0  0
   29.8491   30.2895  108.4725 C   0  0  0  0  0  0  0  0  0  0  0  0
   30.6417   31.2937  108.9817 N   0  0  0  0  0  0  0  0  0  0  0  0
   30.1879   28.0227  107.2686 C   0  0  0  0  0  0  0  0  0  0  0  0
   29.8349   28.3027  105.8891 N   0  0  0  0  0  0  0  0  0  0  0  0
  1  2  1  0  0  0  0
  1  7  1  0  0  0  0
  2  3  1  0  0  0  0
  2  4  2  0  0  0  0
  4  5  1  0  0  0  0
  5  6  2  0  0  0  0
  5 11  1  0  0  0  0
  6  7  1  0  0  0  0
  6  9  1  0  0  0  0
  7  8  2  0  0  0  0
  9 10  2  0  0  0  0
  9 12  1  0  0  0  0
 10 11  1  0  0  0  0
 12 13  1  0  0  0  0
M  END
>  <CHROM.1>
-2.41627848,-97.32232190,-94.45749550,32.32099090,29.92980461,108.07579905
-0.59517582,0.02619975,-2.56027293

>  <Name>
ligand

>  <RI>
4.18181e+07

>  <Rbt.Current_Directory>
/home/itssahil/PROJECTS/Mol_Feturizer/New_Systems/rnas/4RZD

>  <Rbt.Executable>
rbdock ($Id: //depot/dev/client3/rdock/2013.1/src/exe/rbdock.cxx#4 $)

>  <Rbt.Library>
libRbt.so (2013.1, Build901 2013/11/27)

>  <Rbt.Parameter_File>
/export/apps/rDock/src/rDock_2013.1_src/data/scripts/dock_solv.prm

>  <Rbt.Receptor>
prm/pocket_docking_3.prm

>  <SCORE>
-50.1488

>  <SCORE.INTER>
-49.5019

>  <SCORE.INTER.CONST>
1

>  <SCORE.INTER.POLAR>
-5.1217

>  <SCORE.INTER.ROT>
3

>  <SCORE.INTER.SOLV>
11.7839

>  <SCORE.INTER.VDW>
-25.4569

>  <SCORE.INTER.norm>
-3.80784

>  <SCORE.INTRA>
-0.646869

>  <SCORE.INTRA.DIHEDRAL>
-0.962663

>  <SCORE.INTRA.DIHEDRAL.0>
4.88905

>  <SCORE.INTRA.POLAR>
0

>  <SCORE.INTRA.POLAR.0>
0

>  <SCORE.INTRA.REPUL>
0

>  <SCORE.INTRA.REPUL.0>
0

>  <SCORE.INTRA.SOLV>
-0.556737

>  <SCORE.INTRA.SOLV.lig_0>
-15.1033

>  <SCORE.INTRA.VDW>
0.112831

>  <SCORE.INTRA.VDW.0>
-0.755285

>  <SCORE.INTRA.norm>
-0.0497591

>  <SCORE.RESTR>
0

>  <SCORE.RESTR.CAVITY>
0

>  <SCORE.RESTR.norm>
0

>  <SCORE.SYSTEM>
0

>  <SCORE.SYSTEM.CONST>
0

>  <SCORE.SYSTEM.DIHEDRAL>
0

>  <SCORE.SYSTEM.SOLV>
0

>  <SCORE.SYSTEM.norm>
0

>  <SCORE.heavy>
13

>  <SCORE.norm>
-3.8576

>  <RMSD>
0.624

$$$$
ligand
 OpenBabel11021811513D
libRbt.so/2013.1/901 2013/11/27
 13 14  0  0  0  0  0  0  0  0999 V2000
   34.4871   29.8412  108.1083 N   0  0  0  0  0  0  0  0  0  0  0  0
   34.3874   31.0865  108.7704 C   0  0  0  0  0  0  0  0  0  0  0  0
   35.5900   31.8011  109.1159 N   0  0  0  0  0  0  0  0  0  0  0  0
   33.1708   31.6304  109.0934 N   0  0  0  0  0  0  0  0  0  0  0  0
   31.9717   30.9771  108.7805 C   0  0  0  0  0  0  0  0  0  0  0  0
   32.0274   29.7064  108.1064 C   0  0  0  0  0  0  0  0  0  0  0  0
   33.3374   29.1460  107.7726 C   0  0  0  0  0  0  0  0  0  0  0  0
   33.4305   27.9342  107.1290 O   0  0  0  0  0  0  0  0  0  0  0  0
   30.6500   29.2832  107.9240 C   0  0  0  0  0  0  0  0  0  0  0  0
   29.8468   30.2853  108.4697 C   0  0  0  0  0  0  0  0  0  0  0  0
   30.6393   31.2888  108.9803 N   0  0  0  0  0  0  0  0  0  0  0  0
   30.1856   28.0197  107.2637 C   0  0  0  0  0  0  0  0  0  0  0  0
   29.8156   28.3048  105.8897 N   0  0  0  0  0  0  0  0  0  0  0  0
  1  2  1  0  0  0  0
  1  7  1  0  0  0  0
  2  3  1  0  0  0  0
  2  4  2  0  0  0  0
  4  5  1  0  0  0  0
  5  6  2  0  0  0  0
  5 11  1  0  0  0  0
  6  7  1  0  0  0  0
  6  9  1  0  0  0  0
  7  8  2  0  0  0  0
  9 10  2  0  0  0  0
  9 12  1  0  0  0  0
 10 11  1  0  0  0  0
 12 13  1  0  0  0  0
M  END
>  <CHROM.1>
1.97039217,-98.11026456,-95.16855407,32.31720753,29.92586609,108.07415859
-0.59388405,0.02682794,-2.55965788

>  <Name>
ligand

>  <RI>
4.18181e+07

>  <Rbt.Current_Directory>
/home/itssahil/PROJECTS/Mol_Feturizer/New_Systems/rnas/4RZD

>  <Rbt.Executable>
rbdock ($Id: //depot/dev/client3/rdock/2013.1/src/exe/rbdock.cxx#4 $)

>  <Rbt.Library>
libRbt.so (2013.1, Build901 2013/11/27)

>  <Rbt.Parameter_File>
/export/apps/rDock/src/rDock_2013.1_src/data/scripts/dock_solv.prm

>  <Rbt.Receptor>
prm/pocket_docking_3.prm

>  <SCORE>
-50.1523

>  <SCORE.INTER>
-49.5267

>  <SCORE.INTER.CONST>
1

>  <SCORE.INTER.POLAR>
-5.12939

>  <SCORE.INTER.ROT>
3

>  <SCORE.INTER.SOLV>
11.8081

>  <SCORE.INTER.VDW>
-25.4559

>  <SCORE.INTER.norm>
-3.80974

>  <SCORE.INTRA>
-0.625627

>  <SCORE.INTRA.DIHEDRAL>
-0.91886

>  <SCORE.INTRA.DIHEDRAL.0>
4.88905

>  <SCORE.INTRA.POLAR>
0

>  <SCORE.INTRA.POLAR.0>
0

>  <SCORE.INTRA.REPUL>
0

>  <SCORE.INTRA.REPUL.0>
0

>  <SCORE.INTRA.SOLV>
-0.56166

>  <SCORE.INTRA.SOLV.lig_0>
-15.1033

>  <SCORE.INTRA.VDW>
0.114633

>  <SCORE.INTRA.VDW.0>
-0.755285

>  <SCORE.INTRA.norm>
-0.0481252

>  <SCORE.RESTR>
0

>  <SCORE.RESTR.CAVITY>
0

>  <SCORE.RESTR.norm>
0

>  <SCORE.SYSTEM>
0

>  <SCORE.SYSTEM.CONST>
0

>  <SCORE.SYSTEM.DIHEDRAL>
0

>  <SCORE.SYSTEM.SOLV>
0

>  <SCORE.SYSTEM.norm>
0

>  <SCORE.heavy>
13

>  <SCORE.norm>
-3.85787

>  <RMSD>
0.624

$$$$
ligand
 OpenBabel11021811513D
libRbt.so/2013.1/901 2013/11/27
 13 14  0  0  0  0  0  0  0  0999 V2000
   34.4882   29.8457  108.1125 N   0  0  0  0  0  0  0  0  0  0  0  0
   34.3884   31.0919  108.7729 C   0  0  0  0  0  0  0  0  0  0  0  0
   35.5910   31.8073  109.1170 N   0  0  0  0  0  0  0  0  0  0  0  0
   33.1718   31.6359  109.0955 N   0  0  0  0  0  0  0  0  0  0  0  0
   31.9728   30.9819  108.7838 C   0  0  0  0  0  0  0  0  0  0  0  0
   32.0285   29.7103  108.1116 C   0  0  0  0  0  0  0  0  0  0  0  0
   33.3386   29.1497  107.7782 C   0  0  0  0  0  0  0  0  0  0  0  0
   33.4318   27.9370  107.1362 O   0  0  0  0  0  0  0  0  0  0  0  0
   30.6512   29.2864  107.9302 C   0  0  0  0  0  0  0  0  0  0  0  0
   29.8479   30.2891  108.4747 C   0  0  0  0  0  0  0  0  0  0  0  0
   30.6403   31.2936  108.9836 N   0  0  0  0  0  0  0  0  0  0  0  0
   30.1870   28.0219  107.2719 C   0  0  0  0  0  0  0  0  0  0  0  0
   29.8379   28.3004  105.8910 N   0  0  0  0  0  0  0  0  0  0  0  0
  1  2  1  0  0  0  0
  1  7  1  0  0  0  0
  2  3  1  0  0  0  0
  2  4  2  0  0  0  0
  4  5  1  0  0  0  0
  5  6  2  0  0  0  0
  5 11  1  0  0  0  0
  6  7  1  0  0  0  0
  6  9  1  0  0  0  0
  7  8  2  0  0  0  0
  9 10  2  0  0  0  0
  9 12  1  0  0  0  0
 10 11  1  0  0  0  0
 12 13  1  0  0  0  0
M  END
>  <CHROM.1>
-5.43133171,-97.15204884,-94.27929460,32.32019766,29.92941393,108.07831255
-0.59557979,0.02628072,-2.56074656

>  <Name>
ligand

>  <RI>
2.51964e+07

>  <Rbt.Current_Directory>
/home/itssahil/PROJECTS/Mol_Feturizer/New_Systems/rnas/4RZD

>  <Rbt.Executable>
rbdock ($Id: //depot/dev/client3/rdock/2013.1/src/exe/rbdock.cxx#4 $)

>  <Rbt.Library>
libRbt.so (2013.1, Build901 2013/11/27)

>  <Rbt.Parameter_File>
/export/apps/rDock/src/rDock_2013.1_src/data/scripts/dock_solv.prm

>  <Rbt.Receptor>
prm/pocket_docking_4.prm

>  <SCORE>
-50.1489

>  <SCORE.INTER>
-49.4968

>  <SCORE.INTER.CONST>
1

>  <SCORE.INTER.POLAR>
-5.11736

>  <SCORE.INTER.ROT>
3

>  <SCORE.INTER.SOLV>
11.7788

>  <SCORE.INTER.VDW>
-25.4662

>  <SCORE.INTER.norm>
-3.80744

>  <SCORE.INTRA>
-0.652187

>  <SCORE.INTRA.DIHEDRAL>
-0.973679

>  <SCORE.INTRA.DIHEDRAL.0>
4.88905

>  <SCORE.INTRA.POLAR>
0

>  <SCORE.INTRA.POLAR.0>
0

>  <SCORE.INTRA.REPUL>
0

>  <SCORE.INTRA.REPUL.0>
0

>  <SCORE.INTRA.SOLV>
-0.55574

>  <SCORE.INTRA.SOLV.lig_0>
-15.1033

>  <SCORE.INTRA.VDW>
0.112522

>  <SCORE.INTRA.VDW.0>
-0.755285

>  <SCORE.INTRA.norm>
-0.0501683

>  <SCORE.RESTR>
0

>  <SCORE.RESTR.CAVITY>
0

>  <SCORE.RESTR.norm>
0

>  <SCORE.SYSTEM>
0

>  <SCORE.SYSTEM.CONST>
0

>  <SCORE.SYSTEM.DIHEDRAL>
0

>  <SCORE.SYSTEM.SOLV>
0

>  <SCORE.SYSTEM.norm>
0

>  <SCORE.heavy>
13

>  <SCORE.norm>
-3.85761

>  <RMSD>
0.624

$$$$
ligand
 OpenBabel11021811513D
libRbt.so/2013.1/901 2013/11/27
 13 14  0  0  0  0  0  0  0  0999 V2000
   34.4868   29.8546  108.1093 N   0  0  0  0  0  0  0  0  0  0  0  0
   34.3826   31.1002  108.7703 C   0  0  0  0  0  0  0  0  0  0  0  0
   35.5826   31.8192  109.1156 N   0  0  0  0  0  0  0  0  0  0  0  0
   33.1640   31.6401  109.0923 N   0  0  0  0  0  0  0  0  0  0  0  0
   31.9673   30.9824  108.7795 C   0  0  0  0  0  0  0  0  0  0  0  0
   32.0275   29.7114  108.1066 C   0  0  0  0  0  0  0  0  0  0  0  0
   33.3396   29.1551  107.7738 C   0  0  0  0  0  0  0  0  0  0  0  0
   33.4371   27.9431  107.1313 O   0  0  0  0  0  0  0  0  0  0  0  0
   30.6517   29.2833  107.9240 C   0  0  0  0  0  0  0  0  0  0  0  0
   29.8448   30.2831  108.4685 C   0  0  0  0  0  0  0  0  0  0  0  0
   30.6337   31.2899  108.9784 N   0  0  0  0  0  0  0  0  0  0  0  0
   30.1919   28.0176  107.2647 C   0  0  0  0  0  0  0  0  0  0  0  0
   29.8315   28.2982  105.8871 N   0  0  0  0  0  0  0  0  0  0  0  0
  1  2  1  0  0  0  0
  1  7  1  0  0  0  0
  2  3  1  0  0  0  0
  2  4  2  0  0  0  0
  4  5  1  0  0  0  0
  5  6  2  0  0  0  0
  5 11  1  0  0  0  0
  6  7  1  0  0  0  0
  6  9  1  0  0  0  0
  7  8  2  0  0  0  0
  9 10  2  0  0  0  0
  9 12  1  0  0  0  0
 10 11  1  0  0  0  0
 12 13  1  0  0  0  0
M  END
>  <CHROM.1>
3.49245307,-97.66322431,-94.27788958,32.31748353,29.93167303,108.07397967
-0.59771811,0.02505230,-2.56004968

>  <Name>
ligand

>  <RI>
2.51964e+07

>  <Rbt.Current_Directory>
/home/itssahil/PROJECTS/Mol_Feturizer/New_Systems/rnas/4RZD

>  <Rbt.Executable>
rbdock ($Id: //depot/dev/client3/rdock/2013.1/src/exe/rbdock.cxx#4 $)

>  <Rbt.Library>
libRbt.so (2013.1, Build901 2013/11/27)

>  <Rbt.Parameter_File>
/export/apps/rDock/src/rDock_2013.1_src/data/scripts/dock_solv.prm

>  <Rbt.Receptor>
prm/pocket_docking_4.prm

>  <SCORE>
-50.138

>  <SCORE.INTER>
-49.4856

>  <SCORE.INTER.CONST>
1

>  <SCORE.INTER.POLAR>
-5.12179

>  <SCORE.INTER.ROT>
3

>  <SCORE.INTER.SOLV>
11.7784

>  <SCORE.INTER.VDW>
-25.4439

>  <SCORE.INTER.norm>
-3.80658

>  <SCORE.INTRA>
-0.65247

>  <SCORE.INTRA.DIHEDRAL>
-0.973449

>  <SCORE.INTRA.DIHEDRAL.0>
4.88905

>  <SCORE.INTRA.POLAR>
0

>  <SCORE.INTRA.POLAR.0>
0

>  <SCORE.INTRA.REPUL>
0

>  <SCORE.INTRA.REPUL.0>
0

>  <SCORE.INTRA.SOLV>
-0.558821

>  <SCORE.INTRA.SOLV.lig_0>
-15.1033

>  <SCORE.INTRA.VDW>
0.113664

>  <SCORE.INTRA.VDW.0>
-0.755285

>  <SCORE.INTRA.norm>
-0.05019

>  <SCORE.RESTR>
0

>  <SCORE.RESTR.CAVITY>
0

>  <SCORE.RESTR.norm>
0

>  <SCORE.SYSTEM>
0

>  <SCORE.SYSTEM.CONST>
0

>  <SCORE.SYSTEM.DIHEDRAL>
0

>  <SCORE.SYSTEM.SOLV>
0

>  <SCORE.SYSTEM.norm>
0

>  <SCORE.heavy>
13

>  <SCORE.norm>
-3.85677

>  <RMSD>
0.624

$$$$
ligand
 OpenBabel11021811513D
libRbt.so/2013.1/901 2013/11/27
 13 14  0  0  0  0  0  0  0  0999 V2000
   34.4863   29.8434  108.1116 N   0  0  0  0  0  0  0  0  0  0  0  0
   34.3850   31.0901  108.7709 C   0  0  0  0  0  0  0  0  0  0  0  0
   35.5866   31.8074  109.1141 N   0  0  0  0  0  0  0  0  0  0  0  0
   33.1676   31.6327  109.0934 N   0  0  0  0  0  0  0  0  0  0  0  0
   31.9694   30.9767  108.7826 C   0  0  0  0  0  0  0  0  0  0  0  0
   32.0268   29.7046  108.1115 C   0  0  0  0  0  0  0  0  0  0  0  0
   33.3375   29.1455  107.7781 C   0  0  0  0  0  0  0  0  0  0  0  0
   33.4322   27.9325  107.1372 O   0  0  0  0  0  0  0  0  0  0  0  0
   30.6500   29.2787  107.9308 C   0  0  0  0  0  0  0  0  0  0  0  0
   29.8455   30.2807  108.4747 C   0  0  0  0  0  0  0  0  0  0  0  0
   30.6366   31.2868  108.9825 N   0  0  0  0  0  0  0  0  0  0  0  0
   30.1873   28.0130  107.2736 C   0  0  0  0  0  0  0  0  0  0  0  0
   29.8004   28.2975  105.9041 N   0  0  0  0  0  0  0  0  0  0  0  0
  1  2  1  0  0  0  0
  1  7  1  0  0  0  0
  2  3  1  0  0  0  0
  2  4  2  0  0  0  0
  4  5  1  0  0  0  0
  5  6  2  0  0  0  0
  5 11  1  0  0  0  0
  6  7  1  0  0  0  0
  6  9  1  0  0  0  0
  7  8  2  0  0  0  0
  9 10  2  0  0  0  0
  9 12  1  0  0  0  0
 10 11  1  0  0  0  0
 12 13  1  0  0  0  0
M  END
>  <CHROM.1>
177.72598447,-98.80741978,-95.81204268,32.31490032,29.92465803,108.07894082
-0.59355980,0.02593104,-2.56272458

>  <Name>
ligand

>  <RI>
2.51964e+07

>  <Rbt.Current_Directory>
/home/itssahil/PROJECTS/Mol_Feturizer/New_Systems/rnas/4RZD

>  <Rbt.Executable>
rbdock ($Id: //depot/dev/client3/rdock/2013.1/src/exe/rbdock.cxx#4 $)

>  <Rbt.Library>
libRbt.so (2013.1, Build901 2013/11/27)

>  <Rbt.Parameter_File>
/export/apps/rDock/src/rDock_2013.1_src/data/scripts/dock_solv.prm

>  <Rbt.Receptor>
prm/pocket_docking_4.prm

>  <SCORE>
-50.1571

>  <SCORE.INTER>
-49.5506

>  <SCORE.INTER.CONST>
1

>  <SCORE.INTER.POLAR>
-5.12887

>  <SCORE.INTER.ROT>
3

>  <SCORE.INTER.SOLV>
11.8111

>  <SCORE.INTER.VDW>
-25.4745

>  <SCORE.INTER.norm>
-3.81158

>  <SCORE.INTRA>
-0.606563

>  <SCORE.INTRA.DIHEDRAL>
-0.879574

>  <SCORE.INTRA.DIHEDRAL.0>
4.88905

>  <SCORE.INTRA.POLAR>
0

>  <SCORE.INTRA.POLAR.0>
0

>  <SCORE.INTRA.REPUL>
0

>  <SCORE.INTRA.REPUL.0>
0

>  <SCORE.INTRA.SOLV>
-0.565886

>  <SCORE.INTRA.SOLV.lig_0>
-15.1033

>  <SCORE.INTRA.VDW>
0.116166

>  <SCORE.INTRA.VDW.0>
-0.755285

>  <SCORE.INTRA.norm>
-0.0466587

>  <SCORE.RESTR>
0

>  <SCORE.RESTR.CAVITY>
0

>  <SCORE.RESTR.norm>
0

>  <SCORE.SYSTEM>
0

>  <SCORE.SYSTEM.CONST>
0

>  <SCORE.SYSTEM.DIHEDRAL>
0

>  <SCORE.SYSTEM.SOLV>
0

>  <SCORE.SYSTEM.norm>
0

>  <SCORE.heavy>
13

>  <SCORE.norm>
-3.85824

>  <RMSD>
0.624

$$$$
ligand
 OpenBabel11021811513D
libRbt.so/2013.1/901 2013/11/27
 13 14  0  0  0  0  0  0  0  0999 V2000
   34.4832   29.8319  108.1356 N   0  0  0  0  0  0  0  0  0  0  0  0
   34.3813   31.0777  108.7965 C   0  0  0  0  0  0  0  0  0  0  0  0
   35.5829   31.7902  109.1498 N   0  0  0  0  0  0  0  0  0  0  0  0
   33.1635   31.6239  109.1112 N   0  0  0  0  0  0  0  0  0  0  0  0
   31.9654   30.9726  108.7905 C   0  0  0  0  0  0  0  0  0  0  0  0
   32.0233   29.7015  108.1174 C   0  0  0  0  0  0  0  0  0  0  0  0
   33.3344   29.1386  107.7926 C   0  0  0  0  0  0  0  0  0  0  0  0
   33.4296   27.9264  107.1502 O   0  0  0  0  0  0  0  0  0  0  0  0
   30.6463   29.2808  107.9260 C   0  0  0  0  0  0  0  0  0  0  0  0
   29.8413   30.2846  108.4659 C   0  0  0  0  0  0  0  0  0  0  0  0
   30.6322   31.2869  108.9813 N   0  0  0  0  0  0  0  0  0  0  0  0
   30.1841   28.0178  107.2632 C   0  0  0  0  0  0  0  0  0  0  0  0
   29.7877   28.3102  105.8980 N   0  0  0  0  0  0  0  0  0  0  0  0
  1  2  1  0  0  0  0
  1  7  1  0  0  0  0
  2  3  1  0  0  0  0
  2  4  2  0  0  0  0
  4  5  1  0  0  0  0
  5  6  2  0  0  0  0
  5 11  1  0  0  0  0
  6  7  1  0  0  0  0
  6  9  1  0  0  0  0
  7  8  2  0  0  0  0
  9 10  2  0  0  0  0
  9 12  1  0  0  0  0
 10 11  1  0  0  0  0
 12 13  1  0  0  0  0
M  END
>  <CHROM.1>
-172.45787568,-99.72244068,-96.42318892,32.31052294,29.92100904,108.08801975
-0.59306942,0.03390855,-2.56106733

>  <Name>
ligand

>  <RI>
2.73617e+07

>  <Rbt.Current_Directory>
/home/itssahil/PROJECTS/Mol_Feturizer/New_Systems/rnas/4RZD

>  <Rbt.Executable>
rbdock ($Id: //depot/dev/client3/rdock/2013.1/src/exe/rbdock.cxx#4 $)

>  <Rbt.Library>
libRbt.so (2013.1, Build901 2013/11/27)

>  <Rbt.Parameter_File>
/export/apps/rDock/src/rDock_2013.1_src/data/scripts/dock_solv.prm

>  <Rbt.Receptor>
prm/pocket_docking_6.prm

>  <SCORE>
-50.018

>  <SCORE.INTER>
-49.4295

>  <SCORE.INTER.CONST>
1

>  <SCORE.INTER.POLAR>
-5.14109

>  <SCORE.INTER.ROT>
3

>  <SCORE.INTER.SOLV>
11.835

>  <SCORE.INTER.VDW>
-25.361

>  <SCORE.INTER.norm>
-3.80227

>  <SCORE.INTRA>
-0.588564

>  <SCORE.INTRA.DIHEDRAL>
-0.842401

>  <SCORE.INTRA.DIHEDRAL.0>
4.88905

>  <SCORE.INTRA.POLAR>
0

>  <SCORE.INTRA.POLAR.0>
0

>  <SCORE.INTRA.REPUL>
0

>  <SCORE.INTRA.REPUL.0>
0

>  <SCORE.INTRA.SOLV>
-0.571678

>  <SCORE.INTRA.SOLV.lig_0>
-15.1033

>  <SCORE.INTRA.VDW>
0.118475

>  <SCORE.INTRA.VDW.0>
-0.755285

>  <SCORE.INTRA.norm>
-0.0452742

>  <SCORE.RESTR>
0

>  <SCORE.RESTR.CAVITY>
0

>  <SCORE.RESTR.norm>
0

>  <SCORE.SYSTEM>
0

>  <SCORE.SYSTEM.CONST>
0

>  <SCORE.SYSTEM.DIHEDRAL>
0

>  <SCORE.SYSTEM.SOLV>
0

>  <SCORE.SYSTEM.norm>
0

>  <SCORE.heavy>
13

>  <SCORE.norm>
-3.84754

>  <RMSD>
0.624

$$$$
ligand
 OpenBabel11021811513D
libRbt.so/2013.1/901 2013/11/27
 13 14  0  0  0  0  0  0  0  0999 V2000
   34.4835   29.8424  108.1088 N   0  0  0  0  0  0  0  0  0  0  0  0
   34.3823   31.0867  108.7727 C   0  0  0  0  0  0  0  0  0  0  0  0
   35.5840   31.8019  109.1199 N   0  0  0  0  0  0  0  0  0  0  0  0
   33.1650   31.6289  109.0959 N   0  0  0  0  0  0  0  0  0  0  0  0
   31.9667   30.9749  108.7813 C   0  0  0  0  0  0  0  0  0  0  0  0
   32.0239   29.7053  108.1054 C   0  0  0  0  0  0  0  0  0  0  0  0
   33.3346   29.1466  107.7715 C   0  0  0  0  0  0  0  0  0  0  0  0
   33.4292   27.9359  107.1261 O   0  0  0  0  0  0  0  0  0  0  0  0
   30.6470   29.2810  107.9216 C   0  0  0  0  0  0  0  0  0  0  0  0
   29.8426   30.2816  108.4684 C   0  0  0  0  0  0  0  0  0  0  0  0
   30.6339   31.2851  108.9808 N   0  0  0  0  0  0  0  0  0  0  0  0
   30.1842   28.0181  107.2593 C   0  0  0  0  0  0  0  0  0  0  0  0
   29.8021   28.3073  105.8894 N   0  0  0  0  0  0  0  0  0  0  0  0
  1  2  1  0  0  0  0
  1  7  1  0  0  0  0
  2  3  1  0  0  0  0
  2  4  2  0  0  0  0
  4  5  1  0  0  0  0
  5  6  2  0  0  0  0
  5 11  1  0  0  0  0
  6  7  1  0  0  0  0
  6  9  1  0  0  0  0
  7  8  2  0  0  0  0
  9 10  2  0  0  0  0
  9 12  1  0  0  0  0
 10 11  1  0  0  0  0
 12 13  1  0  0  0  0
M  END
>  <CHROM.1>
5.10662498,-98.67018763,-95.58061337,32.31244413,29.92529242,108.07400347
-0.59398452,0.02688324,-2.55844064

>  <Name>
ligand

>  <RI>
1.38753e+07

>  <Rbt.Current_Directory>
/home/itssahil/PROJECTS/Mol_Feturizer/New_Systems/rnas/4RZD

>  <Rbt.Executable>
rbdock ($Id: //depot/dev/client3/rdock/2013.1/src/exe/rbdock.cxx#4 $)

>  <Rbt.Library>
libRbt.so (2013.1, Build901 2013/11/27)

>  <Rbt.Parameter_File>
/export/apps/rDock/src/rDock_2013.1_src/data/scripts/dock_solv.prm

>  <Rbt.Receptor>
prm/pocket_docking_7.prm

>  <SCORE>
-50.1411

>  <SCORE.INTER>
-49.5277

>  <SCORE.INTER.CONST>
1

>  <SCORE.INTER.POLAR>
-5.13162

>  <SCORE.INTER.ROT>
3

>  <SCORE.INTER.SOLV>
11.8323

>  <SCORE.INTER.VDW>
-25.4571

>  <SCORE.INTER.norm>
-3.80982

>  <SCORE.INTRA>
-0.613389

>  <SCORE.INTRA.DIHEDRAL>
-0.893579

>  <SCORE.INTRA.DIHEDRAL.0>
4.88905

>  <SCORE.INTRA.POLAR>
0

>  <SCORE.INTRA.POLAR.0>
0

>  <SCORE.INTRA.REPUL>
0

>  <SCORE.INTRA.REPUL.0>
0

>  <SCORE.INTRA.SOLV>
-0.565201

>  <SCORE.INTRA.SOLV.lig_0>
-15.1033

>  <SCORE.INTRA.VDW>
0.116001

>  <SCORE.INTRA.VDW.0>
-0.755285

>  <SCORE.INTRA.norm>
-0.0471837

>  <SCORE.RESTR>
0

>  <SCORE.RESTR.CAVITY>
0

>  <SCORE.RESTR.norm>
0

>  <SCORE.SYSTEM>
0

>  <SCORE.SYSTEM.CONST>
0

>  <SCORE.SYSTEM.DIHEDRAL>
0

>  <SCORE.SYSTEM.SOLV>
0

>  <SCORE.SYSTEM.norm>
0

>  <SCORE.heavy>
13

>  <SCORE.norm>
-3.85701

>  <RMSD>
0.624

$$$$
ligand
 OpenBabel11021811513D
libRbt.so/2013.1/901 2013/11/27
 13 14  0  0  0  0  0  0  0  0999 V2000
   34.4904   29.8355  108.1154 N   0  0  0  0  0  0  0  0  0  0  0  0
   34.3928   31.0822  108.7752 C   0  0  0  0  0  0  0  0  0  0  0  0
   35.5966   31.7952  109.1199 N   0  0  0  0  0  0  0  0  0  0  0  0
   33.1770   31.6289  109.0968 N   0  0  0  0  0  0  0  0  0  0  0  0
   31.9769   30.9772  108.7845 C   0  0  0  0  0  0  0  0  0  0  0  0
   32.0304   29.7052  108.1128 C   0  0  0  0  0  0  0  0  0  0  0  0
   33.3395   29.1418  107.7806 C   0  0  0  0  0  0  0  0  0  0  0  0
   33.4307   27.9287  107.1392 O   0  0  0  0  0  0  0  0  0  0  0  0
   30.6523   29.2843  107.9306 C   0  0  0  0  0  0  0  0  0  0  0  0
   29.8508   30.2888  108.4742 C   0  0  0  0  0  0  0  0  0  0  0  0
   30.6450   31.2919  108.9832 N   0  0  0  0  0  0  0  0  0  0  0  0
   30.1859   28.0204  107.2725 C   0  0  0  0  0  0  0  0  0  0  0  0
   29.8131   28.3045  105.8989 N   0  0  0  0  0  0  0  0  0  0  0  0
  1  2  1  0  0  0  0
  1  7  1  0  0  0  0
  2  3  1  0  0  0  0
  2  4  2  0  0  0  0
  4  5  1  0  0  0  0
  5  6  2  0  0  0  0
  5 11  1  0  0  0  0
  6  7  1  0  0  0  0
  6  9  1  0  0  0  0
  7  8  2  0  0  0  0
  9 10  2  0  0  0  0
  9 12  1  0  0  0  0
 10 11  1  0  0  0  0
 12 13  1  0  0  0  0
M  END
>  <CHROM.1>
-6.76956570,-98.28064594,-95.50210220,32.32037048,29.92417601,108.08038446
-0.59221071,0.02860642,-2.56216935

>  <Name>
ligand

>  <RI>
1.0531e+07

>  <Rbt.Current_Directory>
/home/itssahil/PROJECTS/Mol_Feturizer/New_Systems/rnas/4RZD

>  <Rbt.Executable>
rbdock ($Id: //depot/dev/client3/rdock/2013.1/src/exe/rbdock.cxx#4 $)

>  <Rbt.Library>
libRbt.so (2013.1, Build901 2013/11/27)

>  <Rbt.Parameter_File>
/export/apps/rDock/src/rDock_2013.1_src/data/scripts/dock_solv.prm

>  <Rbt.Receptor>
prm/pocket_docking_8.prm

>  <SCORE>
-50.1627

>  <SCORE.INTER>
-49.5472

>  <SCORE.INTER.CONST>
1

>  <SCORE.INTER.POLAR>
-5.12907

>  <SCORE.INTER.ROT>
3

>  <SCORE.INTER.SOLV>
11.8149

>  <SCORE.INTER.VDW>
-25.4729

>  <SCORE.INTER.norm>
-3.81132

>  <SCORE.INTRA>
-0.615574

>  <SCORE.INTRA.DIHEDRAL>
-0.898582

>  <SCORE.INTRA.DIHEDRAL.0>
4.88905

>  <SCORE.INTRA.POLAR>
0

>  <SCORE.INTRA.POLAR.0>
0

>  <SCORE.INTRA.REPUL>
0

>  <SCORE.INTRA.REPUL.0>
0

>  <SCORE.INTRA.SOLV>
-0.562883

>  <SCORE.INTRA.SOLV.lig_0>
-15.1033

>  <SCORE.INTRA.VDW>
0.115159

>  <SCORE.INTRA.VDW.0>
-0.755285

>  <SCORE.INTRA.norm>
-0.0473518

>  <SCORE.RESTR>
0

>  <SCORE.RESTR.CAVITY>
0

>  <SCORE.RESTR.norm>
0

>  <SCORE.SYSTEM>
0

>  <SCORE.SYSTEM.CONST>
0

>  <SCORE.SYSTEM.DIHEDRAL>
0

>  <SCORE.SYSTEM.SOLV>
0

>  <SCORE.SYSTEM.norm>
0

>  <SCORE.heavy>
13

>  <SCORE.norm>
-3.85867

>  <RMSD>
0.624

$$$$
ligand
 OpenBabel11021811513D
libRbt.so/2013.1/901 2013/11/27
 13 14  0  0  0  0  0  0  0  0999 V2000
   34.4885   29.8397  108.1141 N   0  0  0  0  0  0  0  0  0  0  0  0
   34.3897   31.0863  108.7738 C   0  0  0  0  0  0  0  0  0  0  0  0
   35.5928   31.8008  109.1179 N   0  0  0  0  0  0  0  0  0  0  0  0
   33.1734   31.6315  109.0960 N   0  0  0  0  0  0  0  0  0  0  0  0
   31.9739   30.9784  108.7844 C   0  0  0  0  0  0  0  0  0  0  0  0
   32.0287   29.7064  108.1128 C   0  0  0  0  0  0  0  0  0  0  0  0
   33.3383   29.1445  107.7799 C   0  0  0  0  0  0  0  0  0  0  0  0
   33.4306   27.9315  107.1386 O   0  0  0  0  0  0  0  0  0  0  0  0
   30.6510   29.2837  107.9313 C   0  0  0  0  0  0  0  0  0  0  0  0
   29.8485   30.2874  108.4752 C   0  0  0  0  0  0  0  0  0  0  0  0
   30.6417   31.2914  108.9837 N   0  0  0  0  0  0  0  0  0  0  0  0
   30.1858   28.0192  107.2735 C   0  0  0  0  0  0  0  0  0  0  0  0
   29.8131   28.3025  105.8998 N   0  0  0  0  0  0  0  0  0  0  0  0
  1  2  1  0  0  0  0
  1  7  1  0  0  0  0
  2  3  1  0  0  0  0
  2  4  2  0  0  0  0
  4  5  1  0  0  0  0
  5  6  2  0  0  0  0
  5 11  1  0  0  0  0
  6  7  1  0  0  0  0
  6  9  1  0  0  0  0
  7  8  2  0  0  0  0
  9 10  2  0  0  0  0
  9 12  1  0  0  0  0
 10 11  1  0  0  0  0
 12 13  1  0  0  0  0
M  END
>  <CHROM.1>
-178.16001707,-98.22919330,-95.38847399,32.31845494,29.92562500,108.08010348
-0.59297728,0.02712748,-2.56167749

>  <Name>
ligand

>  <RI>
2.51964e+07

>  <Rbt.Current_Directory>
/home/itssahil/PROJECTS/Mol_Feturizer/New_Systems/rnas/4RZD

>  <Rbt.Executable>
rbdock ($Id: //depot/dev/client3/rdock/2013.1/src/exe/rbdock.cxx#4 $)

>  <Rbt.Library>
libRbt.so (2013.1, Build901 2013/11/27)

>  <Rbt.Parameter_File>
/export/apps/rDock/src/rDock_2013.1_src/data/scripts/dock_solv.prm

>  <Rbt.Receptor>
prm/pocket_docking_4.prm

>  <SCORE>
-50.1479

>  <SCORE.INTER>
-49.5288

>  <SCORE.INTER.CONST>
1

>  <SCORE.INTER.POLAR>
-5.12654

>  <SCORE.INTER.ROT>
3

>  <SCORE.INTER.SOLV>
11.7908

>  <SCORE.INTER.VDW>
-25.461

>  <SCORE.INTER.norm>
-3.80991

>  <SCORE.INTRA>
-0.619071

>  <SCORE.INTRA.DIHEDRAL>
-0.90548

>  <SCORE.INTRA.DIHEDRAL.0>
4.88905

>  <SCORE.INTRA.POLAR>
0

>  <SCORE.INTRA.POLAR.0>
0

>  <SCORE.INTRA.REPUL>
0

>  <SCORE.INTRA.REPUL.0>
0

>  <SCORE.INTRA.SOLV>
-0.562302

>  <SCORE.INTRA.SOLV.lig_0>
-15.1033

>  <SCORE.INTRA.VDW>
0.11482

>  <SCORE.INTRA.VDW.0>
-0.755285

>  <SCORE.INTRA.norm>
-0.0476208

>  <SCORE.RESTR>
0

>  <SCORE.RESTR.CAVITY>
0

>  <SCORE.RESTR.norm>
0

>  <SCORE.SYSTEM>
0

>  <SCORE.SYSTEM.CONST>
0

>  <SCORE.SYSTEM.DIHEDRAL>
0

>  <SCORE.SYSTEM.SOLV>
0

>  <SCORE.SYSTEM.norm>
0

>  <SCORE.heavy>
13

>  <SCORE.norm>
-3.85753

>  <RMSD>
0.625

$$$$
ligand
 OpenBabel11021811513D
libRbt.so/2013.1/901 2013/11/27
 13 14  0  0  0  0  0  0  0  0999 V2000
   34.4889   29.8440  108.1131 N   0  0  0  0  0  0  0  0  0  0  0  0
   34.3880   31.0904  108.7730 C   0  0  0  0  0  0  0  0  0  0  0  0
   35.5899   31.8066  109.1176 N   0  0  0  0  0  0  0  0  0  0  0  0
   33.1708   31.6338  109.0947 N   0  0  0  0  0  0  0  0  0  0  0  0
   31.9724   30.9789  108.7826 C   0  0  0  0  0  0  0  0  0  0  0  0
   32.0293   29.7071  108.1108 C   0  0  0  0  0  0  0  0  0  0  0  0
   33.3399   29.1472  107.7783 C   0  0  0  0  0  0  0  0  0  0  0  0
   33.4341   27.9344  107.1369 O   0  0  0  0  0  0  0  0  0  0  0  0
   30.6523   29.2825  107.9287 C   0  0  0  0  0  0  0  0  0  0  0  0
   29.8481   30.2849  108.4724 C   0  0  0  0  0  0  0  0  0  0  0  0
   30.6397   31.2900  108.9814 N   0  0  0  0  0  0  0  0  0  0  0  0
   30.1892   28.0174  107.2705 C   0  0  0  0  0  0  0  0  0  0  0  0
   29.8128   28.3011  105.8979 N   0  0  0  0  0  0  0  0  0  0  0  0
  1  2  1  0  0  0  0
  1  7  1  0  0  0  0
  2  3  1  0  0  0  0
  2  4  2  0  0  0  0
  4  5  1  0  0  0  0
  5  6  2  0  0  0  0
  5 11  1  0  0  0  0
  6  7  1  0  0  0  0
  6  9  1  0  0  0  0
  7  8  2  0  0  0  0
  9 10  2  0  0  0  0
  9 12  1  0  0  0  0
 10 11  1  0  0  0  0
 12 13  1  0  0  0  0
M  END
>  <CHROM.1>
-1.54306046,-98.40066984,-95.29789035,32.31837445,29.92690863,108.07841199
-0.59418096,0.02691553,-2.56185901

>  <Name>
ligand

>  <RI>
1.0531e+07

>  <Rbt.Current_Directory>
/home/itssahil/PROJECTS/Mol_Feturizer/New_Systems/rnas/4RZD

>  <Rbt.Executable>
rbdock ($Id: //depot/dev/client3/rdock/2013.1/src/exe/rbdock.cxx#4 $)

>  <Rbt.Library>
libRbt.so (2013.1, Build901 2013/11/27)

>  <Rbt.Parameter_File>
/export/apps/rDock/src/rDock_2013.1_src/data/scripts/dock_solv.prm

>  <Rbt.Receptor>
prm/pocket_docking_8.prm

>  <SCORE>
-50.1566

>  <SCORE.INTER>
-49.5348

>  <SCORE.INTER.CONST>
1

>  <SCORE.INTER.POLAR>
-5.12823

>  <SCORE.INTER.ROT>
3

>  <SCORE.INTER.SOLV>
11.8025

>  <SCORE.INTER.VDW>
-25.4633

>  <SCORE.INTER.norm>
-3.81037

>  <SCORE.INTRA>
-0.621835

>  <SCORE.INTRA.DIHEDRAL>
-0.910832

>  <SCORE.INTRA.DIHEDRAL.0>
4.88905

>  <SCORE.INTRA.POLAR>
0

>  <SCORE.INTRA.POLAR.0>
0

>  <SCORE.INTRA.REPUL>
0

>  <SCORE.INTRA.REPUL.0>
0

>  <SCORE.INTRA.SOLV>
-0.563444

>  <SCORE.INTRA.SOLV.lig_0>
-15.1033

>  <SCORE.INTRA.VDW>
0.115302

>  <SCORE.INTRA.VDW.0>
-0.755285

>  <SCORE.INTRA.norm>
-0.0478335

>  <SCORE.RESTR>
0

>  <SCORE.RESTR.CAVITY>
0

>  <SCORE.RESTR.norm>
0

>  <SCORE.SYSTEM>
0

>  <SCORE.SYSTEM.CONST>
0

>  <SCORE.SYSTEM.DIHEDRAL>
0

>  <SCORE.SYSTEM.SOLV>
0

>  <SCORE.SYSTEM.norm>
0

>  <SCORE.heavy>
13

>  <SCORE.norm>
-3.8582

>  <RMSD>
0.625

$$$$
ligand
 OpenBabel11021811513D
libRbt.so/2013.1/901 2013/11/27
 13 14  0  0  0  0  0  0  0  0999 V2000
   34.4868   29.8405  108.1079 N   0  0  0  0  0  0  0  0  0  0  0  0
   34.3878   31.0853  108.7710 C   0  0  0  0  0  0  0  0  0  0  0  0
   35.5908   31.7986  109.1178 N   0  0  0  0  0  0  0  0  0  0  0  0
   33.1715   31.6299  109.0940 N   0  0  0  0  0  0  0  0  0  0  0  0
   31.9720   30.9779  108.7799 C   0  0  0  0  0  0  0  0  0  0  0  0
   32.0269   29.7078  108.1048 C   0  0  0  0  0  0  0  0  0  0  0  0
   33.3366   29.1465  107.7711 C   0  0  0  0  0  0  0  0  0  0  0  0
   33.4290   27.9352  107.1265 O   0  0  0  0  0  0  0  0  0  0  0  0
   30.6493   29.2858  107.9213 C   0  0  0  0  0  0  0  0  0  0  0  0
   29.8466   30.2881  108.4675 C   0  0  0  0  0  0  0  0  0  0  0  0
   30.6397   31.2906  108.9793 N   0  0  0  0  0  0  0  0  0  0  0  0
   30.1842   28.0233  107.2597 C   0  0  0  0  0  0  0  0  0  0  0  0
   29.8154   28.3098  105.8857 N   0  0  0  0  0  0  0  0  0  0  0  0
  1  2  1  0  0  0  0
  1  7  1  0  0  0  0
  2  3  1  0  0  0  0
  2  4  2  0  0  0  0
  4  5  1  0  0  0  0
  5  6  2  0  0  0  0
  5 11  1  0  0  0  0
  6  7  1  0  0  0  0
  6  9  1  0  0  0  0
  7  8  2  0  0  0  0
  9 10  2  0  0  0  0
  9 12  1  0  0  0  0
 10 11  1  0  0  0  0
 12 13  1  0  0  0  0
M  END
>  <CHROM.1>
3.14062010,-98.09540826,-95.08410512,32.31697069,29.92700961,108.07282002
-0.59347261,0.02763899,-2.55872380

>  <Name>
ligand

>  <RI>
1.0531e+07

>  <Rbt.Current_Directory>
/home/itssahil/PROJECTS/Mol_Feturizer/New_Systems/rnas/4RZD

>  <Rbt.Executable>
rbdock ($Id: //depot/dev/client3/rdock/2013.1/src/exe/rbdock.cxx#4 $)

>  <Rbt.Library>
libRbt.so (2013.1, Build901 2013/11/27)

>  <Rbt.Parameter_File>
/export/apps/rDock/src/rDock_2013.1_src/data/scripts/dock_solv.prm

>  <Rbt.Receptor>
prm/pocket_docking_8.prm

>  <SCORE>
-50.1439

>  <SCORE.INTER>
-49.5157

>  <SCORE.INTER.CONST>
1

>  <SCORE.INTER.POLAR>
-5.12986

>  <SCORE.INTER.ROT>
3

>  <SCORE.INTER.SOLV>
11.8203

>  <SCORE.INTER.VDW>
-25.4511

>  <SCORE.INTER.norm>
-3.8089

>  <SCORE.INTRA>
-0.628162

>  <SCORE.INTRA.DIHEDRAL>
-0.92399

>  <SCORE.INTRA.DIHEDRAL.0>
4.88905

>  <SCORE.INTRA.POLAR>
0

>  <SCORE.INTRA.POLAR.0>
0

>  <SCORE.INTRA.REPUL>
0

>  <SCORE.INTRA.REPUL.0>
0

>  <SCORE.INTRA.SOLV>
-0.561576

>  <SCORE.INTRA.SOLV.lig_0>
-15.1033

>  <SCORE.INTRA.VDW>
0.114621

>  <SCORE.INTRA.VDW.0>
-0.755285

>  <SCORE.INTRA.norm>
-0.0483202

>  <SCORE.RESTR>
0

>  <SCORE.RESTR.CAVITY>
0

>  <SCORE.RESTR.norm>
0

>  <SCORE.SYSTEM>
0

>  <SCORE.SYSTEM.CONST>
0

>  <SCORE.SYSTEM.DIHEDRAL>
0

>  <SCORE.SYSTEM.SOLV>
0

>  <SCORE.SYSTEM.norm>
0

>  <SCORE.heavy>
13

>  <SCORE.norm>
-3.85722

>  <RMSD>
0.625

$$$$
ligand
 OpenBabel11021811513D
libRbt.so/2013.1/901 2013/11/27
 13 14  0  0  0  0  0  0  0  0999 V2000
   34.4935   29.8330  108.1174 N   0  0  0  0  0  0  0  0  0  0  0  0
   34.3972   31.0811  108.7750 C   0  0  0  0  0  0  0  0  0  0  0  0
   35.6017   31.7944  109.1165 N   0  0  0  0  0  0  0  0  0  0  0  0
   33.1820   31.6287  109.0973 N   0  0  0  0  0  0  0  0  0  0  0  0
   31.9812   30.9767  108.7881 C   0  0  0  0  0  0  0  0  0  0  0  0
   32.0335   29.7034  108.1188 C   0  0  0  0  0  0  0  0  0  0  0  0
   33.3419   29.1390  107.7857 C   0  0  0  0  0  0  0  0  0  0  0  0
   33.4318   27.9246  107.1465 O   0  0  0  0  0  0  0  0  0  0  0  0
   30.6550   29.2824  107.9395 C   0  0  0  0  0  0  0  0  0  0  0  0
   29.8545   30.2882  108.4824 C   0  0  0  0  0  0  0  0  0  0  0  0
   30.6497   31.2921  108.9882 N   0  0  0  0  0  0  0  0  0  0  0  0
   30.1872   28.0174  107.2845 C   0  0  0  0  0  0  0  0  0  0  0  0
   29.7927   28.3029  105.9174 N   0  0  0  0  0  0  0  0  0  0  0  0
  1  2  1  0  0  0  0
  1  7  1  0  0  0  0
  2  3  1  0  0  0  0
  2  4  2  0  0  0  0
  4  5  1  0  0  0  0
  5  6  2  0  0  0  0
  5 11  1  0  0  0  0
  6  7  1  0  0  0  0
  6  9  1  0  0  0  0
  7  8  2  0  0  0  0
  9 10  2  0  0  0  0
  9 12  1  0  0  0  0
 10 11  1  0  0  0  0
 12 13  1  0  0  0  0
M  END
>  <CHROM.1>
-176.09431484,-99.16394090,-96.45898888,32.32170814,29.92246392,108.08606550
-0.58956507,0.02741544,-2.56422374

>  <Name>
ligand

>  <RI>
2.73617e+07

>  <Rbt.Current_Directory>
/home/itssahil/PROJECTS/Mol_Feturizer/New_Systems/rnas/4RZD

>  <Rbt.Executable>
rbdock ($Id: //depot/dev/client3/rdock/2013.1/src/exe/rbdock.cxx#4 $)

>  <Rbt.Library>
libRbt.so (2013.1, Build901 2013/11/27)

>  <Rbt.Parameter_File>
/export/apps/rDock/src/rDock_2013.1_src/data/scripts/dock_solv.prm

>  <Rbt.Receptor>
prm/pocket_docking_6.prm

>  <SCORE>
-50.1219

>  <SCORE.INTER>
-49.5345

>  <SCORE.INTER.CONST>
1

>  <SCORE.INTER.POLAR>
-5.12621

>  <SCORE.INTER.ROT>
3

>  <SCORE.INTER.SOLV>
11.7915

>  <SCORE.INTER.VDW>
-25.4661

>  <SCORE.INTER.norm>
-3.81034

>  <SCORE.INTRA>
-0.58741

>  <SCORE.INTRA.DIHEDRAL>
-0.840705

>  <SCORE.INTRA.DIHEDRAL.0>
4.88905

>  <SCORE.INTRA.POLAR>
0

>  <SCORE.INTRA.POLAR.0>
0

>  <SCORE.INTRA.REPUL>
0

>  <SCORE.INTRA.REPUL.0>
0

>  <SCORE.INTRA.SOLV>
-0.568177

>  <SCORE.INTRA.SOLV.lig_0>
-15.1033

>  <SCORE.INTRA.VDW>
0.117031

>  <SCORE.INTRA.VDW.0>
-0.755285

>  <SCORE.INTRA.norm>
-0.0451854

>  <SCORE.RESTR>
0

>  <SCORE.RESTR.CAVITY>
0

>  <SCORE.RESTR.norm>
0

>  <SCORE.SYSTEM>
0

>  <SCORE.SYSTEM.CONST>
0

>  <SCORE.SYSTEM.DIHEDRAL>
0

>  <SCORE.SYSTEM.SOLV>
0

>  <SCORE.SYSTEM.norm>
0

>  <SCORE.heavy>
13

>  <SCORE.norm>
-3.85553

>  <RMSD>
0.627

$$$$
ligand
 OpenBabel11021811513D
libRbt.so/2013.1/901 2013/11/27
 13 14  0  0  0  0  0  0  0  0999 V2000
   34.4862   29.8586  108.1091 N   0  0  0  0  0  0  0  0  0  0  0  0
   34.3820   31.1045  108.7695 C   0  0  0  0  0  0  0  0  0  0  0  0
   35.5819   31.8242  109.1136 N   0  0  0  0  0  0  0  0  0  0  0  0
   33.1633   31.6441  109.0923 N   0  0  0  0  0  0  0  0  0  0  0  0
   31.9667   30.9857  108.7808 C   0  0  0  0  0  0  0  0  0  0  0  0
   32.0270   29.7143  108.1085 C   0  0  0  0  0  0  0  0  0  0  0  0
   33.3390   29.1584  107.7749 C   0  0  0  0  0  0  0  0  0  0  0  0
   33.4366   27.9462  107.1330 O   0  0  0  0  0  0  0  0  0  0  0  0
   30.6512   29.2855  107.9272 C   0  0  0  0  0  0  0  0  0  0  0  0
   29.8443   30.2852  108.4719 C   0  0  0  0  0  0  0  0  0  0  0  0
   30.6331   31.2926  108.9807 N   0  0  0  0  0  0  0  0  0  0  0  0
   30.1915   28.0192  107.2689 C   0  0  0  0  0  0  0  0  0  0  0  0
   29.8182   28.3013  105.8951 N   0  0  0  0  0  0  0  0  0  0  0  0
  1  2  1  0  0  0  0
  1  7  1  0  0  0  0
  2  3  1  0  0  0  0
  2  4  2  0  0  0  0
  4  5  1  0  0  0  0
  5  6  2  0  0  0  0
  5 11  1  0  0  0  0
  6  7  1  0  0  0  0
  6  9  1  0  0  0  0
  7  8  2  0  0  0  0
  9 10  2  0  0  0  0
  9 12  1  0  0  0  0
 10 11  1  0  0  0  0
 12 13  1  0  0  0  0
M  END
>  <CHROM.1>
-9.93854755,-98.17957937,-95.01739408,32.31581023,29.93486094,108.07585125
-0.59668996,0.02486978,-2.56175299

>  <Name>
ligand

>  <RI>
1.35221e+07

>  <Rbt.Current_Directory>
/home/itssahil/PROJECTS/Mol_Feturizer/New_Systems/rnas/4RZD

>  <Rbt.Executable>
rbdock ($Id: //depot/dev/client3/rdock/2013.1/src/exe/rbdock.cxx#4 $)

>  <Rbt.Library>
libRbt.so (2013.1, Build901 2013/11/27)

>  <Rbt.Parameter_File>
/export/apps/rDock/src/rDock_2013.1_src/data/scripts/dock_solv.prm

>  <Rbt.Receptor>
prm/pocket_docking_5.prm

>  <SCORE>
-50.1656

>  <SCORE.INTER>
-49.5356

>  <SCORE.INTER.CONST>
1

>  <SCORE.INTER.POLAR>
-5.12776

>  <SCORE.INTER.ROT>
3

>  <SCORE.INTER.SOLV>
11.8323

>  <SCORE.INTER.VDW>
-25.4753

>  <SCORE.INTER.norm>
-3.81043

>  <SCORE.INTRA>
-0.630051

>  <SCORE.INTRA.DIHEDRAL>
-0.927983

>  <SCORE.INTRA.DIHEDRAL.0>
4.88905

>  <SCORE.INTRA.POLAR>
0

>  <SCORE.INTRA.POLAR.0>
0

>  <SCORE.INTRA.REPUL>
0

>  <SCORE.INTRA.REPUL.0>
0

>  <SCORE.INTRA.SOLV>
-0.562364

>  <SCORE.INTRA.SOLV.lig_0>
-15.1033

>  <SCORE.INTRA.VDW>
0.115122

>  <SCORE.INTRA.VDW.0>
-0.755285

>  <SCORE.INTRA.norm>
-0.0484655

>  <SCORE.RESTR>
0

>  <SCORE.RESTR.CAVITY>
0

>  <SCORE.RESTR.norm>
0

>  <SCORE.SYSTEM>
0

>  <SCORE.SYSTEM.CONST>
0

>  <SCORE.SYSTEM.DIHEDRAL>
0

>  <SCORE.SYSTEM.SOLV>
0

>  <SCORE.SYSTEM.norm>
0

>  <SCORE.heavy>
13

>  <SCORE.norm>
-3.85889

>  <RMSD>
0.628

$$$$
ligand
 OpenBabel11021811513D
libRbt.so/2013.1/901 2013/11/27
 13 14  0  0  0  0  0  0  0  0999 V2000
   34.4924   29.8356  108.1066 N   0  0  0  0  0  0  0  0  0  0  0  0
   34.4016   31.0799  108.7719 C   0  0  0  0  0  0  0  0  0  0  0  0
   35.6093   31.7850  109.1194 N   0  0  0  0  0  0  0  0  0  0  0  0
   33.1889   31.6317  109.0962 N   0  0  0  0  0  0  0  0  0  0  0  0
   31.9852   30.9878  108.7814 C   0  0  0  0  0  0  0  0  0  0  0  0
   32.0318   29.7185  108.1041 C   0  0  0  0  0  0  0  0  0  0  0  0
   33.3378   29.1495  107.7691 C   0  0  0  0  0  0  0  0  0  0  0  0
   33.4222   27.9387  107.1224 O   0  0  0  0  0  0  0  0  0  0  0  0
   30.6514   29.3057  107.9205 C   0  0  0  0  0  0  0  0  0  0  0  0
   29.8554   30.3121  108.4686 C   0  0  0  0  0  0  0  0  0  0  0  0
   30.6550   31.3087  108.9818 N   0  0  0  0  0  0  0  0  0  0  0  0
   30.1781   28.0472  107.2569 C   0  0  0  0  0  0  0  0  0  0  0  0
   29.8667   28.3259  105.8671 N   0  0  0  0  0  0  0  0  0  0  0  0
  1  2  1  0  0  0  0
  1  7  1  0  0  0  0
  2  3  1  0  0  0  0
  2  4  2  0  0  0  0
  4  5  1  0  0  0  0
  5  6  2  0  0  0  0
  5 11  1  0  0  0  0
  6  7  1  0  0  0  0
  6  9  1  0  0  0  0
  7  8  2  0  0  0  0
  9 10  2  0  0  0  0
  9 12  1  0  0  0  0
 10 11  1  0  0  0  0
 12 13  1  0  0  0  0
M  END
>  <CHROM.1>
6.05332968,-95.59788627,-94.16399673,32.32825901,29.93490811,108.07091948
-0.59254665,0.02945711,-2.55496083

>  <Name>
ligand

>  <RI>
2.51964e+07

>  <Rbt.Current_Directory>
/home/itssahil/PROJECTS/Mol_Feturizer/New_Systems/rnas/4RZD

>  <Rbt.Executable>
rbdock ($Id: //depot/dev/client3/rdock/2013.1/src/exe/rbdock.cxx#4 $)

>  <Rbt.Library>
libRbt.so (2013.1, Build901 2013/11/27)

>  <Rbt.Parameter_File>
/export/apps/rDock/src/rDock_2013.1_src/data/scripts/dock_solv.prm

>  <Rbt.Receptor>
prm/pocket_docking_4.prm

>  <SCORE>
-50.1313

>  <SCORE.INTER>
-49.4651

>  <SCORE.INTER.CONST>
1

>  <SCORE.INTER.POLAR>
-5.12001

>  <SCORE.INTER.ROT>
3

>  <SCORE.INTER.SOLV>
11.7738

>  <SCORE.INTER.VDW>
-25.4346

>  <SCORE.INTER.norm>
-3.80501

>  <SCORE.INTRA>
-0.666253

>  <SCORE.INTRA.DIHEDRAL>
-0.98159

>  <SCORE.INTRA.DIHEDRAL.0>
4.88905

>  <SCORE.INTRA.POLAR>
0

>  <SCORE.INTRA.POLAR.0>
0

>  <SCORE.INTRA.REPUL>
0

>  <SCORE.INTRA.REPUL.0>
0

>  <SCORE.INTRA.SOLV>
-0.546132

>  <SCORE.INTRA.SOLV.lig_0>
-15.1033

>  <SCORE.INTRA.VDW>
0.0976079

>  <SCORE.INTRA.VDW.0>
-0.755285

>  <SCORE.INTRA.norm>
-0.0512503

>  <SCORE.RESTR>
0

>  <SCORE.RESTR.CAVITY>
0

>  <SCORE.RESTR.norm>
0

>  <SCORE.SYSTEM>
0

>  <SCORE.SYSTEM.CONST>
0

>  <SCORE.SYSTEM.DIHEDRAL>
0

>  <SCORE.SYSTEM.SOLV>
0

>  <SCORE.SYSTEM.norm>
0

>  <SCORE.heavy>
13

>  <SCORE.norm>
-3.85626

>  <RMSD>
0.629

$$$$
ligand
 OpenBabel11021811513D
libRbt.so/2013.1/901 2013/11/27
 13 14  0  0  0  0  0  0  0  0999 V2000
   34.4911   29.8347  108.1096 N   0  0  0  0  0  0  0  0  0  0  0  0
   34.4012   31.0808  108.7718 C   0  0  0  0  0  0  0  0  0  0  0  0
   35.6094   31.7861  109.1169 N   0  0  0  0  0  0  0  0  0  0  0  0
   33.1889   31.6339  109.0953 N   0  0  0  0  0  0  0  0  0  0  0  0
   31.9847   30.9899  108.7828 C   0  0  0  0  0  0  0  0  0  0  0  0
   32.0303   29.7188  108.1087 C   0  0  0  0  0  0  0  0  0  0  0  0
   33.3359   29.1484  107.7743 C   0  0  0  0  0  0  0  0  0  0  0  0
   33.4194   27.9359  107.1306 O   0  0  0  0  0  0  0  0  0  0  0  0
   30.6497   29.3062  107.9267 C   0  0  0  0  0  0  0  0  0  0  0  0
   29.8544   30.3145  108.4728 C   0  0  0  0  0  0  0  0  0  0  0  0
   30.6548   31.3119  108.9831 N   0  0  0  0  0  0  0  0  0  0  0  0
   30.1754   28.0464  107.2666 C   0  0  0  0  0  0  0  0  0  0  0  0
   29.8399   28.3272  105.8828 N   0  0  0  0  0  0  0  0  0  0  0  0
  1  2  1  0  0  0  0
  1  7  1  0  0  0  0
  2  3  1  0  0  0  0
  2  4  2  0  0  0  0
  4  5  1  0  0  0  0
  5  6  2  0  0  0  0
  5 11  1  0  0  0  0
  6  7  1  0  0  0  0
  6  9  1  0  0  0  0
  7  8  2  0  0  0  0
  9 10  2  0  0  0  0
  9 12  1  0  0  0  0
 10 11  1  0  0  0  0
 12 13  1  0  0  0  0
M  END
>  <CHROM.1>
4.56768876,-96.64138338,-94.33993822,32.32478671,29.93548456,108.07536912
-0.58991925,0.02991874,-2.55842151

>  <Name>
ligand

>  <RI>
4.18181e+07

>  <Rbt.Current_Directory>
/home/itssahil/PROJECTS/Mol_Feturizer/New_Systems/rnas/4RZD

>  <Rbt.Executable>
rbdock ($Id: //depot/dev/client3/rdock/2013.1/src/exe/rbdock.cxx#4 $)

>  <Rbt.Library>
libRbt.so (2013.1, Build901 2013/11/27)

>  <Rbt.Parameter_File>
/export/apps/rDock/src/rDock_2013.1_src/data/scripts/dock_solv.prm

>  <Rbt.Receptor>
prm/pocket_docking_3.prm

>  <SCORE>
-50.1336

>  <SCORE.INTER>
-49.4834

>  <SCORE.INTER.CONST>
1

>  <SCORE.INTER.POLAR>
-5.11556

>  <SCORE.INTER.ROT>
3

>  <SCORE.INTER.SOLV>
11.7963

>  <SCORE.INTER.VDW>
-25.4692

>  <SCORE.INTER.norm>
-3.80642

>  <SCORE.INTRA>
-0.650132

>  <SCORE.INTRA.DIHEDRAL>
-0.970258

>  <SCORE.INTRA.DIHEDRAL.0>
4.88905

>  <SCORE.INTRA.POLAR>
0

>  <SCORE.INTRA.POLAR.0>
0

>  <SCORE.INTRA.REPUL>
0

>  <SCORE.INTRA.REPUL.0>
0

>  <SCORE.INTRA.SOLV>
-0.552575

>  <SCORE.INTRA.SOLV.lig_0>
-15.1033

>  <SCORE.INTRA.VDW>
0.111285

>  <SCORE.INTRA.VDW.0>
-0.755285

>  <SCORE.INTRA.norm>
-0.0500101

>  <SCORE.RESTR>
0

>  <SCORE.RESTR.CAVITY>
0

>  <SCORE.RESTR.norm>
0

>  <SCORE.SYSTEM>
0

>  <SCORE.SYSTEM.CONST>
0

>  <SCORE.SYSTEM.DIHEDRAL>
0

>  <SCORE.SYSTEM.SOLV>
0

>  <SCORE.SYSTEM.norm>
0

>  <SCORE.heavy>
13

>  <SCORE.norm>
-3.85643

>  <RMSD>
0.633

$$$$
ligand
 OpenBabel11021811513D
libRbt.so/2013.1/901 2013/11/27
 13 14  0  0  0  0  0  0  0  0999 V2000
   34.4969   29.8177  108.1069 N   0  0  0  0  0  0  0  0  0  0  0  0
   34.4111   31.0628  108.7713 C   0  0  0  0  0  0  0  0  0  0  0  0
   35.6216   31.7639  109.1170 N   0  0  0  0  0  0  0  0  0  0  0  0
   33.2006   31.6191  109.0964 N   0  0  0  0  0  0  0  0  0  0  0  0
   31.9944   30.9792  108.7833 C   0  0  0  0  0  0  0  0  0  0  0  0
   32.0358   29.7092  108.1070 C   0  0  0  0  0  0  0  0  0  0  0  0
   33.3395   29.1354  107.7711 C   0  0  0  0  0  0  0  0  0  0  0  0
   33.4190   27.9238  107.1252 O   0  0  0  0  0  0  0  0  0  0  0  0
   30.6538   29.3011  107.9251 C   0  0  0  0  0  0  0  0  0  0  0  0
   29.8619   30.3108  108.4732 C   0  0  0  0  0  0  0  0  0  0  0  0
   30.6655   31.3049  108.9848 N   0  0  0  0  0  0  0  0  0  0  0  0
   30.1754   28.0438  107.2630 C   0  0  0  0  0  0  0  0  0  0  0  0
   29.8108   28.3345  105.8887 N   0  0  0  0  0  0  0  0  0  0  0  0
  1  2  1  0  0  0  0
  1  7  1  0  0  0  0
  2  3  1  0  0  0  0
  2  4  2  0  0  0  0
  4  5  1  0  0  0  0
  5  6  2  0  0  0  0
  5 11  1  0  0  0  0
  6  7  1  0  0  0  0
  6  9  1  0  0  0  0
  7  8  2  0  0  0  0
  9 10  2  0  0  0  0
  9 12  1  0  0  0  0
 10 11  1  0  0  0  0
 12 13  1  0  0  0  0
M  END
>  <CHROM.1>
7.23256141,-97.94948905,-96.24434139,32.32835705,29.92551919,108.07474526
-0.58485841,0.03166367,-2.55765354

>  <Name>
ligand

>  <RI>
2.73617e+07

>  <Rbt.Current_Directory>
/home/itssahil/PROJECTS/Mol_Feturizer/New_Systems/rnas/4RZD

>  <Rbt.Executable>
rbdock ($Id: //depot/dev/client3/rdock/2013.1/src/exe/rbdock.cxx#4 $)

>  <Rbt.Library>
libRbt.so (2013.1, Build901 2013/11/27)

>  <Rbt.Parameter_File>
/export/apps/rDock/src/rDock_2013.1_src/data/scripts/dock_solv.prm

>  <Rbt.Receptor>
prm/pocket_docking_6.prm

>  <SCORE>
-50.1048

>  <SCORE.INTER>
-49.5116

>  <SCORE.INTER.CONST>
1

>  <SCORE.INTER.POLAR>
-5.13879

>  <SCORE.INTER.ROT>
3

>  <SCORE.INTER.SOLV>
11.8469

>  <SCORE.INTER.VDW>
-25.4274

>  <SCORE.INTER.norm>
-3.80858

>  <SCORE.INTRA>
-0.593266

>  <SCORE.INTRA.DIHEDRAL>
-0.854316

>  <SCORE.INTRA.DIHEDRAL.0>
4.88905

>  <SCORE.INTRA.POLAR>
0

>  <SCORE.INTRA.POLAR.0>
0

>  <SCORE.INTRA.REPUL>
0

>  <SCORE.INTRA.REPUL.0>
0

>  <SCORE.INTRA.SOLV>
-0.560995

>  <SCORE.INTRA.SOLV.lig_0>
-15.1033

>  <SCORE.INTRA.VDW>
0.114389

>  <SCORE.INTRA.VDW.0>
-0.755285

>  <SCORE.INTRA.norm>
-0.0456359

>  <SCORE.RESTR>
0

>  <SCORE.RESTR.CAVITY>
0

>  <SCORE.RESTR.norm>
0

>  <SCORE.SYSTEM>
0

>  <SCORE.SYSTEM.CONST>
0

>  <SCORE.SYSTEM.DIHEDRAL>
0

>  <SCORE.SYSTEM.SOLV>
0

>  <SCORE.SYSTEM.norm>
0

>  <SCORE.heavy>
13

>  <SCORE.norm>
-3.85422

>  <RMSD>
0.633

$$$$
ligand
 OpenBabel11021811513D
libRbt.so/2013.1/901 2013/11/27
 13 14  0  0  0  0  0  0  0  0999 V2000
   34.4904   29.8352  108.1102 N   0  0  0  0  0  0  0  0  0  0  0  0
   34.4000   31.0804  108.7738 C   0  0  0  0  0  0  0  0  0  0  0  0
   35.6079   31.7859  109.1195 N   0  0  0  0  0  0  0  0  0  0  0  0
   33.1875   31.6327  109.0980 N   0  0  0  0  0  0  0  0  0  0  0  0
   31.9836   30.9884  108.7849 C   0  0  0  0  0  0  0  0  0  0  0  0
   32.0297   29.7181  108.1094 C   0  0  0  0  0  0  0  0  0  0  0  0
   33.3355   29.1486  107.7743 C   0  0  0  0  0  0  0  0  0  0  0  0
   33.4195   27.9369  107.1293 O   0  0  0  0  0  0  0  0  0  0  0  0
   30.6492   29.3051  107.9272 C   0  0  0  0  0  0  0  0  0  0  0  0
   29.8536   30.3123  108.4744 C   0  0  0  0  0  0  0  0  0  0  0  0
   30.6535   31.3096  108.9857 N   0  0  0  0  0  0  0  0  0  0  0  0
   30.1754   28.0457  107.2658 C   0  0  0  0  0  0  0  0  0  0  0  0
   29.8316   28.3296  105.8847 N   0  0  0  0  0  0  0  0  0  0  0  0
  1  2  1  0  0  0  0
  1  7  1  0  0  0  0
  2  3  1  0  0  0  0
  2  4  2  0  0  0  0
  4  5  1  0  0  0  0
  5  6  2  0  0  0  0
  5 11  1  0  0  0  0
  6  7  1  0  0  0  0
  6  9  1  0  0  0  0
  7  8  2  0  0  0  0
  9 10  2  0  0  0  0
  9 12  1  0  0  0  0
 10 11  1  0  0  0  0
 12 13  1  0  0  0  0
M  END
>  <CHROM.1>
-7.57668476,-97.00271291,-95.31892476,32.32338534,29.93505787,108.07653494
-0.58958624,0.03019428,-2.55832529

>  <Name>
ligand

>  <RI>
2.51964e+07

>  <Rbt.Current_Directory>
/home/itssahil/PROJECTS/Mol_Feturizer/New_Systems/rnas/4RZD

>  <Rbt.Executable>
rbdock ($Id: //depot/dev/client3/rdock/2013.1/src/exe/rbdock.cxx#4 $)

>  <Rbt.Library>
libRbt.so (2013.1, Build901 2013/11/27)

>  <Rbt.Parameter_File>
/export/apps/rDock/src/rDock_2013.1_src/data/scripts/dock_solv.prm

>  <Rbt.Receptor>
prm/pocket_docking_4.prm

>  <SCORE>
-50.1895

>  <SCORE.INTER>
-49.569

>  <SCORE.INTER.CONST>
1

>  <SCORE.INTER.POLAR>
-5.13055

>  <SCORE.INTER.ROT>
3

>  <SCORE.INTER.SOLV>
11.8443

>  <SCORE.INTER.VDW>
-25.4922

>  <SCORE.INTER.norm>
-3.813

>  <SCORE.INTRA>
-0.62056

>  <SCORE.INTRA.DIHEDRAL>
-0.910455

>  <SCORE.INTRA.DIHEDRAL.0>
4.88905

>  <SCORE.INTRA.POLAR>
0

>  <SCORE.INTRA.POLAR.0>
0

>  <SCORE.INTRA.REPUL>
0

>  <SCORE.INTRA.REPUL.0>
0

>  <SCORE.INTRA.SOLV>
-0.555066

>  <SCORE.INTRA.SOLV.lig_0>
-15.1033

>  <SCORE.INTRA.VDW>
0.112201

>  <SCORE.INTRA.VDW.0>
-0.755285

>  <SCORE.INTRA.norm>
-0.0477354

>  <SCORE.RESTR>
0

>  <SCORE.RESTR.CAVITY>
0

>  <SCORE.RESTR.norm>
0

>  <SCORE.SYSTEM>
0

>  <SCORE.SYSTEM.CONST>
0

>  <SCORE.SYSTEM.DIHEDRAL>
0

>  <SCORE.SYSTEM.SOLV>
0

>  <SCORE.SYSTEM.norm>
0

>  <SCORE.heavy>
13

>  <SCORE.norm>
-3.86073

>  <RMSD>
0.634

$$$$
ligand
 OpenBabel11021811513D
libRbt.so/2013.1/901 2013/11/27
 13 14  0  0  0  0  0  0  0  0999 V2000
   34.4917   29.8186  108.1112 N   0  0  0  0  0  0  0  0  0  0  0  0
   34.4051   31.0634  108.7763 C   0  0  0  0  0  0  0  0  0  0  0  0
   35.6152   31.7641  109.1240 N   0  0  0  0  0  0  0  0  0  0  0  0
   33.1943   31.6195  109.1001 N   0  0  0  0  0  0  0  0  0  0  0  0
   31.9884   30.9800  108.7850 C   0  0  0  0  0  0  0  0  0  0  0  0
   32.0306   29.7104  108.1079 C   0  0  0  0  0  0  0  0  0  0  0  0
   33.3346   29.1367  107.7733 C   0  0  0  0  0  0  0  0  0  0  0  0
   33.4149   27.9255  107.1268 O   0  0  0  0  0  0  0  0  0  0  0  0
   30.6488   29.3026  107.9239 C   0  0  0  0  0  0  0  0  0  0  0  0
   29.8562   30.3120  108.4717 C   0  0  0  0  0  0  0  0  0  0  0  0
   30.6593   31.3057  108.9850 N   0  0  0  0  0  0  0  0  0  0  0  0
   30.1711   28.0458  107.2604 C   0  0  0  0  0  0  0  0  0  0  0  0
   29.8008   28.3391  105.8881 N   0  0  0  0  0  0  0  0  0  0  0  0
  1  2  1  0  0  0  0
  1  7  1  0  0  0  0
  2  3  1  0  0  0  0
  2  4  2  0  0  0  0
  4  5  1  0  0  0  0
  5  6  2  0  0  0  0
  5 11  1  0  0  0  0
  6  7  1  0  0  0  0
  6  9  1  0  0  0  0
  7  8  2  0  0  0  0
  9 10  2  0  0  0  0
  9 12  1  0  0  0  0
 10 11  1  0  0  0  0
 12 13  1  0  0  0  0
M  END
>  <CHROM.1>
2.65813870,-98.28773831,-96.63606516,32.32253132,29.92683741,108.07641853
-0.58488430,0.03314597,-2.55752449

>  <Name>
ligand

>  <RI>
1.35221e+07

>  <Rbt.Current_Directory>
/home/itssahil/PROJECTS/Mol_Feturizer/New_Systems/rnas/4RZD

>  <Rbt.Executable>
rbdock ($Id: //depot/dev/client3/rdock/2013.1/src/exe/rbdock.cxx#4 $)

>  <Rbt.Library>
libRbt.so (2013.1, Build901 2013/11/27)

>  <Rbt.Parameter_File>
/export/apps/rDock/src/rDock_2013.1_src/data/scripts/dock_solv.prm

>  <Rbt.Receptor>
prm/pocket_docking_5.prm

>  <SCORE>
-50.1432

>  <SCORE.INTER>
-49.5613

>  <SCORE.INTER.CONST>
1

>  <SCORE.INTER.POLAR>
-5.14359

>  <SCORE.INTER.ROT>
3

>  <SCORE.INTER.SOLV>
11.8758

>  <SCORE.INTER.VDW>
-25.4542

>  <SCORE.INTER.norm>
-3.81241

>  <SCORE.INTRA>
-0.581871

>  <SCORE.INTRA.DIHEDRAL>
-0.830837

>  <SCORE.INTRA.DIHEDRAL.0>
4.88905

>  <SCORE.INTRA.POLAR>
0

>  <SCORE.INTRA.POLAR.0>
0

>  <SCORE.INTRA.REPUL>
0

>  <SCORE.INTRA.REPUL.0>
0

>  <SCORE.INTRA.SOLV>
-0.562971

>  <SCORE.INTRA.SOLV.lig_0>
-15.1033

>  <SCORE.INTRA.VDW>
0.115033

>  <SCORE.INTRA.VDW.0>
-0.755285

>  <SCORE.INTRA.norm>
-0.0447593

>  <SCORE.RESTR>
0

>  <SCORE.RESTR.CAVITY>
0

>  <SCORE.RESTR.norm>
0

>  <SCORE.SYSTEM>
0

>  <SCORE.SYSTEM.CONST>
0

>  <SCORE.SYSTEM.DIHEDRAL>
0

>  <SCORE.SYSTEM.SOLV>
0

>  <SCORE.SYSTEM.norm>
0

>  <SCORE.heavy>
13

>  <SCORE.norm>
-3.85717

>  <RMSD>
0.634

$$$$
ligand
 OpenBabel11021811513D
libRbt.so/2013.1/901 2013/11/27
 13 14  0  0  0  0  0  0  0  0999 V2000
   34.4873   29.8226  108.1635 N   0  0  0  0  0  0  0  0  0  0  0  0
   34.3893   31.0650  108.8313 C   0  0  0  0  0  0  0  0  0  0  0  0
   35.5931   31.7659  109.1996 N   0  0  0  0  0  0  0  0  0  0  0  0
   33.1730   31.6187  109.1386 N   0  0  0  0  0  0  0  0  0  0  0  0
   31.9727   30.9788  108.8032 C   0  0  0  0  0  0  0  0  0  0  0  0
   32.0267   29.7115  108.1227 C   0  0  0  0  0  0  0  0  0  0  0  0
   33.3363   29.1404  107.8059 C   0  0  0  0  0  0  0  0  0  0  0  0
   33.4279   27.9315  107.1567 O   0  0  0  0  0  0  0  0  0  0  0  0
   30.6484   29.3027  107.9164 C   0  0  0  0  0  0  0  0  0  0  0  0
   29.8464   30.3094  108.4555 C   0  0  0  0  0  0  0  0  0  0  0  0
   30.6404   31.3023  108.9841 N   0  0  0  0  0  0  0  0  0  0  0  0
   30.1823   28.0476  107.2416 C   0  0  0  0  0  0  0  0  0  0  0  0
   29.8229   28.3469  105.8677 N   0  0  0  0  0  0  0  0  0  0  0  0
  1  2  1  0  0  0  0
  1  7  1  0  0  0  0
  2  3  1  0  0  0  0
  2  4  2  0  0  0  0
  4  5  1  0  0  0  0
  5  6  2  0  0  0  0
  5 11  1  0  0  0  0
  6  7  1  0  0  0  0
  6  9  1  0  0  0  0
  7  8  2  0  0  0  0
  9 10  2  0  0  0  0
  9 12  1  0  0  0  0
 10 11  1  0  0  0  0
 12 13  1  0  0  0  0
M  END
>  <CHROM.1>
172.02768227,-98.71110786,-95.52229336,32.31794795,29.92856498,108.09653452
-0.59317497,0.04578367,-2.55492436

>  <Name>
ligand

>  <RI>
1.35221e+07

>  <Rbt.Current_Directory>
/home/itssahil/PROJECTS/Mol_Feturizer/New_Systems/rnas/4RZD

>  <Rbt.Executable>
rbdock ($Id: //depot/dev/client3/rdock/2013.1/src/exe/rbdock.cxx#4 $)

>  <Rbt.Library>
libRbt.so (2013.1, Build901 2013/11/27)

>  <Rbt.Parameter_File>
/export/apps/rDock/src/rDock_2013.1_src/data/scripts/dock_solv.prm

>  <Rbt.Receptor>
prm/pocket_docking_5.prm

>  <SCORE>
-50.0906

>  <SCORE.INTER>
-49.4755

>  <SCORE.INTER.CONST>
1

>  <SCORE.INTER.POLAR>
-5.14767

>  <SCORE.INTER.ROT>
3

>  <SCORE.INTER.SOLV>
11.9158

>  <SCORE.INTER.VDW>
-25.3967

>  <SCORE.INTER.norm>
-3.80581

>  <SCORE.INTRA>
-0.615116

>  <SCORE.INTRA.DIHEDRAL>
-0.897069

>  <SCORE.INTRA.DIHEDRAL.0>
4.88905

>  <SCORE.INTRA.POLAR>
0

>  <SCORE.INTRA.POLAR.0>
0

>  <SCORE.INTRA.REPUL>
0

>  <SCORE.INTRA.REPUL.0>
0

>  <SCORE.INTRA.SOLV>
-0.565445

>  <SCORE.INTRA.SOLV.lig_0>
-15.1033

>  <SCORE.INTRA.VDW>
0.116141

>  <SCORE.INTRA.VDW.0>
-0.755285

>  <SCORE.INTRA.norm>
-0.0473166

>  <SCORE.RESTR>
0

>  <SCORE.RESTR.CAVITY>
0

>  <SCORE.RESTR.norm>
0

>  <SCORE.SYSTEM>
0

>  <SCORE.SYSTEM.CONST>
0

>  <SCORE.SYSTEM.DIHEDRAL>
0

>  <SCORE.SYSTEM.SOLV>
0

>  <SCORE.SYSTEM.norm>
0

>  <SCORE.heavy>
13

>  <SCORE.norm>
-3.85312

>  <RMSD>
0.634

$$$$
ligand
 OpenBabel11021811513D
libRbt.so/2013.1/901 2013/11/27
 13 14  0  0  0  0  0  0  0  0999 V2000
   34.5017   29.8270  108.1702 N   0  0  0  0  0  0  0  0  0  0  0  0
   34.4030   31.0691  108.8385 C   0  0  0  0  0  0  0  0  0  0  0  0
   35.6064   31.7697  109.2087 N   0  0  0  0  0  0  0  0  0  0  0  0
   33.1864   31.6229  109.1444 N   0  0  0  0  0  0  0  0  0  0  0  0
   31.9865   30.9833  108.8072 C   0  0  0  0  0  0  0  0  0  0  0  0
   32.0411   29.7164  108.1261 C   0  0  0  0  0  0  0  0  0  0  0  0
   33.3511   29.1452  107.8108 C   0  0  0  0  0  0  0  0  0  0  0  0
   33.4433   27.9366  107.1612 O   0  0  0  0  0  0  0  0  0  0  0  0
   30.6630   29.3079  107.9178 C   0  0  0  0  0  0  0  0  0  0  0  0
   29.8605   30.3144  108.4563 C   0  0  0  0  0  0  0  0  0  0  0  0
   30.6540   31.3070  108.9865 N   0  0  0  0  0  0  0  0  0  0  0  0
   30.1976   28.0531  107.2418 C   0  0  0  0  0  0  0  0  0  0  0  0
   29.8779   28.3451  105.8566 N   0  0  0  0  0  0  0  0  0  0  0  0
  1  2  1  0  0  0  0
  1  7  1  0  0  0  0
  2  3  1  0  0  0  0
  2  4  2  0  0  0  0
  4  5  1  0  0  0  0
  5  6  2  0  0  0  0
  5 11  1  0  0  0  0
  6  7  1  0  0  0  0
  6  9  1  0  0  0  0
  7  8  2  0  0  0  0
  9 10  2  0  0  0  0
  9 12  1  0  0  0  0
 10 11  1  0  0  0  0
 12 13  1  0  0  0  0
M  END
>  <CHROM.1>
170.21158145,-97.03210885,-93.15613907,32.33571685,29.93280827,108.09947977
-0.59670078,0.04628740,-2.55319602

>  <Name>
ligand

>  <RI>
2.73617e+07

>  <Rbt.Current_Directory>
/home/itssahil/PROJECTS/Mol_Feturizer/New_Systems/rnas/4RZD

>  <Rbt.Executable>
rbdock ($Id: //depot/dev/client3/rdock/2013.1/src/exe/rbdock.cxx#4 $)

>  <Rbt.Library>
libRbt.so (2013.1, Build901 2013/11/27)

>  <Rbt.Parameter_File>
/export/apps/rDock/src/rDock_2013.1_src/data/scripts/dock_solv.prm

>  <Rbt.Receptor>
prm/pocket_docking_6.prm

>  <SCORE>
-50.0903

>  <SCORE.INTER>
-49.4038

>  <SCORE.INTER.CONST>
1

>  <SCORE.INTER.POLAR>
-5.11755

>  <SCORE.INTER.ROT>
3

>  <SCORE.INTER.SOLV>
11.8519

>  <SCORE.INTER.VDW>
-25.428

>  <SCORE.INTER.norm>
-3.80029

>  <SCORE.INTRA>
-0.686484

>  <SCORE.INTRA.DIHEDRAL>
-1.04302

>  <SCORE.INTRA.DIHEDRAL.0>
4.88905

>  <SCORE.INTRA.POLAR>
0

>  <SCORE.INTRA.POLAR.0>
0

>  <SCORE.INTRA.REPUL>
0

>  <SCORE.INTRA.REPUL.0>
0

>  <SCORE.INTRA.SOLV>
-0.55493

>  <SCORE.INTRA.SOLV.lig_0>
-15.1033

>  <SCORE.INTRA.VDW>
0.112493

>  <SCORE.INTRA.VDW.0>
-0.755285

>  <SCORE.INTRA.norm>
-0.0528064

>  <SCORE.RESTR>
0

>  <SCORE.RESTR.CAVITY>
0

>  <SCORE.RESTR.norm>
0

>  <SCORE.SYSTEM>
0

>  <SCORE.SYSTEM.CONST>
0

>  <SCORE.SYSTEM.DIHEDRAL>
0

>  <SCORE.SYSTEM.SOLV>
0

>  <SCORE.SYSTEM.norm>
0

>  <SCORE.heavy>
13

>  <SCORE.norm>
-3.8531

>  <RMSD>
0.634

$$$$
ligand
 OpenBabel11021811513D
libRbt.so/2013.1/901 2013/11/27
 13 14  0  0  0  0  0  0  0  0999 V2000
   34.4940   29.8180  108.1531 N   0  0  0  0  0  0  0  0  0  0  0  0
   34.4018   31.0604  108.8218 C   0  0  0  0  0  0  0  0  0  0  0  0
   35.6090   31.7573  109.1870 N   0  0  0  0  0  0  0  0  0  0  0  0
   33.1883   31.6178  109.1330 N   0  0  0  0  0  0  0  0  0  0  0  0
   31.9850   30.9819  108.8008 C   0  0  0  0  0  0  0  0  0  0  0  0
   32.0329   29.7149  108.1194 C   0  0  0  0  0  0  0  0  0  0  0  0
   33.3398   29.1397  107.7986 C   0  0  0  0  0  0  0  0  0  0  0  0
   33.4256   27.9309  107.1485 O   0  0  0  0  0  0  0  0  0  0  0  0
   30.6527   29.3106  107.9169 C   0  0  0  0  0  0  0  0  0  0  0  0
   29.8555   30.3195  108.4589 C   0  0  0  0  0  0  0  0  0  0  0  0
   30.6542   31.3096  108.9858 N   0  0  0  0  0  0  0  0  0  0  0  0
   30.1806   28.0573  107.2429 C   0  0  0  0  0  0  0  0  0  0  0  0
   29.8515   28.3513  105.8603 N   0  0  0  0  0  0  0  0  0  0  0  0
  1  2  1  0  0  0  0
  1  7  1  0  0  0  0
  2  3  1  0  0  0  0
  2  4  2  0  0  0  0
  4  5  1  0  0  0  0
  5  6  2  0  0  0  0
  5 11  1  0  0  0  0
  6  7  1  0  0  0  0
  6  9  1  0  0  0  0
  7  8  2  0  0  0  0
  9 10  2  0  0  0  0
  9 12  1  0  0  0  0
 10 11  1  0  0  0  0
 12 13  1  0  0  0  0
M  END
>  <CHROM.1>
-172.59175676,-97.22972970,-94.85315348,32.32775742,29.93039064,108.09161911
-0.59170564,0.04378058,-2.55241224

>  <Name>
ligand

>  <RI>
1.38753e+07

>  <Rbt.Current_Directory>
/home/itssahil/PROJECTS/Mol_Feturizer/New_Systems/rnas/4RZD

>  <Rbt.Executable>
rbdock ($Id: //depot/dev/client3/rdock/2013.1/src/exe/rbdock.cxx#4 $)

>  <Rbt.Library>
libRbt.so (2013.1, Build901 2013/11/27)

>  <Rbt.Parameter_File>
/export/apps/rDock/src/rDock_2013.1_src/data/scripts/dock_solv.prm

>  <Rbt.Receptor>
prm/pocket_docking_7.prm

>  <SCORE>
-50.0288

>  <SCORE.INTER>
-49.3941

>  <SCORE.INTER.CONST>
1

>  <SCORE.INTER.POLAR>
-5.13726

>  <SCORE.INTER.ROT>
3

>  <SCORE.INTER.SOLV>
11.8586

>  <SCORE.INTER.VDW>
-25.3581

>  <SCORE.INTER.norm>
-3.79954

>  <SCORE.INTRA>
-0.634756

>  <SCORE.INTRA.DIHEDRAL>
-0.938581

>  <SCORE.INTRA.DIHEDRAL.0>
4.88905

>  <SCORE.INTRA.POLAR>
0

>  <SCORE.INTRA.POLAR.0>
0

>  <SCORE.INTRA.REPUL>
0

>  <SCORE.INTRA.REPUL.0>
0

>  <SCORE.INTRA.SOLV>
-0.556275

>  <SCORE.INTRA.SOLV.lig_0>
-15.1033

>  <SCORE.INTRA.VDW>
0.112672

>  <SCORE.INTRA.VDW.0>
-0.755285

>  <SCORE.INTRA.norm>
-0.0488274

>  <SCORE.RESTR>
0

>  <SCORE.RESTR.CAVITY>
0

>  <SCORE.RESTR.norm>
0

>  <SCORE.SYSTEM>
0

>  <SCORE.SYSTEM.CONST>
0

>  <SCORE.SYSTEM.DIHEDRAL>
0

>  <SCORE.SYSTEM.SOLV>
0

>  <SCORE.SYSTEM.norm>
0

>  <SCORE.heavy>
13

>  <SCORE.norm>
-3.84837

>  <RMSD>
0.634

$$$$
ligand
 OpenBabel11021811513D
libRbt.so/2013.1/901 2013/11/27
 13 14  0  0  0  0  0  0  0  0999 V2000
   34.5014   29.8199  108.1669 N   0  0  0  0  0  0  0  0  0  0  0  0
   34.4050   31.0625  108.8346 C   0  0  0  0  0  0  0  0  0  0  0  0
   35.6098   31.7620  109.2028 N   0  0  0  0  0  0  0  0  0  0  0  0
   33.1894   31.6178  109.1420 N   0  0  0  0  0  0  0  0  0  0  0  0
   31.9884   30.9793  108.8069 C   0  0  0  0  0  0  0  0  0  0  0  0
   32.0407   29.7119  108.1264 C   0  0  0  0  0  0  0  0  0  0  0  0
   33.3496   29.1391  107.8096 C   0  0  0  0  0  0  0  0  0  0  0  0
   33.4395   27.9301  107.1605 O   0  0  0  0  0  0  0  0  0  0  0  0
   30.6618   29.3048  107.9204 C   0  0  0  0  0  0  0  0  0  0  0  0
   29.8611   30.3125  108.4594 C   0  0  0  0  0  0  0  0  0  0  0  0
   30.6565   31.3045  108.9879 N   0  0  0  0  0  0  0  0  0  0  0  0
   30.1941   28.0502  107.2457 C   0  0  0  0  0  0  0  0  0  0  0  0
   29.8440   28.3479  105.8691 N   0  0  0  0  0  0  0  0  0  0  0  0
  1  2  1  0  0  0  0
  1  7  1  0  0  0  0
  2  3  1  0  0  0  0
  2  4  2  0  0  0  0
  4  5  1  0  0  0  0
  5  6  2  0  0  0  0
  5 11  1  0  0  0  0
  6  7  1  0  0  0  0
  6  9  1  0  0  0  0
  7  8  2  0  0  0  0
  9 10  2  0  0  0  0
  9 12  1  0  0  0  0
 10 11  1  0  0  0  0
 12 13  1  0  0  0  0
M  END
>  <CHROM.1>
9.12073427,-98.30702706,-95.22552277,32.33294155,29.92848827,108.10002842
-0.59302669,0.04550423,-2.55370357

>  <Name>
ligand

>  <RI>
2.51964e+07

>  <Rbt.Current_Directory>
/home/itssahil/PROJECTS/Mol_Feturizer/New_Systems/rnas/4RZD

>  <Rbt.Executable>
rbdock ($Id: //depot/dev/client3/rdock/2013.1/src/exe/rbdock.cxx#4 $)

>  <Rbt.Library>
libRbt.so (2013.1, Build901 2013/11/27)

>  <Rbt.Parameter_File>
/export/apps/rDock/src/rDock_2013.1_src/data/scripts/dock_solv.prm

>  <Rbt.Receptor>
prm/pocket_docking_4.prm

>  <SCORE>
-50.0737

>  <SCORE.INTER>
-49.4499

>  <SCORE.INTER.CONST>
1

>  <SCORE.INTER.POLAR>
-5.14262

>  <SCORE.INTER.ROT>
3

>  <SCORE.INTER.SOLV>
11.8616

>  <SCORE.INTER.VDW>
-25.3784

>  <SCORE.INTER.norm>
-3.80384

>  <SCORE.INTRA>
-0.623843

>  <SCORE.INTRA.DIHEDRAL>
-0.915276

>  <SCORE.INTRA.DIHEDRAL.0>
4.88905

>  <SCORE.INTRA.POLAR>
0

>  <SCORE.INTRA.POLAR.0>
0

>  <SCORE.INTRA.REPUL>
0

>  <SCORE.INTRA.REPUL.0>
0

>  <SCORE.INTRA.SOLV>
-0.563122

>  <SCORE.INTRA.SOLV.lig_0>
-15.1033

>  <SCORE.INTRA.VDW>
0.115356

>  <SCORE.INTRA.VDW.0>
-0.755285

>  <SCORE.INTRA.norm>
-0.0479879

>  <SCORE.RESTR>
0

>  <SCORE.RESTR.CAVITY>
0

>  <SCORE.RESTR.norm>
0

>  <SCORE.SYSTEM>
0

>  <SCORE.SYSTEM.CONST>
0

>  <SCORE.SYSTEM.DIHEDRAL>
0

>  <SCORE.SYSTEM.SOLV>
0

>  <SCORE.SYSTEM.norm>
0

>  <SCORE.heavy>
13

>  <SCORE.norm>
-3.85182

>  <RMSD>
0.636

$$$$
ligand
 OpenBabel11021811513D
libRbt.so/2013.1/901 2013/11/27
 13 14  0  0  0  0  0  0  0  0999 V2000
   34.4885   29.8434  108.1010 N   0  0  0  0  0  0  0  0  0  0  0  0
   34.3983   31.0892  108.7635 C   0  0  0  0  0  0  0  0  0  0  0  0
   35.6062   31.7968  109.1051 N   0  0  0  0  0  0  0  0  0  0  0  0
   33.1859   31.6401  109.0906 N   0  0  0  0  0  0  0  0  0  0  0  0
   31.9820   30.9939  108.7816 C   0  0  0  0  0  0  0  0  0  0  0  0
   32.0281   29.7230  108.1073 C   0  0  0  0  0  0  0  0  0  0  0  0
   33.3337   29.1549  107.7691 C   0  0  0  0  0  0  0  0  0  0  0  0
   33.4176   27.9427  107.1251 O   0  0  0  0  0  0  0  0  0  0  0  0
   30.6476   29.3078  107.9294 C   0  0  0  0  0  0  0  0  0  0  0  0
   29.8521   30.3145  108.4778 C   0  0  0  0  0  0  0  0  0  0  0  0
   30.6521   31.3134  108.9858 N   0  0  0  0  0  0  0  0  0  0  0  0
   30.1737   28.0471  107.2706 C   0  0  0  0  0  0  0  0  0  0  0  0
   29.8348   28.3271  105.8875 N   0  0  0  0  0  0  0  0  0  0  0  0
  1  2  1  0  0  0  0
  1  7  1  0  0  0  0
  2  3  1  0  0  0  0
  2  4  2  0  0  0  0
  4  5  1  0  0  0  0
  5  6  2  0  0  0  0
  5 11  1  0  0  0  0
  6  7  1  0  0  0  0
  6  9  1  0  0  0  0
  7  8  2  0  0  0  0
  9 10  2  0  0  0  0
  9 12  1  0  0  0  0
 10 11  1  0  0  0  0
 12 13  1  0  0  0  0
M  END
>  <CHROM.1>
-175.82382840,-96.59199402,-95.15207494,32.32218116,29.94004483,108.07304532
-0.58989421,0.02638431,-2.55830879

>  <Name>
ligand

>  <RI>
1.0531e+07

>  <Rbt.Current_Directory>
/home/itssahil/PROJECTS/Mol_Feturizer/New_Systems/rnas/4RZD

>  <Rbt.Executable>
rbdock ($Id: //depot/dev/client3/rdock/2013.1/src/exe/rbdock.cxx#4 $)

>  <Rbt.Library>
libRbt.so (2013.1, Build901 2013/11/27)

>  <Rbt.Parameter_File>
/export/apps/rDock/src/rDock_2013.1_src/data/scripts/dock_solv.prm

>  <Rbt.Receptor>
prm/pocket_docking_8.prm

>  <SCORE>
-50.1211

>  <SCORE.INTER>
-49.4956

>  <SCORE.INTER.CONST>
1

>  <SCORE.INTER.POLAR>
-5.12647

>  <SCORE.INTER.ROT>
3

>  <SCORE.INTER.SOLV>
11.8046

>  <SCORE.INTER.VDW>
-25.4437

>  <SCORE.INTER.norm>
-3.80736

>  <SCORE.INTRA>
-0.625508

>  <SCORE.INTRA.DIHEDRAL>
-0.920796

>  <SCORE.INTRA.DIHEDRAL.0>
4.88905

>  <SCORE.INTRA.POLAR>
0

>  <SCORE.INTRA.POLAR.0>
0

>  <SCORE.INTRA.REPUL>
0

>  <SCORE.INTRA.REPUL.0>
0

>  <SCORE.INTRA.SOLV>
-0.552268

>  <SCORE.INTRA.SOLV.lig_0>
-15.1033

>  <SCORE.INTRA.VDW>
0.111024

>  <SCORE.INTRA.VDW.0>
-0.755285

>  <SCORE.INTRA.norm>
-0.048116

>  <SCORE.RESTR>
0

>  <SCORE.RESTR.CAVITY>
0

>  <SCORE.RESTR.norm>
0

>  <SCORE.SYSTEM>
0

>  <SCORE.SYSTEM.CONST>
0

>  <SCORE.SYSTEM.DIHEDRAL>
0

>  <SCORE.SYSTEM.SOLV>
0

>  <SCORE.SYSTEM.norm>
0

>  <SCORE.heavy>
13

>  <SCORE.norm>
-3.85547

>  <RMSD>
0.636

$$$$
ligand
 OpenBabel11021811513D
libRbt.so/2013.1/901 2013/11/27
 13 14  0  0  0  0  0  0  0  0999 V2000
   34.4977   29.8566  108.0994 N   0  0  0  0  0  0  0  0  0  0  0  0
   34.4028   31.1009  108.7642 C   0  0  0  0  0  0  0  0  0  0  0  0
   35.6080   31.8119  109.1081 N   0  0  0  0  0  0  0  0  0  0  0  0
   33.1883   31.6471  109.0914 N   0  0  0  0  0  0  0  0  0  0  0  0
   31.9868   30.9974  108.7801 C   0  0  0  0  0  0  0  0  0  0  0  0
   32.0377   29.7279  108.1035 C   0  0  0  0  0  0  0  0  0  0  0  0
   33.3454   29.1649  107.7653 C   0  0  0  0  0  0  0  0  0  0  0  0
   33.4339   27.9542  107.1191 O   0  0  0  0  0  0  0  0  0  0  0  0
   30.6588   29.3085  107.9237 C   0  0  0  0  0  0  0  0  0  0  0  0
   29.8594   30.3115  108.4734 C   0  0  0  0  0  0  0  0  0  0  0  0
   30.6557   31.3121  108.9839 N   0  0  0  0  0  0  0  0  0  0  0  0
   30.1897   28.0474  107.2621 C   0  0  0  0  0  0  0  0  0  0  0  0
   29.8747   28.3235  105.8726 N   0  0  0  0  0  0  0  0  0  0  0  0
  1  2  1  0  0  0  0
  1  7  1  0  0  0  0
  2  3  1  0  0  0  0
  2  4  2  0  0  0  0
  4  5  1  0  0  0  0
  5  6  2  0  0  0  0
  5 11  1  0  0  0  0
  6  7  1  0  0  0  0
  6  9  1  0  0  0  0
  7  8  2  0  0  0  0
  9 10  2  0  0  0  0
  9 12  1  0  0  0  0
 10 11  1  0  0  0  0
 12 13  1  0  0  0  0
M  END
>  <CHROM.1>
176.51174602,-95.53603058,-93.98985385,32.33318492,29.94564034,108.06928574
-0.59496250,0.02498951,-2.55600821

>  <Name>
ligand

>  <RI>
1.0531e+07

>  <Rbt.Current_Directory>
/home/itssahil/PROJECTS/Mol_Feturizer/New_Systems/rnas/4RZD

>  <Rbt.Executable>
rbdock ($Id: //depot/dev/client3/rdock/2013.1/src/exe/rbdock.cxx#4 $)

>  <Rbt.Library>
libRbt.so (2013.1, Build901 2013/11/27)

>  <Rbt.Parameter_File>
/export/apps/rDock/src/rDock_2013.1_src/data/scripts/dock_solv.prm

>  <Rbt.Receptor>
prm/pocket_docking_8.prm

>  <SCORE>
-50.124

>  <SCORE.INTER>
-49.4524

>  <SCORE.INTER.CONST>
1

>  <SCORE.INTER.POLAR>
-5.11849

>  <SCORE.INTER.ROT>
3

>  <SCORE.INTER.SOLV>
11.7863

>  <SCORE.INTER.VDW>
-25.4354

>  <SCORE.INTER.norm>
-3.80403

>  <SCORE.INTRA>
-0.671597

>  <SCORE.INTRA.DIHEDRAL>
-0.992325

>  <SCORE.INTRA.DIHEDRAL.0>
4.88905

>  <SCORE.INTRA.POLAR>
0

>  <SCORE.INTRA.POLAR.0>
0

>  <SCORE.INTRA.REPUL>
0

>  <SCORE.INTRA.REPUL.0>
0

>  <SCORE.INTRA.SOLV>
-0.545526

>  <SCORE.INTRA.SOLV.lig_0>
-15.1033

>  <SCORE.INTRA.VDW>
0.0973287

>  <SCORE.INTRA.VDW.0>
-0.755285

>  <SCORE.INTRA.norm>
-0.0516613

>  <SCORE.RESTR>
0

>  <SCORE.RESTR.CAVITY>
0

>  <SCORE.RESTR.norm>
0

>  <SCORE.SYSTEM>
0

>  <SCORE.SYSTEM.CONST>
0

>  <SCORE.SYSTEM.DIHEDRAL>
0

>  <SCORE.SYSTEM.SOLV>
0

>  <SCORE.SYSTEM.norm>
0

>  <SCORE.heavy>
13

>  <SCORE.norm>
-3.85569

>  <RMSD>
0.636

$$$$
ligand
 OpenBabel11021811513D
libRbt.so/2013.1/901 2013/11/27
 13 14  0  0  0  0  0  0  0  0999 V2000
   34.5018   29.8265  108.1395 N   0  0  0  0  0  0  0  0  0  0  0  0
   34.4081   31.0720  108.8023 C   0  0  0  0  0  0  0  0  0  0  0  0
   35.6143   31.7759  109.1570 N   0  0  0  0  0  0  0  0  0  0  0  0
   33.1939   31.6258  109.1174 N   0  0  0  0  0  0  0  0  0  0  0  0
   31.9915   30.9831  108.7954 C   0  0  0  0  0  0  0  0  0  0  0  0
   32.0411   29.7127  108.1204 C   0  0  0  0  0  0  0  0  0  0  0  0
   33.3486   29.1414  107.7951 C   0  0  0  0  0  0  0  0  0  0  0  0
   33.4358   27.9296  107.1508 O   0  0  0  0  0  0  0  0  0  0  0  0
   30.6614   29.3014  107.9279 C   0  0  0  0  0  0  0  0  0  0  0  0
   29.8630   30.3098  108.4691 C   0  0  0  0  0  0  0  0  0  0  0  0
   30.6605   31.3060  108.9862 N   0  0  0  0  0  0  0  0  0  0  0  0
   30.1910   28.0426  107.2630 C   0  0  0  0  0  0  0  0  0  0  0  0
   29.8152   28.3360  105.8923 N   0  0  0  0  0  0  0  0  0  0  0  0
  1  2  1  0  0  0  0
  1  7  1  0  0  0  0
  2  3  1  0  0  0  0
  2  4  2  0  0  0  0
  4  5  1  0  0  0  0
  5  6  2  0  0  0  0
  5 11  1  0  0  0  0
  6  7  1  0  0  0  0
  6  9  1  0  0  0  0
  7  8  2  0  0  0  0
  9 10  2  0  0  0  0
  9 12  1  0  0  0  0
 10 11  1  0  0  0  0
 12 13  1  0  0  0  0
M  END
>  <CHROM.1>
166.09325817,-98.90318086,-96.17265086,32.33147524,29.92995002,108.09084881
-0.58900131,0.03830222,-2.56024919

>  <Name>
ligand

>  <RI>
4.18181e+07

>  <Rbt.Current_Directory>
/home/itssahil/PROJECTS/Mol_Feturizer/New_Systems/rnas/4RZD

>  <Rbt.Executable>
rbdock ($Id: //depot/dev/client3/rdock/2013.1/src/exe/rbdock.cxx#4 $)

>  <Rbt.Library>
libRbt.so (2013.1, Build901 2013/11/27)

>  <Rbt.Parameter_File>
/export/apps/rDock/src/rDock_2013.1_src/data/scripts/dock_solv.prm

>  <Rbt.Receptor>
prm/pocket_docking_3.prm

>  <SCORE>
-50.1232

>  <SCORE.INTER>
-49.5277

>  <SCORE.INTER.CONST>
1

>  <SCORE.INTER.POLAR>
-5.14283

>  <SCORE.INTER.ROT>
3

>  <SCORE.INTER.SOLV>
11.8974

>  <SCORE.INTER.VDW>
-25.4415

>  <SCORE.INTER.norm>
-3.80982

>  <SCORE.INTRA>
-0.595487

>  <SCORE.INTRA.DIHEDRAL>
-0.857931

>  <SCORE.INTRA.DIHEDRAL.0>
4.88905

>  <SCORE.INTRA.POLAR>
0

>  <SCORE.INTRA.POLAR.0>
0

>  <SCORE.INTRA.REPUL>
0

>  <SCORE.INTRA.REPUL.0>
0

>  <SCORE.INTRA.SOLV>
-0.567123

>  <SCORE.INTRA.SOLV.lig_0>
-15.1033

>  <SCORE.INTRA.VDW>
0.11704

>  <SCORE.INTRA.VDW.0>
-0.755285

>  <SCORE.INTRA.norm>
-0.0458067

>  <SCORE.RESTR>
0

>  <SCORE.RESTR.CAVITY>
0

>  <SCORE.RESTR.norm>
0

>  <SCORE.SYSTEM>
0

>  <SCORE.SYSTEM.CONST>
0

>  <SCORE.SYSTEM.DIHEDRAL>
0

>  <SCORE.SYSTEM.SOLV>
0

>  <SCORE.SYSTEM.norm>
0

>  <SCORE.heavy>
13

>  <SCORE.norm>
-3.85563

>  <RMSD>
0.637

$$$$
ligand
 OpenBabel11021811513D
libRbt.so/2013.1/901 2013/11/27
 13 14  0  0  0  0  0  0  0  0999 V2000
   34.4926   29.8420  108.1595 N   0  0  0  0  0  0  0  0  0  0  0  0
   34.3897   31.0835  108.8284 C   0  0  0  0  0  0  0  0  0  0  0  0
   35.5908   31.7891  109.1968 N   0  0  0  0  0  0  0  0  0  0  0  0
   33.1712   31.6319  109.1367 N   0  0  0  0  0  0  0  0  0  0  0  0
   31.9735   30.9873  108.8012 C   0  0  0  0  0  0  0  0  0  0  0  0
   32.0325   29.7208  108.1196 C   0  0  0  0  0  0  0  0  0  0  0  0
   33.3444   29.1554  107.8019 C   0  0  0  0  0  0  0  0  0  0  0  0
   33.4406   27.9474  107.1516 O   0  0  0  0  0  0  0  0  0  0  0  0
   30.6558   29.3064  107.9135 C   0  0  0  0  0  0  0  0  0  0  0  0
   29.8498   30.3093  108.4538 C   0  0  0  0  0  0  0  0  0  0  0  0
   30.6399   31.3051  108.9830 N   0  0  0  0  0  0  0  0  0  0  0  0
   30.1946   28.0499  107.2379 C   0  0  0  0  0  0  0  0  0  0  0  0
   29.8513   28.3453  105.8591 N   0  0  0  0  0  0  0  0  0  0  0  0
  1  2  1  0  0  0  0
  1  7  1  0  0  0  0
  2  3  1  0  0  0  0
  2  4  2  0  0  0  0
  4  5  1  0  0  0  0
  5  6  2  0  0  0  0
  5 11  1  0  0  0  0
  6  7  1  0  0  0  0
  6  9  1  0  0  0  0
  7  8  2  0  0  0  0
  9 10  2  0  0  0  0
  9 12  1  0  0  0  0
 10 11  1  0  0  0  0
 12 13  1  0  0  0  0
M  END
>  <CHROM.1>
-3.86573401,-97.91956846,-94.58146005,32.32433145,29.93885484,108.09308966
-0.59795294,0.04263052,-2.55307867

>  <Name>
ligand

>  <RI>
1.35221e+07

>  <Rbt.Current_Directory>
/home/itssahil/PROJECTS/Mol_Feturizer/New_Systems/rnas/4RZD

>  <Rbt.Executable>
rbdock ($Id: //depot/dev/client3/rdock/2013.1/src/exe/rbdock.cxx#4 $)

>  <Rbt.Library>
libRbt.so (2013.1, Build901 2013/11/27)

>  <Rbt.Parameter_File>
/export/apps/rDock/src/rDock_2013.1_src/data/scripts/dock_solv.prm

>  <Rbt.Receptor>
prm/pocket_docking_5.prm

>  <SCORE>
-50.1396

>  <SCORE.INTER>
-49.4963

>  <SCORE.INTER.CONST>
1

>  <SCORE.INTER.POLAR>
-5.14187

>  <SCORE.INTER.ROT>
3

>  <SCORE.INTER.SOLV>
11.8747

>  <SCORE.INTER.VDW>
-25.4162

>  <SCORE.INTER.norm>
-3.80741

>  <SCORE.INTRA>
-0.643322

>  <SCORE.INTRA.DIHEDRAL>
-0.954706

>  <SCORE.INTRA.DIHEDRAL.0>
4.88905

>  <SCORE.INTRA.POLAR>
0

>  <SCORE.INTRA.POLAR.0>
0

>  <SCORE.INTRA.REPUL>
0

>  <SCORE.INTRA.REPUL.0>
0

>  <SCORE.INTRA.SOLV>
-0.560443

>  <SCORE.INTRA.SOLV.lig_0>
-15.1033

>  <SCORE.INTRA.VDW>
0.114253

>  <SCORE.INTRA.VDW.0>
-0.755285

>  <SCORE.INTRA.norm>
-0.0494863

>  <SCORE.RESTR>
0

>  <SCORE.RESTR.CAVITY>
0

>  <SCORE.RESTR.norm>
0

>  <SCORE.SYSTEM>
0

>  <SCORE.SYSTEM.CONST>
0

>  <SCORE.SYSTEM.DIHEDRAL>
0

>  <SCORE.SYSTEM.SOLV>
0

>  <SCORE.SYSTEM.norm>
0

>  <SCORE.heavy>
13

>  <SCORE.norm>
-3.8569

>  <RMSD>
0.637

$$$$
ligand
 OpenBabel11021811513D
libRbt.so/2013.1/901 2013/11/27
 13 14  0  0  0  0  0  0  0  0999 V2000
   34.4874   29.8227  108.2190 N   0  0  0  0  0  0  0  0  0  0  0  0
   34.3793   31.0661  108.8834 C   0  0  0  0  0  0  0  0  0  0  0  0
   35.5775   31.7686  109.2670 N   0  0  0  0  0  0  0  0  0  0  0  0
   33.1585   31.6194  109.1731 N   0  0  0  0  0  0  0  0  0  0  0  0
   31.9634   30.9781  108.8224 C   0  0  0  0  0  0  0  0  0  0  0  0
   32.0276   29.7097  108.1447 C   0  0  0  0  0  0  0  0  0  0  0  0
   33.3419   29.1391  107.8469 C   0  0  0  0  0  0  0  0  0  0  0  0
   33.4431   27.9292  107.2010 O   0  0  0  0  0  0  0  0  0  0  0  0
   30.6525   29.2995  107.9203 C   0  0  0  0  0  0  0  0  0  0  0  0
   29.8425   30.3065  108.4467 C   0  0  0  0  0  0  0  0  0  0  0  0
   30.6285   31.3009  108.9845 N   0  0  0  0  0  0  0  0  0  0  0  0
   30.1966   28.0429  107.2413 C   0  0  0  0  0  0  0  0  0  0  0  0
   29.8209   28.3467  105.8728 N   0  0  0  0  0  0  0  0  0  0  0  0
  1  2  1  0  0  0  0
  1  7  1  0  0  0  0
  2  3  1  0  0  0  0
  2  4  2  0  0  0  0
  4  5  1  0  0  0  0
  5  6  2  0  0  0  0
  5 11  1  0  0  0  0
  6  7  1  0  0  0  0
  6  9  1  0  0  0  0
  7  8  2  0  0  0  0
  9 10  2  0  0  0  0
  9 12  1  0  0  0  0
 10 11  1  0  0  0  0
 12 13  1  0  0  0  0
M  END
>  <CHROM.1>
-11.11120110,-100.26751252,-95.50235489,32.31580979,29.92760396,108.12328616
-0.59853194,0.05764112,-2.55776174

>  <Name>
ligand

>  <RI>
2.73617e+07

>  <Rbt.Current_Directory>
/home/itssahil/PROJECTS/Mol_Feturizer/New_Systems/rnas/4RZD

>  <Rbt.Executable>
rbdock ($Id: //depot/dev/client3/rdock/2013.1/src/exe/rbdock.cxx#4 $)

>  <Rbt.Library>
libRbt.so (2013.1, Build901 2013/11/27)

>  <Rbt.Parameter_File>
/export/apps/rDock/src/rDock_2013.1_src/data/scripts/dock_solv.prm

>  <Rbt.Receptor>
prm/pocket_docking_6.prm

>  <SCORE>
-50.0224

>  <SCORE.INTER>
-49.4064

>  <SCORE.INTER.CONST>
1

>  <SCORE.INTER.POLAR>
-5.15371

>  <SCORE.INTER.ROT>
3

>  <SCORE.INTER.SOLV>
11.9302

>  <SCORE.INTER.VDW>
-25.3353

>  <SCORE.INTER.norm>
-3.80049

>  <SCORE.INTRA>
-0.616046

>  <SCORE.INTRA.DIHEDRAL>
-0.897066

>  <SCORE.INTRA.DIHEDRAL.0>
4.88905

>  <SCORE.INTRA.POLAR>
0

>  <SCORE.INTRA.POLAR.0>
0

>  <SCORE.INTRA.REPUL>
0

>  <SCORE.INTRA.REPUL.0>
0

>  <SCORE.INTRA.SOLV>
-0.575135

>  <SCORE.INTRA.SOLV.lig_0>
-15.1033

>  <SCORE.INTRA.VDW>
0.120054

>  <SCORE.INTRA.VDW.0>
-0.755285

>  <SCORE.INTRA.norm>
-0.0473882

>  <SCORE.RESTR>
0

>  <SCORE.RESTR.CAVITY>
0

>  <SCORE.RESTR.norm>
0

>  <SCORE.SYSTEM>
0

>  <SCORE.SYSTEM.CONST>
0

>  <SCORE.SYSTEM.DIHEDRAL>
0

>  <SCORE.SYSTEM.SOLV>
0

>  <SCORE.SYSTEM.norm>
0

>  <SCORE.heavy>
13

>  <SCORE.norm>
-3.84788

>  <RMSD>
0.637

$$$$
ligand
 OpenBabel11021811513D
libRbt.so/2013.1/901 2013/11/27
 13 14  0  0  0  0  0  0  0  0999 V2000
   34.4962   29.8273  108.1077 N   0  0  0  0  0  0  0  0  0  0  0  0
   34.4077   31.0723  108.7719 C   0  0  0  0  0  0  0  0  0  0  0  0
   35.6166   31.7759  109.1178 N   0  0  0  0  0  0  0  0  0  0  0  0
   33.1960   31.6262  109.0966 N   0  0  0  0  0  0  0  0  0  0  0  0
   31.9911   30.9838  108.7833 C   0  0  0  0  0  0  0  0  0  0  0  0
   32.0353   29.7138  108.1072 C   0  0  0  0  0  0  0  0  0  0  0  0
   33.3402   29.1426  107.7716 C   0  0  0  0  0  0  0  0  0  0  0  0
   33.4225   27.9311  107.1259 O   0  0  0  0  0  0  0  0  0  0  0  0
   30.6542   29.3028  107.9249 C   0  0  0  0  0  0  0  0  0  0  0  0
   29.8601   30.3109  108.4728 C   0  0  0  0  0  0  0  0  0  0  0  0
   30.6615   31.3067  108.9845 N   0  0  0  0  0  0  0  0  0  0  0  0
   30.1785   28.0445  107.2628 C   0  0  0  0  0  0  0  0  0  0  0  0
   29.8034   28.3365  105.8916 N   0  0  0  0  0  0  0  0  0  0  0  0
  1  2  1  0  0  0  0
  1  7  1  0  0  0  0
  2  3  1  0  0  0  0
  2  4  2  0  0  0  0
  4  5  1  0  0  0  0
  5  6  2  0  0  0  0
  5 11  1  0  0  0  0
  6  7  1  0  0  0  0
  6  9  1  0  0  0  0
  7  8  2  0  0  0  0
  9 10  2  0  0  0  0
  9 12  1  0  0  0  0
 10 11  1  0  0  0  0
 12 13  1  0  0  0  0
M  END
>  <CHROM.1>
-0.04143031,-98.41327139,-96.58647246,32.32650941,29.93084509,108.07523086
-0.58585089,0.03123465,-2.55853546

>  <Name>
ligand

>  <RI>
1.38753e+07

>  <Rbt.Current_Directory>
/home/itssahil/PROJECTS/Mol_Feturizer/New_Systems/rnas/4RZD

>  <Rbt.Executable>
rbdock ($Id: //depot/dev/client3/rdock/2013.1/src/exe/rbdock.cxx#4 $)

>  <Rbt.Library>
libRbt.so (2013.1, Build901 2013/11/27)

>  <Rbt.Parameter_File>
/export/apps/rDock/src/rDock_2013.1_src/data/scripts/dock_solv.prm

>  <Rbt.Receptor>
prm/pocket_docking_7.prm

>  <SCORE>
-50.1477

>  <SCORE.INTER>
-49.5643

>  <SCORE.INTER.CONST>
1

>  <SCORE.INTER.POLAR>
-5.1431

>  <SCORE.INTER.ROT>
3

>  <SCORE.INTER.SOLV>
11.8726

>  <SCORE.INTER.VDW>
-25.4567

>  <SCORE.INTER.norm>
-3.81264

>  <SCORE.INTRA>
-0.583391

>  <SCORE.INTRA.DIHEDRAL>
-0.833685

>  <SCORE.INTRA.DIHEDRAL.0>
4.88905

>  <SCORE.INTRA.POLAR>
0

>  <SCORE.INTRA.POLAR.0>
0

>  <SCORE.INTRA.REPUL>
0

>  <SCORE.INTRA.REPUL.0>
0

>  <SCORE.INTRA.SOLV>
-0.563705

>  <SCORE.INTRA.SOLV.lig_0>
-15.1033

>  <SCORE.INTRA.VDW>
0.115304

>  <SCORE.INTRA.VDW.0>
-0.755285

>  <SCORE.INTRA.norm>
-0.0448762

>  <SCORE.RESTR>
0

>  <SCORE.RESTR.CAVITY>
0

>  <SCORE.RESTR.norm>
0

>  <SCORE.SYSTEM>
0

>  <SCORE.SYSTEM.CONST>
0

>  <SCORE.SYSTEM.DIHEDRAL>
0

>  <SCORE.SYSTEM.SOLV>
0

>  <SCORE.SYSTEM.norm>
0

>  <SCORE.heavy>
13

>  <SCORE.norm>
-3.85751

>  <RMSD>
0.637

$$$$
ligand
 OpenBabel11021811513D
libRbt.so/2013.1/901 2013/11/27
 13 14  0  0  0  0  0  0  0  0999 V2000
   34.4926   29.8415  108.1041 N   0  0  0  0  0  0  0  0  0  0  0  0
   34.4008   31.0854  108.7700 C   0  0  0  0  0  0  0  0  0  0  0  0
   35.6080   31.7916  109.1171 N   0  0  0  0  0  0  0  0  0  0  0  0
   33.1877   31.6357  109.0952 N   0  0  0  0  0  0  0  0  0  0  0  0
   31.9845   30.9907  108.7808 C   0  0  0  0  0  0  0  0  0  0  0  0
   32.0321   29.7217  108.1030 C   0  0  0  0  0  0  0  0  0  0  0  0
   33.3385   29.1543  107.7669 C   0  0  0  0  0  0  0  0  0  0  0  0
   33.4239   27.9439  107.1197 O   0  0  0  0  0  0  0  0  0  0  0  0
   30.6521   29.3075  107.9200 C   0  0  0  0  0  0  0  0  0  0  0  0
   29.8553   30.3129  108.4690 C   0  0  0  0  0  0  0  0  0  0  0  0
   30.6541   31.3100  108.9822 N   0  0  0  0  0  0  0  0  0  0  0  0
   30.1797   28.0488  107.2562 C   0  0  0  0  0  0  0  0  0  0  0  0
   29.8221   28.3379  105.8797 N   0  0  0  0  0  0  0  0  0  0  0  0
  1  2  1  0  0  0  0
  1  7  1  0  0  0  0
  2  3  1  0  0  0  0
  2  4  2  0  0  0  0
  4  5  1  0  0  0  0
  5  6  2  0  0  0  0
  5 11  1  0  0  0  0
  6  7  1  0  0  0  0
  6  9  1  0  0  0  0
  7  8  2  0  0  0  0
  9 10  2  0  0  0  0
  9 12  1  0  0  0  0
 10 11  1  0  0  0  0
 12 13  1  0  0  0  0
M  END
>  <CHROM.1>
-3.46476805,-97.60539590,-95.55932762,32.32430237,29.93928078,108.07092628
-0.58945459,0.02976889,-2.55670876

>  <Name>
ligand

>  <RI>
1.35221e+07

>  <Rbt.Current_Directory>
/home/itssahil/PROJECTS/Mol_Feturizer/New_Systems/rnas/4RZD

>  <Rbt.Executable>
rbdock ($Id: //depot/dev/client3/rdock/2013.1/src/exe/rbdock.cxx#4 $)

>  <Rbt.Library>
libRbt.so (2013.1, Build901 2013/11/27)

>  <Rbt.Parameter_File>
/export/apps/rDock/src/rDock_2013.1_src/data/scripts/dock_solv.prm

>  <Rbt.Receptor>
prm/pocket_docking_5.prm

>  <SCORE>
-50.1777

>  <SCORE.INTER>
-49.564

>  <SCORE.INTER.CONST>
1

>  <SCORE.INTER.POLAR>
-5.13663

>  <SCORE.INTER.ROT>
3

>  <SCORE.INTER.SOLV>
11.8784

>  <SCORE.INTER.VDW>
-25.48

>  <SCORE.INTER.norm>
-3.81262

>  <SCORE.INTRA>
-0.613657

>  <SCORE.INTRA.DIHEDRAL>
-0.895578

>  <SCORE.INTRA.DIHEDRAL.0>
4.88905

>  <SCORE.INTRA.POLAR>
0

>  <SCORE.INTRA.POLAR.0>
0

>  <SCORE.INTRA.REPUL>
0

>  <SCORE.INTRA.REPUL.0>
0

>  <SCORE.INTRA.SOLV>
-0.558658

>  <SCORE.INTRA.SOLV.lig_0>
-15.1033

>  <SCORE.INTRA.VDW>
0.11346

>  <SCORE.INTRA.VDW.0>
-0.755285

>  <SCORE.INTRA.norm>
-0.0472044

>  <SCORE.RESTR>
0

>  <SCORE.RESTR.CAVITY>
0

>  <SCORE.RESTR.norm>
0

>  <SCORE.SYSTEM>
0

>  <SCORE.SYSTEM.CONST>
0

>  <SCORE.SYSTEM.DIHEDRAL>
0

>  <SCORE.SYSTEM.SOLV>
0

>  <SCORE.SYSTEM.norm>
0

>  <SCORE.heavy>
13

>  <SCORE.norm>
-3.85982

>  <RMSD>
0.638

$$$$
ligand
 OpenBabel11021811513D
libRbt.so/2013.1/901 2013/11/27
 13 14  0  0  0  0  0  0  0  0999 V2000
   34.4927   29.8435  108.1034 N   0  0  0  0  0  0  0  0  0  0  0  0
   34.4007   31.0875  108.7690 C   0  0  0  0  0  0  0  0  0  0  0  0
   35.6076   31.7944  109.1153 N   0  0  0  0  0  0  0  0  0  0  0  0
   33.1874   31.6373  109.0948 N   0  0  0  0  0  0  0  0  0  0  0  0
   31.9844   30.9916  108.7812 C   0  0  0  0  0  0  0  0  0  0  0  0
   32.0322   29.7225  108.1036 C   0  0  0  0  0  0  0  0  0  0  0  0
   33.3387   29.1557  107.7669 C   0  0  0  0  0  0  0  0  0  0  0  0
   33.4244   27.9452  107.1199 O   0  0  0  0  0  0  0  0  0  0  0  0
   30.6523   29.3076  107.9214 C   0  0  0  0  0  0  0  0  0  0  0  0
   29.8553   30.3127  108.4706 C   0  0  0  0  0  0  0  0  0  0  0  0
   30.6539   31.3104  108.9832 N   0  0  0  0  0  0  0  0  0  0  0  0
   30.1802   28.0486  107.2581 C   0  0  0  0  0  0  0  0  0  0  0  0
   29.8236   28.3367  105.8811 N   0  0  0  0  0  0  0  0  0  0  0  0
  1  2  1  0  0  0  0
  1  7  1  0  0  0  0
  2  3  1  0  0  0  0
  2  4  2  0  0  0  0
  4  5  1  0  0  0  0
  5  6  2  0  0  0  0
  5 11  1  0  0  0  0
  6  7  1  0  0  0  0
  6  9  1  0  0  0  0
  7  8  2  0  0  0  0
  9 10  2  0  0  0  0
  9 12  1  0  0  0  0
 10 11  1  0  0  0  0
 12 13  1  0  0  0  0
M  END
>  <CHROM.1>
4.21420865,-97.52322001,-95.59582847,32.32449229,29.94020778,108.07126130
-0.58977290,0.02870724,-2.55637098

>  <Name>
ligand

>  <RI>
1.38753e+07

>  <Rbt.Current_Directory>
/home/itssahil/PROJECTS/Mol_Feturizer/New_Systems/rnas/4RZD

>  <Rbt.Executable>
rbdock ($Id: //depot/dev/client3/rdock/2013.1/src/exe/rbdock.cxx#4 $)

>  <Rbt.Library>
libRbt.so (2013.1, Build901 2013/11/27)

>  <Rbt.Parameter_File>
/export/apps/rDock/src/rDock_2013.1_src/data/scripts/dock_solv.prm

>  <Rbt.Receptor>
prm/pocket_docking_7.prm

>  <SCORE>
-50.1347

>  <SCORE.INTER>
-49.5222

>  <SCORE.INTER.CONST>
1

>  <SCORE.INTER.POLAR>
-5.13695

>  <SCORE.INTER.ROT>
3

>  <SCORE.INTER.SOLV>
11.8542

>  <SCORE.INTER.VDW>
-25.443

>  <SCORE.INTER.norm>
-3.8094

>  <SCORE.INTRA>
-0.61252

>  <SCORE.INTRA.DIHEDRAL>
-0.893431

>  <SCORE.INTRA.DIHEDRAL.0>
4.88905

>  <SCORE.INTRA.POLAR>
0

>  <SCORE.INTRA.POLAR.0>
0

>  <SCORE.INTRA.REPUL>
0

>  <SCORE.INTRA.REPUL.0>
0

>  <SCORE.INTRA.SOLV>
-0.558178

>  <SCORE.INTRA.SOLV.lig_0>
-15.1033

>  <SCORE.INTRA.VDW>
0.113284

>  <SCORE.INTRA.VDW.0>
-0.755285

>  <SCORE.INTRA.norm>
-0.047117

>  <SCORE.RESTR>
0

>  <SCORE.RESTR.CAVITY>
0

>  <SCORE.RESTR.norm>
0

>  <SCORE.SYSTEM>
0

>  <SCORE.SYSTEM.CONST>
0

>  <SCORE.SYSTEM.DIHEDRAL>
0

>  <SCORE.SYSTEM.SOLV>
0

>  <SCORE.SYSTEM.norm>
0

>  <SCORE.heavy>
13

>  <SCORE.norm>
-3.85652

>  <RMSD>
0.639

$$$$
ligand
 OpenBabel11021811513D
libRbt.so/2013.1/901 2013/11/27
 13 14  0  0  0  0  0  0  0  0999 V2000
   34.4973   29.8495  108.1313 N   0  0  0  0  0  0  0  0  0  0  0  0
   34.3990   31.0925  108.7980 C   0  0  0  0  0  0  0  0  0  0  0  0
   35.6026   31.8001  109.1543 N   0  0  0  0  0  0  0  0  0  0  0  0
   33.1828   31.6405  109.1155 N   0  0  0  0  0  0  0  0  0  0  0  0
   31.9828   30.9940  108.7920 C   0  0  0  0  0  0  0  0  0  0  0  0
   32.0371   29.7259  108.1130 C   0  0  0  0  0  0  0  0  0  0  0  0
   33.3466   29.1609  107.7853 C   0  0  0  0  0  0  0  0  0  0  0  0
   33.4384   27.9514  107.1373 O   0  0  0  0  0  0  0  0  0  0  0  0
   30.6590   29.3098  107.9199 C   0  0  0  0  0  0  0  0  0  0  0  0
   29.8568   30.3133  108.4646 C   0  0  0  0  0  0  0  0  0  0  0  0
   30.6505   31.3111  108.9845 N   0  0  0  0  0  0  0  0  0  0  0  0
   30.1932   28.0512  107.2514 C   0  0  0  0  0  0  0  0  0  0  0  0
   29.8457   28.3411  105.8725 N   0  0  0  0  0  0  0  0  0  0  0  0
  1  2  1  0  0  0  0
  1  7  1  0  0  0  0
  2  3  1  0  0  0  0
  2  4  2  0  0  0  0
  4  5  1  0  0  0  0
  5  6  2  0  0  0  0
  5 11  1  0  0  0  0
  6  7  1  0  0  0  0
  6  9  1  0  0  0  0
  7  8  2  0  0  0  0
  9 10  2  0  0  0  0
  9 12  1  0  0  0  0
 10 11  1  0  0  0  0
 12 13  1  0  0  0  0
M  END
>  <CHROM.1>
169.04157647,-97.55904909,-94.89039736,32.32922243,29.94394935,108.08318523
-0.59446163,0.03498225,-2.55576743

>  <Name>
ligand

>  <RI>
2.51964e+07

>  <Rbt.Current_Directory>
/home/itssahil/PROJECTS/Mol_Feturizer/New_Systems/rnas/4RZD

>  <Rbt.Executable>
rbdock ($Id: //depot/dev/client3/rdock/2013.1/src/exe/rbdock.cxx#4 $)

>  <Rbt.Library>
libRbt.so (2013.1, Build901 2013/11/27)

>  <Rbt.Parameter_File>
/export/apps/rDock/src/rDock_2013.1_src/data/scripts/dock_solv.prm

>  <Rbt.Receptor>
prm/pocket_docking_4.prm

>  <SCORE>
-50.1499

>  <SCORE.INTER>
-49.5163

>  <SCORE.INTER.CONST>
1

>  <SCORE.INTER.POLAR>
-5.13727

>  <SCORE.INTER.ROT>
3

>  <SCORE.INTER.SOLV>
11.8792

>  <SCORE.INTER.VDW>
-25.4463

>  <SCORE.INTER.norm>
-3.80894

>  <SCORE.INTRA>
-0.633644

>  <SCORE.INTRA.DIHEDRAL>
-0.936112

>  <SCORE.INTRA.DIHEDRAL.0>
4.88905

>  <SCORE.INTRA.POLAR>
0

>  <SCORE.INTRA.POLAR.0>
0

>  <SCORE.INTRA.REPUL>
0

>  <SCORE.INTRA.REPUL.0>
0

>  <SCORE.INTRA.SOLV>
-0.558505

>  <SCORE.INTRA.SOLV.lig_0>
-15.1033

>  <SCORE.INTRA.VDW>
0.113664

>  <SCORE.INTRA.VDW.0>
-0.755285

>  <SCORE.INTRA.norm>
-0.0487418

>  <SCORE.RESTR>
0

>  <SCORE.RESTR.CAVITY>
0

>  <SCORE.RESTR.norm>
0

>  <SCORE.SYSTEM>
0

>  <SCORE.SYSTEM.CONST>
0

>  <SCORE.SYSTEM.DIHEDRAL>
0

>  <SCORE.SYSTEM.SOLV>
0

>  <SCORE.SYSTEM.norm>
0

>  <SCORE.heavy>
13

>  <SCORE.norm>
-3.85768

>  <RMSD>
0.640

$$$$
ligand
 OpenBabel11021811513D
libRbt.so/2013.1/901 2013/11/27
 13 14  0  0  0  0  0  0  0  0999 V2000
   34.4982   29.7846  108.1894 N   0  0  0  0  0  0  0  0  0  0  0  0
   34.4106   31.0260  108.8605 C   0  0  0  0  0  0  0  0  0  0  0  0
   35.6204   31.7122  109.2373 N   0  0  0  0  0  0  0  0  0  0  0  0
   33.1991   31.5925  109.1631 N   0  0  0  0  0  0  0  0  0  0  0  0
   31.9935   30.9673  108.8194 C   0  0  0  0  0  0  0  0  0  0  0  0
   32.0367   29.7015  108.1353 C   0  0  0  0  0  0  0  0  0  0  0  0
   33.3415   29.1165  107.8237 C   0  0  0  0  0  0  0  0  0  0  0  0
   33.4227   27.9086  107.1714 O   0  0  0  0  0  0  0  0  0  0  0  0
   30.6549   29.3089  107.9206 C   0  0  0  0  0  0  0  0  0  0  0  0
   29.8615   30.3230  108.4585 C   0  0  0  0  0  0  0  0  0  0  0  0
   30.6639   31.3053  108.9943 N   0  0  0  0  0  0  0  0  0  0  0  0
   30.1783   28.0612  107.2395 C   0  0  0  0  0  0  0  0  0  0  0  0
   29.8031   28.3743  105.8730 N   0  0  0  0  0  0  0  0  0  0  0  0
  1  2  1  0  0  0  0
  1  7  1  0  0  0  0
  2  3  1  0  0  0  0
  2  4  2  0  0  0  0
  4  5  1  0  0  0  0
  5  6  2  0  0  0  0
  5 11  1  0  0  0  0
  6  7  1  0  0  0  0
  6  9  1  0  0  0  0
  7  8  2  0  0  0  0
  9 10  2  0  0  0  0
  9 12  1  0  0  0  0
 10 11  1  0  0  0  0
 12 13  1  0  0  0  0
M  END
>  <CHROM.1>
-18.89851783,-99.89632053,-97.15767710,32.32815755,29.91578173,108.11215375
-0.58463216,0.05731898,-2.55381698

>  <Name>
ligand

>  <RI>
1.38753e+07

>  <Rbt.Current_Directory>
/home/itssahil/PROJECTS/Mol_Feturizer/New_Systems/rnas/4RZD

>  <Rbt.Executable>
rbdock ($Id: //depot/dev/client3/rdock/2013.1/src/exe/rbdock.cxx#4 $)

>  <Rbt.Library>
libRbt.so (2013.1, Build901 2013/11/27)

>  <Rbt.Parameter_File>
/export/apps/rDock/src/rDock_2013.1_src/data/scripts/dock_solv.prm

>  <Rbt.Receptor>
prm/pocket_docking_7.prm

>  <SCORE>
-50.0855

>  <SCORE.INTER>
-49.5192

>  <SCORE.INTER.CONST>
1

>  <SCORE.INTER.POLAR>
-5.15764

>  <SCORE.INTER.ROT>
3

>  <SCORE.INTER.SOLV>
12.0239

>  <SCORE.INTER.VDW>
-25.4286

>  <SCORE.INTER.norm>
-3.80917

>  <SCORE.INTRA>
-0.566338

>  <SCORE.INTRA.DIHEDRAL>
-0.798949

>  <SCORE.INTRA.DIHEDRAL.0>
4.88905

>  <SCORE.INTRA.POLAR>
0

>  <SCORE.INTRA.POLAR.0>
0

>  <SCORE.INTRA.REPUL>
0

>  <SCORE.INTRA.REPUL.0>
0

>  <SCORE.INTRA.SOLV>
-0.573891

>  <SCORE.INTRA.SOLV.lig_0>
-15.1033

>  <SCORE.INTRA.VDW>
0.120082

>  <SCORE.INTRA.VDW.0>
-0.755285

>  <SCORE.INTRA.norm>
-0.0435644

>  <SCORE.RESTR>
0

>  <SCORE.RESTR.CAVITY>
0

>  <SCORE.RESTR.norm>
0

>  <SCORE.SYSTEM>
0

>  <SCORE.SYSTEM.CONST>
0

>  <SCORE.SYSTEM.DIHEDRAL>
0

>  <SCORE.SYSTEM.SOLV>
0

>  <SCORE.SYSTEM.norm>
0

>  <SCORE.heavy>
13

>  <SCORE.norm>
-3.85273

>  <RMSD>
0.640

$$$$
ligand
 OpenBabel11021811513D
libRbt.so/2013.1/901 2013/11/27
 13 14  0  0  0  0  0  0  0  0999 V2000
   34.4969   29.8575  108.1449 N   0  0  0  0  0  0  0  0  0  0  0  0
   34.3920   31.0987  108.8140 C   0  0  0  0  0  0  0  0  0  0  0  0
   35.5920   31.8086  109.1778 N   0  0  0  0  0  0  0  0  0  0  0  0
   33.1728   31.6428  109.1268 N   0  0  0  0  0  0  0  0  0  0  0  0
   31.9762   30.9939  108.7959 C   0  0  0  0  0  0  0  0  0  0  0  0
   32.0371   29.7275  108.1143 C   0  0  0  0  0  0  0  0  0  0  0  0
   33.3497   29.1667  107.7917 C   0  0  0  0  0  0  0  0  0  0  0  0
   33.4478   27.9590  107.1413 O   0  0  0  0  0  0  0  0  0  0  0  0
   30.6610   29.3082  107.9135 C   0  0  0  0  0  0  0  0  0  0  0  0
   29.8536   30.3083  108.4566 C   0  0  0  0  0  0  0  0  0  0  0  0
   30.6421   31.3070  108.9826 N   0  0  0  0  0  0  0  0  0  0  0  0
   30.2018   28.0500  107.2397 C   0  0  0  0  0  0  0  0  0  0  0  0
   29.8608   28.3421  105.8597 N   0  0  0  0  0  0  0  0  0  0  0  0
  1  2  1  0  0  0  0
  1  7  1  0  0  0  0
  2  3  1  0  0  0  0
  2  4  2  0  0  0  0
  4  5  1  0  0  0  0
  5  6  2  0  0  0  0
  5 11  1  0  0  0  0
  6  7  1  0  0  0  0
  6  9  1  0  0  0  0
  7  8  2  0  0  0  0
  9 10  2  0  0  0  0
  9 12  1  0  0  0  0
 10 11  1  0  0  0  0
 12 13  1  0  0  0  0
M  END
>  <CHROM.1>
171.50513028,-97.54074672,-94.12973286,32.32879789,29.94640255,108.08638363
-0.59934671,0.03753043,-2.55314042

>  <Name>
ligand

>  <RI>
1.0531e+07

>  <Rbt.Current_Directory>
/home/itssahil/PROJECTS/Mol_Feturizer/New_Systems/rnas/4RZD

>  <Rbt.Executable>
rbdock ($Id: //depot/dev/client3/rdock/2013.1/src/exe/rbdock.cxx#4 $)

>  <Rbt.Library>
libRbt.so (2013.1, Build901 2013/11/27)

>  <Rbt.Parameter_File>
/export/apps/rDock/src/rDock_2013.1_src/data/scripts/dock_solv.prm

>  <Rbt.Receptor>
prm/pocket_docking_8.prm

>  <SCORE>
-50.1574

>  <SCORE.INTER>
-49.5006

>  <SCORE.INTER.CONST>
1

>  <SCORE.INTER.POLAR>
-5.13626

>  <SCORE.INTER.ROT>
3

>  <SCORE.INTER.SOLV>
11.8709

>  <SCORE.INTER.VDW>
-25.4365

>  <SCORE.INTER.norm>
-3.80774

>  <SCORE.INTRA>
-0.656867

>  <SCORE.INTRA.DIHEDRAL>
-0.982622

>  <SCORE.INTRA.DIHEDRAL.0>
4.88905

>  <SCORE.INTRA.POLAR>
0

>  <SCORE.INTRA.POLAR.0>
0

>  <SCORE.INTRA.REPUL>
0

>  <SCORE.INTRA.REPUL.0>
0

>  <SCORE.INTRA.SOLV>
-0.558125

>  <SCORE.INTRA.SOLV.lig_0>
-15.1033

>  <SCORE.INTRA.VDW>
0.113506

>  <SCORE.INTRA.VDW.0>
-0.755285

>  <SCORE.INTRA.norm>
-0.0505282

>  <SCORE.RESTR>
0

>  <SCORE.RESTR.CAVITY>
0

>  <SCORE.RESTR.norm>
0

>  <SCORE.SYSTEM>
0

>  <SCORE.SYSTEM.CONST>
0

>  <SCORE.SYSTEM.DIHEDRAL>
0

>  <SCORE.SYSTEM.SOLV>
0

>  <SCORE.SYSTEM.norm>
0

>  <SCORE.heavy>
13

>  <SCORE.norm>
-3.85826

>  <RMSD>
0.640

$$$$
ligand
 OpenBabel11021811513D
libRbt.so/2013.1/901 2013/11/27
 13 14  0  0  0  0  0  0  0  0999 V2000
   34.5015   29.8246  108.1655 N   0  0  0  0  0  0  0  0  0  0  0  0
   34.4040   31.0668  108.8338 C   0  0  0  0  0  0  0  0  0  0  0  0
   35.6082   31.7671  109.2022 N   0  0  0  0  0  0  0  0  0  0  0  0
   33.1880   31.6208  109.1415 N   0  0  0  0  0  0  0  0  0  0  0  0
   31.9875   30.9815  108.8061 C   0  0  0  0  0  0  0  0  0  0  0  0
   32.0409   29.7145  108.1251 C   0  0  0  0  0  0  0  0  0  0  0  0
   33.3502   29.1430  107.8079 C   0  0  0  0  0  0  0  0  0  0  0  0
   33.4412   27.9343  107.1582 O   0  0  0  0  0  0  0  0  0  0  0  0
   30.6623   29.3063  107.9188 C   0  0  0  0  0  0  0  0  0  0  0  0
   29.8608   30.3130  108.4584 C   0  0  0  0  0  0  0  0  0  0  0  0
   30.6553   31.3054  108.9874 N   0  0  0  0  0  0  0  0  0  0  0  0
   30.1957   28.0515  107.2436 C   0  0  0  0  0  0  0  0  0  0  0  0
   29.8264   28.3536  105.8730 N   0  0  0  0  0  0  0  0  0  0  0  0
  1  2  1  0  0  0  0
  1  7  1  0  0  0  0
  2  3  1  0  0  0  0
  2  4  2  0  0  0  0
  4  5  1  0  0  0  0
  5  6  2  0  0  0  0
  5 11  1  0  0  0  0
  6  7  1  0  0  0  0
  6  9  1  0  0  0  0
  7  8  2  0  0  0  0
  9 10  2  0  0  0  0
  9 12  1  0  0  0  0
 10 11  1  0  0  0  0
 12 13  1  0  0  0  0
M  END
>  <CHROM.1>
-9.47596310,-99.15005767,-95.93372561,32.33125448,29.93162943,108.09927500
-0.59209636,0.04611410,-2.55502653

>  <Name>
ligand

>  <RI>
1.0531e+07

>  <Rbt.Current_Directory>
/home/itssahil/PROJECTS/Mol_Feturizer/New_Systems/rnas/4RZD

>  <Rbt.Executable>
rbdock ($Id: //depot/dev/client3/rdock/2013.1/src/exe/rbdock.cxx#4 $)

>  <Rbt.Library>
libRbt.so (2013.1, Build901 2013/11/27)

>  <Rbt.Parameter_File>
/export/apps/rDock/src/rDock_2013.1_src/data/scripts/dock_solv.prm

>  <Rbt.Receptor>
prm/pocket_docking_8.prm

>  <SCORE>
-50.1442

>  <SCORE.INTER>
-49.5413

>  <SCORE.INTER.CONST>
1

>  <SCORE.INTER.POLAR>
-5.15096

>  <SCORE.INTER.ROT>
3

>  <SCORE.INTER.SOLV>
11.9288

>  <SCORE.INTER.VDW>
-25.4339

>  <SCORE.INTER.norm>
-3.81087

>  <SCORE.INTRA>
-0.602862

>  <SCORE.INTRA.DIHEDRAL>
-0.872023

>  <SCORE.INTRA.DIHEDRAL.0>
4.88905

>  <SCORE.INTRA.POLAR>
0

>  <SCORE.INTRA.POLAR.0>
0

>  <SCORE.INTRA.REPUL>
0

>  <SCORE.INTRA.REPUL.0>
0

>  <SCORE.INTRA.SOLV>
-0.568366

>  <SCORE.INTRA.SOLV.lig_0>
-15.1033

>  <SCORE.INTRA.VDW>
0.117332

>  <SCORE.INTRA.VDW.0>
-0.755285

>  <SCORE.INTRA.norm>
-0.046374

>  <SCORE.RESTR>
0

>  <SCORE.RESTR.CAVITY>
0

>  <SCORE.RESTR.norm>
0

>  <SCORE.SYSTEM>
0

>  <SCORE.SYSTEM.CONST>
0

>  <SCORE.SYSTEM.DIHEDRAL>
0

>  <SCORE.SYSTEM.SOLV>
0

>  <SCORE.SYSTEM.norm>
0

>  <SCORE.heavy>
13

>  <SCORE.norm>
-3.85724

>  <RMSD>
0.640

$$$$
ligand
 OpenBabel11021811513D
libRbt.so/2013.1/901 2013/11/27
 13 14  0  0  0  0  0  0  0  0999 V2000
   34.4923   29.8400  108.1029 N   0  0  0  0  0  0  0  0  0  0  0  0
   34.4009   31.0851  108.7667 C   0  0  0  0  0  0  0  0  0  0  0  0
   35.6082   31.7922  109.1114 N   0  0  0  0  0  0  0  0  0  0  0  0
   33.1879   31.6357  109.0922 N   0  0  0  0  0  0  0  0  0  0  0  0
   31.9846   30.9898  108.7802 C   0  0  0  0  0  0  0  0  0  0  0  0
   32.0318   29.7197  108.1045 C   0  0  0  0  0  0  0  0  0  0  0  0
   33.3380   29.1519  107.7681 C   0  0  0  0  0  0  0  0  0  0  0  0
   33.4230   27.9405  107.1229 O   0  0  0  0  0  0  0  0  0  0  0  0
   30.6517   29.3048  107.9236 C   0  0  0  0  0  0  0  0  0  0  0  0
   29.8552   30.3109  108.4717 C   0  0  0  0  0  0  0  0  0  0  0  0
   30.6543   31.3092  108.9823 N   0  0  0  0  0  0  0  0  0  0  0  0
   30.1789   28.0448  107.2625 C   0  0  0  0  0  0  0  0  0  0  0  0
   29.7874   28.3382  105.8961 N   0  0  0  0  0  0  0  0  0  0  0  0
  1  2  1  0  0  0  0
  1  7  1  0  0  0  0
  2  3  1  0  0  0  0
  2  4  2  0  0  0  0
  4  5  1  0  0  0  0
  5  6  2  0  0  0  0
  5 11  1  0  0  0  0
  6  7  1  0  0  0  0
  6  9  1  0  0  0  0
  7  8  2  0  0  0  0
  9 10  2  0  0  0  0
  9 12  1  0  0  0  0
 10 11  1  0  0  0  0
 12 13  1  0  0  0  0
M  END
>  <CHROM.1>
-178.79988300,-99.06131966,-97.33327658,32.32109737,29.93770403,108.07266302
-0.58647315,0.02923361,-2.55935536

>  <Name>
ligand

>  <RI>
4.18181e+07

>  <Rbt.Current_Directory>
/home/itssahil/PROJECTS/Mol_Feturizer/New_Systems/rnas/4RZD

>  <Rbt.Executable>
rbdock ($Id: //depot/dev/client3/rdock/2013.1/src/exe/rbdock.cxx#4 $)

>  <Rbt.Library>
libRbt.so (2013.1, Build901 2013/11/27)

>  <Rbt.Parameter_File>
/export/apps/rDock/src/rDock_2013.1_src/data/scripts/dock_solv.prm

>  <Rbt.Receptor>
prm/pocket_docking_3.prm

>  <SCORE>
-50.1328

>  <SCORE.INTER>
-49.571

>  <SCORE.INTER.CONST>
1

>  <SCORE.INTER.POLAR>
-5.14795

>  <SCORE.INTER.ROT>
3

>  <SCORE.INTER.SOLV>
11.9004

>  <SCORE.INTER.VDW>
-25.4543

>  <SCORE.INTER.norm>
-3.81316

>  <SCORE.INTRA>
-0.561728

>  <SCORE.INTRA.DIHEDRAL>
-0.789336

>  <SCORE.INTRA.DIHEDRAL.0>
4.88905

>  <SCORE.INTRA.POLAR>
0

>  <SCORE.INTRA.POLAR.0>
0

>  <SCORE.INTRA.REPUL>
0

>  <SCORE.INTRA.REPUL.0>
0

>  <SCORE.INTRA.SOLV>
-0.56764

>  <SCORE.INTRA.SOLV.lig_0>
-15.1033

>  <SCORE.INTRA.VDW>
0.116759

>  <SCORE.INTRA.VDW.0>
-0.755285

>  <SCORE.INTRA.norm>
-0.0432099

>  <SCORE.RESTR>
0

>  <SCORE.RESTR.CAVITY>
0

>  <SCORE.RESTR.norm>
0

>  <SCORE.SYSTEM>
0

>  <SCORE.SYSTEM.CONST>
0

>  <SCORE.SYSTEM.DIHEDRAL>
0

>  <SCORE.SYSTEM.SOLV>
0

>  <SCORE.SYSTEM.norm>
0

>  <SCORE.heavy>
13

>  <SCORE.norm>
-3.85637

>  <RMSD>
0.641

$$$$
ligand
 OpenBabel11021811513D
libRbt.so/2013.1/901 2013/11/27
 13 14  0  0  0  0  0  0  0  0999 V2000
   34.4995   29.8196  108.1617 N   0  0  0  0  0  0  0  0  0  0  0  0
   34.4039   31.0613  108.8312 C   0  0  0  0  0  0  0  0  0  0  0  0
   35.6092   31.7598  109.1996 N   0  0  0  0  0  0  0  0  0  0  0  0
   33.1888   31.6166  109.1402 N   0  0  0  0  0  0  0  0  0  0  0  0
   31.9872   30.9791  108.8048 C   0  0  0  0  0  0  0  0  0  0  0  0
   32.0386   29.7126  108.1226 C   0  0  0  0  0  0  0  0  0  0  0  0
   33.3471   29.1398  107.8041 C   0  0  0  0  0  0  0  0  0  0  0  0
   33.4362   27.9316  107.1532 O   0  0  0  0  0  0  0  0  0  0  0  0
   30.6595   29.3063  107.9168 C   0  0  0  0  0  0  0  0  0  0  0  0
   29.8595   30.3136  108.4577 C   0  0  0  0  0  0  0  0  0  0  0  0
   30.6556   31.3045  108.9871 N   0  0  0  0  0  0  0  0  0  0  0  0
   30.1908   28.0528  107.2407 C   0  0  0  0  0  0  0  0  0  0  0  0
   29.8050   28.3598  105.8757 N   0  0  0  0  0  0  0  0  0  0  0  0
  1  2  1  0  0  0  0
  1  7  1  0  0  0  0
  2  3  1  0  0  0  0
  2  4  2  0  0  0  0
  4  5  1  0  0  0  0
  5  6  2  0  0  0  0
  5 11  1  0  0  0  0
  6  7  1  0  0  0  0
  6  9  1  0  0  0  0
  7  8  2  0  0  0  0
  9 10  2  0  0  0  0
  9 12  1  0  0  0  0
 10 11  1  0  0  0  0
 12 13  1  0  0  0  0
M  END
>  <CHROM.1>
-3.37606631,-99.86998613,-96.77144174,32.32788660,29.92967359,108.09728430
-0.58948705,0.04639793,-2.55442290

>  <Name>
ligand

>  <RI>
4.18181e+07

>  <Rbt.Current_Directory>
/home/itssahil/PROJECTS/Mol_Feturizer/New_Systems/rnas/4RZD

>  <Rbt.Executable>
rbdock ($Id: //depot/dev/client3/rdock/2013.1/src/exe/rbdock.cxx#4 $)

>  <Rbt.Library>
libRbt.so (2013.1, Build901 2013/11/27)

>  <Rbt.Parameter_File>
/export/apps/rDock/src/rDock_2013.1_src/data/scripts/dock_solv.prm

>  <Rbt.Receptor>
prm/pocket_docking_3.prm

>  <SCORE>
-50.1319

>  <SCORE.INTER>
-49.5536

>  <SCORE.INTER.CONST>
1

>  <SCORE.INTER.POLAR>
-5.15834

>  <SCORE.INTER.ROT>
3

>  <SCORE.INTER.SOLV>
11.9509

>  <SCORE.INTER.VDW>
-25.4249

>  <SCORE.INTER.norm>
-3.81181

>  <SCORE.INTRA>
-0.578374

>  <SCORE.INTRA.DIHEDRAL>
-0.821667

>  <SCORE.INTRA.DIHEDRAL.0>
4.88905

>  <SCORE.INTRA.POLAR>
0

>  <SCORE.INTRA.POLAR.0>
0

>  <SCORE.INTRA.REPUL>
0

>  <SCORE.INTRA.REPUL.0>
0

>  <SCORE.INTRA.SOLV>
-0.572581

>  <SCORE.INTRA.SOLV.lig_0>
-15.1033

>  <SCORE.INTRA.VDW>
0.11875

>  <SCORE.INTRA.VDW.0>
-0.755285

>  <SCORE.INTRA.norm>
-0.0444903

>  <SCORE.RESTR>
0

>  <SCORE.RESTR.CAVITY>
0

>  <SCORE.RESTR.norm>
0

>  <SCORE.SYSTEM>
0

>  <SCORE.SYSTEM.CONST>
0

>  <SCORE.SYSTEM.DIHEDRAL>
0

>  <SCORE.SYSTEM.SOLV>
0

>  <SCORE.SYSTEM.norm>
0

>  <SCORE.heavy>
13

>  <SCORE.norm>
-3.8563

>  <RMSD>
0.641

$$$$
ligand
 OpenBabel11021811513D
libRbt.so/2013.1/901 2013/11/27
 13 14  0  0  0  0  0  0  0  0999 V2000
   34.4974   29.8271  108.1569 N   0  0  0  0  0  0  0  0  0  0  0  0
   34.3997   31.0691  108.8255 C   0  0  0  0  0  0  0  0  0  0  0  0
   35.6037   31.7710  109.1917 N   0  0  0  0  0  0  0  0  0  0  0  0
   33.1835   31.6216  109.1356 N   0  0  0  0  0  0  0  0  0  0  0  0
   31.9832   30.9808  108.8024 C   0  0  0  0  0  0  0  0  0  0  0  0
   32.0369   29.7140  108.1212 C   0  0  0  0  0  0  0  0  0  0  0  0
   33.3463   29.1441  107.8014 C   0  0  0  0  0  0  0  0  0  0  0  0
   33.4375   27.9356  107.1515 O   0  0  0  0  0  0  0  0  0  0  0  0
   30.6584   29.3040  107.9175 C   0  0  0  0  0  0  0  0  0  0  0  0
   29.8567   30.3097  108.4587 C   0  0  0  0  0  0  0  0  0  0  0  0
   30.6509   31.3031  108.9862 N   0  0  0  0  0  0  0  0  0  0  0  0
   30.1920   28.0488  107.2431 C   0  0  0  0  0  0  0  0  0  0  0  0
   29.8008   28.3542  105.8793 N   0  0  0  0  0  0  0  0  0  0  0  0
  1  2  1  0  0  0  0
  1  7  1  0  0  0  0
  2  3  1  0  0  0  0
  2  4  2  0  0  0  0
  4  5  1  0  0  0  0
  5  6  2  0  0  0  0
  5 11  1  0  0  0  0
  6  7  1  0  0  0  0
  6  9  1  0  0  0  0
  7  8  2  0  0  0  0
  9 10  2  0  0  0  0
  9 12  1  0  0  0  0
 10 11  1  0  0  0  0
 12 13  1  0  0  0  0
M  END
>  <CHROM.1>
167.90773804,-100.00030987,-96.77254496,32.32527962,29.93170372,108.09537552
-0.59043671,0.04429243,-2.55579437

>  <Name>
ligand

>  <RI>
1.38753e+07

>  <Rbt.Current_Directory>
/home/itssahil/PROJECTS/Mol_Feturizer/New_Systems/rnas/4RZD

>  <Rbt.Executable>
rbdock ($Id: //depot/dev/client3/rdock/2013.1/src/exe/rbdock.cxx#4 $)

>  <Rbt.Library>
libRbt.so (2013.1, Build901 2013/11/27)

>  <Rbt.Parameter_File>
/export/apps/rDock/src/rDock_2013.1_src/data/scripts/dock_solv.prm

>  <Rbt.Receptor>
prm/pocket_docking_7.prm

>  <SCORE>
-50.1365

>  <SCORE.INTER>
-49.5583

>  <SCORE.INTER.CONST>
1

>  <SCORE.INTER.POLAR>
-5.1569

>  <SCORE.INTER.ROT>
3

>  <SCORE.INTER.SOLV>
11.9728

>  <SCORE.INTER.VDW>
-25.4402

>  <SCORE.INTER.norm>
-3.81218

>  <SCORE.INTRA>
-0.578159

>  <SCORE.INTRA.DIHEDRAL>
-0.821503

>  <SCORE.INTRA.DIHEDRAL.0>
4.88905

>  <SCORE.INTRA.POLAR>
0

>  <SCORE.INTRA.POLAR.0>
0

>  <SCORE.INTRA.REPUL>
0

>  <SCORE.INTRA.REPUL.0>
0

>  <SCORE.INTRA.SOLV>
-0.573681

>  <SCORE.INTRA.SOLV.lig_0>
-15.1033

>  <SCORE.INTRA.VDW>
0.119433

>  <SCORE.INTRA.VDW.0>
-0.755285

>  <SCORE.INTRA.norm>
-0.0444738

>  <SCORE.RESTR>
0

>  <SCORE.RESTR.CAVITY>
0

>  <SCORE.RESTR.norm>
0

>  <SCORE.SYSTEM>
0

>  <SCORE.SYSTEM.CONST>
0

>  <SCORE.SYSTEM.DIHEDRAL>
0

>  <SCORE.SYSTEM.SOLV>
0

>  <SCORE.SYSTEM.norm>
0

>  <SCORE.heavy>
13

>  <SCORE.norm>
-3.85665

>  <RMSD>
0.641

$$$$
ligand
 OpenBabel11021811513D
libRbt.so/2013.1/901 2013/11/27
 13 14  0  0  0  0  0  0  0  0999 V2000
   34.4962   29.8595  108.1070 N   0  0  0  0  0  0  0  0  0  0  0  0
   34.3988   31.1003  108.7778 C   0  0  0  0  0  0  0  0  0  0  0  0
   35.6027   31.8093  109.1302 N   0  0  0  0  0  0  0  0  0  0  0  0
   33.1831   31.6450  109.1029 N   0  0  0  0  0  0  0  0  0  0  0  0
   31.9828   30.9971  108.7834 C   0  0  0  0  0  0  0  0  0  0  0  0
   32.0362   29.7311  108.1005 C   0  0  0  0  0  0  0  0  0  0  0  0
   33.3452   29.1697  107.7646 C   0  0  0  0  0  0  0  0  0  0  0  0
   33.4362   27.9623  107.1125 O   0  0  0  0  0  0  0  0  0  0  0  0
   30.6580   29.3128  107.9129 C   0  0  0  0  0  0  0  0  0  0  0  0
   29.8565   30.3131  108.4646 C   0  0  0  0  0  0  0  0  0  0  0  0
   30.6509   31.3109  108.9835 N   0  0  0  0  0  0  0  0  0  0  0  0
   30.1913   28.0553  107.2430 C   0  0  0  0  0  0  0  0  0  0  0  0
   29.8663   28.3421  105.8580 N   0  0  0  0  0  0  0  0  0  0  0  0
  1  2  1  0  0  0  0
  1  7  1  0  0  0  0
  2  3  1  0  0  0  0
  2  4  2  0  0  0  0
  4  5  1  0  0  0  0
  5  6  2  0  0  0  0
  5 11  1  0  0  0  0
  6  7  1  0  0  0  0
  6  9  1  0  0  0  0
  7  8  2  0  0  0  0
  9 10  2  0  0  0  0
  9 12  1  0  0  0  0
 10 11  1  0  0  0  0
 12 13  1  0  0  0  0
M  END
>  <CHROM.1>
171.52966182,-96.23184747,-94.19792344,32.33042320,29.94928046,108.06899013
-0.59578102,0.02899130,-2.55162207

>  <Name>
ligand

>  <RI>
1.38753e+07

>  <Rbt.Current_Directory>
/home/itssahil/PROJECTS/Mol_Feturizer/New_Systems/rnas/4RZD

>  <Rbt.Executable>
rbdock ($Id: //depot/dev/client3/rdock/2013.1/src/exe/rbdock.cxx#4 $)

>  <Rbt.Library>
libRbt.so (2013.1, Build901 2013/11/27)

>  <Rbt.Parameter_File>
/export/apps/rDock/src/rDock_2013.1_src/data/scripts/dock_solv.prm

>  <Rbt.Receptor>
prm/pocket_docking_7.prm

>  <SCORE>
-50.132

>  <SCORE.INTER>
-49.4778

>  <SCORE.INTER.CONST>
1

>  <SCORE.INTER.POLAR>
-5.12812

>  <SCORE.INTER.ROT>
3

>  <SCORE.INTER.SOLV>
11.8704

>  <SCORE.INTER.VDW>
-25.4483

>  <SCORE.INTER.norm>
-3.80599

>  <SCORE.INTRA>
-0.654215

>  <SCORE.INTRA.DIHEDRAL>
-0.979193

>  <SCORE.INTRA.DIHEDRAL.0>
4.88905

>  <SCORE.INTRA.POLAR>
0

>  <SCORE.INTRA.POLAR.0>
0

>  <SCORE.INTRA.REPUL>
0

>  <SCORE.INTRA.REPUL.0>
0

>  <SCORE.INTRA.SOLV>
-0.550069

>  <SCORE.INTRA.SOLV.lig_0>
-15.1033

>  <SCORE.INTRA.VDW>
0.110417

>  <SCORE.INTRA.VDW.0>
-0.755285

>  <SCORE.INTRA.norm>
-0.0503242

>  <SCORE.RESTR>
0

>  <SCORE.RESTR.CAVITY>
0

>  <SCORE.RESTR.norm>
0

>  <SCORE.SYSTEM>
0

>  <SCORE.SYSTEM.CONST>
0

>  <SCORE.SYSTEM.DIHEDRAL>
0

>  <SCORE.SYSTEM.SOLV>
0

>  <SCORE.SYSTEM.norm>
0

>  <SCORE.heavy>
13

>  <SCORE.norm>
-3.85631

>  <RMSD>
0.641

$$$$
ligand
 OpenBabel11021811513D
libRbt.so/2013.1/901 2013/11/27
 13 14  0  0  0  0  0  0  0  0999 V2000
   34.4936   29.8477  108.1061 N   0  0  0  0  0  0  0  0  0  0  0  0
   34.3998   31.0902  108.7745 C   0  0  0  0  0  0  0  0  0  0  0  0
   35.6058   31.7971  109.1240 N   0  0  0  0  0  0  0  0  0  0  0  0
   33.1857   31.6383  109.1000 N   0  0  0  0  0  0  0  0  0  0  0  0
   31.9836   30.9925  108.7833 C   0  0  0  0  0  0  0  0  0  0  0  0
   32.0332   29.7250  108.1028 C   0  0  0  0  0  0  0  0  0  0  0  0
   33.3405   29.1599  107.7665 C   0  0  0  0  0  0  0  0  0  0  0  0
   33.4279   27.9510  107.1168 O   0  0  0  0  0  0  0  0  0  0  0  0
   30.6538   29.3095  107.9179 C   0  0  0  0  0  0  0  0  0  0  0  0
   29.8554   30.3128  108.4684 C   0  0  0  0  0  0  0  0  0  0  0  0
   30.6526   31.3098  108.9843 N   0  0  0  0  0  0  0  0  0  0  0  0
   30.1834   28.0517  107.2510 C   0  0  0  0  0  0  0  0  0  0  0  0
   29.8167   28.3453  105.8779 N   0  0  0  0  0  0  0  0  0  0  0  0
  1  2  1  0  0  0  0
  1  7  1  0  0  0  0
  2  3  1  0  0  0  0
  2  4  2  0  0  0  0
  4  5  1  0  0  0  0
  5  6  2  0  0  0  0
  5 11  1  0  0  0  0
  6  7  1  0  0  0  0
  6  9  1  0  0  0  0
  7  8  2  0  0  0  0
  9 10  2  0  0  0  0
  9 12  1  0  0  0  0
 10 11  1  0  0  0  0
 12 13  1  0  0  0  0
M  END
>  <CHROM.1>
178.84982356,-98.04441180,-96.02436384,32.32432955,29.94314434,108.07167876
-0.59000827,0.02983603,-2.55474949

>  <Name>
ligand

>  <RI>
2.51964e+07

>  <Rbt.Current_Directory>
/home/itssahil/PROJECTS/Mol_Feturizer/New_Systems/rnas/4RZD

>  <Rbt.Executable>
rbdock ($Id: //depot/dev/client3/rdock/2013.1/src/exe/rbdock.cxx#4 $)

>  <Rbt.Library>
libRbt.so (2013.1, Build901 2013/11/27)

>  <Rbt.Parameter_File>
/export/apps/rDock/src/rDock_2013.1_src/data/scripts/dock_solv.prm

>  <Rbt.Receptor>
prm/pocket_docking_4.prm

>  <SCORE>
-50.1462

>  <SCORE.INTER>
-49.5462

>  <SCORE.INTER.CONST>
1

>  <SCORE.INTER.POLAR>
-5.14341

>  <SCORE.INTER.ROT>
3

>  <SCORE.INTER.SOLV>
11.9023

>  <SCORE.INTER.VDW>
-25.4535

>  <SCORE.INTER.norm>
-3.81125

>  <SCORE.INTRA>
-0.59996

>  <SCORE.INTRA.DIHEDRAL>
-0.867386

>  <SCORE.INTRA.DIHEDRAL.0>
4.88905

>  <SCORE.INTRA.POLAR>
0

>  <SCORE.INTRA.POLAR.0>
0

>  <SCORE.INTRA.REPUL>
0

>  <SCORE.INTRA.REPUL.0>
0

>  <SCORE.INTRA.SOLV>
-0.561262

>  <SCORE.INTRA.SOLV.lig_0>
-15.1033

>  <SCORE.INTRA.VDW>
0.114364

>  <SCORE.INTRA.VDW.0>
-0.755285

>  <SCORE.INTRA.norm>
-0.0461508

>  <SCORE.RESTR>
0

>  <SCORE.RESTR.CAVITY>
0

>  <SCORE.RESTR.norm>
0

>  <SCORE.SYSTEM>
0

>  <SCORE.SYSTEM.CONST>
0

>  <SCORE.SYSTEM.DIHEDRAL>
0

>  <SCORE.SYSTEM.SOLV>
0

>  <SCORE.SYSTEM.norm>
0

>  <SCORE.heavy>
13

>  <SCORE.norm>
-3.8574

>  <RMSD>
0.642

$$$$
ligand
 OpenBabel11021811513D
libRbt.so/2013.1/901 2013/11/27
 13 14  0  0  0  0  0  0  0  0999 V2000
   34.4971   29.8537  108.1362 N   0  0  0  0  0  0  0  0  0  0  0  0
   34.3971   31.0974  108.8014 C   0  0  0  0  0  0  0  0  0  0  0  0
   35.5997   31.8068  109.1575 N   0  0  0  0  0  0  0  0  0  0  0  0
   33.1801   31.6445  109.1176 N   0  0  0  0  0  0  0  0  0  0  0  0
   31.9810   30.9963  108.7942 C   0  0  0  0  0  0  0  0  0  0  0  0
   32.0370   29.7275  108.1167 C   0  0  0  0  0  0  0  0  0  0  0  0
   33.3474   29.1635  107.7904 C   0  0  0  0  0  0  0  0  0  0  0  0
   33.4408   27.9534  107.1437 O   0  0  0  0  0  0  0  0  0  0  0  0
   30.6595   29.3096  107.9233 C   0  0  0  0  0  0  0  0  0  0  0  0
   29.8559   30.3128  108.4664 C   0  0  0  0  0  0  0  0  0  0  0  0
   30.6483   31.3121  108.9856 N   0  0  0  0  0  0  0  0  0  0  0  0
   30.1954   28.0497  107.2560 C   0  0  0  0  0  0  0  0  0  0  0  0
   29.8435   28.3387  105.8780 N   0  0  0  0  0  0  0  0  0  0  0  0
  1  2  1  0  0  0  0
  1  7  1  0  0  0  0
  2  3  1  0  0  0  0
  2  4  2  0  0  0  0
  4  5  1  0  0  0  0
  5  6  2  0  0  0  0
  5 11  1  0  0  0  0
  6  7  1  0  0  0  0
  6  9  1  0  0  0  0
  7  8  2  0  0  0  0
  9 10  2  0  0  0  0
  9 12  1  0  0  0  0
 10 11  1  0  0  0  0
 12 13  1  0  0  0  0
M  END
>  <CHROM.1>
10.81314888,-97.77838235,-95.05746107,32.32848545,29.94589286,108.08693309
-0.59551949,0.03408404,-2.55577122

>  <Name>
ligand

>  <RI>
2.73617e+07

>  <Rbt.Current_Directory>
/home/itssahil/PROJECTS/Mol_Feturizer/New_Systems/rnas/4RZD

>  <Rbt.Executable>
rbdock ($Id: //depot/dev/client3/rdock/2013.1/src/exe/rbdock.cxx#4 $)

>  <Rbt.Library>
libRbt.so (2013.1, Build901 2013/11/27)

>  <Rbt.Parameter_File>
/export/apps/rDock/src/rDock_2013.1_src/data/scripts/dock_solv.prm

>  <Rbt.Receptor>
prm/pocket_docking_6.prm

>  <SCORE>
-50.0734

>  <SCORE.INTER>
-49.4447

>  <SCORE.INTER.CONST>
1

>  <SCORE.INTER.POLAR>
-5.1376

>  <SCORE.INTER.ROT>
3

>  <SCORE.INTER.SOLV>
11.8285

>  <SCORE.INTER.VDW>
-25.3807

>  <SCORE.INTER.norm>
-3.80344

>  <SCORE.INTRA>
-0.628654

>  <SCORE.INTRA.DIHEDRAL>
-0.925816

>  <SCORE.INTRA.DIHEDRAL.0>
4.88905

>  <SCORE.INTRA.POLAR>
0

>  <SCORE.INTRA.POLAR.0>
0

>  <SCORE.INTRA.REPUL>
0

>  <SCORE.INTRA.REPUL.0>
0

>  <SCORE.INTRA.SOLV>
-0.559978

>  <SCORE.INTRA.SOLV.lig_0>
-15.1033

>  <SCORE.INTRA.VDW>
0.114243

>  <SCORE.INTRA.VDW.0>
-0.755285

>  <SCORE.INTRA.norm>
-0.048358

>  <SCORE.RESTR>
0

>  <SCORE.RESTR.CAVITY>
0

>  <SCORE.RESTR.norm>
0

>  <SCORE.SYSTEM>
0

>  <SCORE.SYSTEM.CONST>
0

>  <SCORE.SYSTEM.DIHEDRAL>
0

>  <SCORE.SYSTEM.SOLV>
0

>  <SCORE.SYSTEM.norm>
0

>  <SCORE.heavy>
13

>  <SCORE.norm>
-3.8518

>  <RMSD>
0.642

$$$$
ligand
 OpenBabel11021811513D
libRbt.so/2013.1/901 2013/11/27
 13 14  0  0  0  0  0  0  0  0999 V2000
   34.5263   29.8228  108.0979 N   0  0  0  0  0  0  0  0  0  0  0  0
   34.4023   31.0816  108.7297 C   0  0  0  0  0  0  0  0  0  0  0  0
   35.5902   31.8333  109.0462 N   0  0  0  0  0  0  0  0  0  0  0  0
   33.1757   31.6042  109.0503 N   0  0  0  0  0  0  0  0  0  0  0  0
   31.9901   30.9147  108.7647 C   0  0  0  0  0  0  0  0  0  0  0  0
   32.0707   29.6292  108.1220 C   0  0  0  0  0  0  0  0  0  0  0  0
   33.3909   29.0920  107.7903 C   0  0  0  0  0  0  0  0  0  0  0  0
   33.5077   27.8671  107.1762 O   0  0  0  0  0  0  0  0  0  0  0  0
   30.7024   29.1687  107.9628 C   0  0  0  0  0  0  0  0  0  0  0  0
   29.8799   30.1647  108.4908 C   0  0  0  0  0  0  0  0  0  0  0  0
   30.6523   31.1995  108.9689 N   0  0  0  0  0  0  0  0  0  0  0  0
   30.2630   27.8783  107.3386 C   0  0  0  0  0  0  0  0  0  0  0  0
   29.3820   28.1620  106.2208 N   0  0  0  0  0  0  0  0  0  0  0  0
  1  2  1  0  0  0  0
  1  7  1  0  0  0  0
  2  3  1  0  0  0  0
  2  4  2  0  0  0  0
  4  5  1  0  0  0  0
  5  6  2  0  0  0  0
  5 11  1  0  0  0  0
  6  7  1  0  0  0  0
  6  9  1  0  0  0  0
  7  8  2  0  0  0  0
  9 10  2  0  0  0  0
  9 12  1  0  0  0  0
 10 11  1  0  0  0  0
 12 13  1  0  0  0  0
M  END
>  <CHROM.1>
-179.40494305,-121.62381119,97.16594233,32.31495903,29.86634802,108.10430100
-0.56363217,0.01382945,-2.60900415

>  <Name>
ligand

>  <RI>
2.73617e+07

>  <Rbt.Current_Directory>
/home/itssahil/PROJECTS/Mol_Feturizer/New_Systems/rnas/4RZD

>  <Rbt.Executable>
rbdock ($Id: //depot/dev/client3/rdock/2013.1/src/exe/rbdock.cxx#4 $)

>  <Rbt.Library>
libRbt.so (2013.1, Build901 2013/11/27)

>  <Rbt.Parameter_File>
/export/apps/rDock/src/rDock_2013.1_src/data/scripts/dock_solv.prm

>  <Rbt.Receptor>
prm/pocket_docking_6.prm

>  <SCORE>
-45.3151

>  <SCORE.INTER>
-45.142

>  <SCORE.INTER.CONST>
1

>  <SCORE.INTER.POLAR>
-4.32512

>  <SCORE.INTER.ROT>
3

>  <SCORE.INTER.SOLV>
11.6804

>  <SCORE.INTER.VDW>
-25.1711

>  <SCORE.INTER.norm>
-3.47246

>  <SCORE.INTRA>
-0.173085

>  <SCORE.INTRA.DIHEDRAL>
-0.762786

>  <SCORE.INTRA.DIHEDRAL.0>
4.88905

>  <SCORE.INTRA.POLAR>
0

>  <SCORE.INTRA.POLAR.0>
0

>  <SCORE.INTRA.REPUL>
0

>  <SCORE.INTRA.REPUL.0>
0

>  <SCORE.INTRA.SOLV>
-0.674788

>  <SCORE.INTRA.SOLV.lig_0>
-15.1033

>  <SCORE.INTRA.VDW>
0.545702

>  <SCORE.INTRA.VDW.0>
-0.755285

>  <SCORE.INTRA.norm>
-0.0133142

>  <SCORE.RESTR>
0

>  <SCORE.RESTR.CAVITY>
0

>  <SCORE.RESTR.norm>
0

>  <SCORE.SYSTEM>
0

>  <SCORE.SYSTEM.CONST>
0

>  <SCORE.SYSTEM.DIHEDRAL>
0

>  <SCORE.SYSTEM.SOLV>
0

>  <SCORE.SYSTEM.norm>
0

>  <SCORE.heavy>
13

>  <SCORE.norm>
-3.48578

>  <RMSD>
0.642

$$$$
ligand
 OpenBabel11021811513D
libRbt.so/2013.1/901 2013/11/27
 13 14  0  0  0  0  0  0  0  0999 V2000
   34.4961   29.8506  108.1529 N   0  0  0  0  0  0  0  0  0  0  0  0
   34.3926   31.0919  108.8219 C   0  0  0  0  0  0  0  0  0  0  0  0
   35.5933   31.7994  109.1878 N   0  0  0  0  0  0  0  0  0  0  0  0
   33.1739   31.6385  109.1325 N   0  0  0  0  0  0  0  0  0  0  0  0
   31.9765   30.9920  108.7996 C   0  0  0  0  0  0  0  0  0  0  0  0
   32.0361   29.7256  108.1179 C   0  0  0  0  0  0  0  0  0  0  0  0
   33.3481   29.1621  107.7976 C   0  0  0  0  0  0  0  0  0  0  0  0
   33.4449   27.9543  107.1472 O   0  0  0  0  0  0  0  0  0  0  0  0
   30.6595   29.3091  107.9146 C   0  0  0  0  0  0  0  0  0  0  0  0
   29.8532   30.3108  108.4564 C   0  0  0  0  0  0  0  0  0  0  0  0
   30.6428   31.3078  108.9839 N   0  0  0  0  0  0  0  0  0  0  0  0
   30.1990   28.0519  107.2400 C   0  0  0  0  0  0  0  0  0  0  0  0
   29.8455   28.3480  105.8639 N   0  0  0  0  0  0  0  0  0  0  0  0
  1  2  1  0  0  0  0
  1  7  1  0  0  0  0
  2  3  1  0  0  0  0
  2  4  2  0  0  0  0
  4  5  1  0  0  0  0
  5  6  2  0  0  0  0
  5 11  1  0  0  0  0
  6  7  1  0  0  0  0
  6  9  1  0  0  0  0
  7  8  2  0  0  0  0
  9 10  2  0  0  0  0
  9 12  1  0  0  0  0
 10 11  1  0  0  0  0
 12 13  1  0  0  0  0
M  END
>  <CHROM.1>
-177.88674497,-98.22535805,-94.73291714,32.32692612,29.94416459,108.09093961
-0.59746884,0.04001048,-2.55303059

>  <Name>
ligand

>  <RI>
1.38753e+07

>  <Rbt.Current_Directory>
/home/itssahil/PROJECTS/Mol_Feturizer/New_Systems/rnas/4RZD

>  <Rbt.Executable>
rbdock ($Id: //depot/dev/client3/rdock/2013.1/src/exe/rbdock.cxx#4 $)

>  <Rbt.Library>
libRbt.so (2013.1, Build901 2013/11/27)

>  <Rbt.Parameter_File>
/export/apps/rDock/src/rDock_2013.1_src/data/scripts/dock_solv.prm

>  <Rbt.Receptor>
prm/pocket_docking_7.prm

>  <SCORE>
-50.1326

>  <SCORE.INTER>
-49.4938

>  <SCORE.INTER.CONST>
1

>  <SCORE.INTER.POLAR>
-5.14255

>  <SCORE.INTER.ROT>
3

>  <SCORE.INTER.SOLV>
11.8794

>  <SCORE.INTER.VDW>
-25.4138

>  <SCORE.INTER.norm>
-3.80721

>  <SCORE.INTRA>
-0.638881

>  <SCORE.INTRA.DIHEDRAL>
-0.945266

>  <SCORE.INTRA.DIHEDRAL.0>
4.88905

>  <SCORE.INTRA.POLAR>
0

>  <SCORE.INTRA.POLAR.0>
0

>  <SCORE.INTRA.REPUL>
0

>  <SCORE.INTRA.REPUL.0>
0

>  <SCORE.INTRA.SOLV>
-0.562184

>  <SCORE.INTRA.SOLV.lig_0>
-15.1033

>  <SCORE.INTRA.VDW>
0.114844

>  <SCORE.INTRA.VDW.0>
-0.755285

>  <SCORE.INTRA.norm>
-0.0491447

>  <SCORE.RESTR>
0

>  <SCORE.RESTR.CAVITY>
0

>  <SCORE.RESTR.norm>
0

>  <SCORE.SYSTEM>
0

>  <SCORE.SYSTEM.CONST>
0

>  <SCORE.SYSTEM.DIHEDRAL>
0

>  <SCORE.SYSTEM.SOLV>
0

>  <SCORE.SYSTEM.norm>
0

>  <SCORE.heavy>
13

>  <SCORE.norm>
-3.85636

>  <RMSD>
0.642

$$$$
ligand
 OpenBabel11021811513D
libRbt.so/2013.1/901 2013/11/27
 13 14  0  0  0  0  0  0  0  0999 V2000
   34.4908   29.8417  108.1090 N   0  0  0  0  0  0  0  0  0  0  0  0
   34.3991   31.0868  108.7726 C   0  0  0  0  0  0  0  0  0  0  0  0
   35.6063   31.7935  109.1184 N   0  0  0  0  0  0  0  0  0  0  0  0
   33.1861   31.6378  109.0969 N   0  0  0  0  0  0  0  0  0  0  0  0
   31.9828   30.9924  108.7837 C   0  0  0  0  0  0  0  0  0  0  0  0
   32.0302   29.7222  108.1082 C   0  0  0  0  0  0  0  0  0  0  0  0
   33.3365   29.1540  107.7730 C   0  0  0  0  0  0  0  0  0  0  0  0
   33.4218   27.9424  107.1280 O   0  0  0  0  0  0  0  0  0  0  0  0
   30.6501   29.3078  107.9259 C   0  0  0  0  0  0  0  0  0  0  0  0
   29.8534   30.3142  108.4732 C   0  0  0  0  0  0  0  0  0  0  0  0
   30.6524   31.3123  108.9845 N   0  0  0  0  0  0  0  0  0  0  0  0
   30.1776   28.0480  107.2644 C   0  0  0  0  0  0  0  0  0  0  0  0
   29.7888   28.3411  105.8972 N   0  0  0  0  0  0  0  0  0  0  0  0
  1  2  1  0  0  0  0
  1  7  1  0  0  0  0
  2  3  1  0  0  0  0
  2  4  2  0  0  0  0
  4  5  1  0  0  0  0
  5  6  2  0  0  0  0
  5 11  1  0  0  0  0
  6  7  1  0  0  0  0
  6  9  1  0  0  0  0
  7  8  2  0  0  0  0
  9 10  2  0  0  0  0
  9 12  1  0  0  0  0
 10 11  1  0  0  0  0
 12 13  1  0  0  0  0
M  END
>  <CHROM.1>
8.08075848,-99.00212144,-97.16339934,32.31970752,29.94015777,108.07656179
-0.58695122,0.02996421,-2.55894326

>  <Name>
ligand

>  <RI>
4.18181e+07

>  <Rbt.Current_Directory>
/home/itssahil/PROJECTS/Mol_Feturizer/New_Systems/rnas/4RZD

>  <Rbt.Executable>
rbdock ($Id: //depot/dev/client3/rdock/2013.1/src/exe/rbdock.cxx#4 $)

>  <Rbt.Library>
libRbt.so (2013.1, Build901 2013/11/27)

>  <Rbt.Parameter_File>
/export/apps/rDock/src/rDock_2013.1_src/data/scripts/dock_solv.prm

>  <Rbt.Receptor>
prm/pocket_docking_3.prm

>  <SCORE>
-50.1343

>  <SCORE.INTER>
-49.5677

>  <SCORE.INTER.CONST>
1

>  <SCORE.INTER.POLAR>
-5.14784

>  <SCORE.INTER.ROT>
3

>  <SCORE.INTER.SOLV>
11.8899

>  <SCORE.INTER.VDW>
-25.449

>  <SCORE.INTER.norm>
-3.8129

>  <SCORE.INTRA>
-0.566528

>  <SCORE.INTRA.DIHEDRAL>
-0.799301

>  <SCORE.INTRA.DIHEDRAL.0>
4.88905

>  <SCORE.INTRA.POLAR>
0

>  <SCORE.INTRA.POLAR.0>
0

>  <SCORE.INTRA.REPUL>
0

>  <SCORE.INTRA.REPUL.0>
0

>  <SCORE.INTRA.SOLV>
-0.567576

>  <SCORE.INTRA.SOLV.lig_0>
-15.1033

>  <SCORE.INTRA.VDW>
0.11691

>  <SCORE.INTRA.VDW.0>
-0.755285

>  <SCORE.INTRA.norm>
-0.0435791

>  <SCORE.RESTR>
0

>  <SCORE.RESTR.CAVITY>
0

>  <SCORE.RESTR.norm>
0

>  <SCORE.SYSTEM>
0

>  <SCORE.SYSTEM.CONST>
0

>  <SCORE.SYSTEM.DIHEDRAL>
0

>  <SCORE.SYSTEM.SOLV>
0

>  <SCORE.SYSTEM.norm>
0

>  <SCORE.heavy>
13

>  <SCORE.norm>
-3.85648

>  <RMSD>
0.643

$$$$
ligand
 OpenBabel11021811513D
libRbt.so/2013.1/901 2013/11/27
 13 14  0  0  0  0  0  0  0  0999 V2000
   34.4965   29.8225  108.1371 N   0  0  0  0  0  0  0  0  0  0  0  0
   34.4047   31.0645  108.8067 C   0  0  0  0  0  0  0  0  0  0  0  0
   35.6120   31.7634  109.1675 N   0  0  0  0  0  0  0  0  0  0  0  0
   33.1913   31.6196  109.1227 N   0  0  0  0  0  0  0  0  0  0  0  0
   31.9879   30.9817  108.7948 C   0  0  0  0  0  0  0  0  0  0  0  0
   32.0355   29.7150  108.1128 C   0  0  0  0  0  0  0  0  0  0  0  0
   33.3422   29.1423  107.7867 C   0  0  0  0  0  0  0  0  0  0  0  0
   33.4276   27.9339  107.1359 O   0  0  0  0  0  0  0  0  0  0  0  0
   30.6552   29.3083  107.9155 C   0  0  0  0  0  0  0  0  0  0  0  0
   29.8583   30.3156  108.4608 C   0  0  0  0  0  0  0  0  0  0  0  0
   30.6573   31.3070  108.9850 N   0  0  0  0  0  0  0  0  0  0  0  0
   30.1828   28.0544  107.2427 C   0  0  0  0  0  0  0  0  0  0  0  0
   29.7862   28.3613  105.8808 N   0  0  0  0  0  0  0  0  0  0  0  0
  1  2  1  0  0  0  0
  1  7  1  0  0  0  0
  2  3  1  0  0  0  0
  2  4  2  0  0  0  0
  4  5  1  0  0  0  0
  5  6  2  0  0  0  0
  5 11  1  0  0  0  0
  6  7  1  0  0  0  0
  6  9  1  0  0  0  0
  7  8  2  0  0  0  0
  9 10  2  0  0  0  0
  9 12  1  0  0  0  0
 10 11  1  0  0  0  0
 12 13  1  0  0  0  0
M  END
>  <CHROM.1>
-168.28353011,-99.98751506,-97.55160692,32.32442335,29.93206552,108.08573135
-0.58618539,0.04067445,-2.55411328

>  <Name>
ligand

>  <RI>
2.51964e+07

>  <Rbt.Current_Directory>
/home/itssahil/PROJECTS/Mol_Feturizer/New_Systems/rnas/4RZD

>  <Rbt.Executable>
rbdock ($Id: //depot/dev/client3/rdock/2013.1/src/exe/rbdock.cxx#4 $)

>  <Rbt.Library>
libRbt.so (2013.1, Build901 2013/11/27)

>  <Rbt.Parameter_File>
/export/apps/rDock/src/rDock_2013.1_src/data/scripts/dock_solv.prm

>  <Rbt.Receptor>
prm/pocket_docking_4.prm

>  <SCORE>
-50.0525

>  <SCORE.INTER>
-49.4971

>  <SCORE.INTER.CONST>
1

>  <SCORE.INTER.POLAR>
-5.16234

>  <SCORE.INTER.ROT>
3

>  <SCORE.INTER.SOLV>
11.9548

>  <SCORE.INTER.VDW>
-25.3752

>  <SCORE.INTER.norm>
-3.80747

>  <SCORE.INTRA>
-0.555403

>  <SCORE.INTRA.DIHEDRAL>
-0.775913

>  <SCORE.INTRA.DIHEDRAL.0>
4.88905

>  <SCORE.INTRA.POLAR>
0

>  <SCORE.INTRA.POLAR.0>
0

>  <SCORE.INTRA.REPUL>
0

>  <SCORE.INTRA.REPUL.0>
0

>  <SCORE.INTRA.SOLV>
-0.5737

>  <SCORE.INTRA.SOLV.lig_0>
-15.1033

>  <SCORE.INTRA.VDW>
0.119404

>  <SCORE.INTRA.VDW.0>
-0.755285

>  <SCORE.INTRA.norm>
-0.0427233

>  <SCORE.RESTR>
0

>  <SCORE.RESTR.CAVITY>
0

>  <SCORE.RESTR.norm>
0

>  <SCORE.SYSTEM>
0

>  <SCORE.SYSTEM.CONST>
0

>  <SCORE.SYSTEM.DIHEDRAL>
0

>  <SCORE.SYSTEM.SOLV>
0

>  <SCORE.SYSTEM.norm>
0

>  <SCORE.heavy>
13

>  <SCORE.norm>
-3.85019

>  <RMSD>
0.643

$$$$
ligand
 OpenBabel11021811513D
libRbt.so/2013.1/901 2013/11/27
 13 14  0  0  0  0  0  0  0  0999 V2000
   34.4919   29.8460  108.1168 N   0  0  0  0  0  0  0  0  0  0  0  0
   34.3974   31.0900  108.7821 C   0  0  0  0  0  0  0  0  0  0  0  0
   35.6030   31.7972  109.1324 N   0  0  0  0  0  0  0  0  0  0  0  0
   33.1829   31.6394  109.1039 N   0  0  0  0  0  0  0  0  0  0  0  0
   31.9811   30.9934  108.7864 C   0  0  0  0  0  0  0  0  0  0  0  0
   32.0315   29.7243  108.1090 C   0  0  0  0  0  0  0  0  0  0  0  0
   33.3392   29.1578  107.7766 C   0  0  0  0  0  0  0  0  0  0  0  0
   33.4273   27.9474  107.1298 O   0  0  0  0  0  0  0  0  0  0  0  0
   30.6523   29.3090  107.9222 C   0  0  0  0  0  0  0  0  0  0  0  0
   29.8532   30.3139  108.4689 C   0  0  0  0  0  0  0  0  0  0  0  0
   30.6499   31.3118  108.9840 N   0  0  0  0  0  0  0  0  0  0  0  0
   30.1827   28.0498  107.2574 C   0  0  0  0  0  0  0  0  0  0  0  0
   29.8069   28.3429  105.8866 N   0  0  0  0  0  0  0  0  0  0  0  0
  1  2  1  0  0  0  0
  1  7  1  0  0  0  0
  2  3  1  0  0  0  0
  2  4  2  0  0  0  0
  4  5  1  0  0  0  0
  5  6  2  0  0  0  0
  5 11  1  0  0  0  0
  6  7  1  0  0  0  0
  6  9  1  0  0  0  0
  7  8  2  0  0  0  0
  9 10  2  0  0  0  0
  9 12  1  0  0  0  0
 10 11  1  0  0  0  0
 12 13  1  0  0  0  0
M  END
>  <CHROM.1>
-179.19044069,-98.57604706,-96.28822443,32.32172443,29.94243079,108.07821628
-0.58978094,0.03189978,-2.55739153

>  <Name>
ligand

>  <RI>
1.35221e+07

>  <Rbt.Current_Directory>
/home/itssahil/PROJECTS/Mol_Feturizer/New_Systems/rnas/4RZD

>  <Rbt.Executable>
rbdock ($Id: //depot/dev/client3/rdock/2013.1/src/exe/rbdock.cxx#4 $)

>  <Rbt.Library>
libRbt.so (2013.1, Build901 2013/11/27)

>  <Rbt.Parameter_File>
/export/apps/rDock/src/rDock_2013.1_src/data/scripts/dock_solv.prm

>  <Rbt.Receptor>
prm/pocket_docking_5.prm

>  <SCORE>
-50.1471

>  <SCORE.INTER>
-49.5548

>  <SCORE.INTER.CONST>
1

>  <SCORE.INTER.POLAR>
-5.14517

>  <SCORE.INTER.ROT>
3

>  <SCORE.INTER.SOLV>
11.8924

>  <SCORE.INTER.VDW>
-25.4501

>  <SCORE.INTER.norm>
-3.81191

>  <SCORE.INTRA>
-0.592303

>  <SCORE.INTRA.DIHEDRAL>
-0.851281

>  <SCORE.INTRA.DIHEDRAL.0>
4.88905

>  <SCORE.INTRA.POLAR>
0

>  <SCORE.INTRA.POLAR.0>
0

>  <SCORE.INTRA.REPUL>
0

>  <SCORE.INTRA.REPUL.0>
0

>  <SCORE.INTRA.SOLV>
-0.564538

>  <SCORE.INTRA.SOLV.lig_0>
-15.1033

>  <SCORE.INTRA.VDW>
0.115607

>  <SCORE.INTRA.VDW.0>
-0.755285

>  <SCORE.INTRA.norm>
-0.0455618

>  <SCORE.RESTR>
0

>  <SCORE.RESTR.CAVITY>
0

>  <SCORE.RESTR.norm>
0

>  <SCORE.SYSTEM>
0

>  <SCORE.SYSTEM.CONST>
0

>  <SCORE.SYSTEM.DIHEDRAL>
0

>  <SCORE.SYSTEM.SOLV>
0

>  <SCORE.SYSTEM.norm>
0

>  <SCORE.heavy>
13

>  <SCORE.norm>
-3.85747

>  <RMSD>
0.643

$$$$
ligand
 OpenBabel11021811513D
libRbt.so/2013.1/901 2013/11/27
 13 14  0  0  0  0  0  0  0  0999 V2000
   34.5012   29.8497  108.1411 N   0  0  0  0  0  0  0  0  0  0  0  0
   34.4005   31.0932  108.8065 C   0  0  0  0  0  0  0  0  0  0  0  0
   35.6027   31.8022  109.1646 N   0  0  0  0  0  0  0  0  0  0  0  0
   33.1832   31.6406  109.1210 N   0  0  0  0  0  0  0  0  0  0  0  0
   31.9844   30.9928  108.7957 C   0  0  0  0  0  0  0  0  0  0  0  0
   32.0410   29.7241  108.1180 C   0  0  0  0  0  0  0  0  0  0  0  0
   33.3518   29.1599  107.7934 C   0  0  0  0  0  0  0  0  0  0  0  0
   33.4458   27.9499  107.1466 O   0  0  0  0  0  0  0  0  0  0  0  0
   30.6637   29.3067  107.9225 C   0  0  0  0  0  0  0  0  0  0  0  0
   29.8596   30.3099  108.4647 C   0  0  0  0  0  0  0  0  0  0  0  0
   30.6515   31.3089  108.9853 N   0  0  0  0  0  0  0  0  0  0  0  0
   30.2003   28.0471  107.2541 C   0  0  0  0  0  0  0  0  0  0  0  0
   29.8248   28.3418  105.8836 N   0  0  0  0  0  0  0  0  0  0  0  0
  1  2  1  0  0  0  0
  1  7  1  0  0  0  0
  2  3  1  0  0  0  0
  2  4  2  0  0  0  0
  4  5  1  0  0  0  0
  5  6  2  0  0  0  0
  5 11  1  0  0  0  0
  6  7  1  0  0  0  0
  6  9  1  0  0  0  0
  7  8  2  0  0  0  0
  9 10  2  0  0  0  0
  9 12  1  0  0  0  0
 10 11  1  0  0  0  0
 12 13  1  0  0  0  0
M  END
>  <CHROM.1>
168.52395022,-98.91920254,-95.87598994,32.33038438,29.94285537,108.08940693
-0.59381421,0.03686013,-2.55775648

>  <Name>
ligand

>  <RI>
1.35221e+07

>  <Rbt.Current_Directory>
/home/itssahil/PROJECTS/Mol_Feturizer/New_Systems/rnas/4RZD

>  <Rbt.Executable>
rbdock ($Id: //depot/dev/client3/rdock/2013.1/src/exe/rbdock.cxx#4 $)

>  <Rbt.Library>
libRbt.so (2013.1, Build901 2013/11/27)

>  <Rbt.Parameter_File>
/export/apps/rDock/src/rDock_2013.1_src/data/scripts/dock_solv.prm

>  <Rbt.Receptor>
prm/pocket_docking_5.prm

>  <SCORE>
-50.161

>  <SCORE.INTER>
-49.5566

>  <SCORE.INTER.CONST>
1

>  <SCORE.INTER.POLAR>
-5.14658

>  <SCORE.INTER.ROT>
3

>  <SCORE.INTER.SOLV>
11.9049

>  <SCORE.INTER.VDW>
-25.4508

>  <SCORE.INTER.norm>
-3.81204

>  <SCORE.INTRA>
-0.604461

>  <SCORE.INTRA.DIHEDRAL>
-0.875657

>  <SCORE.INTRA.DIHEDRAL.0>
4.88905

>  <SCORE.INTRA.POLAR>
0

>  <SCORE.INTRA.POLAR.0>
0

>  <SCORE.INTRA.REPUL>
0

>  <SCORE.INTRA.REPUL.0>
0

>  <SCORE.INTRA.SOLV>
-0.566979

>  <SCORE.INTRA.SOLV.lig_0>
-15.1033

>  <SCORE.INTRA.VDW>
0.116857

>  <SCORE.INTRA.VDW.0>
-0.755285

>  <SCORE.INTRA.norm>
-0.046497

>  <SCORE.RESTR>
0

>  <SCORE.RESTR.CAVITY>
0

>  <SCORE.RESTR.norm>
0

>  <SCORE.SYSTEM>
0

>  <SCORE.SYSTEM.CONST>
0

>  <SCORE.SYSTEM.DIHEDRAL>
0

>  <SCORE.SYSTEM.SOLV>
0

>  <SCORE.SYSTEM.norm>
0

>  <SCORE.heavy>
13

>  <SCORE.norm>
-3.85854

>  <RMSD>
0.643

$$$$
ligand
 OpenBabel11021811513D
libRbt.so/2013.1/901 2013/11/27
 13 14  0  0  0  0  0  0  0  0999 V2000
   34.4980   29.8427  108.1163 N   0  0  0  0  0  0  0  0  0  0  0  0
   34.4034   31.0851  108.7847 C   0  0  0  0  0  0  0  0  0  0  0  0
   35.6091   31.7906  109.1383 N   0  0  0  0  0  0  0  0  0  0  0  0
   33.1889   31.6345  109.1065 N   0  0  0  0  0  0  0  0  0  0  0  0
   31.9871   30.9901  108.7858 C   0  0  0  0  0  0  0  0  0  0  0  0
   32.0375   29.7227  108.1051 C   0  0  0  0  0  0  0  0  0  0  0  0
   33.3453   29.1562  107.7728 C   0  0  0  0  0  0  0  0  0  0  0  0
   33.4334   27.9474  107.1230 O   0  0  0  0  0  0  0  0  0  0  0  0
   30.6583   29.3088  107.9156 C   0  0  0  0  0  0  0  0  0  0  0  0
   29.8592   30.3127  108.4639 C   0  0  0  0  0  0  0  0  0  0  0  0
   30.6558   31.3088  108.9826 N   0  0  0  0  0  0  0  0  0  0  0  0
   30.1887   28.0517  107.2469 C   0  0  0  0  0  0  0  0  0  0  0  0
   29.8131   28.3489  105.8769 N   0  0  0  0  0  0  0  0  0  0  0  0
  1  2  1  0  0  0  0
  1  7  1  0  0  0  0
  2  3  1  0  0  0  0
  2  4  2  0  0  0  0
  4  5  1  0  0  0  0
  5  6  2  0  0  0  0
  5 11  1  0  0  0  0
  6  7  1  0  0  0  0
  6  9  1  0  0  0  0
  7  8  2  0  0  0  0
  9 10  2  0  0  0  0
  9 12  1  0  0  0  0
 10 11  1  0  0  0  0
 12 13  1  0  0  0  0
M  END
>  <CHROM.1>
-178.61863373,-98.65109874,-96.48771315,32.32777677,29.94074391,108.07530922
-0.58980657,0.03329114,-2.55480223

>  <Name>
ligand

>  <RI>
1.0531e+07

>  <Rbt.Current_Directory>
/home/itssahil/PROJECTS/Mol_Feturizer/New_Systems/rnas/4RZD

>  <Rbt.Executable>
rbdock ($Id: //depot/dev/client3/rdock/2013.1/src/exe/rbdock.cxx#4 $)

>  <Rbt.Library>
libRbt.so (2013.1, Build901 2013/11/27)

>  <Rbt.Parameter_File>
/export/apps/rDock/src/rDock_2013.1_src/data/scripts/dock_solv.prm

>  <Rbt.Receptor>
prm/pocket_docking_8.prm

>  <SCORE>
-50.144

>  <SCORE.INTER>
-49.5576

>  <SCORE.INTER.CONST>
1

>  <SCORE.INTER.POLAR>
-5.14975

>  <SCORE.INTER.ROT>
3

>  <SCORE.INTER.SOLV>
11.909

>  <SCORE.INTER.VDW>
-25.4423

>  <SCORE.INTER.norm>
-3.81213

>  <SCORE.INTRA>
-0.586415

>  <SCORE.INTRA.DIHEDRAL>
-0.839375

>  <SCORE.INTRA.DIHEDRAL.0>
4.88905

>  <SCORE.INTRA.POLAR>
0

>  <SCORE.INTRA.POLAR.0>
0

>  <SCORE.INTRA.REPUL>
0

>  <SCORE.INTRA.REPUL.0>
0

>  <SCORE.INTRA.SOLV>
-0.565028

>  <SCORE.INTRA.SOLV.lig_0>
-15.1033

>  <SCORE.INTRA.VDW>
0.115787

>  <SCORE.INTRA.VDW.0>
-0.755285

>  <SCORE.INTRA.norm>
-0.0451089

>  <SCORE.RESTR>
0

>  <SCORE.RESTR.CAVITY>
0

>  <SCORE.RESTR.norm>
0

>  <SCORE.SYSTEM>
0

>  <SCORE.SYSTEM.CONST>
0

>  <SCORE.SYSTEM.DIHEDRAL>
0

>  <SCORE.SYSTEM.SOLV>
0

>  <SCORE.SYSTEM.norm>
0

>  <SCORE.heavy>
13

>  <SCORE.norm>
-3.85723

>  <RMSD>
0.643

$$$$
ligand
 OpenBabel11021811513D
libRbt.so/2013.1/901 2013/11/27
 13 14  0  0  0  0  0  0  0  0999 V2000
   34.5007   29.8216  108.1701 N   0  0  0  0  0  0  0  0  0  0  0  0
   34.4050   31.0634  108.8394 C   0  0  0  0  0  0  0  0  0  0  0  0
   35.6103   31.7605  109.2106 N   0  0  0  0  0  0  0  0  0  0  0  0
   33.1898   31.6201  109.1455 N   0  0  0  0  0  0  0  0  0  0  0  0
   31.9883   30.9840  108.8073 C   0  0  0  0  0  0  0  0  0  0  0  0
   32.0399   29.7175  108.1251 C   0  0  0  0  0  0  0  0  0  0  0  0
   33.3484   29.1432  107.8097 C   0  0  0  0  0  0  0  0  0  0  0  0
   33.4376   27.9349  107.1590 O   0  0  0  0  0  0  0  0  0  0  0  0
   30.6607   29.3128  107.9160 C   0  0  0  0  0  0  0  0  0  0  0  0
   29.8607   30.3210  108.4551 C   0  0  0  0  0  0  0  0  0  0  0  0
   30.6566   31.3110  108.9864 N   0  0  0  0  0  0  0  0  0  0  0  0
   30.1922   28.0599  107.2388 C   0  0  0  0  0  0  0  0  0  0  0  0
   29.8270   28.3640  105.8675 N   0  0  0  0  0  0  0  0  0  0  0  0
  1  2  1  0  0  0  0
  1  7  1  0  0  0  0
  2  3  1  0  0  0  0
  2  4  2  0  0  0  0
  4  5  1  0  0  0  0
  5  6  2  0  0  0  0
  5 11  1  0  0  0  0
  6  7  1  0  0  0  0
  6  9  1  0  0  0  0
  7  8  2  0  0  0  0
  9 10  2  0  0  0  0
  9 12  1  0  0  0  0
 10 11  1  0  0  0  0
 12 13  1  0  0  0  0
M  END
>  <CHROM.1>
10.84043794,-99.11114154,-96.03803185,32.33094826,29.93396343,108.10002043
-0.59128609,0.04812112,-2.55284818

>  <Name>
ligand

>  <RI>
1.0531e+07

>  <Rbt.Current_Directory>
/home/itssahil/PROJECTS/Mol_Feturizer/New_Systems/rnas/4RZD

>  <Rbt.Executable>
rbdock ($Id: //depot/dev/client3/rdock/2013.1/src/exe/rbdock.cxx#4 $)

>  <Rbt.Library>
libRbt.so (2013.1, Build901 2013/11/27)

>  <Rbt.Parameter_File>
/export/apps/rDock/src/rDock_2013.1_src/data/scripts/dock_solv.prm

>  <Rbt.Receptor>
prm/pocket_docking_8.prm

>  <SCORE>
-50.0696

>  <SCORE.INTER>
-49.4699

>  <SCORE.INTER.CONST>
1

>  <SCORE.INTER.POLAR>
-5.15627

>  <SCORE.INTER.ROT>
3

>  <SCORE.INTER.SOLV>
11.9227

>  <SCORE.INTER.VDW>
-25.3666

>  <SCORE.INTER.norm>
-3.80538

>  <SCORE.INTRA>
-0.599687

>  <SCORE.INTRA.DIHEDRAL>
-0.865811

>  <SCORE.INTRA.DIHEDRAL.0>
4.88905

>  <SCORE.INTRA.POLAR>
0

>  <SCORE.INTRA.POLAR.0>
0

>  <SCORE.INTRA.REPUL>
0

>  <SCORE.INTRA.REPUL.0>
0

>  <SCORE.INTRA.SOLV>
-0.568235

>  <SCORE.INTRA.SOLV.lig_0>
-15.1033

>  <SCORE.INTRA.VDW>
0.117336

>  <SCORE.INTRA.VDW.0>
-0.755285

>  <SCORE.INTRA.norm>
-0.0461298

>  <SCORE.RESTR>
0

>  <SCORE.RESTR.CAVITY>
0

>  <SCORE.RESTR.norm>
0

>  <SCORE.SYSTEM>
0

>  <SCORE.SYSTEM.CONST>
0

>  <SCORE.SYSTEM.DIHEDRAL>
0

>  <SCORE.SYSTEM.SOLV>
0

>  <SCORE.SYSTEM.norm>
0

>  <SCORE.heavy>
13

>  <SCORE.norm>
-3.85151

>  <RMSD>
0.643

$$$$
ligand
 OpenBabel11021811513D
libRbt.so/2013.1/901 2013/11/27
 13 14  0  0  0  0  0  0  0  0999 V2000
   34.5020   29.8281  108.1395 N   0  0  0  0  0  0  0  0  0  0  0  0
   34.4071   31.0713  108.8063 C   0  0  0  0  0  0  0  0  0  0  0  0
   35.6127   31.7740  109.1657 N   0  0  0  0  0  0  0  0  0  0  0  0
   33.1924   31.6242  109.1210 N   0  0  0  0  0  0  0  0  0  0  0  0
   31.9906   30.9827  108.7944 C   0  0  0  0  0  0  0  0  0  0  0  0
   32.0413   29.7146  108.1152 C   0  0  0  0  0  0  0  0  0  0  0  0
   33.3494   29.1443  107.7905 C   0  0  0  0  0  0  0  0  0  0  0  0
   33.4378   27.9347  107.1423 O   0  0  0  0  0  0  0  0  0  0  0  0
   30.6620   29.3041  107.9186 C   0  0  0  0  0  0  0  0  0  0  0  0
   29.8626   30.3107  108.4617 C   0  0  0  0  0  0  0  0  0  0  0  0
   30.6591   31.3051  108.9837 N   0  0  0  0  0  0  0  0  0  0  0  0
   30.1927   28.0476  107.2485 C   0  0  0  0  0  0  0  0  0  0  0  0
   29.7807   28.3533  105.8910 N   0  0  0  0  0  0  0  0  0  0  0  0
  1  2  1  0  0  0  0
  1  7  1  0  0  0  0
  2  3  1  0  0  0  0
  2  4  2  0  0  0  0
  4  5  1  0  0  0  0
  5  6  2  0  0  0  0
  5 11  1  0  0  0  0
  6  7  1  0  0  0  0
  6  9  1  0  0  0  0
  7  8  2  0  0  0  0
  9 10  2  0  0  0  0
  9 12  1  0  0  0  0
 10 11  1  0  0  0  0
 12 13  1  0  0  0  0
M  END
>  <CHROM.1>
-14.99407595,-100.64891296,-97.98755492,32.32831107,29.93256733,108.08812914
-0.58700433,0.04073556,-2.55839124

>  <Name>
ligand

>  <RI>
4.18181e+07

>  <Rbt.Current_Directory>
/home/itssahil/PROJECTS/Mol_Feturizer/New_Systems/rnas/4RZD

>  <Rbt.Executable>
rbdock ($Id: //depot/dev/client3/rdock/2013.1/src/exe/rbdock.cxx#4 $)

>  <Rbt.Library>
libRbt.so (2013.1, Build901 2013/11/27)

>  <Rbt.Parameter_File>
/export/apps/rDock/src/rDock_2013.1_src/data/scripts/dock_solv.prm

>  <Rbt.Receptor>
prm/pocket_docking_3.prm

>  <SCORE>
-50.1287

>  <SCORE.INTER>
-49.5859

>  <SCORE.INTER.CONST>
1

>  <SCORE.INTER.POLAR>
-5.16401

>  <SCORE.INTER.ROT>
3

>  <SCORE.INTER.SOLV>
11.9958

>  <SCORE.INTER.VDW>
-25.4425

>  <SCORE.INTER.norm>
-3.8143

>  <SCORE.INTRA>
-0.542777

>  <SCORE.INTRA.DIHEDRAL>
-0.750172

>  <SCORE.INTRA.DIHEDRAL.0>
4.88905

>  <SCORE.INTRA.POLAR>
0

>  <SCORE.INTRA.POLAR.0>
0

>  <SCORE.INTRA.REPUL>
0

>  <SCORE.INTRA.REPUL.0>
0

>  <SCORE.INTRA.SOLV>
-0.578108

>  <SCORE.INTRA.SOLV.lig_0>
-15.1033

>  <SCORE.INTRA.VDW>
0.121363

>  <SCORE.INTRA.VDW.0>
-0.755285

>  <SCORE.INTRA.norm>
-0.0417521

>  <SCORE.RESTR>
0

>  <SCORE.RESTR.CAVITY>
0

>  <SCORE.RESTR.norm>
0

>  <SCORE.SYSTEM>
0

>  <SCORE.SYSTEM.CONST>
0

>  <SCORE.SYSTEM.DIHEDRAL>
0

>  <SCORE.SYSTEM.SOLV>
0

>  <SCORE.SYSTEM.norm>
0

>  <SCORE.heavy>
13

>  <SCORE.norm>
-3.85605

>  <RMSD>
0.644

$$$$
ligand
 OpenBabel11021811513D
libRbt.so/2013.1/901 2013/11/27
 13 14  0  0  0  0  0  0  0  0999 V2000
   34.4932   29.8496  108.1114 N   0  0  0  0  0  0  0  0  0  0  0  0
   34.3987   31.0927  108.7784 C   0  0  0  0  0  0  0  0  0  0  0  0
   35.6044   31.8001  109.1282 N   0  0  0  0  0  0  0  0  0  0  0  0
   33.1844   31.6411  109.1023 N   0  0  0  0  0  0  0  0  0  0  0  0
   31.9825   30.9949  108.7853 C   0  0  0  0  0  0  0  0  0  0  0  0
   32.0328   29.7267  108.1062 C   0  0  0  0  0  0  0  0  0  0  0  0
   33.3405   29.1612  107.7716 C   0  0  0  0  0  0  0  0  0  0  0  0
   33.4285   27.9517  107.1233 O   0  0  0  0  0  0  0  0  0  0  0  0
   30.6536   29.3109  107.9205 C   0  0  0  0  0  0  0  0  0  0  0  0
   29.8546   30.3147  108.4694 C   0  0  0  0  0  0  0  0  0  0  0  0
   30.6514   31.3123  108.9848 N   0  0  0  0  0  0  0  0  0  0  0  0
   30.1839   28.0523  107.2547 C   0  0  0  0  0  0  0  0  0  0  0  0
   29.8105   28.3460  105.8833 N   0  0  0  0  0  0  0  0  0  0  0  0
  1  2  1  0  0  0  0
  1  7  1  0  0  0  0
  2  3  1  0  0  0  0
  2  4  2  0  0  0  0
  4  5  1  0  0  0  0
  5  6  2  0  0  0  0
  5 11  1  0  0  0  0
  6  7  1  0  0  0  0
  6  9  1  0  0  0  0
  7  8  2  0  0  0  0
  9 10  2  0  0  0  0
  9 12  1  0  0  0  0
 10 11  1  0  0  0  0
 12 13  1  0  0  0  0
M  END
>  <CHROM.1>
-173.69205091,-98.39202923,-96.21630051,32.32325670,29.94489848,108.07529723
-0.58995262,0.03035915,-2.55565180

>  <Name>
ligand

>  <RI>
1.35221e+07

>  <Rbt.Current_Directory>
/home/itssahil/PROJECTS/Mol_Feturizer/New_Systems/rnas/4RZD

>  <Rbt.Executable>
rbdock ($Id: //depot/dev/client3/rdock/2013.1/src/exe/rbdock.cxx#4 $)

>  <Rbt.Library>
libRbt.so (2013.1, Build901 2013/11/27)

>  <Rbt.Parameter_File>
/export/apps/rDock/src/rDock_2013.1_src/data/scripts/dock_solv.prm

>  <Rbt.Receptor>
prm/pocket_docking_5.prm

>  <SCORE>
-50.1077

>  <SCORE.INTER>
-49.5134

>  <SCORE.INTER.CONST>
1

>  <SCORE.INTER.POLAR>
-5.14537

>  <SCORE.INTER.ROT>
3

>  <SCORE.INTER.SOLV>
11.8915

>  <SCORE.INTER.VDW>
-25.4215

>  <SCORE.INTER.norm>
-3.80872

>  <SCORE.INTRA>
-0.594308

>  <SCORE.INTRA.DIHEDRAL>
-0.855693

>  <SCORE.INTRA.DIHEDRAL.0>
4.88905

>  <SCORE.INTRA.POLAR>
0

>  <SCORE.INTRA.POLAR.0>
0

>  <SCORE.INTRA.REPUL>
0

>  <SCORE.INTRA.REPUL.0>
0

>  <SCORE.INTRA.SOLV>
-0.563538

>  <SCORE.INTRA.SOLV.lig_0>
-15.1033

>  <SCORE.INTRA.VDW>
0.115308

>  <SCORE.INTRA.VDW.0>
-0.755285

>  <SCORE.INTRA.norm>
-0.045716

>  <SCORE.RESTR>
0

>  <SCORE.RESTR.CAVITY>
0

>  <SCORE.RESTR.norm>
0

>  <SCORE.SYSTEM>
0

>  <SCORE.SYSTEM.CONST>
0

>  <SCORE.SYSTEM.DIHEDRAL>
0

>  <SCORE.SYSTEM.SOLV>
0

>  <SCORE.SYSTEM.norm>
0

>  <SCORE.heavy>
13

>  <SCORE.norm>
-3.85444

>  <RMSD>
0.644

$$$$
ligand
 OpenBabel11021811513D
libRbt.so/2013.1/901 2013/11/27
 13 14  0  0  0  0  0  0  0  0999 V2000
   34.4964   29.8434  108.1174 N   0  0  0  0  0  0  0  0  0  0  0  0
   34.4016   31.0865  108.7845 C   0  0  0  0  0  0  0  0  0  0  0  0
   35.6072   31.7930  109.1365 N   0  0  0  0  0  0  0  0  0  0  0  0
   33.1871   31.6358  109.1063 N   0  0  0  0  0  0  0  0  0  0  0  0
   31.9853   30.9904  108.7871 C   0  0  0  0  0  0  0  0  0  0  0  0
   32.0359   29.7223  108.1079 C   0  0  0  0  0  0  0  0  0  0  0  0
   33.3438   29.1560  107.7756 C   0  0  0  0  0  0  0  0  0  0  0  0
   33.4321   27.9464  107.1272 O   0  0  0  0  0  0  0  0  0  0  0  0
   30.6568   29.3075  107.9197 C   0  0  0  0  0  0  0  0  0  0  0  0
   29.8575   30.3117  108.4673 C   0  0  0  0  0  0  0  0  0  0  0  0
   30.6541   31.3088  108.9843 N   0  0  0  0  0  0  0  0  0  0  0  0
   30.1873   28.0493  107.2529 C   0  0  0  0  0  0  0  0  0  0  0  0
   29.7959   28.3477  105.8876 N   0  0  0  0  0  0  0  0  0  0  0  0
  1  2  1  0  0  0  0
  1  7  1  0  0  0  0
  2  3  1  0  0  0  0
  2  4  2  0  0  0  0
  4  5  1  0  0  0  0
  5  6  2  0  0  0  0
  5 11  1  0  0  0  0
  6  7  1  0  0  0  0
  6  9  1  0  0  0  0
  7  8  2  0  0  0  0
  9 10  2  0  0  0  0
  9 12  1  0  0  0  0
 10 11  1  0  0  0  0
 12 13  1  0  0  0  0
M  END
>  <CHROM.1>
177.84047506,-99.31906383,-96.53620382,32.32473132,29.94064892,108.07816958
-0.58859435,0.03299560,-2.55682712

>  <Name>
ligand

>  <RI>
1.0531e+07

>  <Rbt.Current_Directory>
/home/itssahil/PROJECTS/Mol_Feturizer/New_Systems/rnas/4RZD

>  <Rbt.Executable>
rbdock ($Id: //depot/dev/client3/rdock/2013.1/src/exe/rbdock.cxx#4 $)

>  <Rbt.Library>
libRbt.so (2013.1, Build901 2013/11/27)

>  <Rbt.Parameter_File>
/export/apps/rDock/src/rDock_2013.1_src/data/scripts/dock_solv.prm

>  <Rbt.Receptor>
prm/pocket_docking_8.prm

>  <SCORE>
-50.1499

>  <SCORE.INTER>
-49.5647

>  <SCORE.INTER.CONST>
1

>  <SCORE.INTER.POLAR>
-5.1465

>  <SCORE.INTER.ROT>
3

>  <SCORE.INTER.SOLV>
11.9269

>  <SCORE.INTER.VDW>
-25.4637

>  <SCORE.INTER.norm>
-3.81267

>  <SCORE.INTRA>
-0.585192

>  <SCORE.INTRA.DIHEDRAL>
-0.83601

>  <SCORE.INTRA.DIHEDRAL.0>
4.88905

>  <SCORE.INTRA.POLAR>
0

>  <SCORE.INTRA.POLAR.0>
0

>  <SCORE.INTRA.REPUL>
0

>  <SCORE.INTRA.REPUL.0>
0

>  <SCORE.INTRA.SOLV>
-0.569089

>  <SCORE.INTRA.SOLV.lig_0>
-15.1033

>  <SCORE.INTRA.VDW>
0.117357

>  <SCORE.INTRA.VDW.0>
-0.755285

>  <SCORE.INTRA.norm>
-0.0450148

>  <SCORE.RESTR>
0

>  <SCORE.RESTR.CAVITY>
0

>  <SCORE.RESTR.norm>
0

>  <SCORE.SYSTEM>
0

>  <SCORE.SYSTEM.CONST>
0

>  <SCORE.SYSTEM.DIHEDRAL>
0

>  <SCORE.SYSTEM.SOLV>
0

>  <SCORE.SYSTEM.norm>
0

>  <SCORE.heavy>
13

>  <SCORE.norm>
-3.85768

>  <RMSD>
0.644

$$$$
ligand
 OpenBabel11021811513D
libRbt.so/2013.1/901 2013/11/27
 13 14  0  0  0  0  0  0  0  0999 V2000
   34.4958   29.8504  108.1071 N   0  0  0  0  0  0  0  0  0  0  0  0
   34.4007   31.0926  108.7757 C   0  0  0  0  0  0  0  0  0  0  0  0
   35.6060   31.8003  109.1260 N   0  0  0  0  0  0  0  0  0  0  0  0
   33.1861   31.6397  109.1007 N   0  0  0  0  0  0  0  0  0  0  0  0
   31.9846   30.9931  108.7833 C   0  0  0  0  0  0  0  0  0  0  0  0
   32.0355   29.7258  108.1026 C   0  0  0  0  0  0  0  0  0  0  0  0
   33.3434   29.1617  107.7668 C   0  0  0  0  0  0  0  0  0  0  0  0
   33.4320   27.9530  107.1168 O   0  0  0  0  0  0  0  0  0  0  0  0
   30.6565   29.3094  107.9168 C   0  0  0  0  0  0  0  0  0  0  0  0
   29.8570   30.3119  108.4673 C   0  0  0  0  0  0  0  0  0  0  0  0
   30.6533   31.3094  108.9838 N   0  0  0  0  0  0  0  0  0  0  0  0
   30.1874   28.0513  107.2495 C   0  0  0  0  0  0  0  0  0  0  0  0
   29.8038   28.3485  105.8817 N   0  0  0  0  0  0  0  0  0  0  0  0
  1  2  1  0  0  0  0
  1  7  1  0  0  0  0
  2  3  1  0  0  0  0
  2  4  2  0  0  0  0
  4  5  1  0  0  0  0
  5  6  2  0  0  0  0
  5 11  1  0  0  0  0
  6  7  1  0  0  0  0
  6  9  1  0  0  0  0
  7  8  2  0  0  0  0
  9 10  2  0  0  0  0
  9 12  1  0  0  0  0
 10 11  1  0  0  0  0
 12 13  1  0  0  0  0
M  END
>  <CHROM.1>
-178.02033949,-98.82052502,-96.55802164,32.32492262,29.94444821,108.07211767
-0.58952805,0.03006267,-2.55495882

>  <Name>
ligand

>  <RI>
4.18181e+07

>  <Rbt.Current_Directory>
/home/itssahil/PROJECTS/Mol_Feturizer/New_Systems/rnas/4RZD

>  <Rbt.Executable>
rbdock ($Id: //depot/dev/client3/rdock/2013.1/src/exe/rbdock.cxx#4 $)

>  <Rbt.Library>
libRbt.so (2013.1, Build901 2013/11/27)

>  <Rbt.Parameter_File>
/export/apps/rDock/src/rDock_2013.1_src/data/scripts/dock_solv.prm

>  <Rbt.Receptor>
prm/pocket_docking_3.prm

>  <SCORE>
-50.147

>  <SCORE.INTER>
-49.5626

>  <SCORE.INTER.CONST>
1

>  <SCORE.INTER.POLAR>
-5.14986

>  <SCORE.INTER.ROT>
3

>  <SCORE.INTER.SOLV>
11.9213

>  <SCORE.INTER.VDW>
-25.4493

>  <SCORE.INTER.norm>
-3.8125

>  <SCORE.INTRA>
-0.58439

>  <SCORE.INTRA.DIHEDRAL>
-0.835087

>  <SCORE.INTRA.DIHEDRAL.0>
4.88905

>  <SCORE.INTRA.POLAR>
0

>  <SCORE.INTRA.POLAR.0>
0

>  <SCORE.INTRA.REPUL>
0

>  <SCORE.INTRA.REPUL.0>
0

>  <SCORE.INTRA.SOLV>
-0.566074

>  <SCORE.INTRA.SOLV.lig_0>
-15.1033

>  <SCORE.INTRA.VDW>
0.116191

>  <SCORE.INTRA.VDW.0>
-0.755285

>  <SCORE.INTRA.norm>
-0.0449531

>  <SCORE.RESTR>
0

>  <SCORE.RESTR.CAVITY>
0

>  <SCORE.RESTR.norm>
0

>  <SCORE.SYSTEM>
0

>  <SCORE.SYSTEM.CONST>
0

>  <SCORE.SYSTEM.DIHEDRAL>
0

>  <SCORE.SYSTEM.SOLV>
0

>  <SCORE.SYSTEM.norm>
0

>  <SCORE.heavy>
13

>  <SCORE.norm>
-3.85746

>  <RMSD>
0.645

$$$$
ligand
 OpenBabel11021811513D
libRbt.so/2013.1/901 2013/11/27
 13 14  0  0  0  0  0  0  0  0999 V2000
   34.4877   29.8524  108.1455 N   0  0  0  0  0  0  0  0  0  0  0  0
   34.3833   31.0946  108.8127 C   0  0  0  0  0  0  0  0  0  0  0  0
   35.5836   31.8040  109.1765 N   0  0  0  0  0  0  0  0  0  0  0  0
   33.1643   31.6403  109.1235 N   0  0  0  0  0  0  0  0  0  0  0  0
   31.9674   30.9920  108.7926 C   0  0  0  0  0  0  0  0  0  0  0  0
   32.0278   29.7246  108.1128 C   0  0  0  0  0  0  0  0  0  0  0  0
   33.3402   29.1621  107.7923 C   0  0  0  0  0  0  0  0  0  0  0  0
   33.4378   27.9533  107.1437 O   0  0  0  0  0  0  0  0  0  0  0  0
   30.6516   29.3062  107.9114 C   0  0  0  0  0  0  0  0  0  0  0  0
   29.8445   30.3078  108.4523 C   0  0  0  0  0  0  0  0  0  0  0  0
   30.6335   31.3066  108.9776 N   0  0  0  0  0  0  0  0  0  0  0  0
   30.1918   28.0474  107.2391 C   0  0  0  0  0  0  0  0  0  0  0  0
   29.7841   28.3512  105.8798 N   0  0  0  0  0  0  0  0  0  0  0  0
  1  2  1  0  0  0  0
  1  7  1  0  0  0  0
  2  3  1  0  0  0  0
  2  4  2  0  0  0  0
  4  5  1  0  0  0  0
  5  6  2  0  0  0  0
  5 11  1  0  0  0  0
  6  7  1  0  0  0  0
  6  9  1  0  0  0  0
  7  8  2  0  0  0  0
  9 10  2  0  0  0  0
  9 12  1  0  0  0  0
 10 11  1  0  0  0  0
 12 13  1  0  0  0  0
M  END
>  <CHROM.1>
-1.61527595,-100.58217247,-96.43235225,32.31364316,29.94424444,108.08688901
-0.59379240,0.03989733,-2.55686430

>  <Name>
ligand

>  <RI>
4.18181e+07

>  <Rbt.Current_Directory>
/home/itssahil/PROJECTS/Mol_Feturizer/New_Systems/rnas/4RZD

>  <Rbt.Executable>
rbdock ($Id: //depot/dev/client3/rdock/2013.1/src/exe/rbdock.cxx#4 $)

>  <Rbt.Library>
libRbt.so (2013.1, Build901 2013/11/27)

>  <Rbt.Parameter_File>
/export/apps/rDock/src/rDock_2013.1_src/data/scripts/dock_solv.prm

>  <Rbt.Receptor>
prm/pocket_docking_3.prm

>  <SCORE>
-50.1149

>  <SCORE.INTER>
-49.5264

>  <SCORE.INTER.CONST>
1

>  <SCORE.INTER.POLAR>
-5.15238

>  <SCORE.INTER.ROT>
3

>  <SCORE.INTER.SOLV>
11.9644

>  <SCORE.INTER.VDW>
-25.4311

>  <SCORE.INTER.norm>
-3.80972

>  <SCORE.INTRA>
-0.588587

>  <SCORE.INTRA.DIHEDRAL>
-0.841148

>  <SCORE.INTRA.DIHEDRAL.0>
4.88905

>  <SCORE.INTRA.POLAR>
0

>  <SCORE.INTRA.POLAR.0>
0

>  <SCORE.INTRA.REPUL>
0

>  <SCORE.INTRA.REPUL.0>
0

>  <SCORE.INTRA.SOLV>
-0.57677

>  <SCORE.INTRA.SOLV.lig_0>
-15.1033

>  <SCORE.INTRA.VDW>
0.120372

>  <SCORE.INTRA.VDW.0>
-0.755285

>  <SCORE.INTRA.norm>
-0.0452759

>  <SCORE.RESTR>
0

>  <SCORE.RESTR.CAVITY>
0

>  <SCORE.RESTR.norm>
0

>  <SCORE.SYSTEM>
0

>  <SCORE.SYSTEM.CONST>
0

>  <SCORE.SYSTEM.DIHEDRAL>
0

>  <SCORE.SYSTEM.SOLV>
0

>  <SCORE.SYSTEM.norm>
0

>  <SCORE.heavy>
13

>  <SCORE.norm>
-3.855

>  <RMSD>
0.645

$$$$
ligand
 OpenBabel11021811513D
libRbt.so/2013.1/901 2013/11/27
 13 14  0  0  0  0  0  0  0  0999 V2000
   34.4937   29.8442  108.1182 N   0  0  0  0  0  0  0  0  0  0  0  0
   34.4001   31.0871  108.7859 C   0  0  0  0  0  0  0  0  0  0  0  0
   35.6063   31.7919  109.1390 N   0  0  0  0  0  0  0  0  0  0  0  0
   33.1861   31.6376  109.1074 N   0  0  0  0  0  0  0  0  0  0  0  0
   31.9837   30.9939  108.7872 C   0  0  0  0  0  0  0  0  0  0  0  0
   32.0331   29.7261  108.1073 C   0  0  0  0  0  0  0  0  0  0  0  0
   33.3404   29.1584  107.7753 C   0  0  0  0  0  0  0  0  0  0  0  0
   33.4276   27.9491  107.1263 O   0  0  0  0  0  0  0  0  0  0  0  0
   30.6535   29.3131  107.9182 C   0  0  0  0  0  0  0  0  0  0  0  0
   29.8552   30.3180  108.4659 C   0  0  0  0  0  0  0  0  0  0  0  0
   30.6527   31.3138  108.9839 N   0  0  0  0  0  0  0  0  0  0  0  0
   30.1829   28.0559  107.2503 C   0  0  0  0  0  0  0  0  0  0  0  0
   29.8096   28.3521  105.8795 N   0  0  0  0  0  0  0  0  0  0  0  0
  1  2  1  0  0  0  0
  1  7  1  0  0  0  0
  2  3  1  0  0  0  0
  2  4  2  0  0  0  0
  4  5  1  0  0  0  0
  5  6  2  0  0  0  0
  5 11  1  0  0  0  0
  6  7  1  0  0  0  0
  6  9  1  0  0  0  0
  7  8  2  0  0  0  0
  9 10  2  0  0  0  0
  9 12  1  0  0  0  0
 10 11  1  0  0  0  0
 12 13  1  0  0  0  0
M  END
>  <CHROM.1>
-3.72160053,-98.55766723,-96.39302920,32.32368775,29.94387408,108.07737324
-0.58937086,0.03382716,-2.55570263

>  <Name>
ligand

>  <RI>
1.35221e+07

>  <Rbt.Current_Directory>
/home/itssahil/PROJECTS/Mol_Feturizer/New_Systems/rnas/4RZD

>  <Rbt.Executable>
rbdock ($Id: //depot/dev/client3/rdock/2013.1/src/exe/rbdock.cxx#4 $)

>  <Rbt.Library>
libRbt.so (2013.1, Build901 2013/11/27)

>  <Rbt.Parameter_File>
/export/apps/rDock/src/rDock_2013.1_src/data/scripts/dock_solv.prm

>  <Rbt.Receptor>
prm/pocket_docking_5.prm

>  <SCORE>
-50.1522

>  <SCORE.INTER>
-49.563

>  <SCORE.INTER.CONST>
1

>  <SCORE.INTER.POLAR>
-5.15012

>  <SCORE.INTER.ROT>
3

>  <SCORE.INTER.SOLV>
11.9229

>  <SCORE.INTER.VDW>
-25.4492

>  <SCORE.INTER.norm>
-3.81254

>  <SCORE.INTRA>
-0.589139

>  <SCORE.INTRA.DIHEDRAL>
-0.845056

>  <SCORE.INTRA.DIHEDRAL.0>
4.88905

>  <SCORE.INTRA.POLAR>
0

>  <SCORE.INTRA.POLAR.0>
0

>  <SCORE.INTRA.REPUL>
0

>  <SCORE.INTRA.REPUL.0>
0

>  <SCORE.INTRA.SOLV>
-0.564599

>  <SCORE.INTRA.SOLV.lig_0>
-15.1033

>  <SCORE.INTRA.VDW>
0.115688

>  <SCORE.INTRA.VDW.0>
-0.755285

>  <SCORE.INTRA.norm>
-0.0453184

>  <SCORE.RESTR>
0

>  <SCORE.RESTR.CAVITY>
0

>  <SCORE.RESTR.norm>
0

>  <SCORE.SYSTEM>
0

>  <SCORE.SYSTEM.CONST>
0

>  <SCORE.SYSTEM.DIHEDRAL>
0

>  <SCORE.SYSTEM.SOLV>
0

>  <SCORE.SYSTEM.norm>
0

>  <SCORE.heavy>
13

>  <SCORE.norm>
-3.85786

>  <RMSD>
0.645

$$$$
ligand
 OpenBabel11021811513D
libRbt.so/2013.1/901 2013/11/27
 13 14  0  0  0  0  0  0  0  0999 V2000
   34.4899   29.8168  108.1265 N   0  0  0  0  0  0  0  0  0  0  0  0
   34.4041   31.0604  108.7939 C   0  0  0  0  0  0  0  0  0  0  0  0
   35.6147   31.7556  109.1506 N   0  0  0  0  0  0  0  0  0  0  0  0
   33.1934   31.6205  109.1117 N   0  0  0  0  0  0  0  0  0  0  0  0
   31.9870   30.9863  108.7878 C   0  0  0  0  0  0  0  0  0  0  0  0
   32.0285   29.7181  108.1081 C   0  0  0  0  0  0  0  0  0  0  0  0
   33.3323   29.1401  107.7801 C   0  0  0  0  0  0  0  0  0  0  0  0
   33.4118   27.9302  107.1313 O   0  0  0  0  0  0  0  0  0  0  0  0
   30.6462   29.3160  107.9147 C   0  0  0  0  0  0  0  0  0  0  0  0
   29.8543   30.3272  108.4600 C   0  0  0  0  0  0  0  0  0  0  0  0
   30.6580   31.3167  108.9805 N   0  0  0  0  0  0  0  0  0  0  0  0
   30.1678   28.0626  107.2454 C   0  0  0  0  0  0  0  0  0  0  0  0
   29.7745   28.3672  105.8820 N   0  0  0  0  0  0  0  0  0  0  0  0
  1  2  1  0  0  0  0
  1  7  1  0  0  0  0
  2  3  1  0  0  0  0
  2  4  2  0  0  0  0
  4  5  1  0  0  0  0
  5  6  2  0  0  0  0
  5 11  1  0  0  0  0
  6  7  1  0  0  0  0
  6  9  1  0  0  0  0
  7  8  2  0  0  0  0
  9 10  2  0  0  0  0
  9 12  1  0  0  0  0
 10 11  1  0  0  0  0
 12 13  1  0  0  0  0
M  END
>  <CHROM.1>
10.24690623,-99.74015544,-98.00692610,32.31855772,29.93401049,108.07977558
-0.58248482,0.04066659,-2.55599992

>  <Name>
ligand

>  <RI>
1.35221e+07

>  <Rbt.Current_Directory>
/home/itssahil/PROJECTS/Mol_Feturizer/New_Systems/rnas/4RZD

>  <Rbt.Executable>
rbdock ($Id: //depot/dev/client3/rdock/2013.1/src/exe/rbdock.cxx#4 $)

>  <Rbt.Library>
libRbt.so (2013.1, Build901 2013/11/27)

>  <Rbt.Parameter_File>
/export/apps/rDock/src/rDock_2013.1_src/data/scripts/dock_solv.prm

>  <Rbt.Receptor>
prm/pocket_docking_5.prm

>  <SCORE>
-50.0367

>  <SCORE.INTER>
-49.4944

>  <SCORE.INTER.CONST>
1

>  <SCORE.INTER.POLAR>
-5.16314

>  <SCORE.INTER.ROT>
3

>  <SCORE.INTER.SOLV>
11.9692

>  <SCORE.INTER.VDW>
-25.3755

>  <SCORE.INTER.norm>
-3.80726

>  <SCORE.INTRA>
-0.542238

>  <SCORE.INTRA.DIHEDRAL>
-0.749804

>  <SCORE.INTRA.DIHEDRAL.0>
4.88905

>  <SCORE.INTRA.POLAR>
0

>  <SCORE.INTRA.POLAR.0>
0

>  <SCORE.INTRA.REPUL>
0

>  <SCORE.INTRA.REPUL.0>
0

>  <SCORE.INTRA.SOLV>
-0.572284

>  <SCORE.INTRA.SOLV.lig_0>
-15.1033

>  <SCORE.INTRA.VDW>
0.118806

>  <SCORE.INTRA.VDW.0>
-0.755285

>  <SCORE.INTRA.norm>
-0.0417106

>  <SCORE.RESTR>
0

>  <SCORE.RESTR.CAVITY>
0

>  <SCORE.RESTR.norm>
0

>  <SCORE.SYSTEM>
0

>  <SCORE.SYSTEM.CONST>
0

>  <SCORE.SYSTEM.DIHEDRAL>
0

>  <SCORE.SYSTEM.SOLV>
0

>  <SCORE.SYSTEM.norm>
0

>  <SCORE.heavy>
13

>  <SCORE.norm>
-3.84897

>  <RMSD>
0.645

$$$$
ligand
 OpenBabel11021811513D
libRbt.so/2013.1/901 2013/11/27
 13 14  0  0  0  0  0  0  0  0999 V2000
   34.4943   29.8434  108.1113 N   0  0  0  0  0  0  0  0  0  0  0  0
   34.4006   31.0876  108.7764 C   0  0  0  0  0  0  0  0  0  0  0  0
   35.6066   31.7951  109.1245 N   0  0  0  0  0  0  0  0  0  0  0  0
   33.1865   31.6370  109.0999 N   0  0  0  0  0  0  0  0  0  0  0  0
   31.9843   30.9907  108.7845 C   0  0  0  0  0  0  0  0  0  0  0  0
   32.0338   29.7214  108.1074 C   0  0  0  0  0  0  0  0  0  0  0  0
   33.3412   29.1550  107.7731 C   0  0  0  0  0  0  0  0  0  0  0  0
   33.4284   27.9443  107.1266 O   0  0  0  0  0  0  0  0  0  0  0  0
   30.6544   29.3058  107.9230 C   0  0  0  0  0  0  0  0  0  0  0  0
   29.8560   30.3107  108.4706 C   0  0  0  0  0  0  0  0  0  0  0  0
   30.6534   31.3089  108.9841 N   0  0  0  0  0  0  0  0  0  0  0  0
   30.1840   28.0463  107.2593 C   0  0  0  0  0  0  0  0  0  0  0  0
   29.7785   28.3444  105.8980 N   0  0  0  0  0  0  0  0  0  0  0  0
  1  2  1  0  0  0  0
  1  7  1  0  0  0  0
  2  3  1  0  0  0  0
  2  4  2  0  0  0  0
  4  5  1  0  0  0  0
  5  6  2  0  0  0  0
  5 11  1  0  0  0  0
  6  7  1  0  0  0  0
  6  9  1  0  0  0  0
  7  8  2  0  0  0  0
  9 10  2  0  0  0  0
  9 12  1  0  0  0  0
 10 11  1  0  0  0  0
 12 13  1  0  0  0  0
M  END
>  <CHROM.1>
176.41495454,-99.80733020,-97.78969629,32.32159291,29.93994112,108.07695616
-0.58685945,0.03119353,-2.55903198

>  <Name>
ligand

>  <RI>
1.38753e+07

>  <Rbt.Current_Directory>
/home/itssahil/PROJECTS/Mol_Feturizer/New_Systems/rnas/4RZD

>  <Rbt.Executable>
rbdock ($Id: //depot/dev/client3/rdock/2013.1/src/exe/rbdock.cxx#4 $)

>  <Rbt.Library>
libRbt.so (2013.1, Build901 2013/11/27)

>  <Rbt.Parameter_File>
/export/apps/rDock/src/rDock_2013.1_src/data/scripts/dock_solv.prm

>  <Rbt.Receptor>
prm/pocket_docking_7.prm

>  <SCORE>
-50.1546

>  <SCORE.INTER>
-49.6059

>  <SCORE.INTER.CONST>
1

>  <SCORE.INTER.POLAR>
-5.15535

>  <SCORE.INTER.ROT>
3

>  <SCORE.INTER.SOLV>
11.9394

>  <SCORE.INTER.VDW>
-25.4659

>  <SCORE.INTER.norm>
-3.81584

>  <SCORE.INTRA>
-0.5487

>  <SCORE.INTRA.DIHEDRAL>
-0.762271

>  <SCORE.INTRA.DIHEDRAL.0>
4.88905

>  <SCORE.INTRA.POLAR>
0

>  <SCORE.INTRA.POLAR.0>
0

>  <SCORE.INTRA.REPUL>
0

>  <SCORE.INTRA.REPUL.0>
0

>  <SCORE.INTRA.SOLV>
-0.572245

>  <SCORE.INTRA.SOLV.lig_0>
-15.1033

>  <SCORE.INTRA.VDW>
0.118558

>  <SCORE.INTRA.VDW.0>
-0.755285

>  <SCORE.INTRA.norm>
-0.0422077

>  <SCORE.RESTR>
0

>  <SCORE.RESTR.CAVITY>
0

>  <SCORE.RESTR.norm>
0

>  <SCORE.SYSTEM>
0

>  <SCORE.SYSTEM.CONST>
0

>  <SCORE.SYSTEM.DIHEDRAL>
0

>  <SCORE.SYSTEM.SOLV>
0

>  <SCORE.SYSTEM.norm>
0

>  <SCORE.heavy>
13

>  <SCORE.norm>
-3.85805

>  <RMSD>
0.645

$$$$
ligand
 OpenBabel11021811513D
libRbt.so/2013.1/901 2013/11/27
 13 14  0  0  0  0  0  0  0  0999 V2000
   34.5003   29.8470  108.1116 N   0  0  0  0  0  0  0  0  0  0  0  0
   34.4052   31.0897  108.7793 C   0  0  0  0  0  0  0  0  0  0  0  0
   35.6105   31.7971  109.1303 N   0  0  0  0  0  0  0  0  0  0  0  0
   33.1905   31.6377  109.1026 N   0  0  0  0  0  0  0  0  0  0  0  0
   31.9890   30.9914  108.7844 C   0  0  0  0  0  0  0  0  0  0  0  0
   32.0400   29.7236  108.1046 C   0  0  0  0  0  0  0  0  0  0  0  0
   33.3480   29.1586  107.7706 C   0  0  0  0  0  0  0  0  0  0  0  0
   33.4366   27.9495  107.1216 O   0  0  0  0  0  0  0  0  0  0  0  0
   30.6610   29.3077  107.9178 C   0  0  0  0  0  0  0  0  0  0  0  0
   29.8615   30.3110  108.4667 C   0  0  0  0  0  0  0  0  0  0  0  0
   30.6577   31.3085  108.9833 N   0  0  0  0  0  0  0  0  0  0  0  0
   30.1920   28.0495  107.2508 C   0  0  0  0  0  0  0  0  0  0  0  0
   29.8013   28.3476  105.8853 N   0  0  0  0  0  0  0  0  0  0  0  0
  1  2  1  0  0  0  0
  1  7  1  0  0  0  0
  2  3  1  0  0  0  0
  2  4  2  0  0  0  0
  4  5  1  0  0  0  0
  5  6  2  0  0  0  0
  5 11  1  0  0  0  0
  6  7  1  0  0  0  0
  6  9  1  0  0  0  0
  7  8  2  0  0  0  0
  9 10  2  0  0  0  0
  9 12  1  0  0  0  0
 10 11  1  0  0  0  0
 12 13  1  0  0  0  0
M  END
>  <CHROM.1>
-172.72771576,-99.20665595,-96.79323260,32.32880835,29.94222971,108.07458655
-0.58901846,0.03115509,-2.55567843

>  <Name>
ligand

>  <RI>
1.38753e+07

>  <Rbt.Current_Directory>
/home/itssahil/PROJECTS/Mol_Feturizer/New_Systems/rnas/4RZD

>  <Rbt.Executable>
rbdock ($Id: //depot/dev/client3/rdock/2013.1/src/exe/rbdock.cxx#4 $)

>  <Rbt.Library>
libRbt.so (2013.1, Build901 2013/11/27)

>  <Rbt.Parameter_File>
/export/apps/rDock/src/rDock_2013.1_src/data/scripts/dock_solv.prm

>  <Rbt.Receptor>
prm/pocket_docking_7.prm

>  <SCORE>
-50.1201

>  <SCORE.INTER>
-49.5426

>  <SCORE.INTER.CONST>
1

>  <SCORE.INTER.POLAR>
-5.15282

>  <SCORE.INTER.ROT>
3

>  <SCORE.INTER.SOLV>
11.9101

>  <SCORE.INTER.VDW>
-25.4224

>  <SCORE.INTER.norm>
-3.81097

>  <SCORE.INTRA>
-0.577493

>  <SCORE.INTRA.DIHEDRAL>
-0.820902

>  <SCORE.INTRA.DIHEDRAL.0>
4.88905

>  <SCORE.INTRA.POLAR>
0

>  <SCORE.INTRA.POLAR.0>
0

>  <SCORE.INTRA.REPUL>
0

>  <SCORE.INTRA.REPUL.0>
0

>  <SCORE.INTRA.SOLV>
-0.568609

>  <SCORE.INTRA.SOLV.lig_0>
-15.1033

>  <SCORE.INTRA.VDW>
0.117262

>  <SCORE.INTRA.VDW.0>
-0.755285

>  <SCORE.INTRA.norm>
-0.0444226

>  <SCORE.RESTR>
0

>  <SCORE.RESTR.CAVITY>
0

>  <SCORE.RESTR.norm>
0

>  <SCORE.SYSTEM>
0

>  <SCORE.SYSTEM.CONST>
0

>  <SCORE.SYSTEM.DIHEDRAL>
0

>  <SCORE.SYSTEM.SOLV>
0

>  <SCORE.SYSTEM.norm>
0

>  <SCORE.heavy>
13

>  <SCORE.norm>
-3.85539

>  <RMSD>
0.645

$$$$
ligand
 OpenBabel11021811513D
libRbt.so/2013.1/901 2013/11/27
 13 14  0  0  0  0  0  0  0  0999 V2000
   34.4962   29.8509  108.1515 N   0  0  0  0  0  0  0  0  0  0  0  0
   34.3954   31.0930  108.8194 C   0  0  0  0  0  0  0  0  0  0  0  0
   35.5976   31.7987  109.1839 N   0  0  0  0  0  0  0  0  0  0  0  0
   33.1779   31.6420  109.1305 N   0  0  0  0  0  0  0  0  0  0  0  0
   31.9791   30.9973  108.7990 C   0  0  0  0  0  0  0  0  0  0  0  0
   32.0360   29.7302  108.1185 C   0  0  0  0  0  0  0  0  0  0  0  0
   33.3468   29.1641  107.7977 C   0  0  0  0  0  0  0  0  0  0  0  0
   33.4410   27.9555  107.1484 O   0  0  0  0  0  0  0  0  0  0  0  0
   30.6586   29.3159  107.9166 C   0  0  0  0  0  0  0  0  0  0  0  0
   29.8543   30.3195  108.4581 C   0  0  0  0  0  0  0  0  0  0  0  0
   30.6461   31.3156  108.9841 N   0  0  0  0  0  0  0  0  0  0  0  0
   30.1953   28.0588  107.2435 C   0  0  0  0  0  0  0  0  0  0  0  0
   29.8476   28.3530  105.8655 N   0  0  0  0  0  0  0  0  0  0  0  0
  1  2  1  0  0  0  0
  1  7  1  0  0  0  0
  2  3  1  0  0  0  0
  2  4  2  0  0  0  0
  4  5  1  0  0  0  0
  5  6  2  0  0  0  0
  5 11  1  0  0  0  0
  6  7  1  0  0  0  0
  6  9  1  0  0  0  0
  7  8  2  0  0  0  0
  9 10  2  0  0  0  0
  9 12  1  0  0  0  0
 10 11  1  0  0  0  0
 12 13  1  0  0  0  0
M  END
>  <CHROM.1>
-3.53565516,-97.94504496,-94.88669762,32.32772495,29.94809212,108.09096774
-0.59621938,0.04044964,-2.55412983

>  <Name>
ligand

>  <RI>
1.0531e+07

>  <Rbt.Current_Directory>
/home/itssahil/PROJECTS/Mol_Feturizer/New_Systems/rnas/4RZD

>  <Rbt.Executable>
rbdock ($Id: //depot/dev/client3/rdock/2013.1/src/exe/rbdock.cxx#4 $)

>  <Rbt.Library>
libRbt.so (2013.1, Build901 2013/11/27)

>  <Rbt.Parameter_File>
/export/apps/rDock/src/rDock_2013.1_src/data/scripts/dock_solv.prm

>  <Rbt.Receptor>
prm/pocket_docking_8.prm

>  <SCORE>
-50.1463

>  <SCORE.INTER>
-49.5123

>  <SCORE.INTER.CONST>
1

>  <SCORE.INTER.POLAR>
-5.14252

>  <SCORE.INTER.ROT>
3

>  <SCORE.INTER.SOLV>
11.8837

>  <SCORE.INTER.VDW>
-25.4277

>  <SCORE.INTER.norm>
-3.80864

>  <SCORE.INTRA>
-0.634073

>  <SCORE.INTRA.DIHEDRAL>
-0.936083

>  <SCORE.INTRA.DIHEDRAL.0>
4.88905

>  <SCORE.INTRA.POLAR>
0

>  <SCORE.INTRA.POLAR.0>
0

>  <SCORE.INTRA.REPUL>
0

>  <SCORE.INTRA.REPUL.0>
0

>  <SCORE.INTRA.SOLV>
-0.560636

>  <SCORE.INTRA.SOLV.lig_0>
-15.1033

>  <SCORE.INTRA.VDW>
0.114287

>  <SCORE.INTRA.VDW.0>
-0.755285

>  <SCORE.INTRA.norm>
-0.0487748

>  <SCORE.RESTR>
0

>  <SCORE.RESTR.CAVITY>
0

>  <SCORE.RESTR.norm>
0

>  <SCORE.SYSTEM>
0

>  <SCORE.SYSTEM.CONST>
0

>  <SCORE.SYSTEM.DIHEDRAL>
0

>  <SCORE.SYSTEM.SOLV>
0

>  <SCORE.SYSTEM.norm>
0

>  <SCORE.heavy>
13

>  <SCORE.norm>
-3.85741

>  <RMSD>
0.645

$$$$
ligand
 OpenBabel11021811513D
libRbt.so/2013.1/901 2013/11/27
 13 14  0  0  0  0  0  0  0  0999 V2000
   34.5007   29.8543  108.1249 N   0  0  0  0  0  0  0  0  0  0  0  0
   34.4010   31.0959  108.7940 C   0  0  0  0  0  0  0  0  0  0  0  0
   35.6037   31.8048  109.1506 N   0  0  0  0  0  0  0  0  0  0  0  0
   33.1841   31.6413  109.1135 N   0  0  0  0  0  0  0  0  0  0  0  0
   31.9849   30.9935  108.7899 C   0  0  0  0  0  0  0  0  0  0  0  0
   32.0406   29.7268  108.1084 C   0  0  0  0  0  0  0  0  0  0  0  0
   33.3508   29.1645  107.7785 C   0  0  0  0  0  0  0  0  0  0  0  0
   33.4440   27.9564  107.1281 O   0  0  0  0  0  0  0  0  0  0  0  0
   30.6630   29.3088  107.9157 C   0  0  0  0  0  0  0  0  0  0  0  0
   29.8597   30.3099  108.4630 C   0  0  0  0  0  0  0  0  0  0  0  0
   30.6523   31.3080  108.9841 N   0  0  0  0  0  0  0  0  0  0  0  0
   30.1987   28.0507  107.2452 C   0  0  0  0  0  0  0  0  0  0  0  0
   29.8180   28.3491  105.8769 N   0  0  0  0  0  0  0  0  0  0  0  0
  1  2  1  0  0  0  0
  1  7  1  0  0  0  0
  2  3  1  0  0  0  0
  2  4  2  0  0  0  0
  4  5  1  0  0  0  0
  5  6  2  0  0  0  0
  5 11  1  0  0  0  0
  6  7  1  0  0  0  0
  6  9  1  0  0  0  0
  7  8  2  0  0  0  0
  9 10  2  0  0  0  0
  9 12  1  0  0  0  0
 10 11  1  0  0  0  0
 12 13  1  0  0  0  0
M  END
>  <CHROM.1>
-2.92956824,-98.96971876,-96.08410579,32.32958311,29.94589477,108.07968315
-0.59296339,0.03371971,-2.55456625

>  <Name>
ligand

>  <RI>
1.38753e+07

>  <Rbt.Current_Directory>
/home/itssahil/PROJECTS/Mol_Feturizer/New_Systems/rnas/4RZD

>  <Rbt.Executable>
rbdock ($Id: //depot/dev/client3/rdock/2013.1/src/exe/rbdock.cxx#4 $)

>  <Rbt.Library>
libRbt.so (2013.1, Build901 2013/11/27)

>  <Rbt.Parameter_File>
/export/apps/rDock/src/rDock_2013.1_src/data/scripts/dock_solv.prm

>  <Rbt.Receptor>
prm/pocket_docking_7.prm

>  <SCORE>
-50.1402

>  <SCORE.INTER>
-49.5418

>  <SCORE.INTER.CONST>
1

>  <SCORE.INTER.POLAR>
-5.15054

>  <SCORE.INTER.ROT>
3

>  <SCORE.INTER.SOLV>
11.9167

>  <SCORE.INTER.VDW>
-25.4316

>  <SCORE.INTER.norm>
-3.81091

>  <SCORE.INTRA>
-0.598463

>  <SCORE.INTRA.DIHEDRAL>
-0.863163

>  <SCORE.INTRA.DIHEDRAL.0>
4.88905

>  <SCORE.INTRA.POLAR>
0

>  <SCORE.INTRA.POLAR.0>
0

>  <SCORE.INTRA.REPUL>
0

>  <SCORE.INTRA.REPUL.0>
0

>  <SCORE.INTRA.SOLV>
-0.567037

>  <SCORE.INTRA.SOLV.lig_0>
-15.1033

>  <SCORE.INTRA.VDW>
0.116636

>  <SCORE.INTRA.VDW.0>
-0.755285

>  <SCORE.INTRA.norm>
-0.0460356

>  <SCORE.RESTR>
0

>  <SCORE.RESTR.CAVITY>
0

>  <SCORE.RESTR.norm>
0

>  <SCORE.SYSTEM>
0

>  <SCORE.SYSTEM.CONST>
0

>  <SCORE.SYSTEM.DIHEDRAL>
0

>  <SCORE.SYSTEM.SOLV>
0

>  <SCORE.SYSTEM.norm>
0

>  <SCORE.heavy>
13

>  <SCORE.norm>
-3.85694

>  <RMSD>
0.646

$$$$
ligand
 OpenBabel11021811513D
libRbt.so/2013.1/901 2013/11/27
 13 14  0  0  0  0  0  0  0  0999 V2000
   34.4957   29.8475  108.1396 N   0  0  0  0  0  0  0  0  0  0  0  0
   34.3969   31.0897  108.8078 C   0  0  0  0  0  0  0  0  0  0  0  0
   35.6003   31.7957  109.1679 N   0  0  0  0  0  0  0  0  0  0  0  0
   33.1804   31.6383  109.1233 N   0  0  0  0  0  0  0  0  0  0  0  0
   31.9806   30.9933  108.7961 C   0  0  0  0  0  0  0  0  0  0  0  0
   32.0353   29.7261  108.1154 C   0  0  0  0  0  0  0  0  0  0  0  0
   33.3452   29.1605  107.7899 C   0  0  0  0  0  0  0  0  0  0  0  0
   33.4374   27.9518  107.1403 O   0  0  0  0  0  0  0  0  0  0  0  0
   30.6573   29.3115  107.9186 C   0  0  0  0  0  0  0  0  0  0  0  0
   29.8548   30.3148  108.4629 C   0  0  0  0  0  0  0  0  0  0  0  0
   30.6482   31.3112  108.9860 N   0  0  0  0  0  0  0  0  0  0  0  0
   30.1920   28.0542  107.2471 C   0  0  0  0  0  0  0  0  0  0  0  0
   29.8095   28.3544  105.8797 N   0  0  0  0  0  0  0  0  0  0  0  0
  1  2  1  0  0  0  0
  1  7  1  0  0  0  0
  2  3  1  0  0  0  0
  2  4  2  0  0  0  0
  4  5  1  0  0  0  0
  5  6  2  0  0  0  0
  5 11  1  0  0  0  0
  6  7  1  0  0  0  0
  6  9  1  0  0  0  0
  7  8  2  0  0  0  0
  9 10  2  0  0  0  0
  9 12  1  0  0  0  0
 10 11  1  0  0  0  0
 12 13  1  0  0  0  0
M  END
>  <CHROM.1>
8.82943064,-99.27676384,-96.49919009,32.32433862,29.94460488,108.08769892
-0.59218205,0.03737234,-2.55455618

>  <Name>
ligand

>  <RI>
1.35221e+07

>  <Rbt.Current_Directory>
/home/itssahil/PROJECTS/Mol_Feturizer/New_Systems/rnas/4RZD

>  <Rbt.Executable>
rbdock ($Id: //depot/dev/client3/rdock/2013.1/src/exe/rbdock.cxx#4 $)

>  <Rbt.Library>
libRbt.so (2013.1, Build901 2013/11/27)

>  <Rbt.Parameter_File>
/export/apps/rDock/src/rDock_2013.1_src/data/scripts/dock_solv.prm

>  <Rbt.Receptor>
prm/pocket_docking_5.prm

>  <SCORE>
-50.0842

>  <SCORE.INTER>
-49.498

>  <SCORE.INTER.CONST>
1

>  <SCORE.INTER.POLAR>
-5.15317

>  <SCORE.INTER.ROT>
3

>  <SCORE.INTER.SOLV>
11.9125

>  <SCORE.INTER.VDW>
-25.3923

>  <SCORE.INTER.norm>
-3.80754

>  <SCORE.INTRA>
-0.586119

>  <SCORE.INTRA.DIHEDRAL>
-0.838231

>  <SCORE.INTRA.DIHEDRAL.0>
4.88905

>  <SCORE.INTRA.POLAR>
0

>  <SCORE.INTRA.POLAR.0>
0

>  <SCORE.INTRA.REPUL>
0

>  <SCORE.INTRA.REPUL.0>
0

>  <SCORE.INTRA.SOLV>
-0.569179

>  <SCORE.INTRA.SOLV.lig_0>
-15.1033

>  <SCORE.INTRA.VDW>
0.117585

>  <SCORE.INTRA.VDW.0>
-0.755285

>  <SCORE.INTRA.norm>
-0.0450861

>  <SCORE.RESTR>
0

>  <SCORE.RESTR.CAVITY>
0

>  <SCORE.RESTR.norm>
0

>  <SCORE.SYSTEM>
0

>  <SCORE.SYSTEM.CONST>
0

>  <SCORE.SYSTEM.DIHEDRAL>
0

>  <SCORE.SYSTEM.SOLV>
0

>  <SCORE.SYSTEM.norm>
0

>  <SCORE.heavy>
13

>  <SCORE.norm>
-3.85263

>  <RMSD>
0.647

$$$$
ligand
 OpenBabel11021811513D
libRbt.so/2013.1/901 2013/11/27
 13 14  0  0  0  0  0  0  0  0999 V2000
   34.4962   29.8415  108.1141 N   0  0  0  0  0  0  0  0  0  0  0  0
   34.4021   31.0842  108.7819 C   0  0  0  0  0  0  0  0  0  0  0  0
   35.6080   31.7901  109.1338 N   0  0  0  0  0  0  0  0  0  0  0  0
   33.1879   31.6336  109.1046 N   0  0  0  0  0  0  0  0  0  0  0  0
   31.9858   30.9888  108.7856 C   0  0  0  0  0  0  0  0  0  0  0  0
   32.0357   29.7211  108.1056 C   0  0  0  0  0  0  0  0  0  0  0  0
   33.3433   29.1546  107.7723 C   0  0  0  0  0  0  0  0  0  0  0  0
   33.4309   27.9454  107.1231 O   0  0  0  0  0  0  0  0  0  0  0  0
   30.6564   29.3068  107.9178 C   0  0  0  0  0  0  0  0  0  0  0  0
   29.8577   30.3110  108.4663 C   0  0  0  0  0  0  0  0  0  0  0  0
   30.6547   31.3074  108.9836 N   0  0  0  0  0  0  0  0  0  0  0  0
   30.1863   28.0492  107.2503 C   0  0  0  0  0  0  0  0  0  0  0  0
   29.7703   28.3532  105.8936 N   0  0  0  0  0  0  0  0  0  0  0  0
  1  2  1  0  0  0  0
  1  7  1  0  0  0  0
  2  3  1  0  0  0  0
  2  4  2  0  0  0  0
  4  5  1  0  0  0  0
  5  6  2  0  0  0  0
  5 11  1  0  0  0  0
  6  7  1  0  0  0  0
  6  9  1  0  0  0  0
  7  8  2  0  0  0  0
  9 10  2  0  0  0  0
  9 12  1  0  0  0  0
 10 11  1  0  0  0  0
 12 13  1  0  0  0  0
M  END
>  <CHROM.1>
1.12003400,-100.39684356,-98.45020328,32.32249846,29.93976138,108.07660959
-0.58639298,0.03307018,-2.55691625

>  <Name>
ligand

>  <RI>
2.73617e+07

>  <Rbt.Current_Directory>
/home/itssahil/PROJECTS/Mol_Feturizer/New_Systems/rnas/4RZD

>  <Rbt.Executable>
rbdock ($Id: //depot/dev/client3/rdock/2013.1/src/exe/rbdock.cxx#4 $)

>  <Rbt.Library>
libRbt.so (2013.1, Build901 2013/11/27)

>  <Rbt.Parameter_File>
/export/apps/rDock/src/rDock_2013.1_src/data/scripts/dock_solv.prm

>  <Rbt.Receptor>
prm/pocket_docking_6.prm

>  <SCORE>
-50.1409

>  <SCORE.INTER>
-49.611

>  <SCORE.INTER.CONST>
1

>  <SCORE.INTER.POLAR>
-5.1627

>  <SCORE.INTER.ROT>
3

>  <SCORE.INTER.SOLV>
11.9635

>  <SCORE.INTER.VDW>
-25.4528

>  <SCORE.INTER.norm>
-3.81623

>  <SCORE.INTRA>
-0.529926

>  <SCORE.INTRA.DIHEDRAL>
-0.723929

>  <SCORE.INTRA.DIHEDRAL.0>
4.88905

>  <SCORE.INTRA.POLAR>
0

>  <SCORE.INTRA.POLAR.0>
0

>  <SCORE.INTRA.REPUL>
0

>  <SCORE.INTRA.REPUL.0>
0

>  <SCORE.INTRA.SOLV>
-0.575958

>  <SCORE.INTRA.SOLV.lig_0>
-15.1033

>  <SCORE.INTRA.VDW>
0.120017

>  <SCORE.INTRA.VDW.0>
-0.755285

>  <SCORE.INTRA.norm>
-0.0407635

>  <SCORE.RESTR>
0

>  <SCORE.RESTR.CAVITY>
0

>  <SCORE.RESTR.norm>
0

>  <SCORE.SYSTEM>
0

>  <SCORE.SYSTEM.CONST>
0

>  <SCORE.SYSTEM.DIHEDRAL>
0

>  <SCORE.SYSTEM.SOLV>
0

>  <SCORE.SYSTEM.norm>
0

>  <SCORE.heavy>
13

>  <SCORE.norm>
-3.85699

>  <RMSD>
0.647

$$$$
ligand
 OpenBabel11021811513D
libRbt.so/2013.1/901 2013/11/27
 13 14  0  0  0  0  0  0  0  0999 V2000
   34.5023   29.8497  108.1259 N   0  0  0  0  0  0  0  0  0  0  0  0
   34.4050   31.0929  108.7923 C   0  0  0  0  0  0  0  0  0  0  0  0
   35.6092   31.8006  109.1466 N   0  0  0  0  0  0  0  0  0  0  0  0
   33.1893   31.6411  109.1115 N   0  0  0  0  0  0  0  0  0  0  0  0
   31.9888   30.9946  108.7901 C   0  0  0  0  0  0  0  0  0  0  0  0
   32.0420   29.7263  108.1114 C   0  0  0  0  0  0  0  0  0  0  0  0
   33.3510   29.1611  107.7818 C   0  0  0  0  0  0  0  0  0  0  0  0
   33.4417   27.9514  107.1340 O   0  0  0  0  0  0  0  0  0  0  0  0
   30.6636   29.3101  107.9205 C   0  0  0  0  0  0  0  0  0  0  0  0
   29.8623   30.3138  108.4662 C   0  0  0  0  0  0  0  0  0  0  0  0
   30.6569   31.3117  108.9845 N   0  0  0  0  0  0  0  0  0  0  0  0
   30.1967   28.0514  107.2531 C   0  0  0  0  0  0  0  0  0  0  0  0
   29.8061   28.3493  105.8874 N   0  0  0  0  0  0  0  0  0  0  0  0
  1  2  1  0  0  0  0
  1  7  1  0  0  0  0
  2  3  1  0  0  0  0
  2  4  2  0  0  0  0
  4  5  1  0  0  0  0
  5  6  2  0  0  0  0
  5 11  1  0  0  0  0
  6  7  1  0  0  0  0
  6  9  1  0  0  0  0
  7  8  2  0  0  0  0
  9 10  2  0  0  0  0
  9 12  1  0  0  0  0
 10 11  1  0  0  0  0
 12 13  1  0  0  0  0
M  END
>  <CHROM.1>
8.74445863,-99.39042567,-96.49512726,32.33044401,29.94496183,108.08223665
-0.59052800,0.03379340,-2.55647428

>  <Name>
ligand

>  <RI>
2.73617e+07

>  <Rbt.Current_Directory>
/home/itssahil/PROJECTS/Mol_Feturizer/New_Systems/rnas/4RZD

>  <Rbt.Executable>
rbdock ($Id: //depot/dev/client3/rdock/2013.1/src/exe/rbdock.cxx#4 $)

>  <Rbt.Library>
libRbt.so (2013.1, Build901 2013/11/27)

>  <Rbt.Parameter_File>
/export/apps/rDock/src/rDock_2013.1_src/data/scripts/dock_solv.prm

>  <Rbt.Receptor>
prm/pocket_docking_6.prm

>  <SCORE>
-50.0815

>  <SCORE.INTER>
-49.4952

>  <SCORE.INTER.CONST>
1

>  <SCORE.INTER.POLAR>
-5.15013

>  <SCORE.INTER.ROT>
3

>  <SCORE.INTER.SOLV>
11.8991

>  <SCORE.INTER.VDW>
-25.3961

>  <SCORE.INTER.norm>
-3.80733

>  <SCORE.INTRA>
-0.586277

>  <SCORE.INTRA.DIHEDRAL>
-0.838385

>  <SCORE.INTRA.DIHEDRAL.0>
4.88905

>  <SCORE.INTRA.POLAR>
0

>  <SCORE.INTRA.POLAR.0>
0

>  <SCORE.INTRA.REPUL>
0

>  <SCORE.INTRA.REPUL.0>
0

>  <SCORE.INTRA.SOLV>
-0.56986

>  <SCORE.INTRA.SOLV.lig_0>
-15.1033

>  <SCORE.INTRA.VDW>
0.117846

>  <SCORE.INTRA.VDW.0>
-0.755285

>  <SCORE.INTRA.norm>
-0.0450982

>  <SCORE.RESTR>
0

>  <SCORE.RESTR.CAVITY>
0

>  <SCORE.RESTR.norm>
0

>  <SCORE.SYSTEM>
0

>  <SCORE.SYSTEM.CONST>
0

>  <SCORE.SYSTEM.DIHEDRAL>
0

>  <SCORE.SYSTEM.SOLV>
0

>  <SCORE.SYSTEM.norm>
0

>  <SCORE.heavy>
13

>  <SCORE.norm>
-3.85242

>  <RMSD>
0.647

$$$$
ligand
 OpenBabel11021811513D
libRbt.so/2013.1/901 2013/11/27
 13 14  0  0  0  0  0  0  0  0999 V2000
   34.4892   29.8642  108.1408 N   0  0  0  0  0  0  0  0  0  0  0  0
   34.3840   31.1049  108.8108 C   0  0  0  0  0  0  0  0  0  0  0  0
   35.5838   31.8160  109.1731 N   0  0  0  0  0  0  0  0  0  0  0  0
   33.1647   31.6474  109.1259 N   0  0  0  0  0  0  0  0  0  0  0  0
   31.9683   30.9974  108.7966 C   0  0  0  0  0  0  0  0  0  0  0  0
   32.0295   29.7315  108.1141 C   0  0  0  0  0  0  0  0  0  0  0  0
   33.3422   29.1724  107.7890 C   0  0  0  0  0  0  0  0  0  0  0  0
   33.4406   27.9652  107.1377 O   0  0  0  0  0  0  0  0  0  0  0  0
   30.6536   29.3108  107.9153 C   0  0  0  0  0  0  0  0  0  0  0  0
   29.8459   30.3097  108.4603 C   0  0  0  0  0  0  0  0  0  0  0  0
   30.6342   31.3089  108.9857 N   0  0  0  0  0  0  0  0  0  0  0  0
   30.1947   28.0525  107.2415 C   0  0  0  0  0  0  0  0  0  0  0  0
   29.8146   28.3523  105.8734 N   0  0  0  0  0  0  0  0  0  0  0  0
  1  2  1  0  0  0  0
  1  7  1  0  0  0  0
  2  3  1  0  0  0  0
  2  4  2  0  0  0  0
  4  5  1  0  0  0  0
  5  6  2  0  0  0  0
  5 11  1  0  0  0  0
  6  7  1  0  0  0  0
  6  9  1  0  0  0  0
  7  8  2  0  0  0  0
  9 10  2  0  0  0  0
  9 12  1  0  0  0  0
 10 11  1  0  0  0  0
 12 13  1  0  0  0  0
M  END
>  <CHROM.1>
179.69729435,-99.16508120,-95.46516136,32.31767080,29.95133998,108.08688794
-0.59651256,0.03598121,-2.55343019

>  <Name>
ligand

>  <RI>
4.18181e+07

>  <Rbt.Current_Directory>
/home/itssahil/PROJECTS/Mol_Feturizer/New_Systems/rnas/4RZD

>  <Rbt.Executable>
rbdock ($Id: //depot/dev/client3/rdock/2013.1/src/exe/rbdock.cxx#4 $)

>  <Rbt.Library>
libRbt.so (2013.1, Build901 2013/11/27)

>  <Rbt.Parameter_File>
/export/apps/rDock/src/rDock_2013.1_src/data/scripts/dock_solv.prm

>  <Rbt.Receptor>
prm/pocket_docking_3.prm

>  <SCORE>
-50.116

>  <SCORE.INTER>
-49.4989

>  <SCORE.INTER.CONST>
1

>  <SCORE.INTER.POLAR>
-5.14366

>  <SCORE.INTER.ROT>
3

>  <SCORE.INTER.SOLV>
11.9301

>  <SCORE.INTER.VDW>
-25.4304

>  <SCORE.INTER.norm>
-3.80761

>  <SCORE.INTRA>
-0.617091

>  <SCORE.INTRA.DIHEDRAL>
-0.900182

>  <SCORE.INTRA.DIHEDRAL.0>
4.88905

>  <SCORE.INTRA.POLAR>
0

>  <SCORE.INTRA.POLAR.0>
0

>  <SCORE.INTRA.REPUL>
0

>  <SCORE.INTRA.REPUL.0>
0

>  <SCORE.INTRA.SOLV>
-0.567984

>  <SCORE.INTRA.SOLV.lig_0>
-15.1033

>  <SCORE.INTRA.VDW>
0.116992

>  <SCORE.INTRA.VDW.0>
-0.755285

>  <SCORE.INTRA.norm>
-0.0474686

>  <SCORE.RESTR>
0

>  <SCORE.RESTR.CAVITY>
0

>  <SCORE.RESTR.norm>
0

>  <SCORE.SYSTEM>
0

>  <SCORE.SYSTEM.CONST>
0

>  <SCORE.SYSTEM.DIHEDRAL>
0

>  <SCORE.SYSTEM.SOLV>
0

>  <SCORE.SYSTEM.norm>
0

>  <SCORE.heavy>
13

>  <SCORE.norm>
-3.85508

>  <RMSD>
0.648

$$$$
ligand
 OpenBabel11021811513D
libRbt.so/2013.1/901 2013/11/27
 13 14  0  0  0  0  0  0  0  0999 V2000
   34.5002   29.8557  108.1302 N   0  0  0  0  0  0  0  0  0  0  0  0
   34.3997   31.0964  108.8007 C   0  0  0  0  0  0  0  0  0  0  0  0
   35.6020   31.8047  109.1600 N   0  0  0  0  0  0  0  0  0  0  0  0
   33.1824   31.6417  109.1192 N   0  0  0  0  0  0  0  0  0  0  0  0
   31.9836   30.9944  108.7929 C   0  0  0  0  0  0  0  0  0  0  0  0
   32.0402   29.7286  108.1100 C   0  0  0  0  0  0  0  0  0  0  0  0
   33.3508   29.1665  107.7813 C   0  0  0  0  0  0  0  0  0  0  0  0
   33.4447   27.9592  107.1295 O   0  0  0  0  0  0  0  0  0  0  0  0
   30.6628   29.3110  107.9147 C   0  0  0  0  0  0  0  0  0  0  0  0
   29.8588   30.3116  108.4621 C   0  0  0  0  0  0  0  0  0  0  0  0
   30.6508   31.3089  108.9856 N   0  0  0  0  0  0  0  0  0  0  0  0
   30.1993   28.0538  107.2420 C   0  0  0  0  0  0  0  0  0  0  0  0
   29.8133   28.3554  105.8758 N   0  0  0  0  0  0  0  0  0  0  0  0
  1  2  1  0  0  0  0
  1  7  1  0  0  0  0
  2  3  1  0  0  0  0
  2  4  2  0  0  0  0
  4  5  1  0  0  0  0
  5  6  2  0  0  0  0
  5 11  1  0  0  0  0
  6  7  1  0  0  0  0
  6  9  1  0  0  0  0
  7  8  2  0  0  0  0
  9 10  2  0  0  0  0
  9 12  1  0  0  0  0
 10 11  1  0  0  0  0
 12 13  1  0  0  0  0
M  END
>  <CHROM.1>
2.25147686,-99.29482981,-96.24715387,32.32853443,29.94777073,108.08217300
-0.59310966,0.03496067,-2.55326469

>  <Name>
ligand

>  <RI>
2.73617e+07

>  <Rbt.Current_Directory>
/home/itssahil/PROJECTS/Mol_Feturizer/New_Systems/rnas/4RZD

>  <Rbt.Executable>
rbdock ($Id: //depot/dev/client3/rdock/2013.1/src/exe/rbdock.cxx#4 $)

>  <Rbt.Library>
libRbt.so (2013.1, Build901 2013/11/27)

>  <Rbt.Parameter_File>
/export/apps/rDock/src/rDock_2013.1_src/data/scripts/dock_solv.prm

>  <Rbt.Receptor>
prm/pocket_docking_6.prm

>  <SCORE>
-50.1223

>  <SCORE.INTER>
-49.5286

>  <SCORE.INTER.CONST>
1

>  <SCORE.INTER.POLAR>
-5.15206

>  <SCORE.INTER.ROT>
3

>  <SCORE.INTER.SOLV>
11.9304

>  <SCORE.INTER.VDW>
-25.4224

>  <SCORE.INTER.norm>
-3.80989

>  <SCORE.INTRA>
-0.593723

>  <SCORE.INTRA.DIHEDRAL>
-0.853195

>  <SCORE.INTRA.DIHEDRAL.0>
4.88905

>  <SCORE.INTRA.POLAR>
0

>  <SCORE.INTRA.POLAR.0>
0

>  <SCORE.INTRA.REPUL>
0

>  <SCORE.INTRA.REPUL.0>
0

>  <SCORE.INTRA.SOLV>
-0.569017

>  <SCORE.INTRA.SOLV.lig_0>
-15.1033

>  <SCORE.INTRA.VDW>
0.117383

>  <SCORE.INTRA.VDW.0>
-0.755285

>  <SCORE.INTRA.norm>
-0.045671

>  <SCORE.RESTR>
0

>  <SCORE.RESTR.CAVITY>
0

>  <SCORE.RESTR.norm>
0

>  <SCORE.SYSTEM>
0

>  <SCORE.SYSTEM.CONST>
0

>  <SCORE.SYSTEM.DIHEDRAL>
0

>  <SCORE.SYSTEM.SOLV>
0

>  <SCORE.SYSTEM.norm>
0

>  <SCORE.heavy>
13

>  <SCORE.norm>
-3.85556

>  <RMSD>
0.648

$$$$
ligand
 OpenBabel11021811513D
libRbt.so/2013.1/901 2013/11/27
 13 14  0  0  0  0  0  0  0  0999 V2000
   34.5006   29.8412  108.1555 N   0  0  0  0  0  0  0  0  0  0  0  0
   34.4002   31.0830  108.8241 C   0  0  0  0  0  0  0  0  0  0  0  0
   35.6027   31.7873  109.1905 N   0  0  0  0  0  0  0  0  0  0  0  0
   33.1829   31.6329  109.1342 N   0  0  0  0  0  0  0  0  0  0  0  0
   31.9839   30.9896  108.8008 C   0  0  0  0  0  0  0  0  0  0  0  0
   32.0403   29.7229  108.1194 C   0  0  0  0  0  0  0  0  0  0  0  0
   33.3510   29.1558  107.7998 C   0  0  0  0  0  0  0  0  0  0  0  0
   33.4449   27.9476  107.1497 O   0  0  0  0  0  0  0  0  0  0  0  0
   30.6628   29.3100  107.9156 C   0  0  0  0  0  0  0  0  0  0  0  0
   29.8589   30.3140  108.4568 C   0  0  0  0  0  0  0  0  0  0  0  0
   30.6509   31.3090  108.9845 N   0  0  0  0  0  0  0  0  0  0  0  0
   30.1991   28.0539  107.2410 C   0  0  0  0  0  0  0  0  0  0  0  0
   29.7970   28.3606  105.8807 N   0  0  0  0  0  0  0  0  0  0  0  0
  1  2  1  0  0  0  0
  1  7  1  0  0  0  0
  2  3  1  0  0  0  0
  2  4  2  0  0  0  0
  4  5  1  0  0  0  0
  5  6  2  0  0  0  0
  5 11  1  0  0  0  0
  6  7  1  0  0  0  0
  6  9  1  0  0  0  0
  7  8  2  0  0  0  0
  9 10  2  0  0  0  0
  9 12  1  0  0  0  0
 10 11  1  0  0  0  0
 12 13  1  0  0  0  0
M  END
>  <CHROM.1>
168.09343877,-100.46492461,-97.00174720,32.32736006,29.94137751,108.09400602
-0.59141536,0.04340496,-2.55604829

>  <Name>
ligand

>  <RI>
2.73617e+07

>  <Rbt.Current_Directory>
/home/itssahil/PROJECTS/Mol_Feturizer/New_Systems/rnas/4RZD

>  <Rbt.Executable>
rbdock ($Id: //depot/dev/client3/rdock/2013.1/src/exe/rbdock.cxx#4 $)

>  <Rbt.Library>
libRbt.so (2013.1, Build901 2013/11/27)

>  <Rbt.Parameter_File>
/export/apps/rDock/src/rDock_2013.1_src/data/scripts/dock_solv.prm

>  <Rbt.Receptor>
prm/pocket_docking_6.prm

>  <SCORE>
-50.1611

>  <SCORE.INTER>
-49.5896

>  <SCORE.INTER.CONST>
1

>  <SCORE.INTER.POLAR>
-5.16264

>  <SCORE.INTER.ROT>
3

>  <SCORE.INTER.SOLV>
11.993

>  <SCORE.INTER.VDW>
-25.4486

>  <SCORE.INTER.norm>
-3.81458

>  <SCORE.INTRA>
-0.571553

>  <SCORE.INTRA.DIHEDRAL>
-0.807629

>  <SCORE.INTRA.DIHEDRAL.0>
4.88905

>  <SCORE.INTRA.POLAR>
0

>  <SCORE.INTRA.POLAR.0>
0

>  <SCORE.INTRA.REPUL>
0

>  <SCORE.INTRA.REPUL.0>
0

>  <SCORE.INTRA.SOLV>
-0.576485

>  <SCORE.INTRA.SOLV.lig_0>
-15.1033

>  <SCORE.INTRA.VDW>
0.120504

>  <SCORE.INTRA.VDW.0>
-0.755285

>  <SCORE.INTRA.norm>
-0.0439656

>  <SCORE.RESTR>
0

>  <SCORE.RESTR.CAVITY>
0

>  <SCORE.RESTR.norm>
0

>  <SCORE.SYSTEM>
0

>  <SCORE.SYSTEM.CONST>
0

>  <SCORE.SYSTEM.DIHEDRAL>
0

>  <SCORE.SYSTEM.SOLV>
0

>  <SCORE.SYSTEM.norm>
0

>  <SCORE.heavy>
13

>  <SCORE.norm>
-3.85855

>  <RMSD>
0.648

$$$$
ligand
 OpenBabel11021811513D
libRbt.so/2013.1/901 2013/11/27
 13 14  0  0  0  0  0  0  0  0999 V2000
   34.5015   29.8248  108.1665 N   0  0  0  0  0  0  0  0  0  0  0  0
   34.4034   31.0669  108.8350 C   0  0  0  0  0  0  0  0  0  0  0  0
   35.6073   31.7672  109.2045 N   0  0  0  0  0  0  0  0  0  0  0  0
   33.1872   31.6209  109.1418 N   0  0  0  0  0  0  0  0  0  0  0  0
   31.9869   30.9816  108.8053 C   0  0  0  0  0  0  0  0  0  0  0  0
   32.0409   29.7147  108.1241 C   0  0  0  0  0  0  0  0  0  0  0  0
   33.3505   29.1432  107.8079 C   0  0  0  0  0  0  0  0  0  0  0  0
   33.4419   27.9347  107.1581 O   0  0  0  0  0  0  0  0  0  0  0  0
   30.6625   29.3065  107.9167 C   0  0  0  0  0  0  0  0  0  0  0  0
   29.8605   30.3132  108.4558 C   0  0  0  0  0  0  0  0  0  0  0  0
   30.6546   31.3055  108.9856 N   0  0  0  0  0  0  0  0  0  0  0  0
   30.1963   28.0519  107.2409 C   0  0  0  0  0  0  0  0  0  0  0  0
   29.7620   28.3667  105.8924 N   0  0  0  0  0  0  0  0  0  0  0  0
  1  2  1  0  0  0  0
  1  7  1  0  0  0  0
  2  3  1  0  0  0  0
  2  4  2  0  0  0  0
  4  5  1  0  0  0  0
  5  6  2  0  0  0  0
  5 11  1  0  0  0  0
  6  7  1  0  0  0  0
  6  9  1  0  0  0  0
  7  8  2  0  0  0  0
  9 10  2  0  0  0  0
  9 12  1  0  0  0  0
 10 11  1  0  0  0  0
 12 13  1  0  0  0  0
M  END
>  <CHROM.1>
170.38510557,-102.11828627,-99.13169310,32.32549796,29.93274586,108.10059474
-0.58715363,0.04795768,-2.55744977

>  <Name>
ligand

>  <RI>
4.18181e+07

>  <Rbt.Current_Directory>
/home/itssahil/PROJECTS/Mol_Feturizer/New_Systems/rnas/4RZD

>  <Rbt.Executable>
rbdock ($Id: //depot/dev/client3/rdock/2013.1/src/exe/rbdock.cxx#4 $)

>  <Rbt.Library>
libRbt.so (2013.1, Build901 2013/11/27)

>  <Rbt.Parameter_File>
/export/apps/rDock/src/rDock_2013.1_src/data/scripts/dock_solv.prm

>  <Rbt.Receptor>
prm/pocket_docking_3.prm

>  <SCORE>
-50.1359

>  <SCORE.INTER>
-49.625

>  <SCORE.INTER.CONST>
1

>  <SCORE.INTER.POLAR>
-5.17723

>  <SCORE.INTER.ROT>
3

>  <SCORE.INTER.SOLV>
12.0356

>  <SCORE.INTER.VDW>
-25.4377

>  <SCORE.INTER.norm>
-3.81731

>  <SCORE.INTRA>
-0.510907

>  <SCORE.INTRA.DIHEDRAL>
-0.683976

>  <SCORE.INTRA.DIHEDRAL.0>
4.88905

>  <SCORE.INTRA.POLAR>
0

>  <SCORE.INTRA.POLAR.0>
0

>  <SCORE.INTRA.REPUL>
0

>  <SCORE.INTRA.REPUL.0>
0

>  <SCORE.INTRA.SOLV>
-0.586458

>  <SCORE.INTRA.SOLV.lig_0>
-15.1033

>  <SCORE.INTRA.VDW>
0.124311

>  <SCORE.INTRA.VDW.0>
-0.755285

>  <SCORE.INTRA.norm>
-0.0393005

>  <SCORE.RESTR>
0

>  <SCORE.RESTR.CAVITY>
0

>  <SCORE.RESTR.norm>
0

>  <SCORE.SYSTEM>
0

>  <SCORE.SYSTEM.CONST>
0

>  <SCORE.SYSTEM.DIHEDRAL>
0

>  <SCORE.SYSTEM.SOLV>
0

>  <SCORE.SYSTEM.norm>
0

>  <SCORE.heavy>
13

>  <SCORE.norm>
-3.85661

>  <RMSD>
0.649

$$$$
ligand
 OpenBabel11021811513D
libRbt.so/2013.1/901 2013/11/27
 13 14  0  0  0  0  0  0  0  0999 V2000
   34.4966   29.8169  108.1601 N   0  0  0  0  0  0  0  0  0  0  0  0
   34.4041   31.0525  108.8413 C   0  0  0  0  0  0  0  0  0  0  0  0
   35.6110   31.7412  109.2224 N   0  0  0  0  0  0  0  0  0  0  0  0
   33.1902   31.6110  109.1496 N   0  0  0  0  0  0  0  0  0  0  0  0
   31.9872   30.9830  108.8021 C   0  0  0  0  0  0  0  0  0  0  0  0
   32.0355   29.7231  108.1078 C   0  0  0  0  0  0  0  0  0  0  0  0
   33.3426   29.1466  107.7902 C   0  0  0  0  0  0  0  0  0  0  0  0
   33.4288   27.9444  107.1280 O   0  0  0  0  0  0  0  0  0  0  0  0
   30.6553   29.3259  107.8912 C   0  0  0  0  0  0  0  0  0  0  0  0
   29.8578   30.3319  108.4380 C   0  0  0  0  0  0  0  0  0  0  0  0
   30.6563   31.3135  108.9810 N   0  0  0  0  0  0  0  0  0  0  0  0
   30.1837   28.0815  107.2005 C   0  0  0  0  0  0  0  0  0  0  0  0
   29.8308   28.3988  105.8290 N   0  0  0  0  0  0  0  0  0  0  0  0
  1  2  1  0  0  0  0
  1  7  1  0  0  0  0
  2  3  1  0  0  0  0
  2  4  2  0  0  0  0
  4  5  1  0  0  0  0
  5  6  2  0  0  0  0
  5 11  1  0  0  0  0
  6  7  1  0  0  0  0
  6  9  1  0  0  0  0
  7  8  2  0  0  0  0
  9 10  2  0  0  0  0
  9 12  1  0  0  0  0
 10 11  1  0  0  0  0
 12 13  1  0  0  0  0
M  END
>  <CHROM.1>
160.60383114,-98.77650765,-96.07988009,32.32820094,29.93837773,108.08529674
-0.58978393,0.05347955,-2.54459254

>  <Name>
ligand

>  <RI>
2.51964e+07

>  <Rbt.Current_Directory>
/home/itssahil/PROJECTS/Mol_Feturizer/New_Systems/rnas/4RZD

>  <Rbt.Executable>
rbdock ($Id: //depot/dev/client3/rdock/2013.1/src/exe/rbdock.cxx#4 $)

>  <Rbt.Library>
libRbt.so (2013.1, Build901 2013/11/27)

>  <Rbt.Parameter_File>
/export/apps/rDock/src/rDock_2013.1_src/data/scripts/dock_solv.prm

>  <Rbt.Receptor>
prm/pocket_docking_4.prm

>  <SCORE>
-50.1003

>  <SCORE.INTER>
-49.5025

>  <SCORE.INTER.CONST>
1

>  <SCORE.INTER.POLAR>
-5.17021

>  <SCORE.INTER.ROT>
3

>  <SCORE.INTER.SOLV>
12.0996

>  <SCORE.INTER.VDW>
-25.4009

>  <SCORE.INTER.norm>
-3.80789

>  <SCORE.INTRA>
-0.59779

>  <SCORE.INTRA.DIHEDRAL>
-0.86356

>  <SCORE.INTRA.DIHEDRAL.0>
4.88905

>  <SCORE.INTRA.POLAR>
0

>  <SCORE.INTRA.POLAR.0>
0

>  <SCORE.INTRA.REPUL>
0

>  <SCORE.INTRA.REPUL.0>
0

>  <SCORE.INTRA.SOLV>
-0.566917

>  <SCORE.INTRA.SOLV.lig_0>
-15.1033

>  <SCORE.INTRA.VDW>
0.117448

>  <SCORE.INTRA.VDW.0>
-0.755285

>  <SCORE.INTRA.norm>
-0.0459839

>  <SCORE.RESTR>
0

>  <SCORE.RESTR.CAVITY>
0

>  <SCORE.RESTR.norm>
0

>  <SCORE.SYSTEM>
0

>  <SCORE.SYSTEM.CONST>
0

>  <SCORE.SYSTEM.DIHEDRAL>
0

>  <SCORE.SYSTEM.SOLV>
0

>  <SCORE.SYSTEM.norm>
0

>  <SCORE.heavy>
13

>  <SCORE.norm>
-3.85387

>  <RMSD>
0.649

$$$$
ligand
 OpenBabel11021811513D
libRbt.so/2013.1/901 2013/11/27
 13 14  0  0  0  0  0  0  0  0999 V2000
   34.4928   29.8483  108.1161 N   0  0  0  0  0  0  0  0  0  0  0  0
   34.3978   31.0888  108.7880 C   0  0  0  0  0  0  0  0  0  0  0  0
   35.6032   31.7928  109.1452 N   0  0  0  0  0  0  0  0  0  0  0  0
   33.1831   31.6377  109.1097 N   0  0  0  0  0  0  0  0  0  0  0  0
   31.9814   30.9947  108.7856 C   0  0  0  0  0  0  0  0  0  0  0  0
   32.0323   29.7293  108.1013 C   0  0  0  0  0  0  0  0  0  0  0  0
   33.3403   29.1633  107.7691 C   0  0  0  0  0  0  0  0  0  0  0  0
   33.4288   27.9563  107.1159 O   0  0  0  0  0  0  0  0  0  0  0  0
   30.6531   29.3165  107.9087 C   0  0  0  0  0  0  0  0  0  0  0  0
   29.8537   30.3191  108.4589 C   0  0  0  0  0  0  0  0  0  0  0  0
   30.6501   31.3133  108.9815 N   0  0  0  0  0  0  0  0  0  0  0  0
   30.1840   28.0615  107.2358 C   0  0  0  0  0  0  0  0  0  0  0  0
   29.8037   28.3641  105.8683 N   0  0  0  0  0  0  0  0  0  0  0  0
  1  2  1  0  0  0  0
  1  7  1  0  0  0  0
  2  3  1  0  0  0  0
  2  4  2  0  0  0  0
  4  5  1  0  0  0  0
  5  6  2  0  0  0  0
  5 11  1  0  0  0  0
  6  7  1  0  0  0  0
  6  9  1  0  0  0  0
  7  8  2  0  0  0  0
  9 10  2  0  0  0  0
  9 12  1  0  0  0  0
 10 11  1  0  0  0  0
 12 13  1  0  0  0  0
M  END
>  <CHROM.1>
171.37440078,-98.94605925,-96.35010409,32.32206259,29.94741480,108.07272182
-0.58960503,0.03516592,-2.55274780

>  <Name>
ligand

>  <RI>
1.35221e+07

>  <Rbt.Current_Directory>
/home/itssahil/PROJECTS/Mol_Feturizer/New_Systems/rnas/4RZD

>  <Rbt.Executable>
rbdock ($Id: //depot/dev/client3/rdock/2013.1/src/exe/rbdock.cxx#4 $)

>  <Rbt.Library>
libRbt.so (2013.1, Build901 2013/11/27)

>  <Rbt.Parameter_File>
/export/apps/rDock/src/rDock_2013.1_src/data/scripts/dock_solv.prm

>  <Rbt.Receptor>
prm/pocket_docking_5.prm

>  <SCORE>
-50.1612

>  <SCORE.INTER>
-49.5707

>  <SCORE.INTER.CONST>
1

>  <SCORE.INTER.POLAR>
-5.15505

>  <SCORE.INTER.ROT>
3

>  <SCORE.INTER.SOLV>
11.9897

>  <SCORE.INTER.VDW>
-25.4602

>  <SCORE.INTER.norm>
-3.81313

>  <SCORE.INTRA>
-0.590464

>  <SCORE.INTRA.DIHEDRAL>
-0.847333

>  <SCORE.INTRA.DIHEDRAL.0>
4.88905

>  <SCORE.INTRA.POLAR>
0

>  <SCORE.INTRA.POLAR.0>
0

>  <SCORE.INTRA.REPUL>
0

>  <SCORE.INTRA.REPUL.0>
0

>  <SCORE.INTRA.SOLV>
-0.567029

>  <SCORE.INTRA.SOLV.lig_0>
-15.1033

>  <SCORE.INTRA.VDW>
0.116717

>  <SCORE.INTRA.VDW.0>
-0.755285

>  <SCORE.INTRA.norm>
-0.0454203

>  <SCORE.RESTR>
0

>  <SCORE.RESTR.CAVITY>
0

>  <SCORE.RESTR.norm>
0

>  <SCORE.SYSTEM>
0

>  <SCORE.SYSTEM.CONST>
0

>  <SCORE.SYSTEM.DIHEDRAL>
0

>  <SCORE.SYSTEM.SOLV>
0

>  <SCORE.SYSTEM.norm>
0

>  <SCORE.heavy>
13

>  <SCORE.norm>
-3.85855

>  <RMSD>
0.649

$$$$
ligand
 OpenBabel11021811513D
libRbt.so/2013.1/901 2013/11/27
 13 14  0  0  0  0  0  0  0  0999 V2000
   34.5411   29.8377  108.0682 N   0  0  0  0  0  0  0  0  0  0  0  0
   34.4186   31.1009  108.6915 C   0  0  0  0  0  0  0  0  0  0  0  0
   35.6067   31.8605  108.9880 N   0  0  0  0  0  0  0  0  0  0  0  0
   33.1935   31.6203  109.0225 N   0  0  0  0  0  0  0  0  0  0  0  0
   32.0078   30.9231  108.7565 C   0  0  0  0  0  0  0  0  0  0  0  0
   32.0868   29.6330  108.1230 C   0  0  0  0  0  0  0  0  0  0  0  0
   33.4055   29.0993  107.7798 C   0  0  0  0  0  0  0  0  0  0  0  0
   33.5208   27.8701  107.1740 O   0  0  0  0  0  0  0  0  0  0  0  0
   30.7189   29.1650  107.9837 C   0  0  0  0  0  0  0  0  0  0  0  0
   29.8981   30.1613  108.5136 C   0  0  0  0  0  0  0  0  0  0  0  0
   30.6712   31.2033  108.9743 N   0  0  0  0  0  0  0  0  0  0  0  0
   30.2782   27.8676  107.3749 C   0  0  0  0  0  0  0  0  0  0  0  0
   29.3864   28.1385  106.2624 N   0  0  0  0  0  0  0  0  0  0  0  0
  1  2  1  0  0  0  0
  1  7  1  0  0  0  0
  2  3  1  0  0  0  0
  2  4  2  0  0  0  0
  4  5  1  0  0  0  0
  5  6  2  0  0  0  0
  5 11  1  0  0  0  0
  6  7  1  0  0  0  0
  6  9  1  0  0  0  0
  7  8  2  0  0  0  0
  9 10  2  0  0  0  0
  9 12  1  0  0  0  0
 10 11  1  0  0  0  0
 12 13  1  0  0  0  0
M  END
>  <CHROM.1>
172.36187789,-121.42240362,105.16681690,32.33044468,29.87069008,108.09985731
-0.56297590,0.00157020,-2.61690312

>  <Name>
ligand

>  <RI>
1.38753e+07

>  <Rbt.Current_Directory>
/home/itssahil/PROJECTS/Mol_Feturizer/New_Systems/rnas/4RZD

>  <Rbt.Executable>
rbdock ($Id: //depot/dev/client3/rdock/2013.1/src/exe/rbdock.cxx#4 $)

>  <Rbt.Library>
libRbt.so (2013.1, Build901 2013/11/27)

>  <Rbt.Parameter_File>
/export/apps/rDock/src/rDock_2013.1_src/data/scripts/dock_solv.prm

>  <Rbt.Receptor>
prm/pocket_docking_7.prm

>  <SCORE>
-45.3024

>  <SCORE.INTER>
-45.4172

>  <SCORE.INTER.CONST>
1

>  <SCORE.INTER.POLAR>
-4.39344

>  <SCORE.INTER.ROT>
3

>  <SCORE.INTER.SOLV>
11.6198

>  <SCORE.INTER.VDW>
-25.1066

>  <SCORE.INTER.norm>
-3.49363

>  <SCORE.INTRA>
0.114829

>  <SCORE.INTRA.DIHEDRAL>
-0.347803

>  <SCORE.INTRA.DIHEDRAL.0>
4.88905

>  <SCORE.INTRA.POLAR>
0

>  <SCORE.INTRA.POLAR.0>
0

>  <SCORE.INTRA.REPUL>
0

>  <SCORE.INTRA.REPUL.0>
0

>  <SCORE.INTRA.SOLV>
-0.674492

>  <SCORE.INTRA.SOLV.lig_0>
-15.1033

>  <SCORE.INTRA.VDW>
0.625976

>  <SCORE.INTRA.VDW.0>
-0.755285

>  <SCORE.INTRA.norm>
0.00883298

>  <SCORE.RESTR>
0

>  <SCORE.RESTR.CAVITY>
0

>  <SCORE.RESTR.norm>
0

>  <SCORE.SYSTEM>
0

>  <SCORE.SYSTEM.CONST>
0

>  <SCORE.SYSTEM.DIHEDRAL>
0

>  <SCORE.SYSTEM.SOLV>
0

>  <SCORE.SYSTEM.norm>
0

>  <SCORE.heavy>
13

>  <SCORE.norm>
-3.4848

>  <RMSD>
0.650

$$$$
ligand
 OpenBabel11021811513D
libRbt.so/2013.1/901 2013/11/27
 13 14  0  0  0  0  0  0  0  0999 V2000
   34.5243   29.8110  108.1737 N   0  0  0  0  0  0  0  0  0  0  0  0
   34.4227   31.0405  108.8646 C   0  0  0  0  0  0  0  0  0  0  0  0
   35.6246   31.7282  109.2633 N   0  0  0  0  0  0  0  0  0  0  0  0
   33.2049   31.5939  109.1661 N   0  0  0  0  0  0  0  0  0  0  0  0
   32.0065   30.9666  108.8016 C   0  0  0  0  0  0  0  0  0  0  0  0
   32.0641   29.7128  108.0968 C   0  0  0  0  0  0  0  0  0  0  0  0
   33.3753   29.1417  107.7869 C   0  0  0  0  0  0  0  0  0  0  0  0
   33.4703   27.9454  107.1151 O   0  0  0  0  0  0  0  0  0  0  0  0
   30.6868   29.3148  107.8636 C   0  0  0  0  0  0  0  0  0  0  0  0
   29.8821   30.3145  108.4114 C   0  0  0  0  0  0  0  0  0  0  0  0
   30.6733   31.2929  108.9705 N   0  0  0  0  0  0  0  0  0  0  0  0
   30.2244   28.0755  107.1576 C   0  0  0  0  0  0  0  0  0  0  0  0
   29.8330   28.4139  105.8017 N   0  0  0  0  0  0  0  0  0  0  0  0
  1  2  1  0  0  0  0
  1  7  1  0  0  0  0
  2  3  1  0  0  0  0
  2  4  2  0  0  0  0
  4  5  1  0  0  0  0
  5  6  2  0  0  0  0
  5 11  1  0  0  0  0
  6  7  1  0  0  0  0
  6  9  1  0  0  0  0
  7  8  2  0  0  0  0
  9 10  2  0  0  0  0
  9 12  1  0  0  0  0
 10 11  1  0  0  0  0
 12 13  1  0  0  0  0
M  END
>  <CHROM.1>
159.60407262,-101.05227127,-95.94300037,32.35185832,29.92973348,108.08060104
-0.59259815,0.06136960,-2.53767975

>  <Name>
ligand

>  <RI>
2.73617e+07

>  <Rbt.Current_Directory>
/home/itssahil/PROJECTS/Mol_Feturizer/New_Systems/rnas/4RZD

>  <Rbt.Executable>
rbdock ($Id: //depot/dev/client3/rdock/2013.1/src/exe/rbdock.cxx#4 $)

>  <Rbt.Library>
libRbt.so (2013.1, Build901 2013/11/27)

>  <Rbt.Parameter_File>
/export/apps/rDock/src/rDock_2013.1_src/data/scripts/dock_solv.prm

>  <Rbt.Receptor>
prm/pocket_docking_6.prm

>  <SCORE>
-50.1065

>  <SCORE.INTER>
-49.5041

>  <SCORE.INTER.CONST>
1

>  <SCORE.INTER.POLAR>
-5.19405

>  <SCORE.INTER.ROT>
3

>  <SCORE.INTER.SOLV>
12.1995

>  <SCORE.INTER.VDW>
-25.3557

>  <SCORE.INTER.norm>
-3.80801

>  <SCORE.INTRA>
-0.602408

>  <SCORE.INTRA.DIHEDRAL>
-0.869922

>  <SCORE.INTRA.DIHEDRAL.0>
4.88905

>  <SCORE.INTRA.POLAR>
0

>  <SCORE.INTRA.POLAR.0>
0

>  <SCORE.INTRA.REPUL>
0

>  <SCORE.INTRA.REPUL.0>
0

>  <SCORE.INTRA.SOLV>
-0.580694

>  <SCORE.INTRA.SOLV.lig_0>
-15.1033

>  <SCORE.INTRA.VDW>
0.1229

>  <SCORE.INTRA.VDW.0>
-0.755285

>  <SCORE.INTRA.norm>
-0.0463391

>  <SCORE.RESTR>
0

>  <SCORE.RESTR.CAVITY>
0

>  <SCORE.RESTR.norm>
0

>  <SCORE.SYSTEM>
0

>  <SCORE.SYSTEM.CONST>
0

>  <SCORE.SYSTEM.DIHEDRAL>
0

>  <SCORE.SYSTEM.SOLV>
0

>  <SCORE.SYSTEM.norm>
0

>  <SCORE.heavy>
13

>  <SCORE.norm>
-3.85435

>  <RMSD>
0.652

$$$$
ligand
 OpenBabel11021811513D
libRbt.so/2013.1/901 2013/11/27
 13 14  0  0  0  0  0  0  0  0999 V2000
   34.4967   29.8503  108.1374 N   0  0  0  0  0  0  0  0  0  0  0  0
   34.3974   31.0930  108.8045 C   0  0  0  0  0  0  0  0  0  0  0  0
   35.6004   31.8007  109.1625 N   0  0  0  0  0  0  0  0  0  0  0  0
   33.1807   31.6408  109.1206 N   0  0  0  0  0  0  0  0  0  0  0  0
   31.9812   30.9942  108.7955 C   0  0  0  0  0  0  0  0  0  0  0  0
   32.0364   29.7264  108.1161 C   0  0  0  0  0  0  0  0  0  0  0  0
   33.3465   29.1617  107.7898 C   0  0  0  0  0  0  0  0  0  0  0  0
   33.4392   27.9525  107.1413 O   0  0  0  0  0  0  0  0  0  0  0  0
   30.6587   29.3101  107.9211 C   0  0  0  0  0  0  0  0  0  0  0  0
   29.8557   30.3133  108.4652 C   0  0  0  0  0  0  0  0  0  0  0  0
   30.6486   31.3110  108.9864 N   0  0  0  0  0  0  0  0  0  0  0  0
   30.1939   28.0517  107.2515 C   0  0  0  0  0  0  0  0  0  0  0  0
   29.7657   28.3582  105.8991 N   0  0  0  0  0  0  0  0  0  0  0  0
  1  2  1  0  0  0  0
  1  7  1  0  0  0  0
  2  3  1  0  0  0  0
  2  4  2  0  0  0  0
  4  5  1  0  0  0  0
  5  6  2  0  0  0  0
  5 11  1  0  0  0  0
  6  7  1  0  0  0  0
  6  9  1  0  0  0  0
  7  8  2  0  0  0  0
  9 10  2  0  0  0  0
  9 12  1  0  0  0  0
 10 11  1  0  0  0  0
 12 13  1  0  0  0  0
M  END
>  <CHROM.1>
170.92462483,-101.24529439,-98.79837443,32.32138668,29.94569600,108.08909361
-0.58875015,0.03742623,-2.55838836

>  <Name>
ligand

>  <RI>
2.73617e+07

>  <Rbt.Current_Directory>
/home/itssahil/PROJECTS/Mol_Feturizer/New_Systems/rnas/4RZD

>  <Rbt.Executable>
rbdock ($Id: //depot/dev/client3/rdock/2013.1/src/exe/rbdock.cxx#4 $)

>  <Rbt.Library>
libRbt.so (2013.1, Build901 2013/11/27)

>  <Rbt.Parameter_File>
/export/apps/rDock/src/rDock_2013.1_src/data/scripts/dock_solv.prm

>  <Rbt.Receptor>
prm/pocket_docking_6.prm

>  <SCORE>
-50.1355

>  <SCORE.INTER>
-49.6153

>  <SCORE.INTER.CONST>
1

>  <SCORE.INTER.POLAR>
-5.16754

>  <SCORE.INTER.ROT>
3

>  <SCORE.INTER.SOLV>
12.0005

>  <SCORE.INTER.VDW>
-25.4519

>  <SCORE.INTER.norm>
-3.81656

>  <SCORE.INTRA>
-0.520138

>  <SCORE.INTRA.DIHEDRAL>
-0.703488

>  <SCORE.INTRA.DIHEDRAL.0>
4.88905

>  <SCORE.INTRA.POLAR>
0

>  <SCORE.INTRA.POLAR.0>
0

>  <SCORE.INTRA.REPUL>
0

>  <SCORE.INTRA.REPUL.0>
0

>  <SCORE.INTRA.SOLV>
-0.581212

>  <SCORE.INTRA.SOLV.lig_0>
-15.1033

>  <SCORE.INTRA.VDW>
0.122212

>  <SCORE.INTRA.VDW.0>
-0.755285

>  <SCORE.INTRA.norm>
-0.0400106

>  <SCORE.RESTR>
0

>  <SCORE.RESTR.CAVITY>
0

>  <SCORE.RESTR.norm>
0

>  <SCORE.SYSTEM>
0

>  <SCORE.SYSTEM.CONST>
0

>  <SCORE.SYSTEM.DIHEDRAL>
0

>  <SCORE.SYSTEM.SOLV>
0

>  <SCORE.SYSTEM.norm>
0

>  <SCORE.heavy>
13

>  <SCORE.norm>
-3.85657

>  <RMSD>
0.653

$$$$
ligand
 OpenBabel11021811513D
libRbt.so/2013.1/901 2013/11/27
 13 14  0  0  0  0  0  0  0  0999 V2000
   34.4948   29.8415  108.1398 N   0  0  0  0  0  0  0  0  0  0  0  0
   34.3957   31.0749  108.8240 C   0  0  0  0  0  0  0  0  0  0  0  0
   35.5991   31.7707  109.2036 N   0  0  0  0  0  0  0  0  0  0  0  0
   33.1790   31.6246  109.1368 N   0  0  0  0  0  0  0  0  0  0  0  0
   31.9793   30.9893  108.7909 C   0  0  0  0  0  0  0  0  0  0  0  0
   32.0342   29.7313  108.0936 C   0  0  0  0  0  0  0  0  0  0  0  0
   33.3443   29.1643  107.7714 C   0  0  0  0  0  0  0  0  0  0  0  0
   33.4367   27.9641  107.1063 O   0  0  0  0  0  0  0  0  0  0  0  0
   30.6561   29.3254  107.8797 C   0  0  0  0  0  0  0  0  0  0  0  0
   29.8534   30.3249  108.4309 C   0  0  0  0  0  0  0  0  0  0  0  0
   30.6467   31.3106  108.9740 N   0  0  0  0  0  0  0  0  0  0  0  0
   30.1910   28.0794  107.1875 C   0  0  0  0  0  0  0  0  0  0  0  0
   29.8151   28.4008  105.8231 N   0  0  0  0  0  0  0  0  0  0  0  0
  1  2  1  0  0  0  0
  1  7  1  0  0  0  0
  2  3  1  0  0  0  0
  2  4  2  0  0  0  0
  4  5  1  0  0  0  0
  5  6  2  0  0  0  0
  5 11  1  0  0  0  0
  6  7  1  0  0  0  0
  6  9  1  0  0  0  0
  7  8  2  0  0  0  0
  9 10  2  0  0  0  0
  9 12  1  0  0  0  0
 10 11  1  0  0  0  0
 12 13  1  0  0  0  0
M  END
>  <CHROM.1>
168.21392718,-99.55057845,-96.20983586,32.32383880,29.94889213,108.07141940
-0.59244829,0.04768212,-2.54247204

>  <Name>
ligand

>  <RI>
1.0531e+07

>  <Rbt.Current_Directory>
/home/itssahil/PROJECTS/Mol_Feturizer/New_Systems/rnas/4RZD

>  <Rbt.Executable>
rbdock ($Id: //depot/dev/client3/rdock/2013.1/src/exe/rbdock.cxx#4 $)

>  <Rbt.Library>
libRbt.so (2013.1, Build901 2013/11/27)

>  <Rbt.Parameter_File>
/export/apps/rDock/src/rDock_2013.1_src/data/scripts/dock_solv.prm

>  <Rbt.Receptor>
prm/pocket_docking_8.prm

>  <SCORE>
-50.0726

>  <SCORE.INTER>
-49.4779

>  <SCORE.INTER.CONST>
1

>  <SCORE.INTER.POLAR>
-5.1791

>  <SCORE.INTER.ROT>
3

>  <SCORE.INTER.SOLV>
12.1218

>  <SCORE.INTER.VDW>
-25.3622

>  <SCORE.INTER.norm>
-3.80599

>  <SCORE.INTRA>
-0.594694

>  <SCORE.INTRA.DIHEDRAL>
-0.855227

>  <SCORE.INTRA.DIHEDRAL.0>
4.88905

>  <SCORE.INTRA.POLAR>
0

>  <SCORE.INTRA.POLAR.0>
0

>  <SCORE.INTRA.REPUL>
0

>  <SCORE.INTRA.REPUL.0>
0

>  <SCORE.INTRA.SOLV>
-0.570868

>  <SCORE.INTRA.SOLV.lig_0>
-15.1033

>  <SCORE.INTRA.VDW>
0.118353

>  <SCORE.INTRA.VDW.0>
-0.755285

>  <SCORE.INTRA.norm>
-0.0457457

>  <SCORE.RESTR>
0

>  <SCORE.RESTR.CAVITY>
0

>  <SCORE.RESTR.norm>
0

>  <SCORE.SYSTEM>
0

>  <SCORE.SYSTEM.CONST>
0

>  <SCORE.SYSTEM.DIHEDRAL>
0

>  <SCORE.SYSTEM.SOLV>
0

>  <SCORE.SYSTEM.norm>
0

>  <SCORE.heavy>
13

>  <SCORE.norm>
-3.85174

>  <RMSD>
0.654

$$$$
ligand
 OpenBabel11021811513D
libRbt.so/2013.1/901 2013/11/27
 13 14  0  0  0  0  0  0  0  0999 V2000
   34.5382   29.8399  108.0631 N   0  0  0  0  0  0  0  0  0  0  0  0
   34.4163   31.1029  108.6868 C   0  0  0  0  0  0  0  0  0  0  0  0
   35.6045   31.8631  108.9811 N   0  0  0  0  0  0  0  0  0  0  0  0
   33.1915   31.6216  109.0204 N   0  0  0  0  0  0  0  0  0  0  0  0
   32.0057   30.9239  108.7566 C   0  0  0  0  0  0  0  0  0  0  0  0
   32.0841   29.6338  108.1228 C   0  0  0  0  0  0  0  0  0  0  0  0
   33.4024   29.1009  107.7768 C   0  0  0  0  0  0  0  0  0  0  0  0
   33.5171   27.8718  107.1706 O   0  0  0  0  0  0  0  0  0  0  0  0
   30.7162   29.1651  107.9861 C   0  0  0  0  0  0  0  0  0  0  0  0
   29.8959   30.1609  108.5178 C   0  0  0  0  0  0  0  0  0  0  0  0
   30.6694   31.2033  108.9771 N   0  0  0  0  0  0  0  0  0  0  0  0
   30.2750   27.8676  107.3779 C   0  0  0  0  0  0  0  0  0  0  0  0
   29.3552   28.1372  106.2881 N   0  0  0  0  0  0  0  0  0  0  0  0
  1  2  1  0  0  0  0
  1  7  1  0  0  0  0
  2  3  1  0  0  0  0
  2  4  2  0  0  0  0
  4  5  1  0  0  0  0
  5  6  2  0  0  0  0
  5 11  1  0  0  0  0
  6  7  1  0  0  0  0
  6  9  1  0  0  0  0
  7  8  2  0  0  0  0
  9 10  2  0  0  0  0
  9 12  1  0  0  0  0
 10 11  1  0  0  0  0
 12 13  1  0  0  0  0
M  END
>  <CHROM.1>
-3.00312291,-122.80346076,104.38423452,32.32510119,29.87171026,108.10111817
-0.56018811,-0.00074203,-2.61823379

>  <Name>
ligand

>  <RI>
1.0531e+07

>  <Rbt.Current_Directory>
/home/itssahil/PROJECTS/Mol_Feturizer/New_Systems/rnas/4RZD

>  <Rbt.Executable>
rbdock ($Id: //depot/dev/client3/rdock/2013.1/src/exe/rbdock.cxx#4 $)

>  <Rbt.Library>
libRbt.so (2013.1, Build901 2013/11/27)

>  <Rbt.Parameter_File>
/export/apps/rDock/src/rDock_2013.1_src/data/scripts/dock_solv.prm

>  <Rbt.Receptor>
prm/pocket_docking_8.prm

>  <SCORE>
-45.3024

>  <SCORE.INTER>
-45.4049

>  <SCORE.INTER.CONST>
1

>  <SCORE.INTER.POLAR>
-4.39591

>  <SCORE.INTER.ROT>
3

>  <SCORE.INTER.SOLV>
11.6344

>  <SCORE.INTER.VDW>
-25.095

>  <SCORE.INTER.norm>
-3.49268

>  <SCORE.INTRA>
0.10249

>  <SCORE.INTRA.DIHEDRAL>
-0.380719

>  <SCORE.INTRA.DIHEDRAL.0>
4.88905

>  <SCORE.INTRA.POLAR>
0

>  <SCORE.INTRA.POLAR.0>
0

>  <SCORE.INTRA.REPUL>
0

>  <SCORE.INTRA.REPUL.0>
0

>  <SCORE.INTRA.SOLV>
-0.680706

>  <SCORE.INTRA.SOLV.lig_0>
-15.1033

>  <SCORE.INTRA.VDW>
0.633202

>  <SCORE.INTRA.VDW.0>
-0.755285

>  <SCORE.INTRA.norm>
0.00788382

>  <SCORE.RESTR>
0

>  <SCORE.RESTR.CAVITY>
0

>  <SCORE.RESTR.norm>
0

>  <SCORE.SYSTEM>
0

>  <SCORE.SYSTEM.CONST>
0

>  <SCORE.SYSTEM.DIHEDRAL>
0

>  <SCORE.SYSTEM.SOLV>
0

>  <SCORE.SYSTEM.norm>
0

>  <SCORE.heavy>
13

>  <SCORE.norm>
-3.4848

>  <RMSD>
0.656

$$$$
ligand
 OpenBabel11021811513D
libRbt.so/2013.1/901 2013/11/27
 13 14  0  0  0  0  0  0  0  0999 V2000
   34.4969   29.8329  108.1586 N   0  0  0  0  0  0  0  0  0  0  0  0
   34.4000   31.0680  108.8399 C   0  0  0  0  0  0  0  0  0  0  0  0
   35.6045   31.7611  109.2208 N   0  0  0  0  0  0  0  0  0  0  0  0
   33.1842   31.6221  109.1486 N   0  0  0  0  0  0  0  0  0  0  0  0
   31.9833   30.9897  108.8013 C   0  0  0  0  0  0  0  0  0  0  0  0
   32.0361   29.7300  108.1069 C   0  0  0  0  0  0  0  0  0  0  0  0
   33.3453   29.1583  107.7889 C   0  0  0  0  0  0  0  0  0  0  0  0
   33.4356   27.9565  107.1266 O   0  0  0  0  0  0  0  0  0  0  0  0
   30.6574   29.3278  107.8906 C   0  0  0  0  0  0  0  0  0  0  0  0
   29.8563   30.3308  108.4377 C   0  0  0  0  0  0  0  0  0  0  0  0
   30.6513   31.3153  108.9806 N   0  0  0  0  0  0  0  0  0  0  0  0
   30.1901   28.0817  107.1999 C   0  0  0  0  0  0  0  0  0  0  0  0
   29.8003   28.4048  105.8398 N   0  0  0  0  0  0  0  0  0  0  0  0
  1  2  1  0  0  0  0
  1  7  1  0  0  0  0
  2  3  1  0  0  0  0
  2  4  2  0  0  0  0
  4  5  1  0  0  0  0
  5  6  2  0  0  0  0
  5 11  1  0  0  0  0
  6  7  1  0  0  0  0
  6  9  1  0  0  0  0
  7  8  2  0  0  0  0
  9 10  2  0  0  0  0
  9 12  1  0  0  0  0
 10 11  1  0  0  0  0
 12 13  1  0  0  0  0
M  END
>  <CHROM.1>
-7.04611171,-100.35829804,-97.16166709,32.32483972,29.94697206,108.08540792
-0.58999738,0.05147509,-2.54513204

>  <Name>
ligand

>  <RI>
4.18181e+07

>  <Rbt.Current_Directory>
/home/itssahil/PROJECTS/Mol_Feturizer/New_Systems/rnas/4RZD

>  <Rbt.Executable>
rbdock ($Id: //depot/dev/client3/rdock/2013.1/src/exe/rbdock.cxx#4 $)

>  <Rbt.Library>
libRbt.so (2013.1, Build901 2013/11/27)

>  <Rbt.Parameter_File>
/export/apps/rDock/src/rDock_2013.1_src/data/scripts/dock_solv.prm

>  <Rbt.Receptor>
prm/pocket_docking_3.prm

>  <SCORE>
-50.0859

>  <SCORE.INTER>
-49.5189

>  <SCORE.INTER.CONST>
1

>  <SCORE.INTER.POLAR>
-5.1839

>  <SCORE.INTER.ROT>
3

>  <SCORE.INTER.SOLV>
12.1116

>  <SCORE.INTER.VDW>
-25.3702

>  <SCORE.INTER.norm>
-3.80915

>  <SCORE.INTRA>
-0.56699

>  <SCORE.INTRA.DIHEDRAL>
-0.798338

>  <SCORE.INTRA.DIHEDRAL.0>
4.88905

>  <SCORE.INTRA.POLAR>
0

>  <SCORE.INTRA.POLAR.0>
0

>  <SCORE.INTRA.REPUL>
0

>  <SCORE.INTRA.REPUL.0>
0

>  <SCORE.INTRA.SOLV>
-0.575691

>  <SCORE.INTRA.SOLV.lig_0>
-15.1033

>  <SCORE.INTRA.VDW>
0.120025

>  <SCORE.INTRA.VDW.0>
-0.755285

>  <SCORE.INTRA.norm>
-0.0436146

>  <SCORE.RESTR>
0

>  <SCORE.RESTR.CAVITY>
0

>  <SCORE.RESTR.norm>
0

>  <SCORE.SYSTEM>
0

>  <SCORE.SYSTEM.CONST>
0

>  <SCORE.SYSTEM.DIHEDRAL>
0

>  <SCORE.SYSTEM.SOLV>
0

>  <SCORE.SYSTEM.norm>
0

>  <SCORE.heavy>
13

>  <SCORE.norm>
-3.85276

>  <RMSD>
0.657

$$$$
ligand
 OpenBabel11021811513D
libRbt.so/2013.1/901 2013/11/27
 13 14  0  0  0  0  0  0  0  0999 V2000
   34.5274   29.8176  108.1582 N   0  0  0  0  0  0  0  0  0  0  0  0
   34.4290   31.0425  108.8575 C   0  0  0  0  0  0  0  0  0  0  0  0
   35.6326   31.7250  109.2596 N   0  0  0  0  0  0  0  0  0  0  0  0
   33.2125   31.5962  109.1640 N   0  0  0  0  0  0  0  0  0  0  0  0
   32.0125   30.9738  108.7965 C   0  0  0  0  0  0  0  0  0  0  0  0
   32.0669   29.7247  108.0832 C   0  0  0  0  0  0  0  0  0  0  0  0
   33.3767   29.1531  107.7680 C   0  0  0  0  0  0  0  0  0  0  0  0
   33.4686   27.9613  107.0880 O   0  0  0  0  0  0  0  0  0  0  0  0
   30.6886   29.3310  107.8486 C   0  0  0  0  0  0  0  0  0  0  0  0
   29.8864   30.3286  108.4041 C   0  0  0  0  0  0  0  0  0  0  0  0
   30.6801   31.3016  108.9690 N   0  0  0  0  0  0  0  0  0  0  0  0
   30.2230   28.0975  107.1347 C   0  0  0  0  0  0  0  0  0  0  0  0
   29.8501   28.4423  105.7752 N   0  0  0  0  0  0  0  0  0  0  0  0
  1  2  1  0  0  0  0
  1  7  1  0  0  0  0
  2  3  1  0  0  0  0
  2  4  2  0  0  0  0
  4  5  1  0  0  0  0
  5  6  2  0  0  0  0
  5 11  1  0  0  0  0
  6  7  1  0  0  0  0
  6  9  1  0  0  0  0
  7  8  2  0  0  0  0
  9 10  2  0  0  0  0
  9 12  1  0  0  0  0
 10 11  1  0  0  0  0
 12 13  1  0  0  0  0
M  END
>  <CHROM.1>
-20.14379140,-100.19425297,-96.15803136,32.35682323,29.94092125,108.06752276
-0.59211911,0.06125272,-2.53019112

>  <Name>
ligand

>  <RI>
4.18181e+07

>  <Rbt.Current_Directory>
/home/itssahil/PROJECTS/Mol_Feturizer/New_Systems/rnas/4RZD

>  <Rbt.Executable>
rbdock ($Id: //depot/dev/client3/rdock/2013.1/src/exe/rbdock.cxx#4 $)

>  <Rbt.Library>
libRbt.so (2013.1, Build901 2013/11/27)

>  <Rbt.Parameter_File>
/export/apps/rDock/src/rDock_2013.1_src/data/scripts/dock_solv.prm

>  <Rbt.Receptor>
prm/pocket_docking_3.prm

>  <SCORE>
-50.0913

>  <SCORE.INTER>
-49.4955

>  <SCORE.INTER.CONST>
1

>  <SCORE.INTER.POLAR>
-5.20469

>  <SCORE.INTER.ROT>
3

>  <SCORE.INTER.SOLV>
12.267

>  <SCORE.INTER.VDW>
-25.337

>  <SCORE.INTER.norm>
-3.80734

>  <SCORE.INTRA>
-0.595786

>  <SCORE.INTRA.DIHEDRAL>
-0.857798

>  <SCORE.INTRA.DIHEDRAL.0>
4.88905

>  <SCORE.INTRA.POLAR>
0

>  <SCORE.INTRA.POLAR.0>
0

>  <SCORE.INTRA.REPUL>
0

>  <SCORE.INTRA.REPUL.0>
0

>  <SCORE.INTRA.SOLV>
-0.57568

>  <SCORE.INTRA.SOLV.lig_0>
-15.1033

>  <SCORE.INTRA.VDW>
0.120953

>  <SCORE.INTRA.VDW.0>
-0.755285

>  <SCORE.INTRA.norm>
-0.0458297

>  <SCORE.RESTR>
0

>  <SCORE.RESTR.CAVITY>
0

>  <SCORE.RESTR.norm>
0

>  <SCORE.SYSTEM>
0

>  <SCORE.SYSTEM.CONST>
0

>  <SCORE.SYSTEM.DIHEDRAL>
0

>  <SCORE.SYSTEM.SOLV>
0

>  <SCORE.SYSTEM.norm>
0

>  <SCORE.heavy>
13

>  <SCORE.norm>
-3.85317

>  <RMSD>
0.662

$$$$
ligand
 OpenBabel11021811513D
libRbt.so/2013.1/901 2013/11/27
 13 14  0  0  0  0  0  0  0  0999 V2000
   34.5076   29.8280  108.1151 N   0  0  0  0  0  0  0  0  0  0  0  0
   34.4116   31.0313  108.8514 C   0  0  0  0  0  0  0  0  0  0  0  0
   35.6164   31.6936  109.2827 N   0  0  0  0  0  0  0  0  0  0  0  0
   33.1963   31.5829  109.1664 N   0  0  0  0  0  0  0  0  0  0  0  0
   31.9952   30.9796  108.7716 C   0  0  0  0  0  0  0  0  0  0  0  0
   32.0471   29.7528  108.0203 C   0  0  0  0  0  0  0  0  0  0  0  0
   33.3557   29.1831  107.6966 C   0  0  0  0  0  0  0  0  0  0  0  0
   33.4452   28.0123  106.9808 O   0  0  0  0  0  0  0  0  0  0  0  0
   30.6682   29.3752  107.7642 C   0  0  0  0  0  0  0  0  0  0  0  0
   29.8681   30.3601  108.3447 C   0  0  0  0  0  0  0  0  0  0  0  0
   30.6636   31.3102  108.9450 N   0  0  0  0  0  0  0  0  0  0  0  0
   30.2003   28.1673  107.0093 C   0  0  0  0  0  0  0  0  0  0  0  0
   30.1200   28.4866  105.5959 N   0  0  0  0  0  0  0  0  0  0  0  0
  1  2  1  0  0  0  0
  1  7  1  0  0  0  0
  2  3  1  0  0  0  0
  2  4  2  0  0  0  0
  4  5  1  0  0  0  0
  5  6  2  0  0  0  0
  5 11  1  0  0  0  0
  6  7  1  0  0  0  0
  6  9  1  0  0  0  0
  7  8  2  0  0  0  0
  9 10  2  0  0  0  0
  9 12  1  0  0  0  0
 10 11  1  0  0  0  0
 12 13  1  0  0  0  0
M  END
>  <CHROM.1>
-171.48687169,-87.78210706,170.21723692,32.37118292,29.96214066,108.00703749
-0.61824811,0.05915508,-2.48627564

>  <Name>
ligand

>  <RI>
1.35221e+07

>  <Rbt.Current_Directory>
/home/itssahil/PROJECTS/Mol_Feturizer/New_Systems/rnas/4RZD

>  <Rbt.Executable>
rbdock ($Id: //depot/dev/client3/rdock/2013.1/src/exe/rbdock.cxx#4 $)

>  <Rbt.Library>
libRbt.so (2013.1, Build901 2013/11/27)

>  <Rbt.Parameter_File>
/export/apps/rDock/src/rDock_2013.1_src/data/scripts/dock_solv.prm

>  <Rbt.Receptor>
prm/pocket_docking_5.prm

>  <SCORE>
-47.4507

>  <SCORE.INTER>
-46.2509

>  <SCORE.INTER.CONST>
1

>  <SCORE.INTER.POLAR>
-4.76018

>  <SCORE.INTER.ROT>
3

>  <SCORE.INTER.SOLV>
11.8193

>  <SCORE.INTER.VDW>
-24.5064

>  <SCORE.INTER.norm>
-3.55776

>  <SCORE.INTRA>
-1.19979

>  <SCORE.INTRA.DIHEDRAL>
-2.28663

>  <SCORE.INTRA.DIHEDRAL.0>
4.88905

>  <SCORE.INTRA.POLAR>
0

>  <SCORE.INTRA.POLAR.0>
0

>  <SCORE.INTRA.REPUL>
0

>  <SCORE.INTRA.REPUL.0>
0

>  <SCORE.INTRA.SOLV>
-0.391983

>  <SCORE.INTRA.SOLV.lig_0>
-15.1033

>  <SCORE.INTRA.VDW>
0.139517

>  <SCORE.INTRA.VDW.0>
-0.755285

>  <SCORE.INTRA.norm>
-0.0922915

>  <SCORE.RESTR>
0

>  <SCORE.RESTR.CAVITY>
0

>  <SCORE.RESTR.norm>
0

>  <SCORE.SYSTEM>
0

>  <SCORE.SYSTEM.CONST>
0

>  <SCORE.SYSTEM.DIHEDRAL>
0

>  <SCORE.SYSTEM.SOLV>
0

>  <SCORE.SYSTEM.norm>
0

>  <SCORE.heavy>
13

>  <SCORE.norm>
-3.65005

>  <RMSD>
0.662

$$$$
ligand
 OpenBabel11021811513D
libRbt.so/2013.1/901 2013/11/27
 13 14  0  0  0  0  0  0  0  0999 V2000
   34.5405   29.8309  108.0928 N   0  0  0  0  0  0  0  0  0  0  0  0
   34.4261   31.0922  108.7216 C   0  0  0  0  0  0  0  0  0  0  0  0
   35.6194   31.8391  109.0289 N   0  0  0  0  0  0  0  0  0  0  0  0
   33.2039   31.6214  109.0478 N   0  0  0  0  0  0  0  0  0  0  0  0
   32.0134   30.9368  108.7713 C   0  0  0  0  0  0  0  0  0  0  0  0
   32.0841   29.6490  108.1320 C   0  0  0  0  0  0  0  0  0  0  0  0
   33.3998   29.1047  107.7940 C   0  0  0  0  0  0  0  0  0  0  0  0
   33.5071   27.8774  107.1828 O   0  0  0  0  0  0  0  0  0  0  0  0
   30.7127   29.1946  107.9822 C   0  0  0  0  0  0  0  0  0  0  0  0
   29.8981   30.1960  108.5121 C   0  0  0  0  0  0  0  0  0  0  0  0
   30.6782   31.2285  108.9826 N   0  0  0  0  0  0  0  0  0  0  0  0
   30.2636   27.9044  107.3643 C   0  0  0  0  0  0  0  0  0  0  0  0
   29.3628   28.1885  106.2625 N   0  0  0  0  0  0  0  0  0  0  0  0
  1  2  1  0  0  0  0
  1  7  1  0  0  0  0
  2  3  1  0  0  0  0
  2  4  2  0  0  0  0
  4  5  1  0  0  0  0
  5  6  2  0  0  0  0
  5 11  1  0  0  0  0
  6  7  1  0  0  0  0
  6  9  1  0  0  0  0
  7  8  2  0  0  0  0
  9 10  2  0  0  0  0
  9 12  1  0  0  0  0
 10 11  1  0  0  0  0
 12 13  1  0  0  0  0
M  END
>  <CHROM.1>
3.02645091,-122.39923018,103.89829195,32.32828233,29.88463723,108.11284413
-0.55622707,0.01094230,-2.61263282

>  <Name>
ligand

>  <RI>
4.18181e+07

>  <Rbt.Current_Directory>
/home/itssahil/PROJECTS/Mol_Feturizer/New_Systems/rnas/4RZD

>  <Rbt.Executable>
rbdock ($Id: //depot/dev/client3/rdock/2013.1/src/exe/rbdock.cxx#4 $)

>  <Rbt.Library>
libRbt.so (2013.1, Build901 2013/11/27)

>  <Rbt.Parameter_File>
/export/apps/rDock/src/rDock_2013.1_src/data/scripts/dock_solv.prm

>  <Rbt.Receptor>
prm/pocket_docking_3.prm

>  <SCORE>
-45.3082

>  <SCORE.INTER>
-45.3924

>  <SCORE.INTER.CONST>
1

>  <SCORE.INTER.POLAR>
-4.38467

>  <SCORE.INTER.ROT>
3

>  <SCORE.INTER.SOLV>
11.6837

>  <SCORE.INTER.VDW>
-25.1406

>  <SCORE.INTER.norm>
-3.49172

>  <SCORE.INTRA>
0.0842608

>  <SCORE.INTRA.DIHEDRAL>
-0.403819

>  <SCORE.INTRA.DIHEDRAL.0>
4.88905

>  <SCORE.INTRA.POLAR>
0

>  <SCORE.INTRA.POLAR.0>
0

>  <SCORE.INTRA.REPUL>
0

>  <SCORE.INTRA.REPUL.0>
0

>  <SCORE.INTRA.SOLV>
-0.678841

>  <SCORE.INTRA.SOLV.lig_0>
-15.1033

>  <SCORE.INTRA.VDW>
0.625591

>  <SCORE.INTRA.VDW.0>
-0.755285

>  <SCORE.INTRA.norm>
0.0064816

>  <SCORE.RESTR>
0

>  <SCORE.RESTR.CAVITY>
0

>  <SCORE.RESTR.norm>
0

>  <SCORE.SYSTEM>
0

>  <SCORE.SYSTEM.CONST>
0

>  <SCORE.SYSTEM.DIHEDRAL>
0

>  <SCORE.SYSTEM.SOLV>
0

>  <SCORE.SYSTEM.norm>
0

>  <SCORE.heavy>
13

>  <SCORE.norm>
-3.48524

>  <RMSD>
0.666

$$$$
ligand
 OpenBabel11021811513D
libRbt.so/2013.1/901 2013/11/27
 13 14  0  0  0  0  0  0  0  0999 V2000
   34.5280   29.8240  108.1997 N   0  0  0  0  0  0  0  0  0  0  0  0
   34.4208   31.0504  108.8953 C   0  0  0  0  0  0  0  0  0  0  0  0
   35.6194   31.7362  109.3067 N   0  0  0  0  0  0  0  0  0  0  0  0
   33.2006   31.6024  109.1895 N   0  0  0  0  0  0  0  0  0  0  0  0
   32.0052   30.9768  108.8126 C   0  0  0  0  0  0  0  0  0  0  0  0
   32.0684   29.7262  108.1027 C   0  0  0  0  0  0  0  0  0  0  0  0
   33.3821   29.1564  107.8007 C   0  0  0  0  0  0  0  0  0  0  0  0
   33.4825   27.9632  107.1244 O   0  0  0  0  0  0  0  0  0  0  0  0
   30.6931   29.3293  107.8566 C   0  0  0  0  0  0  0  0  0  0  0  0
   29.8840   30.3265  108.4025 C   0  0  0  0  0  0  0  0  0  0  0  0
   30.6706   31.3024  108.9723 N   0  0  0  0  0  0  0  0  0  0  0  0
   30.2364   28.0932  107.1415 C   0  0  0  0  0  0  0  0  0  0  0  0
   29.8452   28.4395  105.7875 N   0  0  0  0  0  0  0  0  0  0  0  0
  1  2  1  0  0  0  0
  1  7  1  0  0  0  0
  2  3  1  0  0  0  0
  2  4  2  0  0  0  0
  4  5  1  0  0  0  0
  5  6  2  0  0  0  0
  5 11  1  0  0  0  0
  6  7  1  0  0  0  0
  6  9  1  0  0  0  0
  7  8  2  0  0  0  0
  9 10  2  0  0  0  0
  9 12  1  0  0  0  0
 10 11  1  0  0  0  0
 12 13  1  0  0  0  0
M  END
>  <CHROM.1>
159.27811716,-101.52864847,-95.96023732,32.35537665,29.94335596,108.09009737
-0.59628249,0.06817093,-2.53335619

>  <Name>
ligand

>  <RI>
1.0531e+07

>  <Rbt.Current_Directory>
/home/itssahil/PROJECTS/Mol_Feturizer/New_Systems/rnas/4RZD

>  <Rbt.Executable>
rbdock ($Id: //depot/dev/client3/rdock/2013.1/src/exe/rbdock.cxx#4 $)

>  <Rbt.Library>
libRbt.so (2013.1, Build901 2013/11/27)

>  <Rbt.Parameter_File>
/export/apps/rDock/src/rDock_2013.1_src/data/scripts/dock_solv.prm

>  <Rbt.Receptor>
prm/pocket_docking_8.prm

>  <SCORE>
-50.1244

>  <SCORE.INTER>
-49.5225

>  <SCORE.INTER.CONST>
1

>  <SCORE.INTER.POLAR>
-5.20673

>  <SCORE.INTER.ROT>
3

>  <SCORE.INTER.SOLV>
12.256

>  <SCORE.INTER.VDW>
-25.3446

>  <SCORE.INTER.norm>
-3.80942

>  <SCORE.INTRA>
-0.601957

>  <SCORE.INTRA.DIHEDRAL>
-0.868463

>  <SCORE.INTRA.DIHEDRAL.0>
4.88905

>  <SCORE.INTRA.POLAR>
0

>  <SCORE.INTRA.POLAR.0>
0

>  <SCORE.INTRA.REPUL>
0

>  <SCORE.INTRA.REPUL.0>
0

>  <SCORE.INTRA.SOLV>
-0.583566

>  <SCORE.INTRA.SOLV.lig_0>
-15.1033

>  <SCORE.INTRA.VDW>
0.124057

>  <SCORE.INTRA.VDW.0>
-0.755285

>  <SCORE.INTRA.norm>
-0.0463044

>  <SCORE.RESTR>
0

>  <SCORE.RESTR.CAVITY>
0

>  <SCORE.RESTR.norm>
0

>  <SCORE.SYSTEM>
0

>  <SCORE.SYSTEM.CONST>
0

>  <SCORE.SYSTEM.DIHEDRAL>
0

>  <SCORE.SYSTEM.SOLV>
0

>  <SCORE.SYSTEM.norm>
0

>  <SCORE.heavy>
13

>  <SCORE.norm>
-3.85573

>  <RMSD>
0.666

$$$$
ligand
 OpenBabel11021811513D
libRbt.so/2013.1/901 2013/11/27
 13 14  0  0  0  0  0  0  0  0999 V2000
   34.5277   29.8114  108.2354 N   0  0  0  0  0  0  0  0  0  0  0  0
   34.4166   31.0371  108.9314 C   0  0  0  0  0  0  0  0  0  0  0  0
   35.6127   31.7199  109.3549 N   0  0  0  0  0  0  0  0  0  0  0  0
   33.1948   31.5915  109.2147 N   0  0  0  0  0  0  0  0  0  0  0  0
   32.0016   30.9689  108.8257 C   0  0  0  0  0  0  0  0  0  0  0  0
   32.0689   29.7189  108.1150 C   0  0  0  0  0  0  0  0  0  0  0  0
   33.3842   29.1467  107.8247 C   0  0  0  0  0  0  0  0  0  0  0  0
   33.4884   27.9541  107.1480 O   0  0  0  0  0  0  0  0  0  0  0  0
   30.6952   29.3253  107.8554 C   0  0  0  0  0  0  0  0  0  0  0  0
   29.8830   30.3236  108.3948 C   0  0  0  0  0  0  0  0  0  0  0  0
   30.6663   31.2971  108.9732 N   0  0  0  0  0  0  0  0  0  0  0  0
   30.2426   28.0910  107.1345 C   0  0  0  0  0  0  0  0  0  0  0  0
   29.8246   28.4466  105.7909 N   0  0  0  0  0  0  0  0  0  0  0  0
  1  2  1  0  0  0  0
  1  7  1  0  0  0  0
  2  3  1  0  0  0  0
  2  4  2  0  0  0  0
  4  5  1  0  0  0  0
  5  6  2  0  0  0  0
  5 11  1  0  0  0  0
  6  7  1  0  0  0  0
  6  9  1  0  0  0  0
  7  8  2  0  0  0  0
  9 10  2  0  0  0  0
  9 12  1  0  0  0  0
 10 11  1  0  0  0  0
 12 13  1  0  0  0  0
M  END
>  <CHROM.1>
157.32140280,-103.33217759,-96.76938649,32.35282375,29.93607305,108.10661599
-0.59660184,0.07792327,-2.53371357

>  <Name>
ligand

>  <RI>
4.18181e+07

>  <Rbt.Current_Directory>
/home/itssahil/PROJECTS/Mol_Feturizer/New_Systems/rnas/4RZD

>  <Rbt.Executable>
rbdock ($Id: //depot/dev/client3/rdock/2013.1/src/exe/rbdock.cxx#4 $)

>  <Rbt.Library>
libRbt.so (2013.1, Build901 2013/11/27)

>  <Rbt.Parameter_File>
/export/apps/rDock/src/rDock_2013.1_src/data/scripts/dock_solv.prm

>  <Rbt.Receptor>
prm/pocket_docking_3.prm

>  <SCORE>
-50.1041

>  <SCORE.INTER>
-49.5261

>  <SCORE.INTER.CONST>
1

>  <SCORE.INTER.POLAR>
-5.22179

>  <SCORE.INTER.ROT>
3

>  <SCORE.INTER.SOLV>
12.3027

>  <SCORE.INTER.VDW>
-25.3123

>  <SCORE.INTER.norm>
-3.8097

>  <SCORE.INTRA>
-0.577986

>  <SCORE.INTRA.DIHEDRAL>
-0.818621

>  <SCORE.INTRA.DIHEDRAL.0>
4.88905

>  <SCORE.INTRA.POLAR>
0

>  <SCORE.INTRA.POLAR.0>
0

>  <SCORE.INTRA.REPUL>
0

>  <SCORE.INTRA.REPUL.0>
0

>  <SCORE.INTRA.SOLV>
-0.594545

>  <SCORE.INTRA.SOLV.lig_0>
-15.1033

>  <SCORE.INTRA.VDW>
0.128597

>  <SCORE.INTRA.VDW.0>
-0.755285

>  <SCORE.INTRA.norm>
-0.0444605

>  <SCORE.RESTR>
0

>  <SCORE.RESTR.CAVITY>
0

>  <SCORE.RESTR.norm>
0

>  <SCORE.SYSTEM>
0

>  <SCORE.SYSTEM.CONST>
0

>  <SCORE.SYSTEM.DIHEDRAL>
0

>  <SCORE.SYSTEM.SOLV>
0

>  <SCORE.SYSTEM.norm>
0

>  <SCORE.heavy>
13

>  <SCORE.norm>
-3.85416

>  <RMSD>
0.668

$$$$
ligand
 OpenBabel11021811513D
libRbt.so/2013.1/901 2013/11/27
 13 14  0  0  0  0  0  0  0  0999 V2000
   34.5386   29.8390  108.0869 N   0  0  0  0  0  0  0  0  0  0  0  0
   34.4241   31.1003  108.7156 C   0  0  0  0  0  0  0  0  0  0  0  0
   35.6172   31.8484  109.0206 N   0  0  0  0  0  0  0  0  0  0  0  0
   33.2020   31.6284  109.0438 N   0  0  0  0  0  0  0  0  0  0  0  0
   32.0117   30.9425  108.7695 C   0  0  0  0  0  0  0  0  0  0  0  0
   32.0825   29.6546  108.1304 C   0  0  0  0  0  0  0  0  0  0  0  0
   33.3981   29.1115  107.7903 C   0  0  0  0  0  0  0  0  0  0  0  0
   33.5057   27.8841  107.1793 O   0  0  0  0  0  0  0  0  0  0  0  0
   30.7113   29.1988  107.9832 C   0  0  0  0  0  0  0  0  0  0  0  0
   29.8966   30.1995  108.5142 C   0  0  0  0  0  0  0  0  0  0  0  0
   30.6765   31.2329  108.9831 N   0  0  0  0  0  0  0  0  0  0  0  0
   30.2624   27.9080  107.3665 C   0  0  0  0  0  0  0  0  0  0  0  0
   29.3672   28.1912  106.2598 N   0  0  0  0  0  0  0  0  0  0  0  0
  1  2  1  0  0  0  0
  1  7  1  0  0  0  0
  2  3  1  0  0  0  0
  2  4  2  0  0  0  0
  4  5  1  0  0  0  0
  5  6  2  0  0  0  0
  5 11  1  0  0  0  0
  6  7  1  0  0  0  0
  6  9  1  0  0  0  0
  7  8  2  0  0  0  0
  9 10  2  0  0  0  0
  9 12  1  0  0  0  0
 10 11  1  0  0  0  0
 12 13  1  0  0  0  0
M  END
>  <CHROM.1>
0.80812297,-121.97880363,105.33429227,32.32722113,29.89041855,108.11018868
-0.55707982,0.00907674,-2.61247269

>  <Name>
ligand

>  <RI>
1.35221e+07

>  <Rbt.Current_Directory>
/home/itssahil/PROJECTS/Mol_Feturizer/New_Systems/rnas/4RZD

>  <Rbt.Executable>
rbdock ($Id: //depot/dev/client3/rdock/2013.1/src/exe/rbdock.cxx#4 $)

>  <Rbt.Library>
libRbt.so (2013.1, Build901 2013/11/27)

>  <Rbt.Parameter_File>
/export/apps/rDock/src/rDock_2013.1_src/data/scripts/dock_solv.prm

>  <Rbt.Receptor>
prm/pocket_docking_5.prm

>  <SCORE>
-45.3129

>  <SCORE.INTER>
-45.4368

>  <SCORE.INTER.CONST>
1

>  <SCORE.INTER.POLAR>
-4.39358

>  <SCORE.INTER.ROT>
3

>  <SCORE.INTER.SOLV>
11.6927

>  <SCORE.INTER.VDW>
-25.1435

>  <SCORE.INTER.norm>
-3.49514

>  <SCORE.INTRA>
0.12389

>  <SCORE.INTRA.DIHEDRAL>
-0.339612

>  <SCORE.INTRA.DIHEDRAL.0>
4.88905

>  <SCORE.INTRA.POLAR>
0

>  <SCORE.INTRA.POLAR.0>
0

>  <SCORE.INTRA.REPUL>
0

>  <SCORE.INTRA.REPUL.0>
0

>  <SCORE.INTRA.SOLV>
-0.676993

>  <SCORE.INTRA.SOLV.lig_0>
-15.1033

>  <SCORE.INTRA.VDW>
0.632193

>  <SCORE.INTRA.VDW.0>
-0.755285

>  <SCORE.INTRA.norm>
0.00953002

>  <SCORE.RESTR>
0

>  <SCORE.RESTR.CAVITY>
0

>  <SCORE.RESTR.norm>
0

>  <SCORE.SYSTEM>
0

>  <SCORE.SYSTEM.CONST>
0

>  <SCORE.SYSTEM.DIHEDRAL>
0

>  <SCORE.SYSTEM.SOLV>
0

>  <SCORE.SYSTEM.norm>
0

>  <SCORE.heavy>
13

>  <SCORE.norm>
-3.48561

>  <RMSD>
0.669

$$$$
ligand
 OpenBabel11021811513D
libRbt.so/2013.1/901 2013/11/27
 13 14  0  0  0  0  0  0  0  0999 V2000
   34.5368   29.8415  108.0657 N   0  0  0  0  0  0  0  0  0  0  0  0
   34.4244   31.1031  108.6941 C   0  0  0  0  0  0  0  0  0  0  0  0
   35.6184   31.8528  108.9920 N   0  0  0  0  0  0  0  0  0  0  0  0
   33.2035   31.6302  109.0287 N   0  0  0  0  0  0  0  0  0  0  0  0
   32.0125   30.9428  108.7615 C   0  0  0  0  0  0  0  0  0  0  0  0
   32.0811   29.6545  108.1230 C   0  0  0  0  0  0  0  0  0  0  0  0
   33.3955   29.1126  107.7759 C   0  0  0  0  0  0  0  0  0  0  0  0
   33.5009   27.8849  107.1652 O   0  0  0  0  0  0  0  0  0  0  0  0
   30.7097   29.1971  107.9837 C   0  0  0  0  0  0  0  0  0  0  0  0
   29.8969   30.1973  108.5185 C   0  0  0  0  0  0  0  0  0  0  0  0
   30.6782   31.2319  108.9822 N   0  0  0  0  0  0  0  0  0  0  0  0
   30.2587   27.9054  107.3703 C   0  0  0  0  0  0  0  0  0  0  0  0
   29.3640   28.1871  106.2629 N   0  0  0  0  0  0  0  0  0  0  0  0
  1  2  1  0  0  0  0
  1  7  1  0  0  0  0
  2  3  1  0  0  0  0
  2  4  2  0  0  0  0
  4  5  1  0  0  0  0
  5  6  2  0  0  0  0
  5 11  1  0  0  0  0
  6  7  1  0  0  0  0
  6  9  1  0  0  0  0
  7  8  2  0  0  0  0
  9 10  2  0  0  0  0
  9 12  1  0  0  0  0
 10 11  1  0  0  0  0
 12 13  1  0  0  0  0
M  END
>  <CHROM.1>
6.98392479,-121.61074226,99.67727731,32.32591517,29.89088631,108.10096372
-0.55513063,0.00354772,-2.61250289

>  <Name>
ligand

>  <RI>
2.73617e+07

>  <Rbt.Current_Directory>
/home/itssahil/PROJECTS/Mol_Feturizer/New_Systems/rnas/4RZD

>  <Rbt.Executable>
rbdock ($Id: //depot/dev/client3/rdock/2013.1/src/exe/rbdock.cxx#4 $)

>  <Rbt.Library>
libRbt.so (2013.1, Build901 2013/11/27)

>  <Rbt.Parameter_File>
/export/apps/rDock/src/rDock_2013.1_src/data/scripts/dock_solv.prm

>  <Rbt.Receptor>
prm/pocket_docking_6.prm

>  <SCORE>
-45.258

>  <SCORE.INTER>
-45.1921

>  <SCORE.INTER.CONST>
1

>  <SCORE.INTER.POLAR>
-4.33593

>  <SCORE.INTER.ROT>
3

>  <SCORE.INTER.SOLV>
11.6978

>  <SCORE.INTER.VDW>
-25.1742

>  <SCORE.INTER.norm>
-3.47632

>  <SCORE.INTRA>
-0.0658899

>  <SCORE.INTRA.DIHEDRAL>
-0.620414

>  <SCORE.INTRA.DIHEDRAL.0>
4.88905

>  <SCORE.INTRA.POLAR>
0

>  <SCORE.INTRA.POLAR.0>
0

>  <SCORE.INTRA.REPUL>
0

>  <SCORE.INTRA.REPUL.0>
0

>  <SCORE.INTRA.SOLV>
-0.675112

>  <SCORE.INTRA.SOLV.lig_0>
-15.1033

>  <SCORE.INTRA.VDW>
0.581873

>  <SCORE.INTRA.VDW.0>
-0.755285

>  <SCORE.INTRA.norm>
-0.00506845

>  <SCORE.RESTR>
0

>  <SCORE.RESTR.CAVITY>
0

>  <SCORE.RESTR.norm>
0

>  <SCORE.SYSTEM>
0

>  <SCORE.SYSTEM.CONST>
0

>  <SCORE.SYSTEM.DIHEDRAL>
0

>  <SCORE.SYSTEM.SOLV>
0

>  <SCORE.SYSTEM.norm>
0

>  <SCORE.heavy>
13

>  <SCORE.norm>
-3.48139

>  <RMSD>
0.669

$$$$
ligand
 OpenBabel11021811513D
libRbt.so/2013.1/901 2013/11/27
 13 14  0  0  0  0  0  0  0  0999 V2000
   34.5077   29.8391  108.1877 N   0  0  0  0  0  0  0  0  0  0  0  0
   34.4041   31.0660  108.8828 C   0  0  0  0  0  0  0  0  0  0  0  0
   35.6048   31.7525  109.2869 N   0  0  0  0  0  0  0  0  0  0  0  0
   33.1854   31.6180  109.1834 N   0  0  0  0  0  0  0  0  0  0  0  0
   31.9880   30.9917  108.8138 C   0  0  0  0  0  0  0  0  0  0  0  0
   32.0476   29.7405  108.1046 C   0  0  0  0  0  0  0  0  0  0  0  0
   33.3597   29.1708  107.7957 C   0  0  0  0  0  0  0  0  0  0  0  0
   33.4566   27.9771  107.1198 O   0  0  0  0  0  0  0  0  0  0  0  0
   30.6710   29.3430  107.8666 C   0  0  0  0  0  0  0  0  0  0  0  0
   29.8647   30.3405  108.4162 C   0  0  0  0  0  0  0  0  0  0  0  0
   30.6543   31.3170  108.9808 N   0  0  0  0  0  0  0  0  0  0  0  0
   30.2106   28.1062  107.1551 C   0  0  0  0  0  0  0  0  0  0  0  0
   29.8296   28.4481  105.7971 N   0  0  0  0  0  0  0  0  0  0  0  0
  1  2  1  0  0  0  0
  1  7  1  0  0  0  0
  2  3  1  0  0  0  0
  2  4  2  0  0  0  0
  4  5  1  0  0  0  0
  5  6  2  0  0  0  0
  5 11  1  0  0  0  0
  6  7  1  0  0  0  0
  6  9  1  0  0  0  0
  7  8  2  0  0  0  0
  9 10  2  0  0  0  0
  9 12  1  0  0  0  0
 10 11  1  0  0  0  0
 12 13  1  0  0  0  0
M  END
>  <CHROM.1>
-168.27042299,-100.72885596,-96.29197063,32.33605170,29.95743865,108.08960908
-0.59503855,0.06175870,-2.53180079

>  <Name>
ligand

>  <RI>
1.35221e+07

>  <Rbt.Current_Directory>
/home/itssahil/PROJECTS/Mol_Feturizer/New_Systems/rnas/4RZD

>  <Rbt.Executable>
rbdock ($Id: //depot/dev/client3/rdock/2013.1/src/exe/rbdock.cxx#4 $)

>  <Rbt.Library>
libRbt.so (2013.1, Build901 2013/11/27)

>  <Rbt.Parameter_File>
/export/apps/rDock/src/rDock_2013.1_src/data/scripts/dock_solv.prm

>  <Rbt.Receptor>
prm/pocket_docking_5.prm

>  <SCORE>
-49.9834

>  <SCORE.INTER>
-49.3908

>  <SCORE.INTER.CONST>
1

>  <SCORE.INTER.POLAR>
-5.19432

>  <SCORE.INTER.ROT>
3

>  <SCORE.INTER.SOLV>
12.2237

>  <SCORE.INTER.VDW>
-25.2874

>  <SCORE.INTER.norm>
-3.79929

>  <SCORE.INTRA>
-0.592564

>  <SCORE.INTRA.DIHEDRAL>
-0.849372

>  <SCORE.INTRA.DIHEDRAL.0>
4.88905

>  <SCORE.INTRA.POLAR>
0

>  <SCORE.INTRA.POLAR.0>
0

>  <SCORE.INTRA.REPUL>
0

>  <SCORE.INTRA.REPUL.0>
0

>  <SCORE.INTRA.SOLV>
-0.577951

>  <SCORE.INTRA.SOLV.lig_0>
-15.1033

>  <SCORE.INTRA.VDW>
0.121097

>  <SCORE.INTRA.VDW.0>
-0.755285

>  <SCORE.INTRA.norm>
-0.0455819

>  <SCORE.RESTR>
0

>  <SCORE.RESTR.CAVITY>
0

>  <SCORE.RESTR.norm>
0

>  <SCORE.SYSTEM>
0

>  <SCORE.SYSTEM.CONST>
0

>  <SCORE.SYSTEM.DIHEDRAL>
0

>  <SCORE.SYSTEM.SOLV>
0

>  <SCORE.SYSTEM.norm>
0

>  <SCORE.heavy>
13

>  <SCORE.norm>
-3.84487

>  <RMSD>
0.672

$$$$
ligand
 OpenBabel11021811513D
libRbt.so/2013.1/901 2013/11/27
 13 14  0  0  0  0  0  0  0  0999 V2000
   34.4962   29.8355  108.2078 N   0  0  0  0  0  0  0  0  0  0  0  0
   34.3902   31.0603  108.9063 C   0  0  0  0  0  0  0  0  0  0  0  0
   35.5894   31.7437  109.3201 N   0  0  0  0  0  0  0  0  0  0  0  0
   33.1704   31.6131  109.2012 N   0  0  0  0  0  0  0  0  0  0  0  0
   31.9744   30.9899  108.8221 C   0  0  0  0  0  0  0  0  0  0  0  0
   32.0366   29.7409  108.1092 C   0  0  0  0  0  0  0  0  0  0  0  0
   33.3498   29.1703  107.8065 C   0  0  0  0  0  0  0  0  0  0  0  0
   33.4490   27.9786  107.1273 O   0  0  0  0  0  0  0  0  0  0  0  0
   30.6609   29.3463  107.8613 C   0  0  0  0  0  0  0  0  0  0  0  0
   29.8527   30.3432  108.4092 C   0  0  0  0  0  0  0  0  0  0  0  0
   30.6402   31.3167  108.9818 N   0  0  0  0  0  0  0  0  0  0  0  0
   30.2031   28.1126  107.1429 C   0  0  0  0  0  0  0  0  0  0  0  0
   29.8080   28.4636  105.7912 N   0  0  0  0  0  0  0  0  0  0  0  0
  1  2  1  0  0  0  0
  1  7  1  0  0  0  0
  2  3  1  0  0  0  0
  2  4  2  0  0  0  0
  4  5  1  0  0  0  0
  5  6  2  0  0  0  0
  5 11  1  0  0  0  0
  6  7  1  0  0  0  0
  6  9  1  0  0  0  0
  7  8  2  0  0  0  0
  9 10  2  0  0  0  0
  9 12  1  0  0  0  0
 10 11  1  0  0  0  0
 12 13  1  0  0  0  0
M  END
>  <CHROM.1>
-21.44367887,-101.75488643,-96.99883134,32.32336788,29.95787164,108.09737883
-0.59535670,0.06940653,-2.53116574

>  <Name>
ligand

>  <RI>
1.0531e+07

>  <Rbt.Current_Directory>
/home/itssahil/PROJECTS/Mol_Feturizer/New_Systems/rnas/4RZD

>  <Rbt.Executable>
rbdock ($Id: //depot/dev/client3/rdock/2013.1/src/exe/rbdock.cxx#4 $)

>  <Rbt.Library>
libRbt.so (2013.1, Build901 2013/11/27)

>  <Rbt.Parameter_File>
/export/apps/rDock/src/rDock_2013.1_src/data/scripts/dock_solv.prm

>  <Rbt.Receptor>
prm/pocket_docking_8.prm

>  <SCORE>
-50.1169

>  <SCORE.INTER>
-49.5458

>  <SCORE.INTER.CONST>
1

>  <SCORE.INTER.POLAR>
-5.20666

>  <SCORE.INTER.ROT>
3

>  <SCORE.INTER.SOLV>
12.3345

>  <SCORE.INTER.VDW>
-25.3865

>  <SCORE.INTER.norm>
-3.81121

>  <SCORE.INTRA>
-0.571149

>  <SCORE.INTRA.DIHEDRAL>
-0.806657

>  <SCORE.INTRA.DIHEDRAL.0>
4.88905

>  <SCORE.INTRA.POLAR>
0

>  <SCORE.INTRA.POLAR.0>
0

>  <SCORE.INTRA.REPUL>
0

>  <SCORE.INTRA.REPUL.0>
0

>  <SCORE.INTRA.SOLV>
-0.585263

>  <SCORE.INTRA.SOLV.lig_0>
-15.1033

>  <SCORE.INTRA.VDW>
0.124811

>  <SCORE.INTRA.VDW.0>
-0.755285

>  <SCORE.INTRA.norm>
-0.0439345

>  <SCORE.RESTR>
0

>  <SCORE.RESTR.CAVITY>
0

>  <SCORE.RESTR.norm>
0

>  <SCORE.SYSTEM>
0

>  <SCORE.SYSTEM.CONST>
0

>  <SCORE.SYSTEM.DIHEDRAL>
0

>  <SCORE.SYSTEM.SOLV>
0

>  <SCORE.SYSTEM.norm>
0

>  <SCORE.heavy>
13

>  <SCORE.norm>
-3.85515

>  <RMSD>
0.676

$$$$
ligand
 OpenBabel11021811513D
libRbt.so/2013.1/901 2013/11/27
 13 14  0  0  0  0  0  0  0  0999 V2000
   34.5304   29.8416  108.1504 N   0  0  0  0  0  0  0  0  0  0  0  0
   34.4306   31.0686  108.8459 C   0  0  0  0  0  0  0  0  0  0  0  0
   35.6335   31.7568  109.2405 N   0  0  0  0  0  0  0  0  0  0  0  0
   33.2135   31.6192  109.1556 N   0  0  0  0  0  0  0  0  0  0  0  0
   32.0141   30.9913  108.7953 C   0  0  0  0  0  0  0  0  0  0  0  0
   32.0699   29.7399  108.0862 C   0  0  0  0  0  0  0  0  0  0  0  0
   33.3803   29.1718  107.7674 C   0  0  0  0  0  0  0  0  0  0  0  0
   33.4736   27.9779  107.0913 O   0  0  0  0  0  0  0  0  0  0  0  0
   30.6920   29.3406  107.8588 C   0  0  0  0  0  0  0  0  0  0  0  0
   29.8887   30.3372  108.4142 C   0  0  0  0  0  0  0  0  0  0  0  0
   30.6813   31.3150  108.9724 N   0  0  0  0  0  0  0  0  0  0  0  0
   30.2277   28.1029  107.1513 C   0  0  0  0  0  0  0  0  0  0  0  0
   29.8057   28.4492  105.8066 N   0  0  0  0  0  0  0  0  0  0  0  0
  1  2  1  0  0  0  0
  1  7  1  0  0  0  0
  2  3  1  0  0  0  0
  2  4  2  0  0  0  0
  4  5  1  0  0  0  0
  5  6  2  0  0  0  0
  5 11  1  0  0  0  0
  6  7  1  0  0  0  0
  6  9  1  0  0  0  0
  7  8  2  0  0  0  0
  9 10  2  0  0  0  0
  9 12  1  0  0  0  0
 10 11  1  0  0  0  0
 12 13  1  0  0  0  0
M  END
>  <CHROM.1>
-174.92833652,-102.08404702,-97.88065686,32.35529346,29.95757654,108.06982909
-0.58924571,0.05555469,-2.53396751

>  <Name>
ligand

>  <RI>
1.35221e+07

>  <Rbt.Current_Directory>
/home/itssahil/PROJECTS/Mol_Feturizer/New_Systems/rnas/4RZD

>  <Rbt.Executable>
rbdock ($Id: //depot/dev/client3/rdock/2013.1/src/exe/rbdock.cxx#4 $)

>  <Rbt.Library>
libRbt.so (2013.1, Build901 2013/11/27)

>  <Rbt.Parameter_File>
/export/apps/rDock/src/rDock_2013.1_src/data/scripts/dock_solv.prm

>  <Rbt.Receptor>
prm/pocket_docking_5.prm

>  <SCORE>
-50.0368

>  <SCORE.INTER>
-49.4903

>  <SCORE.INTER.CONST>
1

>  <SCORE.INTER.POLAR>
-5.21869

>  <SCORE.INTER.ROT>
3

>  <SCORE.INTER.SOLV>
12.2549

>  <SCORE.INTER.VDW>
-25.2828

>  <SCORE.INTER.norm>
-3.80694

>  <SCORE.INTRA>
-0.546537

>  <SCORE.INTRA.DIHEDRAL>
-0.755036

>  <SCORE.INTRA.DIHEDRAL.0>
4.88905

>  <SCORE.INTRA.POLAR>
0

>  <SCORE.INTRA.POLAR.0>
0

>  <SCORE.INTRA.REPUL>
0

>  <SCORE.INTRA.REPUL.0>
0

>  <SCORE.INTRA.SOLV>
-0.585861

>  <SCORE.INTRA.SOLV.lig_0>
-15.1033

>  <SCORE.INTRA.VDW>
0.123912

>  <SCORE.INTRA.VDW.0>
-0.755285

>  <SCORE.INTRA.norm>
-0.0420413

>  <SCORE.RESTR>
0

>  <SCORE.RESTR.CAVITY>
0

>  <SCORE.RESTR.norm>
0

>  <SCORE.SYSTEM>
0

>  <SCORE.SYSTEM.CONST>
0

>  <SCORE.SYSTEM.DIHEDRAL>
0

>  <SCORE.SYSTEM.SOLV>
0

>  <SCORE.SYSTEM.norm>
0

>  <SCORE.heavy>
13

>  <SCORE.norm>
-3.84898

>  <RMSD>
0.677

$$$$
ligand
 OpenBabel11021811513D
libRbt.so/2013.1/901 2013/11/27
 13 14  0  0  0  0  0  0  0  0999 V2000
   34.4967   29.8421  108.1918 N   0  0  0  0  0  0  0  0  0  0  0  0
   34.3910   31.0667  108.8906 C   0  0  0  0  0  0  0  0  0  0  0  0
   35.5906   31.7529  109.2988 N   0  0  0  0  0  0  0  0  0  0  0  0
   33.1714   31.6169  109.1909 N   0  0  0  0  0  0  0  0  0  0  0  0
   31.9751   30.9909  108.8173 C   0  0  0  0  0  0  0  0  0  0  0  0
   32.0369   29.7420  108.1043 C   0  0  0  0  0  0  0  0  0  0  0  0
   33.3499   29.1743  107.7958 C   0  0  0  0  0  0  0  0  0  0  0  0
   33.4488   27.9827  107.1163 O   0  0  0  0  0  0  0  0  0  0  0  0
   30.6610   29.3442  107.8628 C   0  0  0  0  0  0  0  0  0  0  0  0
   29.8530   30.3394  108.4142 C   0  0  0  0  0  0  0  0  0  0  0  0
   30.6409   31.3147  108.9831 N   0  0  0  0  0  0  0  0  0  0  0  0
   30.2026   28.1093  107.1466 C   0  0  0  0  0  0  0  0  0  0  0  0
   29.7935   28.4605  105.7992 N   0  0  0  0  0  0  0  0  0  0  0  0
  1  2  1  0  0  0  0
  1  7  1  0  0  0  0
  2  3  1  0  0  0  0
  2  4  2  0  0  0  0
  4  5  1  0  0  0  0
  5  6  2  0  0  0  0
  5 11  1  0  0  0  0
  6  7  1  0  0  0  0
  6  9  1  0  0  0  0
  7  8  2  0  0  0  0
  9 10  2  0  0  0  0
  9 12  1  0  0  0  0
 10 11  1  0  0  0  0
 12 13  1  0  0  0  0
M  END
>  <CHROM.1>
4.92780212,-102.07691527,-97.60115908,32.32247630,29.95961903,108.09143506
-0.59423820,0.06351146,-2.53018589

>  <Name>
ligand

>  <RI>
1.35221e+07

>  <Rbt.Current_Directory>
/home/itssahil/PROJECTS/Mol_Feturizer/New_Systems/rnas/4RZD

>  <Rbt.Executable>
rbdock ($Id: //depot/dev/client3/rdock/2013.1/src/exe/rbdock.cxx#4 $)

>  <Rbt.Library>
libRbt.so (2013.1, Build901 2013/11/27)

>  <Rbt.Parameter_File>
/export/apps/rDock/src/rDock_2013.1_src/data/scripts/dock_solv.prm

>  <Rbt.Receptor>
prm/pocket_docking_5.prm

>  <SCORE>
-50.0425

>  <SCORE.INTER>
-49.4879

>  <SCORE.INTER.CONST>
1

>  <SCORE.INTER.POLAR>
-5.20778

>  <SCORE.INTER.ROT>
3

>  <SCORE.INTER.SOLV>
12.3034

>  <SCORE.INTER.VDW>
-25.3338

>  <SCORE.INTER.norm>
-3.80676

>  <SCORE.INTRA>
-0.554588

>  <SCORE.INTRA.DIHEDRAL>
-0.771197

>  <SCORE.INTRA.DIHEDRAL.0>
4.88905

>  <SCORE.INTRA.POLAR>
0

>  <SCORE.INTRA.POLAR.0>
0

>  <SCORE.INTRA.REPUL>
0

>  <SCORE.INTRA.REPUL.0>
0

>  <SCORE.INTRA.SOLV>
-0.585885

>  <SCORE.INTRA.SOLV.lig_0>
-15.1033

>  <SCORE.INTRA.VDW>
0.123953

>  <SCORE.INTRA.VDW.0>
-0.755285

>  <SCORE.INTRA.norm>
-0.0426606

>  <SCORE.RESTR>
0

>  <SCORE.RESTR.CAVITY>
0

>  <SCORE.RESTR.norm>
0

>  <SCORE.SYSTEM>
0

>  <SCORE.SYSTEM.CONST>
0

>  <SCORE.SYSTEM.DIHEDRAL>
0

>  <SCORE.SYSTEM.SOLV>
0

>  <SCORE.SYSTEM.norm>
0

>  <SCORE.heavy>
13

>  <SCORE.norm>
-3.84942

>  <RMSD>
0.677

$$$$
ligand
 OpenBabel11021811513D
libRbt.so/2013.1/901 2013/11/27
 13 14  0  0  0  0  0  0  0  0999 V2000
   34.5049   29.8337  108.1968 N   0  0  0  0  0  0  0  0  0  0  0  0
   34.4009   31.0594  108.8941 C   0  0  0  0  0  0  0  0  0  0  0  0
   35.6013   31.7437  109.3026 N   0  0  0  0  0  0  0  0  0  0  0  0
   33.1820   31.6122  109.1925 N   0  0  0  0  0  0  0  0  0  0  0  0
   31.9849   30.9880  108.8185 C   0  0  0  0  0  0  0  0  0  0  0  0
   32.0450   29.7380  108.1071 C   0  0  0  0  0  0  0  0  0  0  0  0
   33.3573   29.1675  107.8005 C   0  0  0  0  0  0  0  0  0  0  0  0
   33.4546   27.9749  107.1226 O   0  0  0  0  0  0  0  0  0  0  0  0
   30.6686   29.3426  107.8646 C   0  0  0  0  0  0  0  0  0  0  0  0
   29.8619   30.3399  108.4140 C   0  0  0  0  0  0  0  0  0  0  0  0
   30.6511   31.3145  108.9825 N   0  0  0  0  0  0  0  0  0  0  0  0
   30.2086   28.1077  107.1495 C   0  0  0  0  0  0  0  0  0  0  0  0
   29.7862   28.4605  105.8067 N   0  0  0  0  0  0  0  0  0  0  0  0
  1  2  1  0  0  0  0
  1  7  1  0  0  0  0
  2  3  1  0  0  0  0
  2  4  2  0  0  0  0
  4  5  1  0  0  0  0
  5  6  2  0  0  0  0
  5 11  1  0  0  0  0
  6  7  1  0  0  0  0
  6  9  1  0  0  0  0
  7  8  2  0  0  0  0
  9 10  2  0  0  0  0
  9 12  1  0  0  0  0
 10 11  1  0  0  0  0
 12 13  1  0  0  0  0
M  END
>  <CHROM.1>
-19.31480721,-102.76327074,-96.89294755,32.32958035,29.95540321,108.09471448
-0.59174136,0.06664043,-2.53356519

>  <Name>
ligand

>  <RI>
1.35221e+07

>  <Rbt.Current_Directory>
/home/itssahil/PROJECTS/Mol_Feturizer/New_Systems/rnas/4RZD

>  <Rbt.Executable>
rbdock ($Id: //depot/dev/client3/rdock/2013.1/src/exe/rbdock.cxx#4 $)

>  <Rbt.Library>
libRbt.so (2013.1, Build901 2013/11/27)

>  <Rbt.Parameter_File>
/export/apps/rDock/src/rDock_2013.1_src/data/scripts/dock_solv.prm

>  <Rbt.Receptor>
prm/pocket_docking_5.prm

>  <SCORE>
-50.0583

>  <SCORE.INTER>
-49.4836

>  <SCORE.INTER.CONST>
1

>  <SCORE.INTER.POLAR>
-5.19533

>  <SCORE.INTER.ROT>
3

>  <SCORE.INTER.SOLV>
12.3436

>  <SCORE.INTER.VDW>
-25.3858

>  <SCORE.INTER.norm>
-3.80643

>  <SCORE.INTRA>
-0.57462

>  <SCORE.INTRA.DIHEDRAL>
-0.811913

>  <SCORE.INTRA.DIHEDRAL.0>
4.88905

>  <SCORE.INTRA.POLAR>
0

>  <SCORE.INTRA.POLAR.0>
0

>  <SCORE.INTRA.REPUL>
0

>  <SCORE.INTRA.REPUL.0>
0

>  <SCORE.INTRA.SOLV>
-0.590912

>  <SCORE.INTRA.SOLV.lig_0>
-15.1033

>  <SCORE.INTRA.VDW>
0.126792

>  <SCORE.INTRA.VDW.0>
-0.755285

>  <SCORE.INTRA.norm>
-0.0442016

>  <SCORE.RESTR>
0

>  <SCORE.RESTR.CAVITY>
0

>  <SCORE.RESTR.norm>
0

>  <SCORE.SYSTEM>
0

>  <SCORE.SYSTEM.CONST>
0

>  <SCORE.SYSTEM.DIHEDRAL>
0

>  <SCORE.SYSTEM.SOLV>
0

>  <SCORE.SYSTEM.norm>
0

>  <SCORE.heavy>
13

>  <SCORE.norm>
-3.85064

>  <RMSD>
0.677

$$$$
ligand
 OpenBabel11021811513D
libRbt.so/2013.1/901 2013/11/27
 13 14  0  0  0  0  0  0  0  0999 V2000
   34.5292   29.8449  108.1446 N   0  0  0  0  0  0  0  0  0  0  0  0
   34.4339   31.0729  108.8390 C   0  0  0  0  0  0  0  0  0  0  0  0
   35.6393   31.7591  109.2292 N   0  0  0  0  0  0  0  0  0  0  0  0
   33.2188   31.6262  109.1516 N   0  0  0  0  0  0  0  0  0  0  0  0
   32.0171   31.0002  108.7957 C   0  0  0  0  0  0  0  0  0  0  0  0
   32.0683   29.7479  108.0878 C   0  0  0  0  0  0  0  0  0  0  0  0
   33.3767   29.1768  107.7659 C   0  0  0  0  0  0  0  0  0  0  0  0
   33.4656   27.9820  107.0909 O   0  0  0  0  0  0  0  0  0  0  0  0
   30.6890   29.3511  107.8650 C   0  0  0  0  0  0  0  0  0  0  0  0
   29.8893   30.3500  108.4216 C   0  0  0  0  0  0  0  0  0  0  0  0
   30.6855   31.3268  108.9763 N   0  0  0  0  0  0  0  0  0  0  0  0
   30.2202   28.1135  107.1603 C   0  0  0  0  0  0  0  0  0  0  0  0
   29.8317   28.4523  105.8037 N   0  0  0  0  0  0  0  0  0  0  0  0
  1  2  1  0  0  0  0
  1  7  1  0  0  0  0
  2  3  1  0  0  0  0
  2  4  2  0  0  0  0
  4  5  1  0  0  0  0
  5  6  2  0  0  0  0
  5 11  1  0  0  0  0
  6  7  1  0  0  0  0
  6  9  1  0  0  0  0
  7  8  2  0  0  0  0
  9 10  2  0  0  0  0
  9 12  1  0  0  0  0
 10 11  1  0  0  0  0
 12 13  1  0  0  0  0
M  END
>  <CHROM.1>
-9.68980691,-100.43219636,-97.15677122,32.35740084,29.96453420,108.06922227
-0.58895632,0.05417896,-2.53468786

>  <Name>
ligand

>  <RI>
4.18181e+07

>  <Rbt.Current_Directory>
/home/itssahil/PROJECTS/Mol_Feturizer/New_Systems/rnas/4RZD

>  <Rbt.Executable>
rbdock ($Id: //depot/dev/client3/rdock/2013.1/src/exe/rbdock.cxx#4 $)

>  <Rbt.Library>
libRbt.so (2013.1, Build901 2013/11/27)

>  <Rbt.Parameter_File>
/export/apps/rDock/src/rDock_2013.1_src/data/scripts/dock_solv.prm

>  <Rbt.Receptor>
prm/pocket_docking_3.prm

>  <SCORE>
-50.0946

>  <SCORE.INTER>
-49.5275

>  <SCORE.INTER.CONST>
1

>  <SCORE.INTER.POLAR>
-5.2065

>  <SCORE.INTER.ROT>
3

>  <SCORE.INTER.SOLV>
12.235

>  <SCORE.INTER.VDW>
-25.3417

>  <SCORE.INTER.norm>
-3.80981

>  <SCORE.INTRA>
-0.56707

>  <SCORE.INTRA.DIHEDRAL>
-0.798563

>  <SCORE.INTRA.DIHEDRAL.0>
4.88905

>  <SCORE.INTRA.POLAR>
0

>  <SCORE.INTRA.POLAR.0>
0

>  <SCORE.INTRA.REPUL>
0

>  <SCORE.INTRA.REPUL.0>
0

>  <SCORE.INTRA.SOLV>
-0.576274

>  <SCORE.INTRA.SOLV.lig_0>
-15.1033

>  <SCORE.INTRA.VDW>
0.120348

>  <SCORE.INTRA.VDW.0>
-0.755285

>  <SCORE.INTRA.norm>
-0.0436208

>  <SCORE.RESTR>
0

>  <SCORE.RESTR.CAVITY>
0

>  <SCORE.RESTR.norm>
0

>  <SCORE.SYSTEM>
0

>  <SCORE.SYSTEM.CONST>
0

>  <SCORE.SYSTEM.DIHEDRAL>
0

>  <SCORE.SYSTEM.SOLV>
0

>  <SCORE.SYSTEM.norm>
0

>  <SCORE.heavy>
13

>  <SCORE.norm>
-3.85343

>  <RMSD>
0.679

$$$$
ligand
 OpenBabel11021811513D
libRbt.so/2013.1/901 2013/11/27
 13 14  0  0  0  0  0  0  0  0999 V2000
   34.4713   29.7870  108.3044 N   0  0  0  0  0  0  0  0  0  0  0  0
   34.3590   30.9884  109.0414 C   0  0  0  0  0  0  0  0  0  0  0  0
   35.5525   31.6344  109.5256 N   0  0  0  0  0  0  0  0  0  0  0  0
   33.1383   31.5534  109.3080 N   0  0  0  0  0  0  0  0  0  0  0  0
   31.9476   30.9663  108.8606 C   0  0  0  0  0  0  0  0  0  0  0  0
   32.0163   29.7420  108.1067 C   0  0  0  0  0  0  0  0  0  0  0  0
   33.3303   29.1578  107.8353 C   0  0  0  0  0  0  0  0  0  0  0  0
   33.4357   27.9889  107.1186 O   0  0  0  0  0  0  0  0  0  0  0  0
   30.6448   29.3822  107.7915 C   0  0  0  0  0  0  0  0  0  0  0  0
   29.8330   30.3743  108.3426 C   0  0  0  0  0  0  0  0  0  0  0  0
   30.6140   31.3123  108.9798 N   0  0  0  0  0  0  0  0  0  0  0  0
   30.1945   28.1830  107.0123 C   0  0  0  0  0  0  0  0  0  0  0  0
   30.0899   28.5351  105.6083 N   0  0  0  0  0  0  0  0  0  0  0  0
  1  2  1  0  0  0  0
  1  7  1  0  0  0  0
  2  3  1  0  0  0  0
  2  4  2  0  0  0  0
  4  5  1  0  0  0  0
  5  6  2  0  0  0  0
  5 11  1  0  0  0  0
  6  7  1  0  0  0  0
  6  9  1  0  0  0  0
  7  8  2  0  0  0  0
  9 10  2  0  0  0  0
  9 12  1  0  0  0  0
 10 11  1  0  0  0  0
 12 13  1  0  0  0  0
M  END
>  <CHROM.1>
170.87193704,-91.61617474,172.37728979,32.33493472,29.94986405,108.10849657
-0.62715817,0.10328284,-2.48384985

>  <Name>
ligand

>  <RI>
1.38753e+07

>  <Rbt.Current_Directory>
/home/itssahil/PROJECTS/Mol_Feturizer/New_Systems/rnas/4RZD

>  <Rbt.Executable>
rbdock ($Id: //depot/dev/client3/rdock/2013.1/src/exe/rbdock.cxx#4 $)

>  <Rbt.Library>
libRbt.so (2013.1, Build901 2013/11/27)

>  <Rbt.Parameter_File>
/export/apps/rDock/src/rDock_2013.1_src/data/scripts/dock_solv.prm

>  <Rbt.Receptor>
prm/pocket_docking_7.prm

>  <SCORE>
-47.5758

>  <SCORE.INTER>
-46.3251

>  <SCORE.INTER.CONST>
1

>  <SCORE.INTER.POLAR>
-4.82768

>  <SCORE.INTER.ROT>
3

>  <SCORE.INTER.SOLV>
11.9551

>  <SCORE.INTER.VDW>
-24.3762

>  <SCORE.INTER.norm>
-3.56347

>  <SCORE.INTRA>
-1.25076

>  <SCORE.INTRA.DIHEDRAL>
-2.34593

>  <SCORE.INTRA.DIHEDRAL.0>
4.88905

>  <SCORE.INTRA.POLAR>
0

>  <SCORE.INTRA.POLAR.0>
0

>  <SCORE.INTRA.REPUL>
0

>  <SCORE.INTRA.REPUL.0>
0

>  <SCORE.INTRA.SOLV>
-0.441743

>  <SCORE.INTRA.SOLV.lig_0>
-15.1033

>  <SCORE.INTRA.VDW>
0.143077

>  <SCORE.INTRA.VDW.0>
-0.755285

>  <SCORE.INTRA.norm>
-0.0962125

>  <SCORE.RESTR>
0

>  <SCORE.RESTR.CAVITY>
0

>  <SCORE.RESTR.norm>
0

>  <SCORE.SYSTEM>
0

>  <SCORE.SYSTEM.CONST>
0

>  <SCORE.SYSTEM.DIHEDRAL>
0

>  <SCORE.SYSTEM.SOLV>
0

>  <SCORE.SYSTEM.norm>
0

>  <SCORE.heavy>
13

>  <SCORE.norm>
-3.65968

>  <RMSD>
0.680

$$$$
ligand
 OpenBabel11021811513D
libRbt.so/2013.1/901 2013/11/27
 13 14  0  0  0  0  0  0  0  0999 V2000
   34.5025   29.8076  108.1671 N   0  0  0  0  0  0  0  0  0  0  0  0
   34.4211   31.0365  108.8617 C   0  0  0  0  0  0  0  0  0  0  0  0
   35.6342   31.7085  109.2528 N   0  0  0  0  0  0  0  0  0  0  0  0
   33.2124   31.6039  109.1738 N   0  0  0  0  0  0  0  0  0  0  0  0
   32.0037   30.9921  108.8169 C   0  0  0  0  0  0  0  0  0  0  0  0
   32.0407   29.7394  108.1088 C   0  0  0  0  0  0  0  0  0  0  0  0
   33.3425   29.1532  107.7875 C   0  0  0  0  0  0  0  0  0  0  0  0
   33.4178   27.9575  107.1123 O   0  0  0  0  0  0  0  0  0  0  0  0
   30.6570   29.3588  107.8851 C   0  0  0  0  0  0  0  0  0  0  0  0
   29.8687   30.3668  108.4415 C   0  0  0  0  0  0  0  0  0  0  0  0
   30.6759   31.3342  108.9968 N   0  0  0  0  0  0  0  0  0  0  0  0
   30.1742   28.1269  107.1798 C   0  0  0  0  0  0  0  0  0  0  0  0
   29.7738   28.4739  105.8287 N   0  0  0  0  0  0  0  0  0  0  0  0
  1  2  1  0  0  0  0
  1  7  1  0  0  0  0
  2  3  1  0  0  0  0
  2  4  2  0  0  0  0
  4  5  1  0  0  0  0
  5  6  2  0  0  0  0
  5 11  1  0  0  0  0
  6  7  1  0  0  0  0
  6  9  1  0  0  0  0
  7  8  2  0  0  0  0
  9 10  2  0  0  0  0
  9 12  1  0  0  0  0
 10 11  1  0  0  0  0
 12 13  1  0  0  0  0
M  END
>  <CHROM.1>
161.64207503,-101.17854808,-99.41361021,32.33096587,29.95279201,108.09089307
-0.57829856,0.06184316,-2.53598147

>  <Name>
ligand

>  <RI>
1.0531e+07

>  <Rbt.Current_Directory>
/home/itssahil/PROJECTS/Mol_Feturizer/New_Systems/rnas/4RZD

>  <Rbt.Executable>
rbdock ($Id: //depot/dev/client3/rdock/2013.1/src/exe/rbdock.cxx#4 $)

>  <Rbt.Library>
libRbt.so (2013.1, Build901 2013/11/27)

>  <Rbt.Parameter_File>
/export/apps/rDock/src/rDock_2013.1_src/data/scripts/dock_solv.prm

>  <Rbt.Receptor>
prm/pocket_docking_8.prm

>  <SCORE>
-50.0993

>  <SCORE.INTER>
-49.5969

>  <SCORE.INTER.CONST>
1

>  <SCORE.INTER.POLAR>
-5.19792

>  <SCORE.INTER.ROT>
3

>  <SCORE.INTER.SOLV>
12.331

>  <SCORE.INTER.VDW>
-25.4485

>  <SCORE.INTER.norm>
-3.81515

>  <SCORE.INTRA>
-0.50238

>  <SCORE.INTRA.DIHEDRAL>
-0.669148

>  <SCORE.INTRA.DIHEDRAL.0>
4.88905

>  <SCORE.INTRA.POLAR>
0

>  <SCORE.INTRA.POLAR.0>
0

>  <SCORE.INTRA.REPUL>
0

>  <SCORE.INTRA.REPUL.0>
0

>  <SCORE.INTRA.SOLV>
-0.581715

>  <SCORE.INTRA.SOLV.lig_0>
-15.1033

>  <SCORE.INTRA.VDW>
0.123051

>  <SCORE.INTRA.VDW.0>
-0.755285

>  <SCORE.INTRA.norm>
-0.0386446

>  <SCORE.RESTR>
0

>  <SCORE.RESTR.CAVITY>
0

>  <SCORE.RESTR.norm>
0

>  <SCORE.SYSTEM>
0

>  <SCORE.SYSTEM.CONST>
0

>  <SCORE.SYSTEM.DIHEDRAL>
0

>  <SCORE.SYSTEM.SOLV>
0

>  <SCORE.SYSTEM.norm>
0

>  <SCORE.heavy>
13

>  <SCORE.norm>
-3.85379

>  <RMSD>
0.681

$$$$
ligand
 OpenBabel11021811513D
libRbt.so/2013.1/901 2013/11/27
 13 14  0  0  0  0  0  0  0  0999 V2000
   34.5403   29.8110  108.1780 N   0  0  0  0  0  0  0  0  0  0  0  0
   34.4488   31.0392  108.8725 C   0  0  0  0  0  0  0  0  0  0  0  0
   35.6562   31.7162  109.2726 N   0  0  0  0  0  0  0  0  0  0  0  0
   33.2354   31.6013  109.1762 N   0  0  0  0  0  0  0  0  0  0  0  0
   32.0319   30.9846  108.8105 C   0  0  0  0  0  0  0  0  0  0  0  0
   32.0793   29.7324  108.1021 C   0  0  0  0  0  0  0  0  0  0  0  0
   33.3859   29.1518  107.7898 C   0  0  0  0  0  0  0  0  0  0  0  0
   33.4711   27.9568  107.1146 O   0  0  0  0  0  0  0  0  0  0  0  0
   30.6989   29.3460  107.8684 C   0  0  0  0  0  0  0  0  0  0  0  0
   29.9023   30.3504  108.4195 C   0  0  0  0  0  0  0  0  0  0  0  0
   30.7014   31.3209  108.9811 N   0  0  0  0  0  0  0  0  0  0  0  0
   30.2263   28.1124  107.1591 C   0  0  0  0  0  0  0  0  0  0  0  0
   29.7922   28.4658  105.8202 N   0  0  0  0  0  0  0  0  0  0  0  0
  1  2  1  0  0  0  0
  1  7  1  0  0  0  0
  2  3  1  0  0  0  0
  2  4  2  0  0  0  0
  4  5  1  0  0  0  0
  5  6  2  0  0  0  0
  5 11  1  0  0  0  0
  6  7  1  0  0  0  0
  6  9  1  0  0  0  0
  7  8  2  0  0  0  0
  9 10  2  0  0  0  0
  9 12  1  0  0  0  0
 10 11  1  0  0  0  0
 12 13  1  0  0  0  0
M  END
>  <CHROM.1>
-15.70652661,-103.06821800,-98.83794496,32.36488722,29.94772118,108.08778433
-0.58241355,0.06598693,-2.53682543

>  <Name>
ligand

>  <RI>
2.73617e+07

>  <Rbt.Current_Directory>
/home/itssahil/PROJECTS/Mol_Feturizer/New_Systems/rnas/4RZD

>  <Rbt.Executable>
rbdock ($Id: //depot/dev/client3/rdock/2013.1/src/exe/rbdock.cxx#4 $)

>  <Rbt.Library>
libRbt.so (2013.1, Build901 2013/11/27)

>  <Rbt.Parameter_File>
/export/apps/rDock/src/rDock_2013.1_src/data/scripts/dock_solv.prm

>  <Rbt.Receptor>
prm/pocket_docking_6.prm

>  <SCORE>
-50.1069

>  <SCORE.INTER>
-49.588

>  <SCORE.INTER.CONST>
1

>  <SCORE.INTER.POLAR>
-5.21994

>  <SCORE.INTER.ROT>
3

>  <SCORE.INTER.SOLV>
12.3267

>  <SCORE.INTER.VDW>
-25.3678

>  <SCORE.INTER.norm>
-3.81446

>  <SCORE.INTRA>
-0.518913

>  <SCORE.INTRA.DIHEDRAL>
-0.699516

>  <SCORE.INTRA.DIHEDRAL.0>
4.88905

>  <SCORE.INTRA.POLAR>
0

>  <SCORE.INTRA.POLAR.0>
0

>  <SCORE.INTRA.REPUL>
0

>  <SCORE.INTRA.REPUL.0>
0

>  <SCORE.INTRA.SOLV>
-0.592592

>  <SCORE.INTRA.SOLV.lig_0>
-15.1033

>  <SCORE.INTRA.VDW>
0.12714

>  <SCORE.INTRA.VDW.0>
-0.755285

>  <SCORE.INTRA.norm>
-0.0399164

>  <SCORE.RESTR>
0

>  <SCORE.RESTR.CAVITY>
0

>  <SCORE.RESTR.norm>
0

>  <SCORE.SYSTEM>
0

>  <SCORE.SYSTEM.CONST>
0

>  <SCORE.SYSTEM.DIHEDRAL>
0

>  <SCORE.SYSTEM.SOLV>
0

>  <SCORE.SYSTEM.norm>
0

>  <SCORE.heavy>
13

>  <SCORE.norm>
-3.85438

>  <RMSD>
0.682

$$$$
ligand
 OpenBabel11021811513D
libRbt.so/2013.1/901 2013/11/27
 13 14  0  0  0  0  0  0  0  0999 V2000
   34.5380   29.8175  108.1544 N   0  0  0  0  0  0  0  0  0  0  0  0
   34.4465   31.0435  108.8529 C   0  0  0  0  0  0  0  0  0  0  0  0
   35.6540   31.7215  109.2510 N   0  0  0  0  0  0  0  0  0  0  0  0
   33.2332   31.6025  109.1622 N   0  0  0  0  0  0  0  0  0  0  0  0
   32.0296   30.9847  108.7986 C   0  0  0  0  0  0  0  0  0  0  0  0
   32.0769   29.7347  108.0863 C   0  0  0  0  0  0  0  0  0  0  0  0
   33.3835   29.1574  107.7681 C   0  0  0  0  0  0  0  0  0  0  0  0
   33.4686   27.9645  107.0891 O   0  0  0  0  0  0  0  0  0  0  0  0
   30.6964   29.3465  107.8560 C   0  0  0  0  0  0  0  0  0  0  0  0
   29.8999   30.3478  108.4127 C   0  0  0  0  0  0  0  0  0  0  0  0
   30.6991   31.3181  108.9745 N   0  0  0  0  0  0  0  0  0  0  0  0
   30.2238   28.1142  107.1446 C   0  0  0  0  0  0  0  0  0  0  0  0
   29.7580   28.4751  105.8183 N   0  0  0  0  0  0  0  0  0  0  0  0
  1  2  1  0  0  0  0
  1  7  1  0  0  0  0
  2  3  1  0  0  0  0
  2  4  2  0  0  0  0
  4  5  1  0  0  0  0
  5  6  2  0  0  0  0
  5 11  1  0  0  0  0
  6  7  1  0  0  0  0
  6  9  1  0  0  0  0
  7  8  2  0  0  0  0
  9 10  2  0  0  0  0
  9 12  1  0  0  0  0
 10 11  1  0  0  0  0
 12 13  1  0  0  0  0
M  END
>  <CHROM.1>
162.50964472,-104.27454001,-100.07369183,32.35976160,29.95084780,108.07261980
-0.57975983,0.06272830,-2.53510873

>  <Name>
ligand

>  <RI>
4.18181e+07

>  <Rbt.Current_Directory>
/home/itssahil/PROJECTS/Mol_Feturizer/New_Systems/rnas/4RZD

>  <Rbt.Executable>
rbdock ($Id: //depot/dev/client3/rdock/2013.1/src/exe/rbdock.cxx#4 $)

>  <Rbt.Library>
libRbt.so (2013.1, Build901 2013/11/27)

>  <Rbt.Parameter_File>
/export/apps/rDock/src/rDock_2013.1_src/data/scripts/dock_solv.prm

>  <Rbt.Receptor>
prm/pocket_docking_3.prm

>  <SCORE>
-50.1021

>  <SCORE.INTER>
-49.6175

>  <SCORE.INTER.CONST>
1

>  <SCORE.INTER.POLAR>
-5.23369

>  <SCORE.INTER.ROT>
3

>  <SCORE.INTER.SOLV>
12.4157

>  <SCORE.INTER.VDW>
-25.3712

>  <SCORE.INTER.norm>
-3.81673

>  <SCORE.INTRA>
-0.484612

>  <SCORE.INTRA.DIHEDRAL>
-0.629832

>  <SCORE.INTRA.DIHEDRAL.0>
4.88905

>  <SCORE.INTRA.POLAR>
0

>  <SCORE.INTRA.POLAR.0>
0

>  <SCORE.INTRA.REPUL>
0

>  <SCORE.INTRA.REPUL.0>
0

>  <SCORE.INTRA.SOLV>
-0.599853

>  <SCORE.INTRA.SOLV.lig_0>
-15.1033

>  <SCORE.INTRA.VDW>
0.13023

>  <SCORE.INTRA.VDW.0>
-0.755285

>  <SCORE.INTRA.norm>
-0.0372779

>  <SCORE.RESTR>
0

>  <SCORE.RESTR.CAVITY>
0

>  <SCORE.RESTR.norm>
0

>  <SCORE.SYSTEM>
0

>  <SCORE.SYSTEM.CONST>
0

>  <SCORE.SYSTEM.DIHEDRAL>
0

>  <SCORE.SYSTEM.SOLV>
0

>  <SCORE.SYSTEM.norm>
0

>  <SCORE.heavy>
13

>  <SCORE.norm>
-3.85401

>  <RMSD>
0.686

$$$$
ligand
 OpenBabel11021811513D
libRbt.so/2013.1/901 2013/11/27
 13 14  0  0  0  0  0  0  0  0999 V2000
   34.5542   29.8369  108.0801 N   0  0  0  0  0  0  0  0  0  0  0  0
   34.4516   31.0959  108.7154 C   0  0  0  0  0  0  0  0  0  0  0  0
   35.6517   31.8310  109.0246 N   0  0  0  0  0  0  0  0  0  0  0  0
   33.2344   31.6340  109.0461 N   0  0  0  0  0  0  0  0  0  0  0  0
   32.0377   30.9610  108.7680 C   0  0  0  0  0  0  0  0  0  0  0  0
   32.0963   29.6759  108.1221 C   0  0  0  0  0  0  0  0  0  0  0  0
   33.4068   29.1219  107.7794 C   0  0  0  0  0  0  0  0  0  0  0  0
   33.5028   27.8969  107.1620 O   0  0  0  0  0  0  0  0  0  0  0  0
   30.7209   29.2340  107.9722 C   0  0  0  0  0  0  0  0  0  0  0  0
   29.9157   30.2397  108.5083 C   0  0  0  0  0  0  0  0  0  0  0  0
   30.7054   31.2630  108.9827 N   0  0  0  0  0  0  0  0  0  0  0  0
   30.2598   27.9508  107.3486 C   0  0  0  0  0  0  0  0  0  0  0  0
   29.3821   28.2488  106.2318 N   0  0  0  0  0  0  0  0  0  0  0  0
  1  2  1  0  0  0  0
  1  7  1  0  0  0  0
  2  3  1  0  0  0  0
  2  4  2  0  0  0  0
  4  5  1  0  0  0  0
  5  6  2  0  0  0  0
  5 11  1  0  0  0  0
  6  7  1  0  0  0  0
  6  9  1  0  0  0  0
  7  8  2  0  0  0  0
  9 10  2  0  0  0  0
  9 12  1  0  0  0  0
 10 11  1  0  0  0  0
 12 13  1  0  0  0  0
M  END
>  <CHROM.1>
1.47672795,-121.20795966,102.85961026,32.34460852,29.90955705,108.10226385
-0.54992183,0.01420489,-2.60636080

>  <Name>
ligand

>  <RI>
1.38753e+07

>  <Rbt.Current_Directory>
/home/itssahil/PROJECTS/Mol_Feturizer/New_Systems/rnas/4RZD

>  <Rbt.Executable>
rbdock ($Id: //depot/dev/client3/rdock/2013.1/src/exe/rbdock.cxx#4 $)

>  <Rbt.Library>
libRbt.so (2013.1, Build901 2013/11/27)

>  <Rbt.Parameter_File>
/export/apps/rDock/src/rDock_2013.1_src/data/scripts/dock_solv.prm

>  <Rbt.Receptor>
prm/pocket_docking_7.prm

>  <SCORE>
-45.2718

>  <SCORE.INTER>
-45.3136

>  <SCORE.INTER.CONST>
1

>  <SCORE.INTER.POLAR>
-4.36176

>  <SCORE.INTER.ROT>
3

>  <SCORE.INTER.SOLV>
11.789

>  <SCORE.INTER.VDW>
-25.1995

>  <SCORE.INTER.norm>
-3.48566

>  <SCORE.INTRA>
0.0418215

>  <SCORE.INTRA.DIHEDRAL>
-0.455432

>  <SCORE.INTRA.DIHEDRAL.0>
4.88905

>  <SCORE.INTRA.POLAR>
0

>  <SCORE.INTRA.POLAR.0>
0

>  <SCORE.INTRA.REPUL>
0

>  <SCORE.INTRA.REPUL.0>
0

>  <SCORE.INTRA.SOLV>
-0.67328

>  <SCORE.INTRA.SOLV.lig_0>
-15.1033

>  <SCORE.INTRA.VDW>
0.606177

>  <SCORE.INTRA.VDW.0>
-0.755285

>  <SCORE.INTRA.norm>
0.00321703

>  <SCORE.RESTR>
0

>  <SCORE.RESTR.CAVITY>
0

>  <SCORE.RESTR.norm>
0

>  <SCORE.SYSTEM>
0

>  <SCORE.SYSTEM.CONST>
0

>  <SCORE.SYSTEM.DIHEDRAL>
0

>  <SCORE.SYSTEM.SOLV>
0

>  <SCORE.SYSTEM.norm>
0

>  <SCORE.heavy>
13

>  <SCORE.norm>
-3.48244

>  <RMSD>
0.686

$$$$
ligand
 OpenBabel11021811513D
libRbt.so/2013.1/901 2013/11/27
 13 14  0  0  0  0  0  0  0  0999 V2000
   34.5360   29.7964  108.2439 N   0  0  0  0  0  0  0  0  0  0  0  0
   34.4186   30.9875  108.9967 C   0  0  0  0  0  0  0  0  0  0  0  0
   35.6094   31.6323  109.4890 N   0  0  0  0  0  0  0  0  0  0  0  0
   33.1955   31.5435  109.2711 N   0  0  0  0  0  0  0  0  0  0  0  0
   32.0073   30.9571  108.8164 C   0  0  0  0  0  0  0  0  0  0  0  0
   32.0811   29.7432  108.0464 C   0  0  0  0  0  0  0  0  0  0  0  0
   33.3976   29.1684  107.7669 C   0  0  0  0  0  0  0  0  0  0  0  0
   33.5079   28.0095  107.0348 O   0  0  0  0  0  0  0  0  0  0  0  0
   30.7112   29.3814  107.7269 C   0  0  0  0  0  0  0  0  0  0  0  0
   29.8951   30.3626  108.2912 C   0  0  0  0  0  0  0  0  0  0  0  0
   30.6722   31.2956  108.9405 N   0  0  0  0  0  0  0  0  0  0  0  0
   30.2658   28.1906  106.9321 C   0  0  0  0  0  0  0  0  0  0  0  0
   30.1950   28.5506  105.5280 N   0  0  0  0  0  0  0  0  0  0  0  0
  1  2  1  0  0  0  0
  1  7  1  0  0  0  0
  2  3  1  0  0  0  0
  2  4  2  0  0  0  0
  4  5  1  0  0  0  0
  5  6  2  0  0  0  0
  5 11  1  0  0  0  0
  6  7  1  0  0  0  0
  6  9  1  0  0  0  0
  7  8  2  0  0  0  0
  9 10  2  0  0  0  0
  9 12  1  0  0  0  0
 10 11  1  0  0  0  0
 12 13  1  0  0  0  0
M  END
>  <CHROM.1>
-17.27571117,-90.04711739,173.57987266,32.40201598,29.95134566,108.05047947
-0.63343255,0.09935141,-2.46982117

>  <Name>
ligand

>  <RI>
4.18181e+07

>  <Rbt.Current_Directory>
/home/itssahil/PROJECTS/Mol_Feturizer/New_Systems/rnas/4RZD

>  <Rbt.Executable>
rbdock ($Id: //depot/dev/client3/rdock/2013.1/src/exe/rbdock.cxx#4 $)

>  <Rbt.Library>
libRbt.so (2013.1, Build901 2013/11/27)

>  <Rbt.Parameter_File>
/export/apps/rDock/src/rDock_2013.1_src/data/scripts/dock_solv.prm

>  <Rbt.Receptor>
prm/pocket_docking_3.prm

>  <SCORE>
-47.7129

>  <SCORE.INTER>
-46.4465

>  <SCORE.INTER.CONST>
1

>  <SCORE.INTER.POLAR>
-4.89307

>  <SCORE.INTER.ROT>
3

>  <SCORE.INTER.SOLV>
12.011

>  <SCORE.INTER.VDW>
-24.2578

>  <SCORE.INTER.norm>
-3.57281

>  <SCORE.INTRA>
-1.26644

>  <SCORE.INTRA.DIHEDRAL>
-2.37302

>  <SCORE.INTRA.DIHEDRAL.0>
4.88905

>  <SCORE.INTRA.POLAR>
0

>  <SCORE.INTRA.POLAR.0>
0

>  <SCORE.INTRA.REPUL>
0

>  <SCORE.INTRA.REPUL.0>
0

>  <SCORE.INTRA.SOLV>
-0.421073

>  <SCORE.INTRA.SOLV.lig_0>
-15.1033

>  <SCORE.INTRA.VDW>
0.130607

>  <SCORE.INTRA.VDW.0>
-0.755285

>  <SCORE.INTRA.norm>
-0.0974183

>  <SCORE.RESTR>
0

>  <SCORE.RESTR.CAVITY>
0

>  <SCORE.RESTR.norm>
0

>  <SCORE.SYSTEM>
0

>  <SCORE.SYSTEM.CONST>
0

>  <SCORE.SYSTEM.DIHEDRAL>
0

>  <SCORE.SYSTEM.SOLV>
0

>  <SCORE.SYSTEM.norm>
0

>  <SCORE.heavy>
13

>  <SCORE.norm>
-3.67023

>  <RMSD>
0.687

$$$$
ligand
 OpenBabel11021811513D
libRbt.so/2013.1/901 2013/11/27
 13 14  0  0  0  0  0  0  0  0999 V2000
   34.4737   29.8203  108.1929 N   0  0  0  0  0  0  0  0  0  0  0  0
   34.3735   31.0090  108.9519 C   0  0  0  0  0  0  0  0  0  0  0  0
   35.5751   31.6488  109.4244 N   0  0  0  0  0  0  0  0  0  0  0  0
   33.1573   31.5674  109.2507 N   0  0  0  0  0  0  0  0  0  0  0  0
   31.9592   30.9859  108.8160 C   0  0  0  0  0  0  0  0  0  0  0  0
   32.0154   29.7745  108.0405 C   0  0  0  0  0  0  0  0  0  0  0  0
   33.3249   29.1971  107.7348 C   0  0  0  0  0  0  0  0  0  0  0  0
   33.4184   28.0405  106.9967 O   0  0  0  0  0  0  0  0  0  0  0  0
   30.6388   29.4176  107.7451 C   0  0  0  0  0  0  0  0  0  0  0  0
   29.8361   30.3991  108.3278 C   0  0  0  0  0  0  0  0  0  0  0  0
   30.6276   31.3276  108.9659 N   0  0  0  0  0  0  0  0  0  0  0  0
   30.1755   28.2309  106.9545 C   0  0  0  0  0  0  0  0  0  0  0  0
   30.1863   28.5622  105.5416 N   0  0  0  0  0  0  0  0  0  0  0  0
  1  2  1  0  0  0  0
  1  7  1  0  0  0  0
  2  3  1  0  0  0  0
  2  4  2  0  0  0  0
  4  5  1  0  0  0  0
  5  6  2  0  0  0  0
  5 11  1  0  0  0  0
  6  7  1  0  0  0  0
  6  9  1  0  0  0  0
  7  8  2  0  0  0  0
  9 10  2  0  0  0  0
  9 12  1  0  0  0  0
 10 11  1  0  0  0  0
 12 13  1  0  0  0  0
M  END
>  <CHROM.1>
173.51009669,-85.34446772,174.01988616,32.34668753,29.97839181,108.03864146
-0.62819323,0.08249980,-2.46476865

>  <Name>
ligand

>  <RI>
4.18181e+07

>  <Rbt.Current_Directory>
/home/itssahil/PROJECTS/Mol_Feturizer/New_Systems/rnas/4RZD

>  <Rbt.Executable>
rbdock ($Id: //depot/dev/client3/rdock/2013.1/src/exe/rbdock.cxx#4 $)

>  <Rbt.Library>
libRbt.so (2013.1, Build901 2013/11/27)

>  <Rbt.Parameter_File>
/export/apps/rDock/src/rDock_2013.1_src/data/scripts/dock_solv.prm

>  <Rbt.Receptor>
prm/pocket_docking_3.prm

>  <SCORE>
-47.6015

>  <SCORE.INTER>
-46.3392

>  <SCORE.INTER.CONST>
1

>  <SCORE.INTER.POLAR>
-4.80971

>  <SCORE.INTER.ROT>
3

>  <SCORE.INTER.SOLV>
11.9867

>  <SCORE.INTER.VDW>
-24.456

>  <SCORE.INTER.norm>
-3.56456

>  <SCORE.INTRA>
-1.26231

>  <SCORE.INTRA.DIHEDRAL>
-2.381

>  <SCORE.INTRA.DIHEDRAL.0>
4.88905

>  <SCORE.INTRA.POLAR>
0

>  <SCORE.INTRA.POLAR.0>
0

>  <SCORE.INTRA.REPUL>
0

>  <SCORE.INTRA.REPUL.0>
0

>  <SCORE.INTRA.SOLV>
-0.356729

>  <SCORE.INTRA.SOLV.lig_0>
-15.1033

>  <SCORE.INTRA.VDW>
0.106552

>  <SCORE.INTRA.VDW.0>
-0.755285

>  <SCORE.INTRA.norm>
-0.0971011

>  <SCORE.RESTR>
0

>  <SCORE.RESTR.CAVITY>
0

>  <SCORE.RESTR.norm>
0

>  <SCORE.SYSTEM>
0

>  <SCORE.SYSTEM.CONST>
0

>  <SCORE.SYSTEM.DIHEDRAL>
0

>  <SCORE.SYSTEM.SOLV>
0

>  <SCORE.SYSTEM.norm>
0

>  <SCORE.heavy>
13

>  <SCORE.norm>
-3.66166

>  <RMSD>
0.691

$$$$
ligand
 OpenBabel11021811513D
libRbt.so/2013.1/901 2013/11/27
 13 14  0  0  0  0  0  0  0  0999 V2000
   34.4798   29.7938  108.3301 N   0  0  0  0  0  0  0  0  0  0  0  0
   34.3620   30.9898  109.0751 C   0  0  0  0  0  0  0  0  0  0  0  0
   35.5515   31.6290  109.5778 N   0  0  0  0  0  0  0  0  0  0  0  0
   33.1397   31.5557  109.3324 N   0  0  0  0  0  0  0  0  0  0  0  0
   31.9528   30.9751  108.8671 C   0  0  0  0  0  0  0  0  0  0  0  0
   32.0270   29.7565  108.1044 C   0  0  0  0  0  0  0  0  0  0  0  0
   33.3426   29.1711  107.8433 C   0  0  0  0  0  0  0  0  0  0  0  0
   33.4533   28.0075  107.1187 O   0  0  0  0  0  0  0  0  0  0  0  0
   30.6583   29.4025  107.7711 C   0  0  0  0  0  0  0  0  0  0  0  0
   29.8427   30.3923  108.3207 C   0  0  0  0  0  0  0  0  0  0  0  0
   30.6187   31.3234  108.9739 N   0  0  0  0  0  0  0  0  0  0  0  0
   30.2139   28.2105  106.9775 C   0  0  0  0  0  0  0  0  0  0  0  0
   30.1988   28.5520  105.5671 N   0  0  0  0  0  0  0  0  0  0  0  0
  1  2  1  0  0  0  0
  1  7  1  0  0  0  0
  2  3  1  0  0  0  0
  2  4  2  0  0  0  0
  4  5  1  0  0  0  0
  5  6  2  0  0  0  0
  5 11  1  0  0  0  0
  6  7  1  0  0  0  0
  6  9  1  0  0  0  0
  7  8  2  0  0  0  0
  9 10  2  0  0  0  0
  9 12  1  0  0  0  0
 10 11  1  0  0  0  0
 12 13  1  0  0  0  0
M  END
>  <CHROM.1>
170.83918988,-88.42322980,174.43934882,32.35264702,29.96125927,108.11089929
-0.63814364,0.11113821,-2.47373517

>  <Name>
ligand

>  <RI>
4.18181e+07

>  <Rbt.Current_Directory>
/home/itssahil/PROJECTS/Mol_Feturizer/New_Systems/rnas/4RZD

>  <Rbt.Executable>
rbdock ($Id: //depot/dev/client3/rdock/2013.1/src/exe/rbdock.cxx#4 $)

>  <Rbt.Library>
libRbt.so (2013.1, Build901 2013/11/27)

>  <Rbt.Parameter_File>
/export/apps/rDock/src/rDock_2013.1_src/data/scripts/dock_solv.prm

>  <Rbt.Receptor>
prm/pocket_docking_3.prm

>  <SCORE>
-47.7282

>  <SCORE.INTER>
-46.4526

>  <SCORE.INTER.CONST>
1

>  <SCORE.INTER.POLAR>
-4.81652

>  <SCORE.INTER.ROT>
3

>  <SCORE.INTER.SOLV>
11.9094

>  <SCORE.INTER.VDW>
-24.4831

>  <SCORE.INTER.norm>
-3.57327

>  <SCORE.INTRA>
-1.27563

>  <SCORE.INTRA.DIHEDRAL>
-2.38947

>  <SCORE.INTRA.DIHEDRAL.0>
4.88905

>  <SCORE.INTRA.POLAR>
0

>  <SCORE.INTRA.POLAR.0>
0

>  <SCORE.INTRA.REPUL>
0

>  <SCORE.INTRA.REPUL.0>
0

>  <SCORE.INTRA.SOLV>
-0.398066

>  <SCORE.INTRA.SOLV.lig_0>
-15.1033

>  <SCORE.INTRA.VDW>
0.118137

>  <SCORE.INTRA.VDW.0>
-0.755285

>  <SCORE.INTRA.norm>
-0.0981253

>  <SCORE.RESTR>
0

>  <SCORE.RESTR.CAVITY>
0

>  <SCORE.RESTR.norm>
0

>  <SCORE.SYSTEM>
0

>  <SCORE.SYSTEM.CONST>
0

>  <SCORE.SYSTEM.DIHEDRAL>
0

>  <SCORE.SYSTEM.SOLV>
0

>  <SCORE.SYSTEM.norm>
0

>  <SCORE.heavy>
13

>  <SCORE.norm>
-3.6714

>  <RMSD>
0.693

$$$$
ligand
 OpenBabel11021811513D
libRbt.so/2013.1/901 2013/11/27
 13 14  0  0  0  0  0  0  0  0999 V2000
   34.4864   29.8134  108.2901 N   0  0  0  0  0  0  0  0  0  0  0  0
   34.3682   30.9984  109.0523 C   0  0  0  0  0  0  0  0  0  0  0  0
   35.5584   31.6378  109.5533 N   0  0  0  0  0  0  0  0  0  0  0  0
   33.1450   31.5536  109.3277 N   0  0  0  0  0  0  0  0  0  0  0  0
   31.9574   30.9723  108.8648 C   0  0  0  0  0  0  0  0  0  0  0  0
   32.0320   29.7647  108.0851 C   0  0  0  0  0  0  0  0  0  0  0  0
   33.3486   29.1906  107.8047 C   0  0  0  0  0  0  0  0  0  0  0  0
   33.4598   28.0376  107.0635 O   0  0  0  0  0  0  0  0  0  0  0  0
   30.6626   29.4071  107.7587 C   0  0  0  0  0  0  0  0  0  0  0  0
   29.8461   30.3846  108.3287 C   0  0  0  0  0  0  0  0  0  0  0  0
   30.6223   31.3114  108.9879 N   0  0  0  0  0  0  0  0  0  0  0  0
   30.2182   28.2234  106.9530 C   0  0  0  0  0  0  0  0  0  0  0  0
   30.2017   28.5799  105.5462 N   0  0  0  0  0  0  0  0  0  0  0  0
  1  2  1  0  0  0  0
  1  7  1  0  0  0  0
  2  3  1  0  0  0  0
  2  4  2  0  0  0  0
  4  5  1  0  0  0  0
  5  6  2  0  0  0  0
  5 11  1  0  0  0  0
  6  7  1  0  0  0  0
  6  9  1  0  0  0  0
  7  8  2  0  0  0  0
  9 10  2  0  0  0  0
  9 12  1  0  0  0  0
 10 11  1  0  0  0  0
 12 13  1  0  0  0  0
M  END
>  <CHROM.1>
-11.17507608,-87.85498411,176.17007550,32.35758139,29.97078816,108.09145540
-0.63845804,0.10034324,-2.46010253

>  <Name>
ligand

>  <RI>
2.51964e+07

>  <Rbt.Current_Directory>
/home/itssahil/PROJECTS/Mol_Feturizer/New_Systems/rnas/4RZD

>  <Rbt.Executable>
rbdock ($Id: //depot/dev/client3/rdock/2013.1/src/exe/rbdock.cxx#4 $)

>  <Rbt.Library>
libRbt.so (2013.1, Build901 2013/11/27)

>  <Rbt.Parameter_File>
/export/apps/rDock/src/rDock_2013.1_src/data/scripts/dock_solv.prm

>  <Rbt.Receptor>
prm/pocket_docking_4.prm

>  <SCORE>
-47.7103

>  <SCORE.INTER>
-46.4149

>  <SCORE.INTER.CONST>
1

>  <SCORE.INTER.POLAR>
-4.83077

>  <SCORE.INTER.ROT>
3

>  <SCORE.INTER.SOLV>
12.0114

>  <SCORE.INTER.VDW>
-24.4445

>  <SCORE.INTER.norm>
-3.57037

>  <SCORE.INTRA>
-1.29544

>  <SCORE.INTRA.DIHEDRAL>
-2.41552

>  <SCORE.INTRA.DIHEDRAL.0>
4.88905

>  <SCORE.INTRA.POLAR>
0

>  <SCORE.INTRA.POLAR.0>
0

>  <SCORE.INTRA.REPUL>
0

>  <SCORE.INTRA.REPUL.0>
0

>  <SCORE.INTRA.SOLV>
-0.389819

>  <SCORE.INTRA.SOLV.lig_0>
-15.1033

>  <SCORE.INTRA.VDW>
0.107226

>  <SCORE.INTRA.VDW.0>
-0.755285

>  <SCORE.INTRA.norm>
-0.0996496

>  <SCORE.RESTR>
0

>  <SCORE.RESTR.CAVITY>
0

>  <SCORE.RESTR.norm>
0

>  <SCORE.SYSTEM>
0

>  <SCORE.SYSTEM.CONST>
0

>  <SCORE.SYSTEM.DIHEDRAL>
0

>  <SCORE.SYSTEM.SOLV>
0

>  <SCORE.SYSTEM.norm>
0

>  <SCORE.heavy>
13

>  <SCORE.norm>
-3.67002

>  <RMSD>
0.703

$$$$
ligand
 OpenBabel11021811513D
libRbt.so/2013.1/901 2013/11/27
 13 14  0  0  0  0  0  0  0  0999 V2000
   34.5301   29.8031  108.2540 N   0  0  0  0  0  0  0  0  0  0  0  0
   34.4097   30.9861  109.0189 C   0  0  0  0  0  0  0  0  0  0  0  0
   35.5983   31.6231  109.5267 N   0  0  0  0  0  0  0  0  0  0  0  0
   33.1858   31.5416  109.2906 N   0  0  0  0  0  0  0  0  0  0  0  0
   31.9997   30.9626  108.8211 C   0  0  0  0  0  0  0  0  0  0  0  0
   32.0766   29.7570  108.0384 C   0  0  0  0  0  0  0  0  0  0  0  0
   33.3939   29.1826  107.7621 C   0  0  0  0  0  0  0  0  0  0  0  0
   33.5072   28.0315  107.0181 O   0  0  0  0  0  0  0  0  0  0  0  0
   30.7083   29.4016  107.7052 C   0  0  0  0  0  0  0  0  0  0  0  0
   29.8902   30.3782  108.2744 C   0  0  0  0  0  0  0  0  0  0  0  0
   30.6644   31.3025  108.9394 N   0  0  0  0  0  0  0  0  0  0  0  0
   30.2662   28.2204  106.8944 C   0  0  0  0  0  0  0  0  0  0  0  0
   30.2387   28.5862  105.4902 N   0  0  0  0  0  0  0  0  0  0  0  0
  1  2  1  0  0  0  0
  1  7  1  0  0  0  0
  2  3  1  0  0  0  0
  2  4  2  0  0  0  0
  4  5  1  0  0  0  0
  5  6  2  0  0  0  0
  5 11  1  0  0  0  0
  6  7  1  0  0  0  0
  6  9  1  0  0  0  0
  7  8  2  0  0  0  0
  9 10  2  0  0  0  0
  9 12  1  0  0  0  0
 10 11  1  0  0  0  0
 12 13  1  0  0  0  0
M  END
>  <CHROM.1>
174.12122401,-88.62087697,176.75320547,32.40070719,29.96329456,108.04676112
-0.63902921,0.10458763,-2.45724730

>  <Name>
ligand

>  <RI>
1.0531e+07

>  <Rbt.Current_Directory>
/home/itssahil/PROJECTS/Mol_Feturizer/New_Systems/rnas/4RZD

>  <Rbt.Executable>
rbdock ($Id: //depot/dev/client3/rdock/2013.1/src/exe/rbdock.cxx#4 $)

>  <Rbt.Library>
libRbt.so (2013.1, Build901 2013/11/27)

>  <Rbt.Parameter_File>
/export/apps/rDock/src/rDock_2013.1_src/data/scripts/dock_solv.prm

>  <Rbt.Receptor>
prm/pocket_docking_8.prm

>  <SCORE>
-47.6379

>  <SCORE.INTER>
-46.3345

>  <SCORE.INTER.CONST>
1

>  <SCORE.INTER.POLAR>
-4.9146

>  <SCORE.INTER.ROT>
3

>  <SCORE.INTER.SOLV>
12.1027

>  <SCORE.INTER.VDW>
-24.1419

>  <SCORE.INTER.norm>
-3.56419

>  <SCORE.INTRA>
-1.30338

>  <SCORE.INTRA.DIHEDRAL>
-2.42226

>  <SCORE.INTRA.DIHEDRAL.0>
4.88905

>  <SCORE.INTRA.POLAR>
0

>  <SCORE.INTRA.POLAR.0>
0

>  <SCORE.INTRA.REPUL>
0

>  <SCORE.INTRA.REPUL.0>
0

>  <SCORE.INTRA.SOLV>
-0.39941

>  <SCORE.INTRA.SOLV.lig_0>
-15.1033

>  <SCORE.INTRA.VDW>
0.107448

>  <SCORE.INTRA.VDW.0>
-0.755285

>  <SCORE.INTRA.norm>
-0.10026

>  <SCORE.RESTR>
0

>  <SCORE.RESTR.CAVITY>
0

>  <SCORE.RESTR.norm>
0

>  <SCORE.SYSTEM>
0

>  <SCORE.SYSTEM.CONST>
0

>  <SCORE.SYSTEM.DIHEDRAL>
0

>  <SCORE.SYSTEM.SOLV>
0

>  <SCORE.SYSTEM.norm>
0

>  <SCORE.heavy>
13

>  <SCORE.norm>
-3.66445

>  <RMSD>
0.703

$$$$
ligand
 OpenBabel11021811513D
libRbt.so/2013.1/901 2013/11/27
 13 14  0  0  0  0  0  0  0  0999 V2000
   34.2256   29.6703  108.0312 N   0  0  0  0  0  0  0  0  0  0  0  0
   34.1487   30.8794  108.7602 C   0  0  0  0  0  0  0  0  0  0  0  0
   35.3632   31.5155  109.2034 N   0  0  0  0  0  0  0  0  0  0  0  0
   32.9429   31.4609  109.0571 N   0  0  0  0  0  0  0  0  0  0  0  0
   31.7330   30.8839  108.6501 C   0  0  0  0  0  0  0  0  0  0  0  0
   31.7655   29.6523  107.9057 C   0  0  0  0  0  0  0  0  0  0  0  0
   33.0642   29.0504  107.6014 C   0  0  0  0  0  0  0  0  0  0  0  0
   33.1352   27.8740  106.8926 O   0  0  0  0  0  0  0  0  0  0  0  0
   30.3814   29.3057  107.6340 C   0  0  0  0  0  0  0  0  0  0  0  0
   29.5974   30.3121  108.1995 C   0  0  0  0  0  0  0  0  0  0  0  0
   30.4074   31.2465  108.8050 N   0  0  0  0  0  0  0  0  0  0  0  0
   29.8947   28.1051  106.8793 C   0  0  0  0  0  0  0  0  0  0  0  0
   29.9343   26.9438  107.7488 N   0  0  0  0  0  0  0  0  0  0  0  0
  1  2  1  0  0  0  0
  1  7  1  0  0  0  0
  2  3  1  0  0  0  0
  2  4  2  0  0  0  0
  4  5  1  0  0  0  0
  5  6  2  0  0  0  0
  5 11  1  0  0  0  0
  6  7  1  0  0  0  0
  6  9  1  0  0  0  0
  7  8  2  0  0  0  0
  9 10  2  0  0  0  0
  9 12  1  0  0  0  0
 10 11  1  0  0  0  0
 12 13  1  0  0  0  0
M  END
>  <CHROM.1>
178.00503665,79.09378041,178.81151248,32.09462177,29.72020903,108.10675268
-0.60929552,-0.00022133,-2.70199178

>  <Name>
ligand

>  <RI>
1.35221e+07

>  <Rbt.Current_Directory>
/home/itssahil/PROJECTS/Mol_Feturizer/New_Systems/rnas/4RZD

>  <Rbt.Executable>
rbdock ($Id: //depot/dev/client3/rdock/2013.1/src/exe/rbdock.cxx#4 $)

>  <Rbt.Library>
libRbt.so (2013.1, Build901 2013/11/27)

>  <Rbt.Parameter_File>
/export/apps/rDock/src/rDock_2013.1_src/data/scripts/dock_solv.prm

>  <Rbt.Receptor>
prm/pocket_docking_5.prm

>  <SCORE>
-45.5112

>  <SCORE.INTER>
-44.2356

>  <SCORE.INTER.CONST>
1

>  <SCORE.INTER.POLAR>
-4.03768

>  <SCORE.INTER.ROT>
3

>  <SCORE.INTER.SOLV>
9.4573

>  <SCORE.INTER.VDW>
-24.7839

>  <SCORE.INTER.norm>
-3.40274

>  <SCORE.INTRA>
-1.27557

>  <SCORE.INTRA.DIHEDRAL>
-2.38205

>  <SCORE.INTRA.DIHEDRAL.0>
4.88905

>  <SCORE.INTRA.POLAR>
0

>  <SCORE.INTRA.POLAR.0>
0

>  <SCORE.INTRA.REPUL>
0

>  <SCORE.INTRA.REPUL.0>
0

>  <SCORE.INTRA.SOLV>
-0.395834

>  <SCORE.INTRA.SOLV.lig_0>
-15.1033

>  <SCORE.INTRA.VDW>
0.11337

>  <SCORE.INTRA.VDW.0>
-0.755285

>  <SCORE.INTRA.norm>
-0.0981211

>  <SCORE.RESTR>
0

>  <SCORE.RESTR.CAVITY>
0

>  <SCORE.RESTR.norm>
0

>  <SCORE.SYSTEM>
0

>  <SCORE.SYSTEM.CONST>
0

>  <SCORE.SYSTEM.DIHEDRAL>
0

>  <SCORE.SYSTEM.SOLV>
0

>  <SCORE.SYSTEM.norm>
0

>  <SCORE.heavy>
13

>  <SCORE.norm>
-3.50086

>  <RMSD>
0.705

$$$$
ligand
 OpenBabel11021811513D
libRbt.so/2013.1/901 2013/11/27
 13 14  0  0  0  0  0  0  0  0999 V2000
   34.5690   29.7483  108.1080 N   0  0  0  0  0  0  0  0  0  0  0  0
   34.3533   30.9361  108.8441 C   0  0  0  0  0  0  0  0  0  0  0  0
   35.4843   31.6496  109.3809 N   0  0  0  0  0  0  0  0  0  0  0  0
   33.0906   31.4250  109.0608 N   0  0  0  0  0  0  0  0  0  0  0  0
   31.9575   30.7701  108.5611 C   0  0  0  0  0  0  0  0  0  0  0  0
   32.1316   29.5569  107.8062 C   0  0  0  0  0  0  0  0  0  0  0  0
   33.4887   29.0545  107.5886 C   0  0  0  0  0  0  0  0  0  0  0  0
   33.6946   27.8986  106.8726 O   0  0  0  0  0  0  0  0  0  0  0  0
   30.7989   29.1172  107.4318 C   0  0  0  0  0  0  0  0  0  0  0  0
   29.9061   30.0552  107.9517 C   0  0  0  0  0  0  0  0  0  0  0  0
   30.6016   31.0345  108.6249 N   0  0  0  0  0  0  0  0  0  0  0  0
   30.4549   27.8981  106.6297 C   0  0  0  0  0  0  0  0  0  0  0  0
   29.0671   27.5450  106.8653 N   0  0  0  0  0  0  0  0  0  0  0  0
  1  2  1  0  0  0  0
  1  7  1  0  0  0  0
  2  3  1  0  0  0  0
  2  4  2  0  0  0  0
  4  5  1  0  0  0  0
  5  6  2  0  0  0  0
  5 11  1  0  0  0  0
  6  7  1  0  0  0  0
  6  9  1  0  0  0  0
  7  8  2  0  0  0  0
  9 10  2  0  0  0  0
  9 12  1  0  0  0  0
 10 11  1  0  0  0  0
 12 13  1  0  0  0  0
M  END
>  <CHROM.1>
11.06130384,159.93366240,-154.83640715,32.31037742,29.71955153,107.97007405
-0.58939966,0.03963551,-2.60110890

>  <Name>
ligand

>  <RI>
1.35221e+07

>  <Rbt.Current_Directory>
/home/itssahil/PROJECTS/Mol_Feturizer/New_Systems/rnas/4RZD

>  <Rbt.Executable>
rbdock ($Id: //depot/dev/client3/rdock/2013.1/src/exe/rbdock.cxx#4 $)

>  <Rbt.Library>
libRbt.so (2013.1, Build901 2013/11/27)

>  <Rbt.Parameter_File>
/export/apps/rDock/src/rDock_2013.1_src/data/scripts/dock_solv.prm

>  <Rbt.Receptor>
prm/pocket_docking_5.prm

>  <SCORE>
-46.4523

>  <SCORE.INTER>
-45.6816

>  <SCORE.INTER.CONST>
1

>  <SCORE.INTER.POLAR>
-4.89414

>  <SCORE.INTER.ROT>
3

>  <SCORE.INTER.SOLV>
12.2958

>  <SCORE.INTER.VDW>
-23.8392

>  <SCORE.INTER.norm>
-3.51397

>  <SCORE.INTRA>
-0.770728

>  <SCORE.INTRA.DIHEDRAL>
-1.53235

>  <SCORE.INTRA.DIHEDRAL.0>
4.88905

>  <SCORE.INTRA.POLAR>
0

>  <SCORE.INTRA.POLAR.0>
0

>  <SCORE.INTRA.REPUL>
0

>  <SCORE.INTRA.REPUL.0>
0

>  <SCORE.INTRA.SOLV>
-0.701513

>  <SCORE.INTRA.SOLV.lig_0>
-15.1033

>  <SCORE.INTRA.VDW>
0.346201

>  <SCORE.INTRA.VDW.0>
-0.755285

>  <SCORE.INTRA.norm>
-0.0592868

>  <SCORE.RESTR>
0

>  <SCORE.RESTR.CAVITY>
0

>  <SCORE.RESTR.norm>
0

>  <SCORE.SYSTEM>
0

>  <SCORE.SYSTEM.CONST>
0

>  <SCORE.SYSTEM.DIHEDRAL>
0

>  <SCORE.SYSTEM.SOLV>
0

>  <SCORE.SYSTEM.norm>
0

>  <SCORE.heavy>
13

>  <SCORE.norm>
-3.57326

>  <RMSD>
0.712

$$$$
ligand
 OpenBabel11021811513D
libRbt.so/2013.1/901 2013/11/27
 13 14  0  0  0  0  0  0  0  0999 V2000
   34.5523   29.7437  108.1362 N   0  0  0  0  0  0  0  0  0  0  0  0
   34.3306   30.9283  108.8757 C   0  0  0  0  0  0  0  0  0  0  0  0
   35.4566   31.6358  109.4306 N   0  0  0  0  0  0  0  0  0  0  0  0
   33.0666   31.4196  109.0789 N   0  0  0  0  0  0  0  0  0  0  0  0
   31.9381   30.7705  108.5614 C   0  0  0  0  0  0  0  0  0  0  0  0
   32.1184   29.5608  107.8024 C   0  0  0  0  0  0  0  0  0  0  0  0
   33.4769   29.0557  107.5994 C   0  0  0  0  0  0  0  0  0  0  0  0
   33.6886   27.9030  106.8800 O   0  0  0  0  0  0  0  0  0  0  0  0
   30.7894   29.1269  107.4088 C   0  0  0  0  0  0  0  0  0  0  0  0
   29.8927   30.0647  107.9222 C   0  0  0  0  0  0  0  0  0  0  0  0
   30.5822   31.0384  108.6094 N   0  0  0  0  0  0  0  0  0  0  0  0
   30.4523   27.9129  106.5960 C   0  0  0  0  0  0  0  0  0  0  0  0
   29.0938   27.4983  106.8942 N   0  0  0  0  0  0  0  0  0  0  0  0
  1  2  1  0  0  0  0
  1  7  1  0  0  0  0
  2  3  1  0  0  0  0
  2  4  2  0  0  0  0
  4  5  1  0  0  0  0
  5  6  2  0  0  0  0
  5 11  1  0  0  0  0
  6  7  1  0  0  0  0
  6  9  1  0  0  0  0
  7  8  2  0  0  0  0
  9 10  2  0  0  0  0
  9 12  1  0  0  0  0
 10 11  1  0  0  0  0
 12 13  1  0  0  0  0
M  END
>  <CHROM.1>
10.08262589,155.35435541,-156.15885142,32.29838347,29.71633414,107.97696382
-0.59633959,0.04692866,-2.60140116

>  <Name>
ligand

>  <RI>
2.73617e+07

>  <Rbt.Current_Directory>
/home/itssahil/PROJECTS/Mol_Feturizer/New_Systems/rnas/4RZD

>  <Rbt.Executable>
rbdock ($Id: //depot/dev/client3/rdock/2013.1/src/exe/rbdock.cxx#4 $)

>  <Rbt.Library>
libRbt.so (2013.1, Build901 2013/11/27)

>  <Rbt.Parameter_File>
/export/apps/rDock/src/rDock_2013.1_src/data/scripts/dock_solv.prm

>  <Rbt.Receptor>
prm/pocket_docking_6.prm

>  <SCORE>
-46.4507

>  <SCORE.INTER>
-45.6227

>  <SCORE.INTER.CONST>
1

>  <SCORE.INTER.POLAR>
-4.88459

>  <SCORE.INTER.ROT>
3

>  <SCORE.INTER.SOLV>
12.2461

>  <SCORE.INTER.VDW>
-23.8152

>  <SCORE.INTER.norm>
-3.50944

>  <SCORE.INTRA>
-0.828013

>  <SCORE.INTRA.DIHEDRAL>
-1.61475

>  <SCORE.INTRA.DIHEDRAL.0>
4.88905

>  <SCORE.INTRA.POLAR>
0

>  <SCORE.INTRA.POLAR.0>
0

>  <SCORE.INTRA.REPUL>
0

>  <SCORE.INTRA.REPUL.0>
0

>  <SCORE.INTRA.SOLV>
-0.701614

>  <SCORE.INTRA.SOLV.lig_0>
-15.1033

>  <SCORE.INTRA.VDW>
0.330167

>  <SCORE.INTRA.VDW.0>
-0.755285

>  <SCORE.INTRA.norm>
-0.0636933

>  <SCORE.RESTR>
0

>  <SCORE.RESTR.CAVITY>
0

>  <SCORE.RESTR.norm>
0

>  <SCORE.SYSTEM>
0

>  <SCORE.SYSTEM.CONST>
0

>  <SCORE.SYSTEM.DIHEDRAL>
0

>  <SCORE.SYSTEM.SOLV>
0

>  <SCORE.SYSTEM.norm>
0

>  <SCORE.heavy>
13

>  <SCORE.norm>
-3.57313

>  <RMSD>
0.713

$$$$
ligand
 OpenBabel11021811513D
libRbt.so/2013.1/901 2013/11/27
 13 14  0  0  0  0  0  0  0  0999 V2000
   34.5548   29.7303  108.1813 N   0  0  0  0  0  0  0  0  0  0  0  0
   34.3303   30.9051  108.9353 C   0  0  0  0  0  0  0  0  0  0  0  0
   35.4538   31.6023  109.5080 N   0  0  0  0  0  0  0  0  0  0  0  0
   33.0660   31.3965  109.1361 N   0  0  0  0  0  0  0  0  0  0  0  0
   31.9398   30.7573  108.6016 C   0  0  0  0  0  0  0  0  0  0  0  0
   32.1230   29.5577  107.8274 C   0  0  0  0  0  0  0  0  0  0  0  0
   33.4817   29.0522  107.6274 C   0  0  0  0  0  0  0  0  0  0  0  0
   33.6962   27.9090  106.8938 O   0  0  0  0  0  0  0  0  0  0  0  0
   30.7959   29.1322  107.4182 C   0  0  0  0  0  0  0  0  0  0  0  0
   29.8976   30.0650  107.9379 C   0  0  0  0  0  0  0  0  0  0  0  0
   30.5842   31.0276  108.6434 N   0  0  0  0  0  0  0  0  0  0  0  0
   30.4620   27.9302  106.5865 C   0  0  0  0  0  0  0  0  0  0  0  0
   29.0868   27.5405  106.8374 N   0  0  0  0  0  0  0  0  0  0  0  0
  1  2  1  0  0  0  0
  1  7  1  0  0  0  0
  2  3  1  0  0  0  0
  2  4  2  0  0  0  0
  4  5  1  0  0  0  0
  5  6  2  0  0  0  0
  5 11  1  0  0  0  0
  6  7  1  0  0  0  0
  6  9  1  0  0  0  0
  7  8  2  0  0  0  0
  9 10  2  0  0  0  0
  9 12  1  0  0  0  0
 10 11  1  0  0  0  0
 12 13  1  0  0  0  0
M  END
>  <CHROM.1>
170.22787960,157.15633828,-154.72891208,32.30091247,29.71253716,108.00241184
-0.59697184,0.05707728,-2.58657526

>  <Name>
ligand

>  <RI>
2.73617e+07

>  <Rbt.Current_Directory>
/home/itssahil/PROJECTS/Mol_Feturizer/New_Systems/rnas/4RZD

>  <Rbt.Executable>
rbdock ($Id: //depot/dev/client3/rdock/2013.1/src/exe/rbdock.cxx#4 $)

>  <Rbt.Library>
libRbt.so (2013.1, Build901 2013/11/27)

>  <Rbt.Parameter_File>
/export/apps/rDock/src/rDock_2013.1_src/data/scripts/dock_solv.prm

>  <Rbt.Receptor>
prm/pocket_docking_6.prm

>  <SCORE>
-46.5498

>  <SCORE.INTER>
-45.7708

>  <SCORE.INTER.CONST>
1

>  <SCORE.INTER.POLAR>
-4.86681

>  <SCORE.INTER.ROT>
3

>  <SCORE.INTER.SOLV>
12.3944

>  <SCORE.INTER.VDW>
-24.0226

>  <SCORE.INTER.norm>
-3.52083

>  <SCORE.INTRA>
-0.77895

>  <SCORE.INTRA.DIHEDRAL>
-1.52761

>  <SCORE.INTRA.DIHEDRAL.0>
4.88905

>  <SCORE.INTRA.POLAR>
0

>  <SCORE.INTRA.POLAR.0>
0

>  <SCORE.INTRA.REPUL>
0

>  <SCORE.INTRA.REPUL.0>
0

>  <SCORE.INTRA.SOLV>
-0.701571

>  <SCORE.INTRA.SOLV.lig_0>
-15.1033

>  <SCORE.INTRA.VDW>
0.335642

>  <SCORE.INTRA.VDW.0>
-0.755285

>  <SCORE.INTRA.norm>
-0.0599192

>  <SCORE.RESTR>
0

>  <SCORE.RESTR.CAVITY>
0

>  <SCORE.RESTR.norm>
0

>  <SCORE.SYSTEM>
0

>  <SCORE.SYSTEM.CONST>
0

>  <SCORE.SYSTEM.DIHEDRAL>
0

>  <SCORE.SYSTEM.SOLV>
0

>  <SCORE.SYSTEM.norm>
0

>  <SCORE.heavy>
13

>  <SCORE.norm>
-3.58075

>  <RMSD>
0.715

$$$$
ligand
 OpenBabel11021811513D
libRbt.so/2013.1/901 2013/11/27
 13 14  0  0  0  0  0  0  0  0999 V2000
   34.5384   29.7337  108.1964 N   0  0  0  0  0  0  0  0  0  0  0  0
   34.3153   30.8978  108.9674 C   0  0  0  0  0  0  0  0  0  0  0  0
   35.4394   31.5833  109.5530 N   0  0  0  0  0  0  0  0  0  0  0  0
   33.0519   31.3895  109.1726 N   0  0  0  0  0  0  0  0  0  0  0  0
   31.9252   30.7614  108.6261 C   0  0  0  0  0  0  0  0  0  0  0  0
   32.1070   29.5730  107.8345 C   0  0  0  0  0  0  0  0  0  0  0  0
   33.4648   29.0669  107.6300 C   0  0  0  0  0  0  0  0  0  0  0  0
   33.6779   27.9341  106.8799 O   0  0  0  0  0  0  0  0  0  0  0  0
   30.7797   29.1573  107.4160 C   0  0  0  0  0  0  0  0  0  0  0  0
   29.8827   30.0846  107.9476 C   0  0  0  0  0  0  0  0  0  0  0  0
   30.5703   31.0348  108.6689 N   0  0  0  0  0  0  0  0  0  0  0  0
   30.4445   27.9688  106.5656 C   0  0  0  0  0  0  0  0  0  0  0  0
   29.2730   27.3060  107.1084 N   0  0  0  0  0  0  0  0  0  0  0  0
  1  2  1  0  0  0  0
  1  7  1  0  0  0  0
  2  3  1  0  0  0  0
  2  4  2  0  0  0  0
  4  5  1  0  0  0  0
  5  6  2  0  0  0  0
  5 11  1  0  0  0  0
  6  7  1  0  0  0  0
  6  9  1  0  0  0  0
  7  8  2  0  0  0  0
  9 10  2  0  0  0  0
  9 12  1  0  0  0  0
 10 11  1  0  0  0  0
 12 13  1  0  0  0  0
M  END
>  <CHROM.1>
171.58906750,138.02767697,-132.69409643,32.30388727,29.69820421,108.04054101
-0.61508407,0.04333441,-2.59733194

>  <Name>
ligand

>  <RI>
1.0531e+07

>  <Rbt.Current_Directory>
/home/itssahil/PROJECTS/Mol_Feturizer/New_Systems/rnas/4RZD

>  <Rbt.Executable>
rbdock ($Id: //depot/dev/client3/rdock/2013.1/src/exe/rbdock.cxx#4 $)

>  <Rbt.Library>
libRbt.so (2013.1, Build901 2013/11/27)

>  <Rbt.Parameter_File>
/export/apps/rDock/src/rDock_2013.1_src/data/scripts/dock_solv.prm

>  <Rbt.Receptor>
prm/pocket_docking_8.prm

>  <SCORE>
-46.6248

>  <SCORE.INTER>
-46.3558

>  <SCORE.INTER.CONST>
1

>  <SCORE.INTER.POLAR>
-4.94586

>  <SCORE.INTER.ROT>
3

>  <SCORE.INTER.SOLV>
11.6924

>  <SCORE.INTER.VDW>
-23.9151

>  <SCORE.INTER.norm>
-3.56583

>  <SCORE.INTRA>
-0.268989

>  <SCORE.INTRA.DIHEDRAL>
-0.286156

>  <SCORE.INTRA.DIHEDRAL.0>
4.88905

>  <SCORE.INTRA.POLAR>
0

>  <SCORE.INTRA.POLAR.0>
0

>  <SCORE.INTRA.REPUL>
0

>  <SCORE.INTRA.REPUL.0>
0

>  <SCORE.INTRA.SOLV>
-0.707705

>  <SCORE.INTRA.SOLV.lig_0>
-15.1033

>  <SCORE.INTRA.VDW>
0.227941

>  <SCORE.INTRA.VDW.0>
-0.755285

>  <SCORE.INTRA.norm>
-0.0206915

>  <SCORE.RESTR>
0

>  <SCORE.RESTR.CAVITY>
0

>  <SCORE.RESTR.norm>
0

>  <SCORE.SYSTEM>
0

>  <SCORE.SYSTEM.CONST>
0

>  <SCORE.SYSTEM.DIHEDRAL>
0

>  <SCORE.SYSTEM.SOLV>
0

>  <SCORE.SYSTEM.norm>
0

>  <SCORE.heavy>
13

>  <SCORE.norm>
-3.58652

>  <RMSD>
0.716

$$$$
ligand
 OpenBabel11021811513D
libRbt.so/2013.1/901 2013/11/27
 13 14  0  0  0  0  0  0  0  0999 V2000
   34.2339   29.6332  108.0647 N   0  0  0  0  0  0  0  0  0  0  0  0
   34.1474   30.8367  108.8018 C   0  0  0  0  0  0  0  0  0  0  0  0
   35.3556   31.4647  109.2732 N   0  0  0  0  0  0  0  0  0  0  0  0
   32.9383   31.4204  109.0806 N   0  0  0  0  0  0  0  0  0  0  0  0
   31.7343   30.8512  108.6460 C   0  0  0  0  0  0  0  0  0  0  0  0
   31.7765   29.6255  107.8924 C   0  0  0  0  0  0  0  0  0  0  0  0
   33.0786   29.0212  107.6079 C   0  0  0  0  0  0  0  0  0  0  0  0
   33.1588   27.8503  106.8910 O   0  0  0  0  0  0  0  0  0  0  0  0
   30.3966   29.2863  107.5917 C   0  0  0  0  0  0  0  0  0  0  0  0
   29.6057   30.2911  108.1503 C   0  0  0  0  0  0  0  0  0  0  0  0
   30.4074   31.2175  108.7787 N   0  0  0  0  0  0  0  0  0  0  0  0
   29.9200   28.0937  106.8182 C   0  0  0  0  0  0  0  0  0  0  0  0
   29.6971   26.9878  107.7312 N   0  0  0  0  0  0  0  0  0  0  0  0
  1  2  1  0  0  0  0
  1  7  1  0  0  0  0
  2  3  1  0  0  0  0
  2  4  2  0  0  0  0
  4  5  1  0  0  0  0
  5  6  2  0  0  0  0
  5 11  1  0  0  0  0
  6  7  1  0  0  0  0
  6  9  1  0  0  0  0
  7  8  2  0  0  0  0
  9 10  2  0  0  0  0
  9 12  1  0  0  0  0
 10 11  1  0  0  0  0
 12 13  1  0  0  0  0
M  END
>  <CHROM.1>
-7.43724836,89.78347923,110.22926813,32.08183062,29.69978391,108.10847823
-0.58988799,0.01014040,-2.68975156

>  <Name>
ligand

>  <RI>
1.38753e+07

>  <Rbt.Current_Directory>
/home/itssahil/PROJECTS/Mol_Feturizer/New_Systems/rnas/4RZD

>  <Rbt.Executable>
rbdock ($Id: //depot/dev/client3/rdock/2013.1/src/exe/rbdock.cxx#4 $)

>  <Rbt.Library>
libRbt.so (2013.1, Build901 2013/11/27)

>  <Rbt.Parameter_File>
/export/apps/rDock/src/rDock_2013.1_src/data/scripts/dock_solv.prm

>  <Rbt.Receptor>
prm/pocket_docking_7.prm

>  <SCORE>
-47.732

>  <SCORE.INTER>
-47.9105

>  <SCORE.INTER.CONST>
1

>  <SCORE.INTER.POLAR>
-4.8809

>  <SCORE.INTER.ROT>
3

>  <SCORE.INTER.SOLV>
9.79836

>  <SCORE.INTER.VDW>
-24.5368

>  <SCORE.INTER.norm>
-3.68542

>  <SCORE.INTRA>
0.178469

>  <SCORE.INTRA.DIHEDRAL>
-0.130968

>  <SCORE.INTRA.DIHEDRAL.0>
4.88905

>  <SCORE.INTRA.POLAR>
0

>  <SCORE.INTRA.POLAR.0>
0

>  <SCORE.INTRA.REPUL>
0

>  <SCORE.INTRA.REPUL.0>
0

>  <SCORE.INTRA.SOLV>
-0.459215

>  <SCORE.INTRA.SOLV.lig_0>
-15.1033

>  <SCORE.INTRA.VDW>
0.473561

>  <SCORE.INTRA.VDW.0>
-0.755285

>  <SCORE.INTRA.norm>
0.0137284

>  <SCORE.RESTR>
0

>  <SCORE.RESTR.CAVITY>
0

>  <SCORE.RESTR.norm>
0

>  <SCORE.SYSTEM>
0

>  <SCORE.SYSTEM.CONST>
0

>  <SCORE.SYSTEM.DIHEDRAL>
0

>  <SCORE.SYSTEM.SOLV>
0

>  <SCORE.SYSTEM.norm>
0

>  <SCORE.heavy>
13

>  <SCORE.norm>
-3.67169

>  <RMSD>
0.718

$$$$
ligand
 OpenBabel11021811513D
libRbt.so/2013.1/901 2013/11/27
 13 14  0  0  0  0  0  0  0  0999 V2000
   34.2352   29.6261  108.0904 N   0  0  0  0  0  0  0  0  0  0  0  0
   34.1465   30.8330  108.8217 C   0  0  0  0  0  0  0  0  0  0  0  0
   35.3530   31.4613  109.2969 N   0  0  0  0  0  0  0  0  0  0  0  0
   32.9367   31.4196  109.0912 N   0  0  0  0  0  0  0  0  0  0  0  0
   31.7343   30.8502  108.6526 C   0  0  0  0  0  0  0  0  0  0  0  0
   31.7788   29.6212  107.9047 C   0  0  0  0  0  0  0  0  0  0  0  0
   33.0815   29.0137  107.6301 C   0  0  0  0  0  0  0  0  0  0  0  0
   33.1639   27.8395  106.9189 O   0  0  0  0  0  0  0  0  0  0  0  0
   30.4000   29.2827  107.5980 C   0  0  0  0  0  0  0  0  0  0  0  0
   29.6075   30.2910  108.1478 C   0  0  0  0  0  0  0  0  0  0  0  0
   30.4072   31.2191  108.7764 N   0  0  0  0  0  0  0  0  0  0  0  0
   29.9259   28.0872  106.8272 C   0  0  0  0  0  0  0  0  0  0  0  0
   29.6917   26.9873  107.7446 N   0  0  0  0  0  0  0  0  0  0  0  0
  1  2  1  0  0  0  0
  1  7  1  0  0  0  0
  2  3  1  0  0  0  0
  2  4  2  0  0  0  0
  4  5  1  0  0  0  0
  5  6  2  0  0  0  0
  5 11  1  0  0  0  0
  6  7  1  0  0  0  0
  6  9  1  0  0  0  0
  7  8  2  0  0  0  0
  9 10  2  0  0  0  0
  9 12  1  0  0  0  0
 10 11  1  0  0  0  0
 12 13  1  0  0  0  0
M  END
>  <CHROM.1>
173.05105788,89.99468804,111.73375644,32.08251568,29.69602770,108.12210614
-0.59051805,0.01550090,-2.69397210

>  <Name>
ligand

>  <RI>
1.0531e+07

>  <Rbt.Current_Directory>
/home/itssahil/PROJECTS/Mol_Feturizer/New_Systems/rnas/4RZD

>  <Rbt.Executable>
rbdock ($Id: //depot/dev/client3/rdock/2013.1/src/exe/rbdock.cxx#4 $)

>  <Rbt.Library>
libRbt.so (2013.1, Build901 2013/11/27)

>  <Rbt.Parameter_File>
/export/apps/rDock/src/rDock_2013.1_src/data/scripts/dock_solv.prm

>  <Rbt.Receptor>
prm/pocket_docking_8.prm

>  <SCORE>
-47.7431

>  <SCORE.INTER>
-47.9501

>  <SCORE.INTER.CONST>
1

>  <SCORE.INTER.POLAR>
-4.88359

>  <SCORE.INTER.ROT>
3

>  <SCORE.INTER.SOLV>
9.78918

>  <SCORE.INTER.VDW>
-24.5511

>  <SCORE.INTER.norm>
-3.68847

>  <SCORE.INTRA>
0.207019

>  <SCORE.INTRA.DIHEDRAL>
-0.0882388

>  <SCORE.INTRA.DIHEDRAL.0>
4.88905

>  <SCORE.INTRA.POLAR>
0

>  <SCORE.INTRA.POLAR.0>
0

>  <SCORE.INTRA.REPUL>
0

>  <SCORE.INTRA.REPUL.0>
0

>  <SCORE.INTRA.SOLV>
-0.464277

>  <SCORE.INTRA.SOLV.lig_0>
-15.1033

>  <SCORE.INTRA.VDW>
0.483277

>  <SCORE.INTRA.VDW.0>
-0.755285

>  <SCORE.INTRA.norm>
0.0159245

>  <SCORE.RESTR>
0

>  <SCORE.RESTR.CAVITY>
0

>  <SCORE.RESTR.norm>
0

>  <SCORE.SYSTEM>
0

>  <SCORE.SYSTEM.CONST>
0

>  <SCORE.SYSTEM.DIHEDRAL>
0

>  <SCORE.SYSTEM.SOLV>
0

>  <SCORE.SYSTEM.norm>
0

>  <SCORE.heavy>
13

>  <SCORE.norm>
-3.67254

>  <RMSD>
0.718

$$$$
ligand
 OpenBabel11021811513D
libRbt.so/2013.1/901 2013/11/27
 13 14  0  0  0  0  0  0  0  0999 V2000
   34.2384   29.6361  108.0838 N   0  0  0  0  0  0  0  0  0  0  0  0
   34.1491   30.8452  108.8113 C   0  0  0  0  0  0  0  0  0  0  0  0
   35.3555   31.4770  109.2824 N   0  0  0  0  0  0  0  0  0  0  0  0
   32.9389   31.4309  109.0810 N   0  0  0  0  0  0  0  0  0  0  0  0
   31.7366   30.8582  108.6462 C   0  0  0  0  0  0  0  0  0  0  0  0
   31.7817   29.6268  107.9022 C   0  0  0  0  0  0  0  0  0  0  0  0
   33.0849   29.0204  107.6274 C   0  0  0  0  0  0  0  0  0  0  0  0
   33.1679   27.8441  106.9198 O   0  0  0  0  0  0  0  0  0  0  0  0
   30.4030   29.2852  107.5989 C   0  0  0  0  0  0  0  0  0  0  0  0
   29.6099   30.2941  108.1468 C   0  0  0  0  0  0  0  0  0  0  0  0
   30.4091   31.2254  108.7711 N   0  0  0  0  0  0  0  0  0  0  0  0
   29.9294   28.0865  106.8328 C   0  0  0  0  0  0  0  0  0  0  0  0
   29.6931   26.9909  107.7548 N   0  0  0  0  0  0  0  0  0  0  0  0
  1  2  1  0  0  0  0
  1  7  1  0  0  0  0
  2  3  1  0  0  0  0
  2  4  2  0  0  0  0
  4  5  1  0  0  0  0
  5  6  2  0  0  0  0
  5 11  1  0  0  0  0
  6  7  1  0  0  0  0
  6  9  1  0  0  0  0
  7  8  2  0  0  0  0
  9 10  2  0  0  0  0
  9 12  1  0  0  0  0
 10 11  1  0  0  0  0
 12 13  1  0  0  0  0
M  END
>  <CHROM.1>
173.36711765,90.23168124,111.94172576,32.08520592,29.70298800,108.11889383
-0.59075635,0.01312472,-2.69700694

>  <Name>
ligand

>  <RI>
1.99388e+07

>  <Rbt.Current_Directory>
/home/itssahil/PROJECTS/Mol_Feturizer/New_Systems/rnas/4RZD

>  <Rbt.Executable>
rbdock ($Id: //depot/dev/client3/rdock/2013.1/src/exe/rbdock.cxx#4 $)

>  <Rbt.Library>
libRbt.so (2013.1, Build901 2013/11/27)

>  <Rbt.Parameter_File>
/export/apps/rDock/src/rDock_2013.1_src/data/scripts/dock_solv.prm

>  <Rbt.Receptor>
prm/pocket_docking_2.prm

>  <SCORE>
-47.7442

>  <SCORE.INTER>
-47.9543

>  <SCORE.INTER.CONST>
1

>  <SCORE.INTER.POLAR>
-4.88684

>  <SCORE.INTER.ROT>
3

>  <SCORE.INTER.SOLV>
9.78777

>  <SCORE.INTER.VDW>
-24.5426

>  <SCORE.INTER.norm>
-3.68879

>  <SCORE.INTRA>
0.210013

>  <SCORE.INTRA.DIHEDRAL>
-0.082855

>  <SCORE.INTRA.DIHEDRAL.0>
4.88905

>  <SCORE.INTRA.POLAR>
0

>  <SCORE.INTRA.POLAR.0>
0

>  <SCORE.INTRA.REPUL>
0

>  <SCORE.INTRA.REPUL.0>
0

>  <SCORE.INTRA.SOLV>
-0.467668

>  <SCORE.INTRA.SOLV.lig_0>
-15.1033

>  <SCORE.INTRA.VDW>
0.485275

>  <SCORE.INTRA.VDW.0>
-0.755285

>  <SCORE.INTRA.norm>
0.0161549

>  <SCORE.RESTR>
0

>  <SCORE.RESTR.CAVITY>
0

>  <SCORE.RESTR.norm>
0

>  <SCORE.SYSTEM>
0

>  <SCORE.SYSTEM.CONST>
0

>  <SCORE.SYSTEM.DIHEDRAL>
0

>  <SCORE.SYSTEM.SOLV>
0

>  <SCORE.SYSTEM.norm>
0

>  <SCORE.heavy>
13

>  <SCORE.norm>
-3.67263

>  <RMSD>
0.720

$$$$
ligand
 OpenBabel11021811513D
libRbt.so/2013.1/901 2013/11/27
 13 14  0  0  0  0  0  0  0  0999 V2000
   34.2346   29.6343  108.0645 N   0  0  0  0  0  0  0  0  0  0  0  0
   34.1510   30.8351  108.8062 C   0  0  0  0  0  0  0  0  0  0  0  0
   35.3605   31.4576  109.2814 N   0  0  0  0  0  0  0  0  0  0  0  0
   32.9433   31.4214  109.0857 N   0  0  0  0  0  0  0  0  0  0  0  0
   31.7381   30.8576  108.6475 C   0  0  0  0  0  0  0  0  0  0  0  0
   31.7775   29.6347  107.8892 C   0  0  0  0  0  0  0  0  0  0  0  0
   33.0781   29.0275  107.6039 C   0  0  0  0  0  0  0  0  0  0  0  0
   33.1555   27.8592  106.8826 O   0  0  0  0  0  0  0  0  0  0  0  0
   30.3969   29.3009  107.5855 C   0  0  0  0  0  0  0  0  0  0  0  0
   29.6084   30.3059  108.1471 C   0  0  0  0  0  0  0  0  0  0  0  0
   30.4121   31.2275  108.7800 N   0  0  0  0  0  0  0  0  0  0  0  0
   29.9176   28.1127  106.8068 C   0  0  0  0  0  0  0  0  0  0  0  0
   29.7013   27.0006  107.7138 N   0  0  0  0  0  0  0  0  0  0  0  0
  1  2  1  0  0  0  0
  1  7  1  0  0  0  0
  2  3  1  0  0  0  0
  2  4  2  0  0  0  0
  4  5  1  0  0  0  0
  5  6  2  0  0  0  0
  5 11  1  0  0  0  0
  6  7  1  0  0  0  0
  6  9  1  0  0  0  0
  7  8  2  0  0  0  0
  9 10  2  0  0  0  0
  9 12  1  0  0  0  0
 10 11  1  0  0  0  0
 12 13  1  0  0  0  0
M  END
>  <CHROM.1>
-8.50676383,89.29698400,-128.95039193,32.08430204,29.70147648,108.09930468
-0.59788559,0.01550834,-2.68753694

>  <Name>
ligand

>  <RI>
1.35221e+07

>  <Rbt.Current_Directory>
/home/itssahil/PROJECTS/Mol_Feturizer/New_Systems/rnas/4RZD

>  <Rbt.Executable>
rbdock ($Id: //depot/dev/client3/rdock/2013.1/src/exe/rbdock.cxx#4 $)

>  <Rbt.Library>
libRbt.so (2013.1, Build901 2013/11/27)

>  <Rbt.Parameter_File>
/export/apps/rDock/src/rDock_2013.1_src/data/scripts/dock_solv.prm

>  <Rbt.Receptor>
prm/pocket_docking_5.prm

>  <SCORE>
-48.0138

>  <SCORE.INTER>
-47.8118

>  <SCORE.INTER.CONST>
1

>  <SCORE.INTER.POLAR>
-4.88491

>  <SCORE.INTER.ROT>
3

>  <SCORE.INTER.SOLV>
9.7743

>  <SCORE.INTER.VDW>
-24.4496

>  <SCORE.INTER.norm>
-3.67783

>  <SCORE.INTRA>
-0.20202

>  <SCORE.INTRA.DIHEDRAL>
-0.106879

>  <SCORE.INTRA.DIHEDRAL.0>
4.88905

>  <SCORE.INTRA.POLAR>
0

>  <SCORE.INTRA.POLAR.0>
0

>  <SCORE.INTRA.REPUL>
0

>  <SCORE.INTRA.REPUL.0>
0

>  <SCORE.INTRA.SOLV>
-0.451564

>  <SCORE.INTRA.SOLV.lig_0>
-15.1033

>  <SCORE.INTRA.VDW>
0.0772016

>  <SCORE.INTRA.VDW.0>
-0.755285

>  <SCORE.INTRA.norm>
-0.01554

>  <SCORE.RESTR>
0

>  <SCORE.RESTR.CAVITY>
0

>  <SCORE.RESTR.norm>
0

>  <SCORE.SYSTEM>
0

>  <SCORE.SYSTEM.CONST>
0

>  <SCORE.SYSTEM.DIHEDRAL>
0

>  <SCORE.SYSTEM.SOLV>
0

>  <SCORE.SYSTEM.norm>
0

>  <SCORE.heavy>
13

>  <SCORE.norm>
-3.69337

>  <RMSD>
0.720

$$$$
ligand
 OpenBabel11021811513D
libRbt.so/2013.1/901 2013/11/27
 13 14  0  0  0  0  0  0  0  0999 V2000
   34.2330   29.6183  108.1085 N   0  0  0  0  0  0  0  0  0  0  0  0
   34.1480   30.8222  108.8450 C   0  0  0  0  0  0  0  0  0  0  0  0
   35.3558   31.4404  109.3300 N   0  0  0  0  0  0  0  0  0  0  0  0
   32.9405   31.4155  109.1105 N   0  0  0  0  0  0  0  0  0  0  0  0
   31.7369   30.8560  108.6624 C   0  0  0  0  0  0  0  0  0  0  0  0
   31.7777   29.6303  107.9089 C   0  0  0  0  0  0  0  0  0  0  0  0
   33.0780   29.0156  107.6387 C   0  0  0  0  0  0  0  0  0  0  0  0
   33.1568   27.8443  106.9223 O   0  0  0  0  0  0  0  0  0  0  0  0
   30.3985   29.3022  107.5928 C   0  0  0  0  0  0  0  0  0  0  0  0
   29.6095   30.3131  108.1429 C   0  0  0  0  0  0  0  0  0  0  0  0
   30.4116   31.2330  108.7805 N   0  0  0  0  0  0  0  0  0  0  0  0
   29.9210   28.1136  106.8136 C   0  0  0  0  0  0  0  0  0  0  0  0
   29.7029   27.0019  107.7206 N   0  0  0  0  0  0  0  0  0  0  0  0
  1  2  1  0  0  0  0
  1  7  1  0  0  0  0
  2  3  1  0  0  0  0
  2  4  2  0  0  0  0
  4  5  1  0  0  0  0
  5  6  2  0  0  0  0
  5 11  1  0  0  0  0
  6  7  1  0  0  0  0
  6  9  1  0  0  0  0
  7  8  2  0  0  0  0
  9 10  2  0  0  0  0
  9 12  1  0  0  0  0
 10 11  1  0  0  0  0
 12 13  1  0  0  0  0
M  END
>  <CHROM.1>
-9.72235909,88.73646886,-129.92266161,32.08384232,29.69592822,108.12167186
-0.59867716,0.02694538,-2.69146115

>  <Name>
ligand

>  <RI>
1.38753e+07

>  <Rbt.Current_Directory>
/home/itssahil/PROJECTS/Mol_Feturizer/New_Systems/rnas/4RZD

>  <Rbt.Executable>
rbdock ($Id: //depot/dev/client3/rdock/2013.1/src/exe/rbdock.cxx#4 $)

>  <Rbt.Library>
libRbt.so (2013.1, Build901 2013/11/27)

>  <Rbt.Parameter_File>
/export/apps/rDock/src/rDock_2013.1_src/data/scripts/dock_solv.prm

>  <Rbt.Receptor>
prm/pocket_docking_7.prm

>  <SCORE>
-47.9468

>  <SCORE.INTER>
-47.7316

>  <SCORE.INTER.CONST>
1

>  <SCORE.INTER.POLAR>
-4.88722

>  <SCORE.INTER.ROT>
3

>  <SCORE.INTER.SOLV>
9.75999

>  <SCORE.INTER.VDW>
-24.3837

>  <SCORE.INTER.norm>
-3.67166

>  <SCORE.INTRA>
-0.215236

>  <SCORE.INTRA.DIHEDRAL>
-0.135742

>  <SCORE.INTRA.DIHEDRAL.0>
4.88905

>  <SCORE.INTRA.POLAR>
0

>  <SCORE.INTRA.POLAR.0>
0

>  <SCORE.INTRA.REPUL>
0

>  <SCORE.INTRA.REPUL.0>
0

>  <SCORE.INTRA.SOLV>
-0.446266

>  <SCORE.INTRA.SOLV.lig_0>
-15.1033

>  <SCORE.INTRA.VDW>
0.0757677

>  <SCORE.INTRA.VDW.0>
-0.755285

>  <SCORE.INTRA.norm>
-0.0165566

>  <SCORE.RESTR>
0

>  <SCORE.RESTR.CAVITY>
0

>  <SCORE.RESTR.norm>
0

>  <SCORE.SYSTEM>
0

>  <SCORE.SYSTEM.CONST>
0

>  <SCORE.SYSTEM.DIHEDRAL>
0

>  <SCORE.SYSTEM.SOLV>
0

>  <SCORE.SYSTEM.norm>
0

>  <SCORE.heavy>
13

>  <SCORE.norm>
-3.68822

>  <RMSD>
0.720

$$$$
ligand
 OpenBabel11021811513D
libRbt.so/2013.1/901 2013/11/27
 13 14  0  0  0  0  0  0  0  0999 V2000
   34.2375   29.6386  108.0770 N   0  0  0  0  0  0  0  0  0  0  0  0
   34.1527   30.8409  108.8162 C   0  0  0  0  0  0  0  0  0  0  0  0
   35.3615   31.4636  109.2931 N   0  0  0  0  0  0  0  0  0  0  0  0
   32.9447   31.4284  109.0918 N   0  0  0  0  0  0  0  0  0  0  0  0
   31.7402   30.8644  108.6518 C   0  0  0  0  0  0  0  0  0  0  0  0
   31.7807   29.6400  107.8959 C   0  0  0  0  0  0  0  0  0  0  0  0
   33.0816   29.0316  107.6149 C   0  0  0  0  0  0  0  0  0  0  0  0
   33.1602   27.8618  106.8960 O   0  0  0  0  0  0  0  0  0  0  0  0
   30.4007   29.3064  107.5897 C   0  0  0  0  0  0  0  0  0  0  0  0
   29.6114   30.3129  108.1475 C   0  0  0  0  0  0  0  0  0  0  0  0
   30.4142   31.2352  108.7805 N   0  0  0  0  0  0  0  0  0  0  0  0
   29.9225   28.1170  106.8121 C   0  0  0  0  0  0  0  0  0  0  0  0
   29.7050   27.0063  107.7205 N   0  0  0  0  0  0  0  0  0  0  0  0
  1  2  1  0  0  0  0
  1  7  1  0  0  0  0
  2  3  1  0  0  0  0
  2  4  2  0  0  0  0
  4  5  1  0  0  0  0
  5  6  2  0  0  0  0
  5 11  1  0  0  0  0
  6  7  1  0  0  0  0
  6  9  1  0  0  0  0
  7  8  2  0  0  0  0
  9 10  2  0  0  0  0
  9 12  1  0  0  0  0
 10 11  1  0  0  0  0
 12 13  1  0  0  0  0
M  END
>  <CHROM.1>
170.97389655,89.23191397,109.53961171,32.08677109,29.71237435,108.11314052
-0.58907635,0.01540425,-2.68832178

>  <Name>
ligand

>  <RI>
2.51964e+07

>  <Rbt.Current_Directory>
/home/itssahil/PROJECTS/Mol_Feturizer/New_Systems/rnas/4RZD

>  <Rbt.Executable>
rbdock ($Id: //depot/dev/client3/rdock/2013.1/src/exe/rbdock.cxx#4 $)

>  <Rbt.Library>
libRbt.so (2013.1, Build901 2013/11/27)

>  <Rbt.Parameter_File>
/export/apps/rDock/src/rDock_2013.1_src/data/scripts/dock_solv.prm

>  <Rbt.Receptor>
prm/pocket_docking_4.prm

>  <SCORE>
-47.7295

>  <SCORE.INTER>
-47.8947

>  <SCORE.INTER.CONST>
1

>  <SCORE.INTER.POLAR>
-4.88606

>  <SCORE.INTER.ROT>
3

>  <SCORE.INTER.SOLV>
9.84153

>  <SCORE.INTER.VDW>
-24.5234

>  <SCORE.INTER.norm>
-3.68421

>  <SCORE.INTRA>
0.165225

>  <SCORE.INTRA.DIHEDRAL>
-0.152787

>  <SCORE.INTRA.DIHEDRAL.0>
4.88905

>  <SCORE.INTRA.POLAR>
0

>  <SCORE.INTRA.POLAR.0>
0

>  <SCORE.INTRA.REPUL>
0

>  <SCORE.INTRA.REPUL.0>
0

>  <SCORE.INTRA.SOLV>
-0.450907

>  <SCORE.INTRA.SOLV.lig_0>
-15.1033

>  <SCORE.INTRA.VDW>
0.467072

>  <SCORE.INTRA.VDW.0>
-0.755285

>  <SCORE.INTRA.norm>
0.0127096

>  <SCORE.RESTR>
0

>  <SCORE.RESTR.CAVITY>
0

>  <SCORE.RESTR.norm>
0

>  <SCORE.SYSTEM>
0

>  <SCORE.SYSTEM.CONST>
0

>  <SCORE.SYSTEM.DIHEDRAL>
0

>  <SCORE.SYSTEM.SOLV>
0

>  <SCORE.SYSTEM.norm>
0

>  <SCORE.heavy>
13

>  <SCORE.norm>
-3.6715

>  <RMSD>
0.722

$$$$
ligand
 OpenBabel11021811513D
libRbt.so/2013.1/901 2013/11/27
 13 14  0  0  0  0  0  0  0  0999 V2000
   34.2435   29.6486  108.0656 N   0  0  0  0  0  0  0  0  0  0  0  0
   34.1560   30.8535  108.8003 C   0  0  0  0  0  0  0  0  0  0  0  0
   35.3637   31.4847  109.2684 N   0  0  0  0  0  0  0  0  0  0  0  0
   32.9462   31.4356  109.0796 N   0  0  0  0  0  0  0  0  0  0  0  0
   31.7426   30.8632  108.6482 C   0  0  0  0  0  0  0  0  0  0  0  0
   31.7858   29.6360  107.8971 C   0  0  0  0  0  0  0  0  0  0  0  0
   33.0886   29.0334  107.6119 C   0  0  0  0  0  0  0  0  0  0  0  0
   33.1698   27.8611  106.8975 O   0  0  0  0  0  0  0  0  0  0  0  0
   30.4061   29.2937  107.5993 C   0  0  0  0  0  0  0  0  0  0  0  0
   29.6142   30.2982  108.1570 C   0  0  0  0  0  0  0  0  0  0  0  0
   30.4152   31.2274  108.7821 N   0  0  0  0  0  0  0  0  0  0  0  0
   29.9304   28.0984  106.8291 C   0  0  0  0  0  0  0  0  0  0  0  0
   29.6995   26.9978  107.7464 N   0  0  0  0  0  0  0  0  0  0  0  0
  1  2  1  0  0  0  0
  1  7  1  0  0  0  0
  2  3  1  0  0  0  0
  2  4  2  0  0  0  0
  4  5  1  0  0  0  0
  5  6  2  0  0  0  0
  5 11  1  0  0  0  0
  6  7  1  0  0  0  0
  6  9  1  0  0  0  0
  7  8  2  0  0  0  0
  9 10  2  0  0  0  0
  9 12  1  0  0  0  0
 10 11  1  0  0  0  0
 12 13  1  0  0  0  0
M  END
>  <CHROM.1>
4.46117402,90.29533932,-128.36669814,32.09092065,29.70613577,108.10625772
-0.59926563,0.00973125,-2.69218857

>  <Name>
ligand

>  <RI>
2.51964e+07

>  <Rbt.Current_Directory>
/home/itssahil/PROJECTS/Mol_Feturizer/New_Systems/rnas/4RZD

>  <Rbt.Executable>
rbdock ($Id: //depot/dev/client3/rdock/2013.1/src/exe/rbdock.cxx#4 $)

>  <Rbt.Library>
libRbt.so (2013.1, Build901 2013/11/27)

>  <Rbt.Parameter_File>
/export/apps/rDock/src/rDock_2013.1_src/data/scripts/dock_solv.prm

>  <Rbt.Receptor>
prm/pocket_docking_4.prm

>  <SCORE>
-47.9393

>  <SCORE.INTER>
-47.7424

>  <SCORE.INTER.CONST>
1

>  <SCORE.INTER.POLAR>
-4.88482

>  <SCORE.INTER.ROT>
3

>  <SCORE.INTER.SOLV>
9.73496

>  <SCORE.INTER.VDW>
-24.3906

>  <SCORE.INTER.norm>
-3.6725

>  <SCORE.INTRA>
-0.196809

>  <SCORE.INTRA.DIHEDRAL>
-0.0908736

>  <SCORE.INTRA.DIHEDRAL.0>
4.88905

>  <SCORE.INTRA.POLAR>
0

>  <SCORE.INTRA.POLAR.0>
0

>  <SCORE.INTRA.REPUL>
0

>  <SCORE.INTRA.REPUL.0>
0

>  <SCORE.INTRA.SOLV>
-0.462649

>  <SCORE.INTRA.SOLV.lig_0>
-15.1033

>  <SCORE.INTRA.VDW>
0.0799522

>  <SCORE.INTRA.VDW.0>
-0.755285

>  <SCORE.INTRA.norm>
-0.0151392

>  <SCORE.RESTR>
0

>  <SCORE.RESTR.CAVITY>
0

>  <SCORE.RESTR.norm>
0

>  <SCORE.SYSTEM>
0

>  <SCORE.SYSTEM.CONST>
0

>  <SCORE.SYSTEM.DIHEDRAL>
0

>  <SCORE.SYSTEM.SOLV>
0

>  <SCORE.SYSTEM.norm>
0

>  <SCORE.heavy>
13

>  <SCORE.norm>
-3.68763

>  <RMSD>
0.722

$$$$
ligand
 OpenBabel11021811513D
libRbt.so/2013.1/901 2013/11/27
 13 14  0  0  0  0  0  0  0  0999 V2000
   34.5371   29.7412  108.1892 N   0  0  0  0  0  0  0  0  0  0  0  0
   34.3169   30.8989  108.9704 C   0  0  0  0  0  0  0  0  0  0  0  0
   35.4428   31.5781  109.5598 N   0  0  0  0  0  0  0  0  0  0  0  0
   33.0544   31.3905  109.1819 N   0  0  0  0  0  0  0  0  0  0  0  0
   31.9260   30.7684  108.6321 C   0  0  0  0  0  0  0  0  0  0  0  0
   32.1049   29.5865  107.8302 C   0  0  0  0  0  0  0  0  0  0  0  0
   33.4617   29.0805  107.6191 C   0  0  0  0  0  0  0  0  0  0  0  0
   33.6721   27.9538  106.8591 O   0  0  0  0  0  0  0  0  0  0  0  0
   30.7764   29.1760  107.4106 C   0  0  0  0  0  0  0  0  0  0  0  0
   29.8814   30.0999  107.9515 C   0  0  0  0  0  0  0  0  0  0  0  0
   30.5715   31.0431  108.6796 N   0  0  0  0  0  0  0  0  0  0  0  0
   30.4382   27.9951  106.5508 C   0  0  0  0  0  0  0  0  0  0  0  0
   29.2799   27.3166  107.1022 N   0  0  0  0  0  0  0  0  0  0  0  0
  1  2  1  0  0  0  0
  1  7  1  0  0  0  0
  2  3  1  0  0  0  0
  2  4  2  0  0  0  0
  4  5  1  0  0  0  0
  5  6  2  0  0  0  0
  5 11  1  0  0  0  0
  6  7  1  0  0  0  0
  6  9  1  0  0  0  0
  7  8  2  0  0  0  0
  9 10  2  0  0  0  0
  9 12  1  0  0  0  0
 10 11  1  0  0  0  0
 12 13  1  0  0  0  0
M  END
>  <CHROM.1>
-6.65461565,137.11010859,-131.90560537,32.30349841,29.70857809,108.03817808
-0.61437376,0.04188058,-2.59012518

>  <Name>
ligand

>  <RI>
1.35221e+07

>  <Rbt.Current_Directory>
/home/itssahil/PROJECTS/Mol_Feturizer/New_Systems/rnas/4RZD

>  <Rbt.Executable>
rbdock ($Id: //depot/dev/client3/rdock/2013.1/src/exe/rbdock.cxx#4 $)

>  <Rbt.Library>
libRbt.so (2013.1, Build901 2013/11/27)

>  <Rbt.Parameter_File>
/export/apps/rDock/src/rDock_2013.1_src/data/scripts/dock_solv.prm

>  <Rbt.Receptor>
prm/pocket_docking_5.prm

>  <SCORE>
-46.6483

>  <SCORE.INTER>
-46.3912

>  <SCORE.INTER.CONST>
1

>  <SCORE.INTER.POLAR>
-4.94641

>  <SCORE.INTER.ROT>
3

>  <SCORE.INTER.SOLV>
11.7437

>  <SCORE.INTER.VDW>
-23.954

>  <SCORE.INTER.norm>
-3.56855

>  <SCORE.INTRA>
-0.257115

>  <SCORE.INTRA.DIHEDRAL>
-0.255638

>  <SCORE.INTRA.DIHEDRAL.0>
4.88905

>  <SCORE.INTRA.POLAR>
0

>  <SCORE.INTRA.POLAR.0>
0

>  <SCORE.INTRA.REPUL>
0

>  <SCORE.INTRA.REPUL.0>
0

>  <SCORE.INTRA.SOLV>
-0.707995

>  <SCORE.INTRA.SOLV.lig_0>
-15.1033

>  <SCORE.INTRA.VDW>
0.224702

>  <SCORE.INTRA.VDW.0>
-0.755285

>  <SCORE.INTRA.norm>
-0.019778

>  <SCORE.RESTR>
0

>  <SCORE.RESTR.CAVITY>
0

>  <SCORE.RESTR.norm>
0

>  <SCORE.SYSTEM>
0

>  <SCORE.SYSTEM.CONST>
0

>  <SCORE.SYSTEM.DIHEDRAL>
0

>  <SCORE.SYSTEM.SOLV>
0

>  <SCORE.SYSTEM.norm>
0

>  <SCORE.heavy>
13

>  <SCORE.norm>
-3.58833

>  <RMSD>
0.722

$$$$
ligand
 OpenBabel11021811513D
libRbt.so/2013.1/901 2013/11/27
 13 14  0  0  0  0  0  0  0  0999 V2000
   34.2364   29.6590  108.0168 N   0  0  0  0  0  0  0  0  0  0  0  0
   34.1514   30.8578  108.7616 C   0  0  0  0  0  0  0  0  0  0  0  0
   35.3613   31.4901  109.2229 N   0  0  0  0  0  0  0  0  0  0  0  0
   32.9422   31.4330  109.0572 N   0  0  0  0  0  0  0  0  0  0  0  0
   31.7366   30.8593  108.6329 C   0  0  0  0  0  0  0  0  0  0  0  0
   31.7773   29.6382  107.8720 C   0  0  0  0  0  0  0  0  0  0  0  0
   33.0796   29.0429  107.5695 C   0  0  0  0  0  0  0  0  0  0  0  0
   33.1583   27.8765  106.8452 O   0  0  0  0  0  0  0  0  0  0  0  0
   30.3961   29.2928  107.5849 C   0  0  0  0  0  0  0  0  0  0  0  0
   29.6058   30.2898  108.1580 C   0  0  0  0  0  0  0  0  0  0  0  0
   30.4093   31.2173  108.7825 N   0  0  0  0  0  0  0  0  0  0  0  0
   29.9176   28.1017  106.8100 C   0  0  0  0  0  0  0  0  0  0  0  0
   29.7010   26.9927  107.7207 N   0  0  0  0  0  0  0  0  0  0  0  0
  1  2  1  0  0  0  0
  1  7  1  0  0  0  0
  2  3  1  0  0  0  0
  2  4  2  0  0  0  0
  4  5  1  0  0  0  0
  5  6  2  0  0  0  0
  5 11  1  0  0  0  0
  6  7  1  0  0  0  0
  6  9  1  0  0  0  0
  7  8  2  0  0  0  0
  9 10  2  0  0  0  0
  9 12  1  0  0  0  0
 10 11  1  0  0  0  0
 12 13  1  0  0  0  0
M  END
>  <CHROM.1>
-2.01657688,90.24003456,-129.78834371,32.08415009,29.70788129,108.07869747
-0.59853074,-0.00045199,-2.68476737

>  <Name>
ligand

>  <RI>
1.35221e+07

>  <Rbt.Current_Directory>
/home/itssahil/PROJECTS/Mol_Feturizer/New_Systems/rnas/4RZD

>  <Rbt.Executable>
rbdock ($Id: //depot/dev/client3/rdock/2013.1/src/exe/rbdock.cxx#4 $)

>  <Rbt.Library>
libRbt.so (2013.1, Build901 2013/11/27)

>  <Rbt.Parameter_File>
/export/apps/rDock/src/rDock_2013.1_src/data/scripts/dock_solv.prm

>  <Rbt.Receptor>
prm/pocket_docking_5.prm

>  <SCORE>
-47.9747

>  <SCORE.INTER>
-47.7569

>  <SCORE.INTER.CONST>
1

>  <SCORE.INTER.POLAR>
-4.87578

>  <SCORE.INTER.ROT>
3

>  <SCORE.INTER.SOLV>
9.76711

>  <SCORE.INTER.VDW>
-24.4411

>  <SCORE.INTER.norm>
-3.67361

>  <SCORE.INTRA>
-0.217729

>  <SCORE.INTRA.DIHEDRAL>
-0.131495

>  <SCORE.INTRA.DIHEDRAL.0>
4.88905

>  <SCORE.INTRA.POLAR>
0

>  <SCORE.INTRA.POLAR.0>
0

>  <SCORE.INTRA.REPUL>
0

>  <SCORE.INTRA.REPUL.0>
0

>  <SCORE.INTRA.SOLV>
-0.46399

>  <SCORE.INTRA.SOLV.lig_0>
-15.1033

>  <SCORE.INTRA.VDW>
0.0800136

>  <SCORE.INTRA.VDW.0>
-0.755285

>  <SCORE.INTRA.norm>
-0.0167484

>  <SCORE.RESTR>
0

>  <SCORE.RESTR.CAVITY>
0

>  <SCORE.RESTR.norm>
0

>  <SCORE.SYSTEM>
0

>  <SCORE.SYSTEM.CONST>
0

>  <SCORE.SYSTEM.DIHEDRAL>
0

>  <SCORE.SYSTEM.SOLV>
0

>  <SCORE.SYSTEM.norm>
0

>  <SCORE.heavy>
13

>  <SCORE.norm>
-3.69036

>  <RMSD>
0.722

$$$$
ligand
 OpenBabel11021811513D
libRbt.so/2013.1/901 2013/11/27
 13 14  0  0  0  0  0  0  0  0999 V2000
   34.2346   29.6679  108.0185 N   0  0  0  0  0  0  0  0  0  0  0  0
   34.1441   30.8707  108.7562 C   0  0  0  0  0  0  0  0  0  0  0  0
   35.3507   31.5079  109.2193 N   0  0  0  0  0  0  0  0  0  0  0  0
   32.9325   31.4452  109.0432 N   0  0  0  0  0  0  0  0  0  0  0  0
   31.7299   30.8668  108.6169 C   0  0  0  0  0  0  0  0  0  0  0  0
   31.7763   29.6414  107.8630 C   0  0  0  0  0  0  0  0  0  0  0  0
   33.0810   29.0470  107.5697 C   0  0  0  0  0  0  0  0  0  0  0  0
   33.1651   27.8767  106.8523 O   0  0  0  0  0  0  0  0  0  0  0  0
   30.3969   29.2918  107.5717 C   0  0  0  0  0  0  0  0  0  0  0  0
   29.6023   30.2905  108.1358 C   0  0  0  0  0  0  0  0  0  0  0  0
   30.4012   31.2231  108.7586 N   0  0  0  0  0  0  0  0  0  0  0  0
   29.9241   28.0955  106.8015 C   0  0  0  0  0  0  0  0  0  0  0  0
   29.6977   26.9937  107.7186 N   0  0  0  0  0  0  0  0  0  0  0  0
  1  2  1  0  0  0  0
  1  7  1  0  0  0  0
  2  3  1  0  0  0  0
  2  4  2  0  0  0  0
  4  5  1  0  0  0  0
  5  6  2  0  0  0  0
  5 11  1  0  0  0  0
  6  7  1  0  0  0  0
  6  9  1  0  0  0  0
  7  8  2  0  0  0  0
  9 10  2  0  0  0  0
  9 12  1  0  0  0  0
 10 11  1  0  0  0  0
 12 13  1  0  0  0  0
M  END
>  <CHROM.1>
-1.79341818,90.58813414,110.53754637,32.08077905,29.71860443,108.07717584
-0.59225988,-0.00013995,-2.68882608

>  <Name>
ligand

>  <RI>
1.99388e+07

>  <Rbt.Current_Directory>
/home/itssahil/PROJECTS/Mol_Feturizer/New_Systems/rnas/4RZD

>  <Rbt.Executable>
rbdock ($Id: //depot/dev/client3/rdock/2013.1/src/exe/rbdock.cxx#4 $)

>  <Rbt.Library>
libRbt.so (2013.1, Build901 2013/11/27)

>  <Rbt.Parameter_File>
/export/apps/rDock/src/rDock_2013.1_src/data/scripts/dock_solv.prm

>  <Rbt.Receptor>
prm/pocket_docking_2.prm

>  <SCORE>
-47.6929

>  <SCORE.INTER>
-47.8752

>  <SCORE.INTER.CONST>
1

>  <SCORE.INTER.POLAR>
-4.87526

>  <SCORE.INTER.ROT>
3

>  <SCORE.INTER.SOLV>
9.8337

>  <SCORE.INTER.VDW>
-24.5439

>  <SCORE.INTER.norm>
-3.68271

>  <SCORE.INTRA>
0.182395

>  <SCORE.INTRA.DIHEDRAL>
-0.121664

>  <SCORE.INTRA.DIHEDRAL.0>
4.88905

>  <SCORE.INTRA.POLAR>
0

>  <SCORE.INTRA.POLAR.0>
0

>  <SCORE.INTRA.REPUL>
0

>  <SCORE.INTRA.REPUL.0>
0

>  <SCORE.INTRA.SOLV>
-0.46995

>  <SCORE.INTRA.SOLV.lig_0>
-15.1033

>  <SCORE.INTRA.VDW>
0.478202

>  <SCORE.INTRA.VDW.0>
-0.755285

>  <SCORE.INTRA.norm>
0.0140304

>  <SCORE.RESTR>
0

>  <SCORE.RESTR.CAVITY>
0

>  <SCORE.RESTR.norm>
0

>  <SCORE.SYSTEM>
0

>  <SCORE.SYSTEM.CONST>
0

>  <SCORE.SYSTEM.DIHEDRAL>
0

>  <SCORE.SYSTEM.SOLV>
0

>  <SCORE.SYSTEM.norm>
0

>  <SCORE.heavy>
13

>  <SCORE.norm>
-3.66868

>  <RMSD>
0.723

$$$$
ligand
 OpenBabel11021811513D
libRbt.so/2013.1/901 2013/11/27
 13 14  0  0  0  0  0  0  0  0999 V2000
   34.5505   29.7278  108.1943 N   0  0  0  0  0  0  0  0  0  0  0  0
   34.3285   30.8919  108.9656 C   0  0  0  0  0  0  0  0  0  0  0  0
   35.4533   31.5773  109.5499 N   0  0  0  0  0  0  0  0  0  0  0  0
   33.0653   31.3838  109.1722 N   0  0  0  0  0  0  0  0  0  0  0  0
   31.9380   30.7558  108.6270 C   0  0  0  0  0  0  0  0  0  0  0  0
   32.1187   29.5674  107.8351 C   0  0  0  0  0  0  0  0  0  0  0  0
   33.4762   29.0611  107.6292 C   0  0  0  0  0  0  0  0  0  0  0  0
   33.6883   27.9283  106.8788 O   0  0  0  0  0  0  0  0  0  0  0  0
   30.7909   29.1518  107.4182 C   0  0  0  0  0  0  0  0  0  0  0  0
   29.8946   30.0793  107.9507 C   0  0  0  0  0  0  0  0  0  0  0  0
   30.5831   31.0294  108.6713 N   0  0  0  0  0  0  0  0  0  0  0  0
   30.4546   27.9634  106.5682 C   0  0  0  0  0  0  0  0  0  0  0  0
   29.0862   27.5577  106.8312 N   0  0  0  0  0  0  0  0  0  0  0  0
  1  2  1  0  0  0  0
  1  7  1  0  0  0  0
  2  3  1  0  0  0  0
  2  4  2  0  0  0  0
  4  5  1  0  0  0  0
  5  6  2  0  0  0  0
  5 11  1  0  0  0  0
  6  7  1  0  0  0  0
  6  9  1  0  0  0  0
  7  8  2  0  0  0  0
  9 10  2  0  0  0  0
  9 12  1  0  0  0  0
 10 11  1  0  0  0  0
 12 13  1  0  0  0  0
M  END
>  <CHROM.1>
-7.88886026,156.04051429,-153.63059744,32.29751491,29.71758409,108.01452352
-0.59606719,0.05824323,-2.57311086

>  <Name>
ligand

>  <RI>
4.18181e+07

>  <Rbt.Current_Directory>
/home/itssahil/PROJECTS/Mol_Feturizer/New_Systems/rnas/4RZD

>  <Rbt.Executable>
rbdock ($Id: //depot/dev/client3/rdock/2013.1/src/exe/rbdock.cxx#4 $)

>  <Rbt.Library>
libRbt.so (2013.1, Build901 2013/11/27)

>  <Rbt.Parameter_File>
/export/apps/rDock/src/rDock_2013.1_src/data/scripts/dock_solv.prm

>  <Rbt.Receptor>
prm/pocket_docking_3.prm

>  <SCORE>
-46.5743

>  <SCORE.INTER>
-45.8235

>  <SCORE.INTER.CONST>
1

>  <SCORE.INTER.POLAR>
-4.85713

>  <SCORE.INTER.ROT>
3

>  <SCORE.INTER.SOLV>
12.4772

>  <SCORE.INTER.VDW>
-24.1176

>  <SCORE.INTER.norm>
-3.52488

>  <SCORE.INTRA>
-0.75087

>  <SCORE.INTRA.DIHEDRAL>
-1.46077

>  <SCORE.INTRA.DIHEDRAL.0>
4.88905

>  <SCORE.INTRA.POLAR>
0

>  <SCORE.INTRA.POLAR.0>
0

>  <SCORE.INTRA.REPUL>
0

>  <SCORE.INTRA.REPUL.0>
0

>  <SCORE.INTRA.SOLV>
-0.701892

>  <SCORE.INTRA.SOLV.lig_0>
-15.1033

>  <SCORE.INTRA.VDW>
0.330462

>  <SCORE.INTRA.VDW.0>
-0.755285

>  <SCORE.INTRA.norm>
-0.0577592

>  <SCORE.RESTR>
0

>  <SCORE.RESTR.CAVITY>
0

>  <SCORE.RESTR.norm>
0

>  <SCORE.SYSTEM>
0

>  <SCORE.SYSTEM.CONST>
0

>  <SCORE.SYSTEM.DIHEDRAL>
0

>  <SCORE.SYSTEM.SOLV>
0

>  <SCORE.SYSTEM.norm>
0

>  <SCORE.heavy>
13

>  <SCORE.norm>
-3.58264

>  <RMSD>
0.723

$$$$
ligand
 OpenBabel11021811513D
libRbt.so/2013.1/901 2013/11/27
 13 14  0  0  0  0  0  0  0  0999 V2000
   34.5238   29.7526  108.1359 N   0  0  0  0  0  0  0  0  0  0  0  0
   34.2964   30.9093  108.9166 C   0  0  0  0  0  0  0  0  0  0  0  0
   35.4171   31.5892  109.5149 N   0  0  0  0  0  0  0  0  0  0  0  0
   33.0318   31.3991  109.1194 N   0  0  0  0  0  0  0  0  0  0  0  0
   31.9083   30.7761  108.5606 C   0  0  0  0  0  0  0  0  0  0  0  0
   32.0945   29.5953  107.7588 C   0  0  0  0  0  0  0  0  0  0  0  0
   33.4535   29.0912  107.5572 C   0  0  0  0  0  0  0  0  0  0  0  0
   33.6708   27.9655  106.7976 O   0  0  0  0  0  0  0  0  0  0  0  0
   30.7696   29.1836  107.3290 C   0  0  0  0  0  0  0  0  0  0  0  0
   29.8696   30.1059  107.8643 C   0  0  0  0  0  0  0  0  0  0  0  0
   30.5531   31.0491  108.5984 N   0  0  0  0  0  0  0  0  0  0  0  0
   30.4392   28.0032  106.4656 C   0  0  0  0  0  0  0  0  0  0  0  0
   29.3039   27.2981  107.0313 N   0  0  0  0  0  0  0  0  0  0  0  0
  1  2  1  0  0  0  0
  1  7  1  0  0  0  0
  2  3  1  0  0  0  0
  2  4  2  0  0  0  0
  4  5  1  0  0  0  0
  5  6  2  0  0  0  0
  5 11  1  0  0  0  0
  6  7  1  0  0  0  0
  6  9  1  0  0  0  0
  7  8  2  0  0  0  0
  9 10  2  0  0  0  0
  9 12  1  0  0  0  0
 10 11  1  0  0  0  0
 12 13  1  0  0  0  0
M  END
>  <CHROM.1>
168.85410296,135.31504420,96.47236225,32.29230102,29.72193769,107.97599460
-0.61140480,0.04386267,-2.58763985

>  <Name>
ligand

>  <RI>
1.38753e+07

>  <Rbt.Current_Directory>
/home/itssahil/PROJECTS/Mol_Feturizer/New_Systems/rnas/4RZD

>  <Rbt.Executable>
rbdock ($Id: //depot/dev/client3/rdock/2013.1/src/exe/rbdock.cxx#4 $)

>  <Rbt.Library>
libRbt.so (2013.1, Build901 2013/11/27)

>  <Rbt.Parameter_File>
/export/apps/rDock/src/rDock_2013.1_src/data/scripts/dock_solv.prm

>  <Rbt.Receptor>
prm/pocket_docking_7.prm

>  <SCORE>
-45.8204

>  <SCORE.INTER>
-45.6053

>  <SCORE.INTER.CONST>
1

>  <SCORE.INTER.POLAR>
-4.99168

>  <SCORE.INTER.ROT>
3

>  <SCORE.INTER.SOLV>
11.8958

>  <SCORE.INTER.VDW>
-23.3299

>  <SCORE.INTER.norm>
-3.5081

>  <SCORE.INTRA>
-0.215075

>  <SCORE.INTRA.DIHEDRAL>
-0.827777

>  <SCORE.INTRA.DIHEDRAL.0>
4.88905

>  <SCORE.INTRA.POLAR>
0

>  <SCORE.INTRA.POLAR.0>
0

>  <SCORE.INTRA.REPUL>
0

>  <SCORE.INTRA.REPUL.0>
0

>  <SCORE.INTRA.SOLV>
-0.689728

>  <SCORE.INTRA.SOLV.lig_0>
-15.1033

>  <SCORE.INTRA.VDW>
0.543678

>  <SCORE.INTRA.VDW.0>
-0.755285

>  <SCORE.INTRA.norm>
-0.0165442

>  <SCORE.RESTR>
0

>  <SCORE.RESTR.CAVITY>
0

>  <SCORE.RESTR.norm>
0

>  <SCORE.SYSTEM>
0

>  <SCORE.SYSTEM.CONST>
0

>  <SCORE.SYSTEM.DIHEDRAL>
0

>  <SCORE.SYSTEM.SOLV>
0

>  <SCORE.SYSTEM.norm>
0

>  <SCORE.heavy>
13

>  <SCORE.norm>
-3.52464

>  <RMSD>
0.723

$$$$
ligand
 OpenBabel11021811513D
libRbt.so/2013.1/901 2013/11/27
 13 14  0  0  0  0  0  0  0  0999 V2000
   34.2423   29.6528  108.0637 N   0  0  0  0  0  0  0  0  0  0  0  0
   34.1527   30.8609  108.7929 C   0  0  0  0  0  0  0  0  0  0  0  0
   35.3594   31.4966  109.2576 N   0  0  0  0  0  0  0  0  0  0  0  0
   32.9419   31.4418  109.0701 N   0  0  0  0  0  0  0  0  0  0  0  0
   31.7392   30.8651  108.6419 C   0  0  0  0  0  0  0  0  0  0  0  0
   31.7846   29.6345  107.8965 C   0  0  0  0  0  0  0  0  0  0  0  0
   33.0884   29.0332  107.6135 C   0  0  0  0  0  0  0  0  0  0  0  0
   33.1716   27.8579  106.9044 O   0  0  0  0  0  0  0  0  0  0  0  0
   30.4054   29.2881  107.6009 C   0  0  0  0  0  0  0  0  0  0  0  0
   29.6118   30.2936  108.1543 C   0  0  0  0  0  0  0  0  0  0  0  0
   30.4112   31.2273  108.7748 N   0  0  0  0  0  0  0  0  0  0  0  0
   29.9318   28.0884  106.8364 C   0  0  0  0  0  0  0  0  0  0  0  0
   29.6919   26.9952  107.7603 N   0  0  0  0  0  0  0  0  0  0  0  0
  1  2  1  0  0  0  0
  1  7  1  0  0  0  0
  2  3  1  0  0  0  0
  2  4  2  0  0  0  0
  4  5  1  0  0  0  0
  5  6  2  0  0  0  0
  5 11  1  0  0  0  0
  6  7  1  0  0  0  0
  6  9  1  0  0  0  0
  7  8  2  0  0  0  0
  9 10  2  0  0  0  0
  9 12  1  0  0  0  0
 10 11  1  0  0  0  0
 12 13  1  0  0  0  0
M  END
>  <CHROM.1>
-175.77689101,90.80152685,112.24316836,32.08782240,29.71205613,108.11153765
-0.59052169,0.00543573,-2.69498139

>  <Name>
ligand

>  <RI>
1.99388e+07

>  <Rbt.Current_Directory>
/home/itssahil/PROJECTS/Mol_Feturizer/New_Systems/rnas/4RZD

>  <Rbt.Executable>
rbdock ($Id: //depot/dev/client3/rdock/2013.1/src/exe/rbdock.cxx#4 $)

>  <Rbt.Library>
libRbt.so (2013.1, Build901 2013/11/27)

>  <Rbt.Parameter_File>
/export/apps/rDock/src/rDock_2013.1_src/data/scripts/dock_solv.prm

>  <Rbt.Receptor>
prm/pocket_docking_2.prm

>  <SCORE>
-47.6822

>  <SCORE.INTER>
-47.8957

>  <SCORE.INTER.CONST>
1

>  <SCORE.INTER.POLAR>
-4.88462

>  <SCORE.INTER.ROT>
3

>  <SCORE.INTER.SOLV>
9.79277

>  <SCORE.INTER.VDW>
-24.5126

>  <SCORE.INTER.norm>
-3.68428

>  <SCORE.INTRA>
0.213505

>  <SCORE.INTRA.DIHEDRAL>
-0.0752971

>  <SCORE.INTRA.DIHEDRAL.0>
4.88905

>  <SCORE.INTRA.POLAR>
0

>  <SCORE.INTRA.POLAR.0>
0

>  <SCORE.INTRA.REPUL>
0

>  <SCORE.INTRA.REPUL.0>
0

>  <SCORE.INTRA.SOLV>
-0.47543

>  <SCORE.INTRA.SOLV.lig_0>
-15.1033

>  <SCORE.INTRA.VDW>
0.488868

>  <SCORE.INTRA.VDW.0>
-0.755285

>  <SCORE.INTRA.norm>
0.0164234

>  <SCORE.RESTR>
0

>  <SCORE.RESTR.CAVITY>
0

>  <SCORE.RESTR.norm>
0

>  <SCORE.SYSTEM>
0

>  <SCORE.SYSTEM.CONST>
0

>  <SCORE.SYSTEM.DIHEDRAL>
0

>  <SCORE.SYSTEM.SOLV>
0

>  <SCORE.SYSTEM.norm>
0

>  <SCORE.heavy>
13

>  <SCORE.norm>
-3.66786

>  <RMSD>
0.724

$$$$
ligand
 OpenBabel11021811513D
libRbt.so/2013.1/901 2013/11/27
 13 14  0  0  0  0  0  0  0  0999 V2000
   34.2502   29.6531  108.0742 N   0  0  0  0  0  0  0  0  0  0  0  0
   34.1614   30.8581  108.8085 C   0  0  0  0  0  0  0  0  0  0  0  0
   35.3684   31.4909  109.2764 N   0  0  0  0  0  0  0  0  0  0  0  0
   32.9510   31.4390  109.0877 N   0  0  0  0  0  0  0  0  0  0  0  0
   31.7479   30.8651  108.6565 C   0  0  0  0  0  0  0  0  0  0  0  0
   31.7926   29.6377  107.9058 C   0  0  0  0  0  0  0  0  0  0  0  0
   33.0960   29.0365  107.6208 C   0  0  0  0  0  0  0  0  0  0  0  0
   33.1785   27.8641  106.9067 O   0  0  0  0  0  0  0  0  0  0  0  0
   30.4132   29.2938  107.6082 C   0  0  0  0  0  0  0  0  0  0  0  0
   29.6202   30.2976  108.1656 C   0  0  0  0  0  0  0  0  0  0  0  0
   30.4202   31.2279  108.7903 N   0  0  0  0  0  0  0  0  0  0  0  0
   29.9388   28.0978  106.8383 C   0  0  0  0  0  0  0  0  0  0  0  0
   29.6970   27.0010  107.7575 N   0  0  0  0  0  0  0  0  0  0  0  0
  1  2  1  0  0  0  0
  1  7  1  0  0  0  0
  2  3  1  0  0  0  0
  2  4  2  0  0  0  0
  4  5  1  0  0  0  0
  5  6  2  0  0  0  0
  5 11  1  0  0  0  0
  6  7  1  0  0  0  0
  6  9  1  0  0  0  0
  7  8  2  0  0  0  0
  9 10  2  0  0  0  0
  9 12  1  0  0  0  0
 10 11  1  0  0  0  0
 12 13  1  0  0  0  0
M  END
>  <CHROM.1>
166.54801164,90.82957281,112.21422202,32.09571192,29.71407302,108.12134529
-0.58993182,0.00688037,-2.69174024

>  <Name>
ligand

>  <RI>
2.51964e+07

>  <Rbt.Current_Directory>
/home/itssahil/PROJECTS/Mol_Feturizer/New_Systems/rnas/4RZD

>  <Rbt.Executable>
rbdock ($Id: //depot/dev/client3/rdock/2013.1/src/exe/rbdock.cxx#4 $)

>  <Rbt.Library>
libRbt.so (2013.1, Build901 2013/11/27)

>  <Rbt.Parameter_File>
/export/apps/rDock/src/rDock_2013.1_src/data/scripts/dock_solv.prm

>  <Rbt.Receptor>
prm/pocket_docking_4.prm

>  <SCORE>
-47.7184

>  <SCORE.INTER>
-47.9316

>  <SCORE.INTER.CONST>
1

>  <SCORE.INTER.POLAR>
-4.88348

>  <SCORE.INTER.ROT>
3

>  <SCORE.INTER.SOLV>
9.83229

>  <SCORE.INTER.VDW>
-24.5536

>  <SCORE.INTER.norm>
-3.68705

>  <SCORE.INTRA>
0.213238

>  <SCORE.INTRA.DIHEDRAL>
-0.0760122

>  <SCORE.INTRA.DIHEDRAL.0>
4.88905

>  <SCORE.INTRA.POLAR>
0

>  <SCORE.INTRA.POLAR.0>
0

>  <SCORE.INTRA.REPUL>
0

>  <SCORE.INTRA.REPUL.0>
0

>  <SCORE.INTRA.SOLV>
-0.476262

>  <SCORE.INTRA.SOLV.lig_0>
-15.1033

>  <SCORE.INTRA.VDW>
0.489375

>  <SCORE.INTRA.VDW.0>
-0.755285

>  <SCORE.INTRA.norm>
0.0164029

>  <SCORE.RESTR>
0

>  <SCORE.RESTR.CAVITY>
0

>  <SCORE.RESTR.norm>
0

>  <SCORE.SYSTEM>
0

>  <SCORE.SYSTEM.CONST>
0

>  <SCORE.SYSTEM.DIHEDRAL>
0

>  <SCORE.SYSTEM.SOLV>
0

>  <SCORE.SYSTEM.norm>
0

>  <SCORE.heavy>
13

>  <SCORE.norm>
-3.67065

>  <RMSD>
0.724

$$$$
ligand
 OpenBabel11021811513D
libRbt.so/2013.1/901 2013/11/27
 13 14  0  0  0  0  0  0  0  0999 V2000
   34.2426   29.6750  108.0218 N   0  0  0  0  0  0  0  0  0  0  0  0
   34.1523   30.8781  108.7590 C   0  0  0  0  0  0  0  0  0  0  0  0
   35.3591   31.5169  109.2191 N   0  0  0  0  0  0  0  0  0  0  0  0
   32.9407   31.4514  109.0483 N   0  0  0  0  0  0  0  0  0  0  0  0
   31.7378   30.8714  108.6250 C   0  0  0  0  0  0  0  0  0  0  0  0
   31.7839   29.6457  107.8717 C   0  0  0  0  0  0  0  0  0  0  0  0
   33.0886   29.0526  107.5758 C   0  0  0  0  0  0  0  0  0  0  0  0
   33.1725   27.8820  106.8588 O   0  0  0  0  0  0  0  0  0  0  0  0
   30.4043   29.2944  107.5836 C   0  0  0  0  0  0  0  0  0  0  0  0
   29.6097   30.2925  108.1488 C   0  0  0  0  0  0  0  0  0  0  0  0
   30.4090   31.2263  108.7694 N   0  0  0  0  0  0  0  0  0  0  0  0
   29.9312   28.0971  106.8151 C   0  0  0  0  0  0  0  0  0  0  0  0
   29.6982   26.9986  107.7345 N   0  0  0  0  0  0  0  0  0  0  0  0
  1  2  1  0  0  0  0
  1  7  1  0  0  0  0
  2  3  1  0  0  0  0
  2  4  2  0  0  0  0
  4  5  1  0  0  0  0
  5  6  2  0  0  0  0
  5 11  1  0  0  0  0
  6  7  1  0  0  0  0
  6  9  1  0  0  0  0
  7  8  2  0  0  0  0
  9 10  2  0  0  0  0
  9 12  1  0  0  0  0
 10 11  1  0  0  0  0
 12 13  1  0  0  0  0
M  END
>  <CHROM.1>
-179.10741353,91.02325565,-128.44648603,32.08855141,29.71808746,108.07877725
-0.60079279,-0.00036490,-2.69036881

>  <Name>
ligand

>  <RI>
1.35221e+07

>  <Rbt.Current_Directory>
/home/itssahil/PROJECTS/Mol_Feturizer/New_Systems/rnas/4RZD

>  <Rbt.Executable>
rbdock ($Id: //depot/dev/client3/rdock/2013.1/src/exe/rbdock.cxx#4 $)

>  <Rbt.Library>
libRbt.so (2013.1, Build901 2013/11/27)

>  <Rbt.Parameter_File>
/export/apps/rDock/src/rDock_2013.1_src/data/scripts/dock_solv.prm

>  <Rbt.Receptor>
prm/pocket_docking_5.prm

>  <SCORE>
-47.9787

>  <SCORE.INTER>
-47.7785

>  <SCORE.INTER.CONST>
1

>  <SCORE.INTER.POLAR>
-4.87744

>  <SCORE.INTER.ROT>
3

>  <SCORE.INTER.SOLV>
9.7672

>  <SCORE.INTER.VDW>
-24.45

>  <SCORE.INTER.norm>
-3.67527

>  <SCORE.INTRA>
-0.20018

>  <SCORE.INTRA.DIHEDRAL>
-0.0930201

>  <SCORE.INTRA.DIHEDRAL.0>
4.88905

>  <SCORE.INTRA.POLAR>
0

>  <SCORE.INTRA.POLAR.0>
0

>  <SCORE.INTRA.REPUL>
0

>  <SCORE.INTRA.REPUL.0>
0

>  <SCORE.INTRA.SOLV>
-0.471392

>  <SCORE.INTRA.SOLV.lig_0>
-15.1033

>  <SCORE.INTRA.VDW>
0.0820266

>  <SCORE.INTRA.VDW.0>
-0.755285

>  <SCORE.INTRA.norm>
-0.0153984

>  <SCORE.RESTR>
0

>  <SCORE.RESTR.CAVITY>
0

>  <SCORE.RESTR.norm>
0

>  <SCORE.SYSTEM>
0

>  <SCORE.SYSTEM.CONST>
0

>  <SCORE.SYSTEM.DIHEDRAL>
0

>  <SCORE.SYSTEM.SOLV>
0

>  <SCORE.SYSTEM.norm>
0

>  <SCORE.heavy>
13

>  <SCORE.norm>
-3.69067

>  <RMSD>
0.725

$$$$
ligand
 OpenBabel11021811513D
libRbt.so/2013.1/901 2013/11/27
 13 14  0  0  0  0  0  0  0  0999 V2000
   34.5306   29.7473  108.1996 N   0  0  0  0  0  0  0  0  0  0  0  0
   34.3131   30.9047  108.9821 C   0  0  0  0  0  0  0  0  0  0  0  0
   35.4408   31.5818  109.5705 N   0  0  0  0  0  0  0  0  0  0  0  0
   33.0516   31.3979  109.1959 N   0  0  0  0  0  0  0  0  0  0  0  0
   31.9215   30.7779  108.6471 C   0  0  0  0  0  0  0  0  0  0  0  0
   32.0976   29.5964  107.8439 C   0  0  0  0  0  0  0  0  0  0  0  0
   33.4535   29.0886  107.6304 C   0  0  0  0  0  0  0  0  0  0  0  0
   33.6612   27.9623  106.8692 O   0  0  0  0  0  0  0  0  0  0  0  0
   30.7679   29.1881  107.4257 C   0  0  0  0  0  0  0  0  0  0  0  0
   29.8751   30.1129  107.9687 C   0  0  0  0  0  0  0  0  0  0  0  0
   30.5675   31.0545  108.6966 N   0  0  0  0  0  0  0  0  0  0  0  0
   30.4269   28.0085  106.5654 C   0  0  0  0  0  0  0  0  0  0  0  0
   29.2697   27.3299  107.1190 N   0  0  0  0  0  0  0  0  0  0  0  0
  1  2  1  0  0  0  0
  1  7  1  0  0  0  0
  2  3  1  0  0  0  0
  2  4  2  0  0  0  0
  4  5  1  0  0  0  0
  5  6  2  0  0  0  0
  5 11  1  0  0  0  0
  6  7  1  0  0  0  0
  6  9  1  0  0  0  0
  7  8  2  0  0  0  0
  9 10  2  0  0  0  0
  9 12  1  0  0  0  0
 10 11  1  0  0  0  0
 12 13  1  0  0  0  0
M  END
>  <CHROM.1>
-9.21694779,137.01992231,-130.43210007,32.29689884,29.71780839,108.05180973
-0.61264842,0.04147453,-2.58965440

>  <Name>
ligand

>  <RI>
1.99388e+07

>  <Rbt.Current_Directory>
/home/itssahil/PROJECTS/Mol_Feturizer/New_Systems/rnas/4RZD

>  <Rbt.Executable>
rbdock ($Id: //depot/dev/client3/rdock/2013.1/src/exe/rbdock.cxx#4 $)

>  <Rbt.Library>
libRbt.so (2013.1, Build901 2013/11/27)

>  <Rbt.Parameter_File>
/export/apps/rDock/src/rDock_2013.1_src/data/scripts/dock_solv.prm

>  <Rbt.Receptor>
prm/pocket_docking_2.prm

>  <SCORE>
-46.6053

>  <SCORE.INTER>
-46.3738

>  <SCORE.INTER.CONST>
1

>  <SCORE.INTER.POLAR>
-4.93651

>  <SCORE.INTER.ROT>
3

>  <SCORE.INTER.SOLV>
11.7484

>  <SCORE.INTER.VDW>
-23.977

>  <SCORE.INTER.norm>
-3.56722

>  <SCORE.INTRA>
-0.231523

>  <SCORE.INTRA.DIHEDRAL>
-0.204689

>  <SCORE.INTRA.DIHEDRAL.0>
4.88905

>  <SCORE.INTRA.POLAR>
0

>  <SCORE.INTRA.POLAR.0>
0

>  <SCORE.INTRA.REPUL>
0

>  <SCORE.INTRA.REPUL.0>
0

>  <SCORE.INTRA.SOLV>
-0.708354

>  <SCORE.INTRA.SOLV.lig_0>
-15.1033

>  <SCORE.INTRA.VDW>
0.224999

>  <SCORE.INTRA.VDW.0>
-0.755285

>  <SCORE.INTRA.norm>
-0.0178095

>  <SCORE.RESTR>
0

>  <SCORE.RESTR.CAVITY>
0

>  <SCORE.RESTR.norm>
0

>  <SCORE.SYSTEM>
0

>  <SCORE.SYSTEM.CONST>
0

>  <SCORE.SYSTEM.DIHEDRAL>
0

>  <SCORE.SYSTEM.SOLV>
0

>  <SCORE.SYSTEM.norm>
0

>  <SCORE.heavy>
13

>  <SCORE.norm>
-3.58503

>  <RMSD>
0.726

$$$$
ligand
 OpenBabel11021811513D
libRbt.so/2013.1/901 2013/11/27
 13 14  0  0  0  0  0  0  0  0999 V2000
   34.2313   29.6627  108.0169 N   0  0  0  0  0  0  0  0  0  0  0  0
   34.1460   30.8674  108.7523 C   0  0  0  0  0  0  0  0  0  0  0  0
   35.3554   31.5010  109.2127 N   0  0  0  0  0  0  0  0  0  0  0  0
   32.9369   31.4469  109.0395 N   0  0  0  0  0  0  0  0  0  0  0  0
   31.7317   30.8721  108.6157 C   0  0  0  0  0  0  0  0  0  0  0  0
   31.7727   29.6450  107.8642 C   0  0  0  0  0  0  0  0  0  0  0  0
   33.0748   29.0452  107.5706 C   0  0  0  0  0  0  0  0  0  0  0  0
   33.1539   27.8732  106.8554 O   0  0  0  0  0  0  0  0  0  0  0  0
   30.3917   29.2999  107.5752 C   0  0  0  0  0  0  0  0  0  0  0  0
   29.6014   30.3027  108.1381 C   0  0  0  0  0  0  0  0  0  0  0  0
   30.4044   31.2335  108.7582 N   0  0  0  0  0  0  0  0  0  0  0  0
   29.9136   28.1038  106.8079 C   0  0  0  0  0  0  0  0  0  0  0  0
   29.6959   27.0010  107.7259 N   0  0  0  0  0  0  0  0  0  0  0  0
  1  2  1  0  0  0  0
  1  7  1  0  0  0  0
  2  3  1  0  0  0  0
  2  4  2  0  0  0  0
  4  5  1  0  0  0  0
  5  6  2  0  0  0  0
  5 11  1  0  0  0  0
  6  7  1  0  0  0  0
  6  9  1  0  0  0  0
  7  8  2  0  0  0  0
  9 10  2  0  0  0  0
  9 12  1  0  0  0  0
 10 11  1  0  0  0  0
 12 13  1  0  0  0  0
M  END
>  <CHROM.1>
-0.34945885,90.07333843,111.12358307,32.07873976,29.72113992,108.07773592
-0.58941436,0.00075122,-2.69110162

>  <Name>
ligand

>  <RI>
1.99388e+07

>  <Rbt.Current_Directory>
/home/itssahil/PROJECTS/Mol_Feturizer/New_Systems/rnas/4RZD

>  <Rbt.Executable>
rbdock ($Id: //depot/dev/client3/rdock/2013.1/src/exe/rbdock.cxx#4 $)

>  <Rbt.Library>
libRbt.so (2013.1, Build901 2013/11/27)

>  <Rbt.Parameter_File>
/export/apps/rDock/src/rDock_2013.1_src/data/scripts/dock_solv.prm

>  <Rbt.Receptor>
prm/pocket_docking_2.prm

>  <SCORE>
-47.7068

>  <SCORE.INTER>
-47.9023

>  <SCORE.INTER.CONST>
1

>  <SCORE.INTER.POLAR>
-4.88569

>  <SCORE.INTER.ROT>
3

>  <SCORE.INTER.SOLV>
9.82821

>  <SCORE.INTER.VDW>
-24.5253

>  <SCORE.INTER.norm>
-3.68479

>  <SCORE.INTRA>
0.195431

>  <SCORE.INTRA.DIHEDRAL>
-0.104759

>  <SCORE.INTRA.DIHEDRAL.0>
4.88905

>  <SCORE.INTRA.POLAR>
0

>  <SCORE.INTRA.POLAR.0>
0

>  <SCORE.INTRA.REPUL>
0

>  <SCORE.INTRA.REPUL.0>
0

>  <SCORE.INTRA.SOLV>
-0.464251

>  <SCORE.INTRA.SOLV.lig_0>
-15.1033

>  <SCORE.INTRA.VDW>
0.479936

>  <SCORE.INTRA.VDW.0>
-0.755285

>  <SCORE.INTRA.norm>
0.0150331

>  <SCORE.RESTR>
0

>  <SCORE.RESTR.CAVITY>
0

>  <SCORE.RESTR.norm>
0

>  <SCORE.SYSTEM>
0

>  <SCORE.SYSTEM.CONST>
0

>  <SCORE.SYSTEM.DIHEDRAL>
0

>  <SCORE.SYSTEM.SOLV>
0

>  <SCORE.SYSTEM.norm>
0

>  <SCORE.heavy>
13

>  <SCORE.norm>
-3.66976

>  <RMSD>
0.726

$$$$
ligand
 OpenBabel11021811513D
libRbt.so/2013.1/901 2013/11/27
 13 14  0  0  0  0  0  0  0  0999 V2000
   34.2539   29.6653  108.0606 N   0  0  0  0  0  0  0  0  0  0  0  0
   34.1682   30.8641  108.8054 C   0  0  0  0  0  0  0  0  0  0  0  0
   35.3772   31.4921  109.2746 N   0  0  0  0  0  0  0  0  0  0  0  0
   32.9591   31.4432  109.0936 N   0  0  0  0  0  0  0  0  0  0  0  0
   31.7543   30.8737  108.6615 C   0  0  0  0  0  0  0  0  0  0  0  0
   31.7957   29.6527  107.9003 C   0  0  0  0  0  0  0  0  0  0  0  0
   33.0978   29.0532  107.6058 C   0  0  0  0  0  0  0  0  0  0  0  0
   33.1773   27.8869  106.8815 O   0  0  0  0  0  0  0  0  0  0  0  0
   30.4151   29.3120  107.6043 C   0  0  0  0  0  0  0  0  0  0  0  0
   29.6246   30.3115  108.1729 C   0  0  0  0  0  0  0  0  0  0  0  0
   30.4272   31.2361  108.8029 N   0  0  0  0  0  0  0  0  0  0  0  0
   29.9375   28.1229  106.8260 C   0  0  0  0  0  0  0  0  0  0  0  0
   29.7046   27.0164  107.7358 N   0  0  0  0  0  0  0  0  0  0  0  0
  1  2  1  0  0  0  0
  1  7  1  0  0  0  0
  2  3  1  0  0  0  0
  2  4  2  0  0  0  0
  4  5  1  0  0  0  0
  5  6  2  0  0  0  0
  5 11  1  0  0  0  0
  6  7  1  0  0  0  0
  6  9  1  0  0  0  0
  7  8  2  0  0  0  0
  9 10  2  0  0  0  0
  9 12  1  0  0  0  0
 10 11  1  0  0  0  0
 12 13  1  0  0  0  0
M  END
>  <CHROM.1>
-175.04420260,90.54346811,-128.17322876,32.10097977,29.72140237,108.10899394
-0.59773794,0.00627322,-2.68386225

>  <Name>
ligand

>  <RI>
1.99388e+07

>  <Rbt.Current_Directory>
/home/itssahil/PROJECTS/Mol_Feturizer/New_Systems/rnas/4RZD

>  <Rbt.Executable>
rbdock ($Id: //depot/dev/client3/rdock/2013.1/src/exe/rbdock.cxx#4 $)

>  <Rbt.Library>
libRbt.so (2013.1, Build901 2013/11/27)

>  <Rbt.Parameter_File>
/export/apps/rDock/src/rDock_2013.1_src/data/scripts/dock_solv.prm

>  <Rbt.Receptor>
prm/pocket_docking_2.prm

>  <SCORE>
-47.921

>  <SCORE.INTER>
-47.7261

>  <SCORE.INTER.CONST>
1

>  <SCORE.INTER.POLAR>
-4.88223

>  <SCORE.INTER.ROT>
3

>  <SCORE.INTER.SOLV>
9.80029

>  <SCORE.INTER.VDW>
-24.41

>  <SCORE.INTER.norm>
-3.67124

>  <SCORE.INTRA>
-0.194943

>  <SCORE.INTRA.DIHEDRAL>
-0.0858137

>  <SCORE.INTRA.DIHEDRAL.0>
4.88905

>  <SCORE.INTRA.POLAR>
0

>  <SCORE.INTRA.POLAR.0>
0

>  <SCORE.INTRA.REPUL>
0

>  <SCORE.INTRA.REPUL.0>
0

>  <SCORE.INTRA.SOLV>
-0.465278

>  <SCORE.INTRA.SOLV.lig_0>
-15.1033

>  <SCORE.INTRA.VDW>
0.0806029

>  <SCORE.INTRA.VDW.0>
-0.755285

>  <SCORE.INTRA.norm>
-0.0149956

>  <SCORE.RESTR>
0

>  <SCORE.RESTR.CAVITY>
0

>  <SCORE.RESTR.norm>
0

>  <SCORE.SYSTEM>
0

>  <SCORE.SYSTEM.CONST>
0

>  <SCORE.SYSTEM.DIHEDRAL>
0

>  <SCORE.SYSTEM.SOLV>
0

>  <SCORE.SYSTEM.norm>
0

>  <SCORE.heavy>
13

>  <SCORE.norm>
-3.68623

>  <RMSD>
0.727

$$$$
ligand
 OpenBabel11021811513D
libRbt.so/2013.1/901 2013/11/27
 13 14  0  0  0  0  0  0  0  0999 V2000
   34.5508   29.7285  108.2038 N   0  0  0  0  0  0  0  0  0  0  0  0
   34.3279   30.8910  108.9771 C   0  0  0  0  0  0  0  0  0  0  0  0
   35.4517   31.5729  109.5674 N   0  0  0  0  0  0  0  0  0  0  0  0
   33.0648   31.3847  109.1801 N   0  0  0  0  0  0  0  0  0  0  0  0
   31.9385   30.7601  108.6290 C   0  0  0  0  0  0  0  0  0  0  0  0
   32.1201   29.5733  107.8349 C   0  0  0  0  0  0  0  0  0  0  0  0
   33.4775   29.0651  107.6328 C   0  0  0  0  0  0  0  0  0  0  0  0
   33.6904   27.9338  106.8805 O   0  0  0  0  0  0  0  0  0  0  0  0
   30.7931   29.1612  107.4119 C   0  0  0  0  0  0  0  0  0  0  0  0
   29.8965   30.0890  107.9433 C   0  0  0  0  0  0  0  0  0  0  0  0
   30.5839   31.0360  108.6688 N   0  0  0  0  0  0  0  0  0  0  0  0
   30.4580   27.9755  106.5576 C   0  0  0  0  0  0  0  0  0  0  0  0
   29.0954   27.5573  106.8312 N   0  0  0  0  0  0  0  0  0  0  0  0
  1  2  1  0  0  0  0
  1  7  1  0  0  0  0
  2  3  1  0  0  0  0
  2  4  2  0  0  0  0
  4  5  1  0  0  0  0
  5  6  2  0  0  0  0
  5 11  1  0  0  0  0
  6  7  1  0  0  0  0
  6  9  1  0  0  0  0
  7  8  2  0  0  0  0
  9 10  2  0  0  0  0
  9 12  1  0  0  0  0
 10 11  1  0  0  0  0
 12 13  1  0  0  0  0
M  END
>  <CHROM.1>
-8.88788913,155.06295144,-153.71882306,32.29914480,29.72146385,108.01690961
-0.59727708,0.06142597,-2.57184419

>  <Name>
ligand

>  <RI>
2.73617e+07

>  <Rbt.Current_Directory>
/home/itssahil/PROJECTS/Mol_Feturizer/New_Systems/rnas/4RZD

>  <Rbt.Executable>
rbdock ($Id: //depot/dev/client3/rdock/2013.1/src/exe/rbdock.cxx#4 $)

>  <Rbt.Library>
libRbt.so (2013.1, Build901 2013/11/27)

>  <Rbt.Parameter_File>
/export/apps/rDock/src/rDock_2013.1_src/data/scripts/dock_solv.prm

>  <Rbt.Receptor>
prm/pocket_docking_6.prm

>  <SCORE>
-46.5856

>  <SCORE.INTER>
-45.828

>  <SCORE.INTER.CONST>
1

>  <SCORE.INTER.POLAR>
-4.85666

>  <SCORE.INTER.ROT>
3

>  <SCORE.INTER.SOLV>
12.4892

>  <SCORE.INTER.VDW>
-24.1262

>  <SCORE.INTER.norm>
-3.52523

>  <SCORE.INTRA>
-0.757555

>  <SCORE.INTRA.DIHEDRAL>
-1.46663

>  <SCORE.INTRA.DIHEDRAL.0>
4.88905

>  <SCORE.INTRA.POLAR>
0

>  <SCORE.INTRA.POLAR.0>
0

>  <SCORE.INTRA.REPUL>
0

>  <SCORE.INTRA.REPUL.0>
0

>  <SCORE.INTRA.SOLV>
-0.702028

>  <SCORE.INTRA.SOLV.lig_0>
-15.1033

>  <SCORE.INTRA.VDW>
0.326773

>  <SCORE.INTRA.VDW.0>
-0.755285

>  <SCORE.INTRA.norm>
-0.0582735

>  <SCORE.RESTR>
0

>  <SCORE.RESTR.CAVITY>
0

>  <SCORE.RESTR.norm>
0

>  <SCORE.SYSTEM>
0

>  <SCORE.SYSTEM.CONST>
0

>  <SCORE.SYSTEM.DIHEDRAL>
0

>  <SCORE.SYSTEM.SOLV>
0

>  <SCORE.SYSTEM.norm>
0

>  <SCORE.heavy>
13

>  <SCORE.norm>
-3.5835

>  <RMSD>
0.727

$$$$
ligand
 OpenBabel11021811513D
libRbt.so/2013.1/901 2013/11/27
 13 14  0  0  0  0  0  0  0  0999 V2000
   34.5490   29.7302  108.2090 N   0  0  0  0  0  0  0  0  0  0  0  0
   34.3277   30.9020  108.9686 C   0  0  0  0  0  0  0  0  0  0  0  0
   35.4519   31.5871  109.5543 N   0  0  0  0  0  0  0  0  0  0  0  0
   33.0656   31.4018  109.1626 N   0  0  0  0  0  0  0  0  0  0  0  0
   31.9388   30.7745  108.6156 C   0  0  0  0  0  0  0  0  0  0  0  0
   32.1188   29.5783  107.8354 C   0  0  0  0  0  0  0  0  0  0  0  0
   33.4752   29.0637  107.6427 C   0  0  0  0  0  0  0  0  0  0  0  0
   33.6866   27.9234  106.9037 O   0  0  0  0  0  0  0  0  0  0  0  0
   30.7918   29.1655  107.4134 C   0  0  0  0  0  0  0  0  0  0  0  0
   29.8965   30.1019  107.9319 C   0  0  0  0  0  0  0  0  0  0  0  0
   30.5850   31.0550  108.6486 N   0  0  0  0  0  0  0  0  0  0  0  0
   30.4552   27.9713  106.5716 C   0  0  0  0  0  0  0  0  0  0  0  0
   29.0894   27.5628  106.8433 N   0  0  0  0  0  0  0  0  0  0  0  0
  1  2  1  0  0  0  0
  1  7  1  0  0  0  0
  2  3  1  0  0  0  0
  2  4  2  0  0  0  0
  4  5  1  0  0  0  0
  5  6  2  0  0  0  0
  5 11  1  0  0  0  0
  6  7  1  0  0  0  0
  6  9  1  0  0  0  0
  7  8  2  0  0  0  0
  9 10  2  0  0  0  0
  9 12  1  0  0  0  0
 10 11  1  0  0  0  0
 12 13  1  0  0  0  0
M  END
>  <CHROM.1>
171.27371147,155.23176133,-153.90235567,32.29779029,29.72812903,108.01586621
-0.59590008,0.06551633,-2.58295549

>  <Name>
ligand

>  <RI>
1.38753e+07

>  <Rbt.Current_Directory>
/home/itssahil/PROJECTS/Mol_Feturizer/New_Systems/rnas/4RZD

>  <Rbt.Executable>
rbdock ($Id: //depot/dev/client3/rdock/2013.1/src/exe/rbdock.cxx#4 $)

>  <Rbt.Library>
libRbt.so (2013.1, Build901 2013/11/27)

>  <Rbt.Parameter_File>
/export/apps/rDock/src/rDock_2013.1_src/data/scripts/dock_solv.prm

>  <Rbt.Receptor>
prm/pocket_docking_7.prm

>  <SCORE>
-46.5885

>  <SCORE.INTER>
-45.8261

>  <SCORE.INTER.CONST>
1

>  <SCORE.INTER.POLAR>
-4.87324

>  <SCORE.INTER.ROT>
3

>  <SCORE.INTER.SOLV>
12.4582

>  <SCORE.INTER.VDW>
-24.0594

>  <SCORE.INTER.norm>
-3.52509

>  <SCORE.INTRA>
-0.762389

>  <SCORE.INTRA.DIHEDRAL>
-1.47788

>  <SCORE.INTRA.DIHEDRAL.0>
4.88905

>  <SCORE.INTRA.POLAR>
0

>  <SCORE.INTRA.POLAR.0>
0

>  <SCORE.INTRA.REPUL>
0

>  <SCORE.INTRA.REPUL.0>
0

>  <SCORE.INTRA.SOLV>
-0.701852

>  <SCORE.INTRA.SOLV.lig_0>
-15.1033

>  <SCORE.INTRA.VDW>
0.327476

>  <SCORE.INTRA.VDW.0>
-0.755285

>  <SCORE.INTRA.norm>
-0.0586453

>  <SCORE.RESTR>
0

>  <SCORE.RESTR.CAVITY>
0

>  <SCORE.RESTR.norm>
0

>  <SCORE.SYSTEM>
0

>  <SCORE.SYSTEM.CONST>
0

>  <SCORE.SYSTEM.DIHEDRAL>
0

>  <SCORE.SYSTEM.SOLV>
0

>  <SCORE.SYSTEM.norm>
0

>  <SCORE.heavy>
13

>  <SCORE.norm>
-3.58373

>  <RMSD>
0.727

$$$$
ligand
 OpenBabel11021811513D
libRbt.so/2013.1/901 2013/11/27
 13 14  0  0  0  0  0  0  0  0999 V2000
   34.2425   29.6831  108.0240 N   0  0  0  0  0  0  0  0  0  0  0  0
   34.1555   30.8831  108.7667 C   0  0  0  0  0  0  0  0  0  0  0  0
   35.3644   31.5184  109.2266 N   0  0  0  0  0  0  0  0  0  0  0  0
   32.9454   31.4567  109.0616 N   0  0  0  0  0  0  0  0  0  0  0  0
   31.7407   30.8801  108.6387 C   0  0  0  0  0  0  0  0  0  0  0  0
   31.7834   29.6576  107.8800 C   0  0  0  0  0  0  0  0  0  0  0  0
   33.0866   29.0641  107.5782 C   0  0  0  0  0  0  0  0  0  0  0  0
   33.1672   27.8966  106.8560 O   0  0  0  0  0  0  0  0  0  0  0  0
   30.4026   29.3092  107.5939 C   0  0  0  0  0  0  0  0  0  0  0  0
   29.6108   30.3059  108.1654 C   0  0  0  0  0  0  0  0  0  0  0  0
   30.4127   31.2360  108.7881 N   0  0  0  0  0  0  0  0  0  0  0  0
   29.9260   28.1159  106.8213 C   0  0  0  0  0  0  0  0  0  0  0  0
   29.7042   27.0105  107.7351 N   0  0  0  0  0  0  0  0  0  0  0  0
  1  2  1  0  0  0  0
  1  7  1  0  0  0  0
  2  3  1  0  0  0  0
  2  4  2  0  0  0  0
  4  5  1  0  0  0  0
  5  6  2  0  0  0  0
  5 11  1  0  0  0  0
  6  7  1  0  0  0  0
  6  9  1  0  0  0  0
  7  8  2  0  0  0  0
  9 10  2  0  0  0  0
  9 12  1  0  0  0  0
 10 11  1  0  0  0  0
 12 13  1  0  0  0  0
M  END
>  <CHROM.1>
177.46633551,90.57150870,-129.01202717,32.08954138,29.72837067,108.08652026
-0.59935042,-0.00165278,-2.68646940

>  <Name>
ligand

>  <RI>
2.73617e+07

>  <Rbt.Current_Directory>
/home/itssahil/PROJECTS/Mol_Feturizer/New_Systems/rnas/4RZD

>  <Rbt.Executable>
rbdock ($Id: //depot/dev/client3/rdock/2013.1/src/exe/rbdock.cxx#4 $)

>  <Rbt.Library>
libRbt.so (2013.1, Build901 2013/11/27)

>  <Rbt.Parameter_File>
/export/apps/rDock/src/rDock_2013.1_src/data/scripts/dock_solv.prm

>  <Rbt.Receptor>
prm/pocket_docking_6.prm

>  <SCORE>
-47.9471

>  <SCORE.INTER>
-47.7402

>  <SCORE.INTER.CONST>
1

>  <SCORE.INTER.POLAR>
-4.87497

>  <SCORE.INTER.ROT>
3

>  <SCORE.INTER.SOLV>
9.79683

>  <SCORE.INTER.VDW>
-24.4425

>  <SCORE.INTER.norm>
-3.67232

>  <SCORE.INTRA>
-0.206884

>  <SCORE.INTRA.DIHEDRAL>
-0.108586

>  <SCORE.INTRA.DIHEDRAL.0>
4.88905

>  <SCORE.INTRA.POLAR>
0

>  <SCORE.INTRA.POLAR.0>
0

>  <SCORE.INTRA.REPUL>
0

>  <SCORE.INTRA.REPUL.0>
0

>  <SCORE.INTRA.SOLV>
-0.466762

>  <SCORE.INTRA.SOLV.lig_0>
-15.1033

>  <SCORE.INTRA.VDW>
0.0807897

>  <SCORE.INTRA.VDW.0>
-0.755285

>  <SCORE.INTRA.norm>
-0.0159142

>  <SCORE.RESTR>
0

>  <SCORE.RESTR.CAVITY>
0

>  <SCORE.RESTR.norm>
0

>  <SCORE.SYSTEM>
0

>  <SCORE.SYSTEM.CONST>
0

>  <SCORE.SYSTEM.DIHEDRAL>
0

>  <SCORE.SYSTEM.SOLV>
0

>  <SCORE.SYSTEM.norm>
0

>  <SCORE.heavy>
13

>  <SCORE.norm>
-3.68824

>  <RMSD>
0.730

$$$$
ligand
 OpenBabel11021811513D
libRbt.so/2013.1/901 2013/11/27
 13 14  0  0  0  0  0  0  0  0999 V2000
   34.2435   29.6885  107.9948 N   0  0  0  0  0  0  0  0  0  0  0  0
   34.1594   30.8824  108.7476 C   0  0  0  0  0  0  0  0  0  0  0  0
   35.3702   31.5167  109.2036 N   0  0  0  0  0  0  0  0  0  0  0  0
   32.9503   31.4510  109.0558 N   0  0  0  0  0  0  0  0  0  0  0  0
   31.7438   30.8751  108.6371 C   0  0  0  0  0  0  0  0  0  0  0  0
   31.7835   29.6587  107.8684 C   0  0  0  0  0  0  0  0  0  0  0  0
   33.0857   29.0705  107.5525 C   0  0  0  0  0  0  0  0  0  0  0  0
   33.1636   27.9089  106.8205 O   0  0  0  0  0  0  0  0  0  0  0  0
   30.4015   29.3096  107.5896 C   0  0  0  0  0  0  0  0  0  0  0  0
   29.6116   30.3000  108.1748 C   0  0  0  0  0  0  0  0  0  0  0  0
   30.4161   31.2269  108.7989 N   0  0  0  0  0  0  0  0  0  0  0  0
   29.9218   28.1214  106.8111 C   0  0  0  0  0  0  0  0  0  0  0  0
   29.7027   27.0103  107.7187 N   0  0  0  0  0  0  0  0  0  0  0  0
  1  2  1  0  0  0  0
  1  7  1  0  0  0  0
  2  3  1  0  0  0  0
  2  4  2  0  0  0  0
  4  5  1  0  0  0  0
  5  6  2  0  0  0  0
  5 11  1  0  0  0  0
  6  7  1  0  0  0  0
  6  9  1  0  0  0  0
  7  8  2  0  0  0  0
  9 10  2  0  0  0  0
  9 12  1  0  0  0  0
 10 11  1  0  0  0  0
 12 13  1  0  0  0  0
M  END
>  <CHROM.1>
173.55550527,90.84585638,-128.43270904,32.09047740,29.72874182,108.07335637
-0.59762175,-0.00914054,-2.67864435

>  <Name>
ligand

>  <RI>
1.0531e+07

>  <Rbt.Current_Directory>
/home/itssahil/PROJECTS/Mol_Feturizer/New_Systems/rnas/4RZD

>  <Rbt.Executable>
rbdock ($Id: //depot/dev/client3/rdock/2013.1/src/exe/rbdock.cxx#4 $)

>  <Rbt.Library>
libRbt.so (2013.1, Build901 2013/11/27)

>  <Rbt.Parameter_File>
/export/apps/rDock/src/rDock_2013.1_src/data/scripts/dock_solv.prm

>  <Rbt.Receptor>
prm/pocket_docking_8.prm

>  <SCORE>
-47.8932

>  <SCORE.INTER>
-47.6938

>  <SCORE.INTER.CONST>
1

>  <SCORE.INTER.POLAR>
-4.86859

>  <SCORE.INTER.ROT>
3

>  <SCORE.INTER.SOLV>
9.83707

>  <SCORE.INTER.VDW>
-24.4462

>  <SCORE.INTER.norm>
-3.66875

>  <SCORE.INTRA>
-0.199379

>  <SCORE.INTRA.DIHEDRAL>
-0.0926435

>  <SCORE.INTRA.DIHEDRAL.0>
4.88905

>  <SCORE.INTRA.POLAR>
0

>  <SCORE.INTRA.POLAR.0>
0

>  <SCORE.INTRA.REPUL>
0

>  <SCORE.INTRA.REPUL.0>
0

>  <SCORE.INTRA.SOLV>
-0.469358

>  <SCORE.INTRA.SOLV.lig_0>
-15.1033

>  <SCORE.INTRA.VDW>
0.0816217

>  <SCORE.INTRA.VDW.0>
-0.755285

>  <SCORE.INTRA.norm>
-0.0153369

>  <SCORE.RESTR>
0

>  <SCORE.RESTR.CAVITY>
0

>  <SCORE.RESTR.norm>
0

>  <SCORE.SYSTEM>
0

>  <SCORE.SYSTEM.CONST>
0

>  <SCORE.SYSTEM.DIHEDRAL>
0

>  <SCORE.SYSTEM.SOLV>
0

>  <SCORE.SYSTEM.norm>
0

>  <SCORE.heavy>
13

>  <SCORE.norm>
-3.68409

>  <RMSD>
0.730

$$$$
ligand
 OpenBabel11021811513D
libRbt.so/2013.1/901 2013/11/27
 13 14  0  0  0  0  0  0  0  0999 V2000
   34.5472   29.7419  108.1952 N   0  0  0  0  0  0  0  0  0  0  0  0
   34.3351   30.9026  108.9744 C   0  0  0  0  0  0  0  0  0  0  0  0
   35.4656   31.5743  109.5635 N   0  0  0  0  0  0  0  0  0  0  0  0
   33.0762   31.4040  109.1842 N   0  0  0  0  0  0  0  0  0  0  0  0
   31.9436   30.7894  108.6346 C   0  0  0  0  0  0  0  0  0  0  0  0
   32.1142   29.6049  107.8347 C   0  0  0  0  0  0  0  0  0  0  0  0
   33.4673   29.0884  107.6254 C   0  0  0  0  0  0  0  0  0  0  0  0
   33.6698   27.9590  106.8673 O   0  0  0  0  0  0  0  0  0  0  0  0
   30.7829   29.2037  107.4147 C   0  0  0  0  0  0  0  0  0  0  0  0
   29.8945   30.1352  107.9535 C   0  0  0  0  0  0  0  0  0  0  0  0
   30.5911   31.0744  108.6806 N   0  0  0  0  0  0  0  0  0  0  0  0
   30.4366   28.0240  106.5566 C   0  0  0  0  0  0  0  0  0  0  0  0
   29.2807   27.3474  107.1156 N   0  0  0  0  0  0  0  0  0  0  0  0
  1  2  1  0  0  0  0
  1  7  1  0  0  0  0
  2  3  1  0  0  0  0
  2  4  2  0  0  0  0
  4  5  1  0  0  0  0
  5  6  2  0  0  0  0
  5 11  1  0  0  0  0
  6  7  1  0  0  0  0
  6  9  1  0  0  0  0
  7  8  2  0  0  0  0
  9 10  2  0  0  0  0
  9 12  1  0  0  0  0
 10 11  1  0  0  0  0
 12 13  1  0  0  0  0
M  END
>  <CHROM.1>
-8.61975414,136.55521487,-131.22630593,32.31428515,29.72510541,108.04327414
-0.60909777,0.04617942,-2.59285919

>  <Name>
ligand

>  <RI>
2.51964e+07

>  <Rbt.Current_Directory>
/home/itssahil/PROJECTS/Mol_Feturizer/New_Systems/rnas/4RZD

>  <Rbt.Executable>
rbdock ($Id: //depot/dev/client3/rdock/2013.1/src/exe/rbdock.cxx#4 $)

>  <Rbt.Library>
libRbt.so (2013.1, Build901 2013/11/27)

>  <Rbt.Parameter_File>
/export/apps/rDock/src/rDock_2013.1_src/data/scripts/dock_solv.prm

>  <Rbt.Receptor>
prm/pocket_docking_4.prm

>  <SCORE>
-46.6242

>  <SCORE.INTER>
-46.3776

>  <SCORE.INTER.CONST>
1

>  <SCORE.INTER.POLAR>
-4.96904

>  <SCORE.INTER.ROT>
3

>  <SCORE.INTER.SOLV>
11.7796

>  <SCORE.INTER.VDW>
-23.8815

>  <SCORE.INTER.norm>
-3.56751

>  <SCORE.INTRA>
-0.246639

>  <SCORE.INTRA.DIHEDRAL>
-0.230886

>  <SCORE.INTRA.DIHEDRAL.0>
4.88905

>  <SCORE.INTRA.POLAR>
0

>  <SCORE.INTRA.POLAR.0>
0

>  <SCORE.INTRA.REPUL>
0

>  <SCORE.INTRA.REPUL.0>
0

>  <SCORE.INTRA.SOLV>
-0.708278

>  <SCORE.INTRA.SOLV.lig_0>
-15.1033

>  <SCORE.INTRA.VDW>
0.222943

>  <SCORE.INTRA.VDW.0>
-0.755285

>  <SCORE.INTRA.norm>
-0.0189722

>  <SCORE.RESTR>
0

>  <SCORE.RESTR.CAVITY>
0

>  <SCORE.RESTR.norm>
0

>  <SCORE.SYSTEM>
0

>  <SCORE.SYSTEM.CONST>
0

>  <SCORE.SYSTEM.DIHEDRAL>
0

>  <SCORE.SYSTEM.SOLV>
0

>  <SCORE.SYSTEM.norm>
0

>  <SCORE.heavy>
13

>  <SCORE.norm>
-3.58648

>  <RMSD>
0.732

$$$$
ligand
 OpenBabel11021811513D
libRbt.so/2013.1/901 2013/11/27
 13 14  0  0  0  0  0  0  0  0999 V2000
   34.5555   29.7361  108.1943 N   0  0  0  0  0  0  0  0  0  0  0  0
   34.3415   30.9013  108.9661 C   0  0  0  0  0  0  0  0  0  0  0  0
   35.4708   31.5771  109.5529 N   0  0  0  0  0  0  0  0  0  0  0  0
   33.0820   31.4032  109.1710 N   0  0  0  0  0  0  0  0  0  0  0  0
   31.9506   30.7847  108.6233 C   0  0  0  0  0  0  0  0  0  0  0  0
   32.1231   29.5955  107.8308 C   0  0  0  0  0  0  0  0  0  0  0  0
   33.4769   29.0785  107.6267 C   0  0  0  0  0  0  0  0  0  0  0  0
   33.6812   27.9447  106.8758 O   0  0  0  0  0  0  0  0  0  0  0  0
   30.7927   29.1909  107.4112 C   0  0  0  0  0  0  0  0  0  0  0  0
   29.9030   30.1251  107.9430 C   0  0  0  0  0  0  0  0  0  0  0  0
   30.5979   31.0691  108.6655 N   0  0  0  0  0  0  0  0  0  0  0  0
   30.4484   28.0059  106.5597 C   0  0  0  0  0  0  0  0  0  0  0  0
   29.0906   27.5844  106.8512 N   0  0  0  0  0  0  0  0  0  0  0  0
  1  2  1  0  0  0  0
  1  7  1  0  0  0  0
  2  3  1  0  0  0  0
  2  4  2  0  0  0  0
  4  5  1  0  0  0  0
  5  6  2  0  0  0  0
  5 11  1  0  0  0  0
  6  7  1  0  0  0  0
  6  9  1  0  0  0  0
  7  8  2  0  0  0  0
  9 10  2  0  0  0  0
  9 12  1  0  0  0  0
 10 11  1  0  0  0  0
 12 13  1  0  0  0  0
M  END
>  <CHROM.1>
173.72450941,154.22481321,-152.99358518,32.30412635,29.74157229,108.01347697
-0.59143450,0.06198526,-2.57484715

>  <Name>
ligand

>  <RI>
1.0531e+07

>  <Rbt.Current_Directory>
/home/itssahil/PROJECTS/Mol_Feturizer/New_Systems/rnas/4RZD

>  <Rbt.Executable>
rbdock ($Id: //depot/dev/client3/rdock/2013.1/src/exe/rbdock.cxx#4 $)

>  <Rbt.Library>
libRbt.so (2013.1, Build901 2013/11/27)

>  <Rbt.Parameter_File>
/export/apps/rDock/src/rDock_2013.1_src/data/scripts/dock_solv.prm

>  <Rbt.Receptor>
prm/pocket_docking_8.prm

>  <SCORE>
-46.5906

>  <SCORE.INTER>
-45.8337

>  <SCORE.INTER.CONST>
1

>  <SCORE.INTER.POLAR>
-4.87688

>  <SCORE.INTER.ROT>
3

>  <SCORE.INTER.SOLV>
12.5303

>  <SCORE.INTER.VDW>
-24.0763

>  <SCORE.INTER.norm>
-3.52567

>  <SCORE.INTRA>
-0.756891

>  <SCORE.INTRA.DIHEDRAL>
-1.42204

>  <SCORE.INTRA.DIHEDRAL.0>
4.88905

>  <SCORE.INTRA.POLAR>
0

>  <SCORE.INTRA.POLAR.0>
0

>  <SCORE.INTRA.REPUL>
0

>  <SCORE.INTRA.REPUL.0>
0

>  <SCORE.INTRA.SOLV>
-0.702008

>  <SCORE.INTRA.SOLV.lig_0>
-15.1033

>  <SCORE.INTRA.VDW>
0.305133

>  <SCORE.INTRA.VDW.0>
-0.755285

>  <SCORE.INTRA.norm>
-0.0582224

>  <SCORE.RESTR>
0

>  <SCORE.RESTR.CAVITY>
0

>  <SCORE.RESTR.norm>
0

>  <SCORE.SYSTEM>
0

>  <SCORE.SYSTEM.CONST>
0

>  <SCORE.SYSTEM.DIHEDRAL>
0

>  <SCORE.SYSTEM.SOLV>
0

>  <SCORE.SYSTEM.norm>
0

>  <SCORE.heavy>
13

>  <SCORE.norm>
-3.58389

>  <RMSD>
0.738

$$$$
ligand
 OpenBabel11021811513D
libRbt.so/2013.1/901 2013/11/27
 13 14  0  0  0  0  0  0  0  0999 V2000
   34.2252   29.6672  108.0310 N   0  0  0  0  0  0  0  0  0  0  0  0
   34.1484   30.8774  108.7582 C   0  0  0  0  0  0  0  0  0  0  0  0
   35.3630   31.5148  109.1994 N   0  0  0  0  0  0  0  0  0  0  0  0
   32.9426   31.4588  109.0554 N   0  0  0  0  0  0  0  0  0  0  0  0
   31.7325   30.8805  108.6504 C   0  0  0  0  0  0  0  0  0  0  0  0
   31.7650   29.6479  107.9078 C   0  0  0  0  0  0  0  0  0  0  0  0
   33.0637   29.0461  107.6032 C   0  0  0  0  0  0  0  0  0  0  0  0
   33.1346   27.8687  106.8961 O   0  0  0  0  0  0  0  0  0  0  0  0
   30.3808   29.3002  107.6379 C   0  0  0  0  0  0  0  0  0  0  0  0
   29.5969   30.3071  108.2026 C   0  0  0  0  0  0  0  0  0  0  0  0
   30.4070   31.2428  108.8060 N   0  0  0  0  0  0  0  0  0  0  0  0
   29.8940   28.0982  106.8855 C   0  0  0  0  0  0  0  0  0  0  0  0
   29.6878   27.0023  107.8142 N   0  0  0  0  0  0  0  0  0  0  0  0
  1  2  1  0  0  0  0
  1  7  1  0  0  0  0
  2  3  1  0  0  0  0
  2  4  2  0  0  0  0
  4  5  1  0  0  0  0
  5  6  2  0  0  0  0
  5 11  1  0  0  0  0
  6  7  1  0  0  0  0
  6  9  1  0  0  0  0
  7  8  2  0  0  0  0
  9 10  2  0  0  0  0
  9 12  1  0  0  0  0
 10 11  1  0  0  0  0
 12 13  1  0  0  0  0
M  END
>  <CHROM.1>
178.31198223,90.06160201,-62.95582137,32.07935411,29.71990698,108.11162181
-0.59652486,-0.00549792,-2.70174342

>  <Name>
ligand

>  <RI>
1.99388e+07

>  <Rbt.Current_Directory>
/home/itssahil/PROJECTS/Mol_Feturizer/New_Systems/rnas/4RZD

>  <Rbt.Executable>
rbdock ($Id: //depot/dev/client3/rdock/2013.1/src/exe/rbdock.cxx#4 $)

>  <Rbt.Library>
libRbt.so (2013.1, Build901 2013/11/27)

>  <Rbt.Parameter_File>
/export/apps/rDock/src/rDock_2013.1_src/data/scripts/dock_solv.prm

>  <Rbt.Receptor>
prm/pocket_docking_2.prm

>  <SCORE>
-45.4823

>  <SCORE.INTER>
-44.1846

>  <SCORE.INTER.CONST>
1

>  <SCORE.INTER.POLAR>
-4.03806

>  <SCORE.INTER.ROT>
3

>  <SCORE.INTER.SOLV>
9.51149

>  <SCORE.INTER.VDW>
-24.7667

>  <SCORE.INTER.norm>
-3.39882

>  <SCORE.INTRA>
-1.29772

>  <SCORE.INTRA.DIHEDRAL>
-2.36534

>  <SCORE.INTRA.DIHEDRAL.0>
4.88905

>  <SCORE.INTRA.POLAR>
0

>  <SCORE.INTRA.POLAR.0>
0

>  <SCORE.INTRA.REPUL>
0

>  <SCORE.INTRA.REPUL.0>
0

>  <SCORE.INTRA.SOLV>
-0.413112

>  <SCORE.INTRA.SOLV.lig_0>
-15.1033

>  <SCORE.INTRA.VDW>
0.0915087

>  <SCORE.INTRA.VDW.0>
-0.755285

>  <SCORE.INTRA.norm>
-0.0998243

>  <SCORE.RESTR>
0

>  <SCORE.RESTR.CAVITY>
0

>  <SCORE.RESTR.norm>
0

>  <SCORE.SYSTEM>
0

>  <SCORE.SYSTEM.CONST>
0

>  <SCORE.SYSTEM.DIHEDRAL>
0

>  <SCORE.SYSTEM.SOLV>
0

>  <SCORE.SYSTEM.norm>
0

>  <SCORE.heavy>
13

>  <SCORE.norm>
-3.49864

>  <RMSD>
0.739

$$$$
ligand
 OpenBabel11021811513D
libRbt.so/2013.1/901 2013/11/27
 13 14  0  0  0  0  0  0  0  0999 V2000
   34.5536   29.7357  108.2062 N   0  0  0  0  0  0  0  0  0  0  0  0
   34.3420   30.9045  108.9732 C   0  0  0  0  0  0  0  0  0  0  0  0
   35.4726   31.5807  109.5569 N   0  0  0  0  0  0  0  0  0  0  0  0
   33.0834   31.4096  109.1764 N   0  0  0  0  0  0  0  0  0  0  0  0
   31.9507   30.7909  108.6316 C   0  0  0  0  0  0  0  0  0  0  0  0
   32.1208   29.5981  107.8440 C   0  0  0  0  0  0  0  0  0  0  0  0
   33.4736   29.0778  107.6416 C   0  0  0  0  0  0  0  0  0  0  0  0
   33.6756   27.9405  106.8954 O   0  0  0  0  0  0  0  0  0  0  0  0
   30.7896   29.1943  107.4265 C   0  0  0  0  0  0  0  0  0  0  0  0
   29.9017   30.1323  107.9546 C   0  0  0  0  0  0  0  0  0  0  0  0
   30.5986   31.0779  108.6730 N   0  0  0  0  0  0  0  0  0  0  0  0
   30.4428   28.0064  106.5800 C   0  0  0  0  0  0  0  0  0  0  0  0
   29.0669   27.6214  106.8346 N   0  0  0  0  0  0  0  0  0  0  0  0
  1  2  1  0  0  0  0
  1  7  1  0  0  0  0
  2  3  1  0  0  0  0
  2  4  2  0  0  0  0
  4  5  1  0  0  0  0
  5  6  2  0  0  0  0
  5 11  1  0  0  0  0
  6  7  1  0  0  0  0
  6  9  1  0  0  0  0
  7  8  2  0  0  0  0
  9 10  2  0  0  0  0
  9 12  1  0  0  0  0
 10 11  1  0  0  0  0
 12 13  1  0  0  0  0
M  END
>  <CHROM.1>
-7.68522607,156.48181282,-151.42340273,32.30067110,29.74754206,108.02245430
-0.58838044,0.06516563,-2.57642295

>  <Name>
ligand

>  <RI>
1.35221e+07

>  <Rbt.Current_Directory>
/home/itssahil/PROJECTS/Mol_Feturizer/New_Systems/rnas/4RZD

>  <Rbt.Executable>
rbdock ($Id: //depot/dev/client3/rdock/2013.1/src/exe/rbdock.cxx#4 $)

>  <Rbt.Library>
libRbt.so (2013.1, Build901 2013/11/27)

>  <Rbt.Parameter_File>
/export/apps/rDock/src/rDock_2013.1_src/data/scripts/dock_solv.prm

>  <Rbt.Receptor>
prm/pocket_docking_5.prm

>  <SCORE>
-46.5865

>  <SCORE.INTER>
-45.9046

>  <SCORE.INTER.CONST>
1

>  <SCORE.INTER.POLAR>
-4.88157

>  <SCORE.INTER.ROT>
3

>  <SCORE.INTER.SOLV>
12.5735

>  <SCORE.INTER.VDW>
-24.1224

>  <SCORE.INTER.norm>
-3.53113

>  <SCORE.INTRA>
-0.681817

>  <SCORE.INTRA.DIHEDRAL>
-1.32311

>  <SCORE.INTRA.DIHEDRAL.0>
4.88905

>  <SCORE.INTRA.POLAR>
0

>  <SCORE.INTRA.POLAR.0>
0

>  <SCORE.INTRA.REPUL>
0

>  <SCORE.INTRA.REPUL.0>
0

>  <SCORE.INTRA.SOLV>
-0.702247

>  <SCORE.INTRA.SOLV.lig_0>
-15.1033

>  <SCORE.INTRA.VDW>
0.330862

>  <SCORE.INTRA.VDW.0>
-0.755285

>  <SCORE.INTRA.norm>
-0.0524475

>  <SCORE.RESTR>
0

>  <SCORE.RESTR.CAVITY>
0

>  <SCORE.RESTR.norm>
0

>  <SCORE.SYSTEM>
0

>  <SCORE.SYSTEM.CONST>
0

>  <SCORE.SYSTEM.DIHEDRAL>
0

>  <SCORE.SYSTEM.SOLV>
0

>  <SCORE.SYSTEM.norm>
0

>  <SCORE.heavy>
13

>  <SCORE.norm>
-3.58357

>  <RMSD>
0.739

$$$$
ligand
 OpenBabel11021811513D
libRbt.so/2013.1/901 2013/11/27
 13 14  0  0  0  0  0  0  0  0999 V2000
   34.5205   29.7642  108.1982 N   0  0  0  0  0  0  0  0  0  0  0  0
   34.3129   30.9214  108.9836 C   0  0  0  0  0  0  0  0  0  0  0  0
   35.4465   31.5886  109.5720 N   0  0  0  0  0  0  0  0  0  0  0  0
   33.0555   31.4238  109.2002 N   0  0  0  0  0  0  0  0  0  0  0  0
   31.9200   30.8136  108.6516 C   0  0  0  0  0  0  0  0  0  0  0  0
   32.0860   29.6326  107.8455 C   0  0  0  0  0  0  0  0  0  0  0  0
   33.4376   29.1150  107.6291 C   0  0  0  0  0  0  0  0  0  0  0  0
   33.6357   27.9889  106.8650 O   0  0  0  0  0  0  0  0  0  0  0  0
   30.7526   29.2354  107.4283 C   0  0  0  0  0  0  0  0  0  0  0  0
   29.8676   30.1657  107.9745 C   0  0  0  0  0  0  0  0  0  0  0  0
   30.5681   31.1004  108.7036 N   0  0  0  0  0  0  0  0  0  0  0  0
   30.4015   28.0604  106.5658 C   0  0  0  0  0  0  0  0  0  0  0  0
   29.2556   27.3743  107.1336 N   0  0  0  0  0  0  0  0  0  0  0  0
  1  2  1  0  0  0  0
  1  7  1  0  0  0  0
  2  3  1  0  0  0  0
  2  4  2  0  0  0  0
  4  5  1  0  0  0  0
  5  6  2  0  0  0  0
  5 11  1  0  0  0  0
  6  7  1  0  0  0  0
  6  9  1  0  0  0  0
  7  8  2  0  0  0  0
  9 10  2  0  0  0  0
  9 12  1  0  0  0  0
 10 11  1  0  0  0  0
 12 13  1  0  0  0  0
M  END
>  <CHROM.1>
-8.00848668,135.93497652,-123.95487194,32.28820071,29.75030371,108.05496584
-0.60718489,0.04354370,-2.58934593

>  <Name>
ligand

>  <RI>
1.38753e+07

>  <Rbt.Current_Directory>
/home/itssahil/PROJECTS/Mol_Feturizer/New_Systems/rnas/4RZD

>  <Rbt.Executable>
rbdock ($Id: //depot/dev/client3/rdock/2013.1/src/exe/rbdock.cxx#4 $)

>  <Rbt.Library>
libRbt.so (2013.1, Build901 2013/11/27)

>  <Rbt.Parameter_File>
/export/apps/rDock/src/rDock_2013.1_src/data/scripts/dock_solv.prm

>  <Rbt.Receptor>
prm/pocket_docking_7.prm

>  <SCORE>
-46.5964

>  <SCORE.INTER>
-46.4479

>  <SCORE.INTER.CONST>
1

>  <SCORE.INTER.POLAR>
-4.92944

>  <SCORE.INTER.ROT>
3

>  <SCORE.INTER.SOLV>
11.8285

>  <SCORE.INTER.VDW>
-24.0767

>  <SCORE.INTER.norm>
-3.57292

>  <SCORE.INTRA>
-0.148506

>  <SCORE.INTRA.DIHEDRAL>
-0.0557491

>  <SCORE.INTRA.DIHEDRAL.0>
4.88905

>  <SCORE.INTRA.POLAR>
0

>  <SCORE.INTRA.POLAR.0>
0

>  <SCORE.INTRA.REPUL>
0

>  <SCORE.INTRA.REPUL.0>
0

>  <SCORE.INTRA.SOLV>
-0.709343

>  <SCORE.INTRA.SOLV.lig_0>
-15.1033

>  <SCORE.INTRA.VDW>
0.23404

>  <SCORE.INTRA.VDW.0>
-0.755285

>  <SCORE.INTRA.norm>
-0.0114236

>  <SCORE.RESTR>
0

>  <SCORE.RESTR.CAVITY>
0

>  <SCORE.RESTR.norm>
0

>  <SCORE.SYSTEM>
0

>  <SCORE.SYSTEM.CONST>
0

>  <SCORE.SYSTEM.DIHEDRAL>
0

>  <SCORE.SYSTEM.SOLV>
0

>  <SCORE.SYSTEM.norm>
0

>  <SCORE.heavy>
13

>  <SCORE.norm>
-3.58434

>  <RMSD>
0.742

$$$$
ligand
 OpenBabel11021811513D
libRbt.so/2013.1/901 2013/11/27
 13 14  0  0  0  0  0  0  0  0999 V2000
   34.5133   29.7733  108.1834 N   0  0  0  0  0  0  0  0  0  0  0  0
   34.3090   30.9183  108.9873 C   0  0  0  0  0  0  0  0  0  0  0  0
   35.4456   31.5805  109.5754 N   0  0  0  0  0  0  0  0  0  0  0  0
   33.0520   31.4134  109.2221 N   0  0  0  0  0  0  0  0  0  0  0  0
   31.9137   30.8076  108.6746 C   0  0  0  0  0  0  0  0  0  0  0  0
   32.0762   29.6390  107.8500 C   0  0  0  0  0  0  0  0  0  0  0  0
   33.4275   29.1290  107.6143 C   0  0  0  0  0  0  0  0  0  0  0  0
   33.6224   28.0147  106.8322 O   0  0  0  0  0  0  0  0  0  0  0  0
   30.7405   29.2436  107.4387 C   0  0  0  0  0  0  0  0  0  0  0  0
   29.8574   30.1630  108.0061 C   0  0  0  0  0  0  0  0  0  0  0  0
   30.5614   31.0892  108.7426 N   0  0  0  0  0  0  0  0  0  0  0  0
   30.3855   28.0800  106.5623 C   0  0  0  0  0  0  0  0  0  0  0  0
   29.2436   27.3850  107.1274 N   0  0  0  0  0  0  0  0  0  0  0  0
  1  2  1  0  0  0  0
  1  7  1  0  0  0  0
  2  3  1  0  0  0  0
  2  4  2  0  0  0  0
  4  5  1  0  0  0  0
  5  6  2  0  0  0  0
  5 11  1  0  0  0  0
  6  7  1  0  0  0  0
  6  9  1  0  0  0  0
  7  8  2  0  0  0  0
  9 10  2  0  0  0  0
  9 12  1  0  0  0  0
 10 11  1  0  0  0  0
 12 13  1  0  0  0  0
M  END
>  <CHROM.1>
-4.33933595,136.14655063,-118.04805533,32.27994752,29.75421602,108.05941228
-0.60530177,0.03426307,-2.57458427

>  <Name>
ligand

>  <RI>
1.0531e+07

>  <Rbt.Current_Directory>
/home/itssahil/PROJECTS/Mol_Feturizer/New_Systems/rnas/4RZD

>  <Rbt.Executable>
rbdock ($Id: //depot/dev/client3/rdock/2013.1/src/exe/rbdock.cxx#4 $)

>  <Rbt.Library>
libRbt.so (2013.1, Build901 2013/11/27)

>  <Rbt.Parameter_File>
/export/apps/rDock/src/rDock_2013.1_src/data/scripts/dock_solv.prm

>  <Rbt.Receptor>
prm/pocket_docking_8.prm

>  <SCORE>
-46.4185

>  <SCORE.INTER>
-46.2806

>  <SCORE.INTER.CONST>
1

>  <SCORE.INTER.POLAR>
-4.87309

>  <SCORE.INTER.ROT>
3

>  <SCORE.INTER.SOLV>
11.8946

>  <SCORE.INTER.VDW>
-24.175

>  <SCORE.INTER.norm>
-3.56005

>  <SCORE.INTRA>
-0.137891

>  <SCORE.INTRA.DIHEDRAL>
-0.0377367

>  <SCORE.INTRA.DIHEDRAL.0>
4.88905

>  <SCORE.INTRA.POLAR>
0

>  <SCORE.INTRA.POLAR.0>
0

>  <SCORE.INTRA.REPUL>
0

>  <SCORE.INTRA.REPUL.0>
0

>  <SCORE.INTRA.SOLV>
-0.709887

>  <SCORE.INTRA.SOLV.lig_0>
-15.1033

>  <SCORE.INTRA.VDW>
0.235921

>  <SCORE.INTRA.VDW.0>
-0.755285

>  <SCORE.INTRA.norm>
-0.010607

>  <SCORE.RESTR>
0

>  <SCORE.RESTR.CAVITY>
0

>  <SCORE.RESTR.norm>
0

>  <SCORE.SYSTEM>
0

>  <SCORE.SYSTEM.CONST>
0

>  <SCORE.SYSTEM.DIHEDRAL>
0

>  <SCORE.SYSTEM.SOLV>
0

>  <SCORE.SYSTEM.norm>
0

>  <SCORE.heavy>
13

>  <SCORE.norm>
-3.57065

>  <RMSD>
0.748

$$$$
ligand
 OpenBabel11021811513D
libRbt.so/2013.1/901 2013/11/27
 13 14  0  0  0  0  0  0  0  0999 V2000
   34.2118   29.7192  108.0541 N   0  0  0  0  0  0  0  0  0  0  0  0
   34.1769   30.9096  108.8164 C   0  0  0  0  0  0  0  0  0  0  0  0
   35.4140   31.5035  109.2558 N   0  0  0  0  0  0  0  0  0  0  0  0
   32.9910   31.5122  109.1492 N   0  0  0  0  0  0  0  0  0  0  0  0
   31.7606   30.9762  108.7474 C   0  0  0  0  0  0  0  0  0  0  0  0
   31.7503   29.7649  107.9699 C   0  0  0  0  0  0  0  0  0  0  0  0
   33.0285   29.1398  107.6276 C   0  0  0  0  0  0  0  0  0  0  0  0
   33.0585   27.9818  106.8864 O   0  0  0  0  0  0  0  0  0  0  0  0
   30.3537   29.4598  107.7125 C   0  0  0  0  0  0  0  0  0  0  0  0
   29.6044   30.4694  108.3180 C   0  0  0  0  0  0  0  0  0  0  0  0
   30.4472   31.3668  108.9345 N   0  0  0  0  0  0  0  0  0  0  0  0
   29.8250   28.2925  106.9343 C   0  0  0  0  0  0  0  0  0  0  0  0
   29.6080   28.6935  105.5565 N   0  0  0  0  0  0  0  0  0  0  0  0
  1  2  1  0  0  0  0
  1  7  1  0  0  0  0
  2  3  1  0  0  0  0
  2  4  2  0  0  0  0
  4  5  1  0  0  0  0
  5  6  2  0  0  0  0
  5 11  1  0  0  0  0
  6  7  1  0  0  0  0
  6  9  1  0  0  0  0
  7  8  2  0  0  0  0
  9 10  2  0  0  0  0
  9 12  1  0  0  0  0
 10 11  1  0  0  0  0
 12 13  1  0  0  0  0
M  END
>  <CHROM.1>
0.78448482,-94.34640806,61.05896041,32.06837357,29.97053939,107.96409015
-0.55394821,0.09388296,-2.47435226

>  <Name>
ligand

>  <RI>
1.35221e+07

>  <Rbt.Current_Directory>
/home/itssahil/PROJECTS/Mol_Feturizer/New_Systems/rnas/4RZD

>  <Rbt.Executable>
rbdock ($Id: //depot/dev/client3/rdock/2013.1/src/exe/rbdock.cxx#4 $)

>  <Rbt.Library>
libRbt.so (2013.1, Build901 2013/11/27)

>  <Rbt.Parameter_File>
/export/apps/rDock/src/rDock_2013.1_src/data/scripts/dock_solv.prm

>  <Rbt.Receptor>
prm/pocket_docking_5.prm

>  <SCORE>
-48.0248

>  <SCORE.INTER>
-46.7025

>  <SCORE.INTER.CONST>
1

>  <SCORE.INTER.POLAR>
-5.24966

>  <SCORE.INTER.ROT>
3

>  <SCORE.INTER.SOLV>
12.8096

>  <SCORE.INTER.VDW>
-23.506

>  <SCORE.INTER.norm>
-3.5925

>  <SCORE.INTRA>
-1.32229

>  <SCORE.INTRA.DIHEDRAL>
-2.43602

>  <SCORE.INTRA.DIHEDRAL.0>
4.88905

>  <SCORE.INTRA.POLAR>
0

>  <SCORE.INTRA.POLAR.0>
0

>  <SCORE.INTRA.REPUL>
0

>  <SCORE.INTRA.REPUL.0>
0

>  <SCORE.INTRA.SOLV>
-0.457434

>  <SCORE.INTRA.SOLV.lig_0>
-15.1033

>  <SCORE.INTRA.VDW>
0.124439

>  <SCORE.INTRA.VDW.0>
-0.755285

>  <SCORE.INTRA.norm>
-0.101715

>  <SCORE.RESTR>
0

>  <SCORE.RESTR.CAVITY>
0

>  <SCORE.RESTR.norm>
0

>  <SCORE.SYSTEM>
0

>  <SCORE.SYSTEM.CONST>
0

>  <SCORE.SYSTEM.DIHEDRAL>
0

>  <SCORE.SYSTEM.SOLV>
0

>  <SCORE.SYSTEM.norm>
0

>  <SCORE.heavy>
13

>  <SCORE.norm>
-3.69421

>  <RMSD>
0.756

$$$$
ligand
 OpenBabel11021811513D
libRbt.so/2013.1/901 2013/11/27
 13 14  0  0  0  0  0  0  0  0999 V2000
   34.3089   29.7240  108.1186 N   0  0  0  0  0  0  0  0  0  0  0  0
   34.2660   30.8916  108.9148 C   0  0  0  0  0  0  0  0  0  0  0  0
   35.4982   31.4700  109.3875 N   0  0  0  0  0  0  0  0  0  0  0  0
   33.0768   31.4867  109.2496 N   0  0  0  0  0  0  0  0  0  0  0  0
   31.8509   30.9651  108.8164 C   0  0  0  0  0  0  0  0  0  0  0  0
   31.8487   29.7770  108.0038 C   0  0  0  0  0  0  0  0  0  0  0  0
   33.1303   29.1597  107.6601 C   0  0  0  0  0  0  0  0  0  0  0  0
   33.1681   28.0237  106.8858 O   0  0  0  0  0  0  0  0  0  0  0  0
   30.4552   29.4824  107.7195 C   0  0  0  0  0  0  0  0  0  0  0  0
   29.6997   30.4754  108.3443 C   0  0  0  0  0  0  0  0  0  0  0  0
   30.5358   31.3528  108.9977 N   0  0  0  0  0  0  0  0  0  0  0  0
   29.9347   28.3393  106.9007 C   0  0  0  0  0  0  0  0  0  0  0  0
   29.7963   28.7629  105.5195 N   0  0  0  0  0  0  0  0  0  0  0  0
  1  2  1  0  0  0  0
  1  7  1  0  0  0  0
  2  3  1  0  0  0  0
  2  4  2  0  0  0  0
  4  5  1  0  0  0  0
  5  6  2  0  0  0  0
  5 11  1  0  0  0  0
  6  7  1  0  0  0  0
  6  9  1  0  0  0  0
  7  8  2  0  0  0  0
  9 10  2  0  0  0  0
  9 12  1  0  0  0  0
 10 11  1  0  0  0  0
 12 13  1  0  0  0  0
M  END
>  <CHROM.1>
172.09878303,-91.67814627,-84.39194773,32.16716295,29.97321024,108.00524322
-0.57210643,0.10323136,-2.44413340

>  <Name>
ligand

>  <RI>
2.51964e+07

>  <Rbt.Current_Directory>
/home/itssahil/PROJECTS/Mol_Feturizer/New_Systems/rnas/4RZD

>  <Rbt.Executable>
rbdock ($Id: //depot/dev/client3/rdock/2013.1/src/exe/rbdock.cxx#4 $)

>  <Rbt.Library>
libRbt.so (2013.1, Build901 2013/11/27)

>  <Rbt.Parameter_File>
/export/apps/rDock/src/rDock_2013.1_src/data/scripts/dock_solv.prm

>  <Rbt.Receptor>
prm/pocket_docking_4.prm

>  <SCORE>
-49.8612

>  <SCORE.INTER>
-48.9136

>  <SCORE.INTER.CONST>
1

>  <SCORE.INTER.POLAR>
-5.44221

>  <SCORE.INTER.ROT>
3

>  <SCORE.INTER.SOLV>
13.0963

>  <SCORE.INTER.VDW>
-24.4338

>  <SCORE.INTER.norm>
-3.76259

>  <SCORE.INTRA>
-0.950505

>  <SCORE.INTRA.DIHEDRAL>
-1.58967

>  <SCORE.INTRA.DIHEDRAL.0>
4.88905

>  <SCORE.INTRA.POLAR>
0

>  <SCORE.INTRA.POLAR.0>
0

>  <SCORE.INTRA.REPUL>
0

>  <SCORE.INTRA.REPUL.0>
0

>  <SCORE.INTRA.SOLV>
-0.516957

>  <SCORE.INTRA.SOLV.lig_0>
-15.1033

>  <SCORE.INTRA.VDW>
0.102811

>  <SCORE.INTRA.VDW.0>
-0.755285

>  <SCORE.INTRA.norm>
-0.0731158

>  <SCORE.RESTR>
0.002938

>  <SCORE.RESTR.CAVITY>
0.002938

>  <SCORE.RESTR.norm>
0.000226

>  <SCORE.SYSTEM>
0

>  <SCORE.SYSTEM.CONST>
0

>  <SCORE.SYSTEM.DIHEDRAL>
0

>  <SCORE.SYSTEM.SOLV>
0

>  <SCORE.SYSTEM.norm>
0

>  <SCORE.heavy>
13

>  <SCORE.norm>
-3.83548

>  <RMSD>
0.760

$$$$
ligand
 OpenBabel11021811513D
libRbt.so/2013.1/901 2013/11/27
 13 14  0  0  0  0  0  0  0  0999 V2000
   34.2850   29.6941  108.1542 N   0  0  0  0  0  0  0  0  0  0  0  0
   34.2382   30.8624  108.9492 C   0  0  0  0  0  0  0  0  0  0  0  0
   35.4666   31.4283  109.4463 N   0  0  0  0  0  0  0  0  0  0  0  0
   33.0487   31.4697  109.2602 N   0  0  0  0  0  0  0  0  0  0  0  0
   31.8264   30.9606  108.8027 C   0  0  0  0  0  0  0  0  0  0  0  0
   31.8283   29.7723  107.9903 C   0  0  0  0  0  0  0  0  0  0  0  0
   33.1100   29.1417  107.6723 C   0  0  0  0  0  0  0  0  0  0  0  0
   33.1516   28.0052  106.8991 O   0  0  0  0  0  0  0  0  0  0  0  0
   30.4377   29.4919  107.6784 C   0  0  0  0  0  0  0  0  0  0  0  0
   29.6801   30.4927  108.2879 C   0  0  0  0  0  0  0  0  0  0  0  0
   30.5120   31.3617  108.9577 N   0  0  0  0  0  0  0  0  0  0  0  0
   29.9220   28.3539  106.8495 C   0  0  0  0  0  0  0  0  0  0  0  0
   29.7856   28.7878  105.4713 N   0  0  0  0  0  0  0  0  0  0  0  0
  1  2  1  0  0  0  0
  1  7  1  0  0  0  0
  2  3  1  0  0  0  0
  2  4  2  0  0  0  0
  4  5  1  0  0  0  0
  5  6  2  0  0  0  0
  5 11  1  0  0  0  0
  6  7  1  0  0  0  0
  6  9  1  0  0  0  0
  7  8  2  0  0  0  0
  9 10  2  0  0  0  0
  9 12  1  0  0  0  0
 10 11  1  0  0  0  0
 12 13  1  0  0  0  0
M  END
>  <CHROM.1>
-9.85080708,-93.00710015,-83.88957629,32.14580127,29.96610957,107.99872302
-0.57457903,0.12598021,-2.44492584

>  <Name>
ligand

>  <RI>
4.18181e+07

>  <Rbt.Current_Directory>
/home/itssahil/PROJECTS/Mol_Feturizer/New_Systems/rnas/4RZD

>  <Rbt.Executable>
rbdock ($Id: //depot/dev/client3/rdock/2013.1/src/exe/rbdock.cxx#4 $)

>  <Rbt.Library>
libRbt.so (2013.1, Build901 2013/11/27)

>  <Rbt.Parameter_File>
/export/apps/rDock/src/rDock_2013.1_src/data/scripts/dock_solv.prm

>  <Rbt.Receptor>
prm/pocket_docking_3.prm

>  <SCORE>
-49.9994

>  <SCORE.INTER>
-49.0319

>  <SCORE.INTER.CONST>
1

>  <SCORE.INTER.POLAR>
-5.64596

>  <SCORE.INTER.ROT>
3

>  <SCORE.INTER.SOLV>
13.1797

>  <SCORE.INTER.VDW>
-23.8613

>  <SCORE.INTER.norm>
-3.77169

>  <SCORE.INTRA>
-0.967421

>  <SCORE.INTRA.DIHEDRAL>
-1.61944

>  <SCORE.INTRA.DIHEDRAL.0>
4.88905

>  <SCORE.INTRA.POLAR>
0

>  <SCORE.INTRA.POLAR.0>
0

>  <SCORE.INTRA.REPUL>
0

>  <SCORE.INTRA.REPUL.0>
0

>  <SCORE.INTRA.SOLV>
-0.528484

>  <SCORE.INTRA.SOLV.lig_0>
-15.1033

>  <SCORE.INTRA.VDW>
0.10654

>  <SCORE.INTRA.VDW.0>
-0.755285

>  <SCORE.INTRA.norm>
-0.074417

>  <SCORE.RESTR>
0

>  <SCORE.RESTR.CAVITY>
0

>  <SCORE.RESTR.norm>
0

>  <SCORE.SYSTEM>
0

>  <SCORE.SYSTEM.CONST>
0

>  <SCORE.SYSTEM.DIHEDRAL>
0

>  <SCORE.SYSTEM.SOLV>
0

>  <SCORE.SYSTEM.norm>
0

>  <SCORE.heavy>
13

>  <SCORE.norm>
-3.8461

>  <RMSD>
0.770

$$$$
ligand
 OpenBabel11021811513D
libRbt.so/2013.1/901 2013/11/27
 13 14  0  0  0  0  0  0  0  0999 V2000
   34.2663   29.7116  108.1328 N   0  0  0  0  0  0  0  0  0  0  0  0
   34.2233   30.8769  108.9324 C   0  0  0  0  0  0  0  0  0  0  0  0
   35.4547   31.4465  109.4177 N   0  0  0  0  0  0  0  0  0  0  0  0
   33.0348   31.4779  109.2589 N   0  0  0  0  0  0  0  0  0  0  0  0
   31.8096   30.9650  108.8133 C   0  0  0  0  0  0  0  0  0  0  0  0
   31.8076   29.7796  107.9967 C   0  0  0  0  0  0  0  0  0  0  0  0
   33.0884   29.1558  107.6621 C   0  0  0  0  0  0  0  0  0  0  0  0
   33.1264   28.0222  106.8844 O   0  0  0  0  0  0  0  0  0  0  0  0
   30.4149   29.4941  107.6993 C   0  0  0  0  0  0  0  0  0  0  0  0
   29.6598   30.4894  108.3209 C   0  0  0  0  0  0  0  0  0  0  0  0
   30.4953   31.3597  108.9844 N   0  0  0  0  0  0  0  0  0  0  0  0
   29.8949   28.3568  106.8722 C   0  0  0  0  0  0  0  0  0  0  0  0
   29.7623   28.7884  105.4930 N   0  0  0  0  0  0  0  0  0  0  0  0
  1  2  1  0  0  0  0
  1  7  1  0  0  0  0
  2  3  1  0  0  0  0
  2  4  2  0  0  0  0
  4  5  1  0  0  0  0
  5  6  2  0  0  0  0
  5 11  1  0  0  0  0
  6  7  1  0  0  0  0
  6  9  1  0  0  0  0
  7  8  2  0  0  0  0
  9 10  2  0  0  0  0
  9 12  1  0  0  0  0
 10 11  1  0  0  0  0
 12 13  1  0  0  0  0
M  END
>  <CHROM.1>
169.89595607,-92.06574968,-82.24295137,32.12624879,29.97422988,108.00180285
-0.57227185,0.11408908,-2.44122670

>  <Name>
ligand

>  <RI>
4.18181e+07

>  <Rbt.Current_Directory>
/home/itssahil/PROJECTS/Mol_Feturizer/New_Systems/rnas/4RZD

>  <Rbt.Executable>
rbdock ($Id: //depot/dev/client3/rdock/2013.1/src/exe/rbdock.cxx#4 $)

>  <Rbt.Library>
libRbt.so (2013.1, Build901 2013/11/27)

>  <Rbt.Parameter_File>
/export/apps/rDock/src/rDock_2013.1_src/data/scripts/dock_solv.prm

>  <Rbt.Receptor>
prm/pocket_docking_3.prm

>  <SCORE>
-49.9593

>  <SCORE.INTER>
-48.9466

>  <SCORE.INTER.CONST>
1

>  <SCORE.INTER.POLAR>
-5.60107

>  <SCORE.INTER.ROT>
3

>  <SCORE.INTER.SOLV>
13.1764

>  <SCORE.INTER.VDW>
-23.953

>  <SCORE.INTER.norm>
-3.76512

>  <SCORE.INTRA>
-1.01275

>  <SCORE.INTRA.DIHEDRAL>
-1.71624

>  <SCORE.INTRA.DIHEDRAL.0>
4.88905

>  <SCORE.INTRA.POLAR>
0

>  <SCORE.INTRA.POLAR.0>
0

>  <SCORE.INTRA.REPUL>
0

>  <SCORE.INTRA.REPUL.0>
0

>  <SCORE.INTRA.SOLV>
-0.520203

>  <SCORE.INTRA.SOLV.lig_0>
-15.1033

>  <SCORE.INTRA.VDW>
0.105466

>  <SCORE.INTRA.VDW.0>
-0.755285

>  <SCORE.INTRA.norm>
-0.0779042

>  <SCORE.RESTR>
0

>  <SCORE.RESTR.CAVITY>
0

>  <SCORE.RESTR.norm>
0

>  <SCORE.SYSTEM>
0

>  <SCORE.SYSTEM.CONST>
0

>  <SCORE.SYSTEM.DIHEDRAL>
0

>  <SCORE.SYSTEM.SOLV>
0

>  <SCORE.SYSTEM.norm>
0

>  <SCORE.heavy>
13

>  <SCORE.norm>
-3.84303

>  <RMSD>
0.775

$$$$
ligand
 OpenBabel11021811513D
libRbt.so/2013.1/901 2013/11/27
 13 14  0  0  0  0  0  0  0  0999 V2000
   34.2718   29.7114  108.1400 N   0  0  0  0  0  0  0  0  0  0  0  0
   34.2245   30.8769  108.9393 C   0  0  0  0  0  0  0  0  0  0  0  0
   35.4532   31.4453  109.4328 N   0  0  0  0  0  0  0  0  0  0  0  0
   33.0344   31.4790  109.2576 N   0  0  0  0  0  0  0  0  0  0  0  0
   31.8118   30.9673  108.8038 C   0  0  0  0  0  0  0  0  0  0  0  0
   31.8141   29.7818  107.9873 C   0  0  0  0  0  0  0  0  0  0  0  0
   33.0966   29.1567  107.6615 C   0  0  0  0  0  0  0  0  0  0  0  0
   33.1387   28.0229  106.8842 O   0  0  0  0  0  0  0  0  0  0  0  0
   30.4232   29.4976  107.6806 C   0  0  0  0  0  0  0  0  0  0  0  0
   29.6649   30.4938  108.2969 C   0  0  0  0  0  0  0  0  0  0  0  0
   30.4968   31.3634  108.9660 N   0  0  0  0  0  0  0  0  0  0  0  0
   29.9077   28.3607  106.8501 C   0  0  0  0  0  0  0  0  0  0  0  0
   29.7741   28.7956  105.4720 N   0  0  0  0  0  0  0  0  0  0  0  0
  1  2  1  0  0  0  0
  1  7  1  0  0  0  0
  2  3  1  0  0  0  0
  2  4  2  0  0  0  0
  4  5  1  0  0  0  0
  5  6  2  0  0  0  0
  5 11  1  0  0  0  0
  6  7  1  0  0  0  0
  6  9  1  0  0  0  0
  7  8  2  0  0  0  0
  9 10  2  0  0  0  0
  9 12  1  0  0  0  0
 10 11  1  0  0  0  0
 12 13  1  0  0  0  0
M  END
>  <CHROM.1>
168.17526021,-92.54207767,-82.99931864,32.13198659,29.97636227,107.99477164
-0.57503239,0.12021740,-2.44133661

>  <Name>
ligand

>  <RI>
2.73617e+07

>  <Rbt.Current_Directory>
/home/itssahil/PROJECTS/Mol_Feturizer/New_Systems/rnas/4RZD

>  <Rbt.Executable>
rbdock ($Id: //depot/dev/client3/rdock/2013.1/src/exe/rbdock.cxx#4 $)

>  <Rbt.Library>
libRbt.so (2013.1, Build901 2013/11/27)

>  <Rbt.Parameter_File>
/export/apps/rDock/src/rDock_2013.1_src/data/scripts/dock_solv.prm

>  <Rbt.Receptor>
prm/pocket_docking_6.prm

>  <SCORE>
-49.938

>  <SCORE.INTER>
-48.9457

>  <SCORE.INTER.CONST>
1

>  <SCORE.INTER.POLAR>
-5.65613

>  <SCORE.INTER.ROT>
3

>  <SCORE.INTER.SOLV>
13.2041

>  <SCORE.INTER.VDW>
-23.7781

>  <SCORE.INTER.norm>
-3.76506

>  <SCORE.INTRA>
-0.992282

>  <SCORE.INTRA.DIHEDRAL>
-1.67217

>  <SCORE.INTRA.DIHEDRAL.0>
4.88905

>  <SCORE.INTRA.POLAR>
0

>  <SCORE.INTRA.POLAR.0>
0

>  <SCORE.INTRA.REPUL>
0

>  <SCORE.INTRA.REPUL.0>
0

>  <SCORE.INTRA.SOLV>
-0.524672

>  <SCORE.INTRA.SOLV.lig_0>
-15.1033

>  <SCORE.INTRA.VDW>
0.10614

>  <SCORE.INTRA.VDW.0>
-0.755285

>  <SCORE.INTRA.norm>
-0.0763294

>  <SCORE.RESTR>
0

>  <SCORE.RESTR.CAVITY>
0

>  <SCORE.RESTR.norm>
0

>  <SCORE.SYSTEM>
0

>  <SCORE.SYSTEM.CONST>
0

>  <SCORE.SYSTEM.DIHEDRAL>
0

>  <SCORE.SYSTEM.SOLV>
0

>  <SCORE.SYSTEM.norm>
0

>  <SCORE.heavy>
13

>  <SCORE.norm>
-3.84139

>  <RMSD>
0.777

$$$$
ligand
 OpenBabel11021811513D
libRbt.so/2013.1/901 2013/11/27
 13 14  0  0  0  0  0  0  0  0999 V2000
   34.3026   29.7217  108.1140 N   0  0  0  0  0  0  0  0  0  0  0  0
   34.2580   30.8861  108.9148 C   0  0  0  0  0  0  0  0  0  0  0  0
   35.4887   31.4566  109.4010 N   0  0  0  0  0  0  0  0  0  0  0  0
   33.0687   31.4854  109.2416 N   0  0  0  0  0  0  0  0  0  0  0  0
   31.8443   30.9716  108.7952 C   0  0  0  0  0  0  0  0  0  0  0  0
   31.8438   29.7870  107.9774 C   0  0  0  0  0  0  0  0  0  0  0  0
   33.1254   29.1650  107.6425 C   0  0  0  0  0  0  0  0  0  0  0  0
   33.1648   28.0322  106.8637 O   0  0  0  0  0  0  0  0  0  0  0  0
   30.4514   29.5003  107.6794 C   0  0  0  0  0  0  0  0  0  0  0  0
   29.6951   30.4941  108.3017 C   0  0  0  0  0  0  0  0  0  0  0  0
   30.5295   31.3647  108.9664 N   0  0  0  0  0  0  0  0  0  0  0  0
   29.9330   28.3632  106.8510 C   0  0  0  0  0  0  0  0  0  0  0  0
   29.7740   28.8041  105.4775 N   0  0  0  0  0  0  0  0  0  0  0  0
  1  2  1  0  0  0  0
  1  7  1  0  0  0  0
  2  3  1  0  0  0  0
  2  4  2  0  0  0  0
  4  5  1  0  0  0  0
  5  6  2  0  0  0  0
  5 11  1  0  0  0  0
  6  7  1  0  0  0  0
  6  9  1  0  0  0  0
  7  8  2  0  0  0  0
  9 10  2  0  0  0  0
  9 12  1  0  0  0  0
 10 11  1  0  0  0  0
 12 13  1  0  0  0  0
M  END
>  <CHROM.1>
-7.69276012,-93.23413631,-82.81816551,32.15981136,29.98274878,107.98333267
-0.57124177,0.11415083,-2.44083699

>  <Name>
ligand

>  <RI>
2.73617e+07

>  <Rbt.Current_Directory>
/home/itssahil/PROJECTS/Mol_Feturizer/New_Systems/rnas/4RZD

>  <Rbt.Executable>
rbdock ($Id: //depot/dev/client3/rdock/2013.1/src/exe/rbdock.cxx#4 $)

>  <Rbt.Library>
libRbt.so (2013.1, Build901 2013/11/27)

>  <Rbt.Parameter_File>
/export/apps/rDock/src/rDock_2013.1_src/data/scripts/dock_solv.prm

>  <Rbt.Receptor>
prm/pocket_docking_6.prm

>  <SCORE>
-49.8915

>  <SCORE.INTER>
-48.8931

>  <SCORE.INTER.CONST>
1

>  <SCORE.INTER.POLAR>
-5.64641

>  <SCORE.INTER.ROT>
3

>  <SCORE.INTER.SOLV>
13.2438

>  <SCORE.INTER.VDW>
-23.7887

>  <SCORE.INTER.norm>
-3.76101

>  <SCORE.INTRA>
-0.998375

>  <SCORE.INTRA.DIHEDRAL>
-1.68258

>  <SCORE.INTRA.DIHEDRAL.0>
4.88905

>  <SCORE.INTRA.POLAR>
0

>  <SCORE.INTRA.POLAR.0>
0

>  <SCORE.INTRA.REPUL>
0

>  <SCORE.INTRA.REPUL.0>
0

>  <SCORE.INTRA.SOLV>
-0.529634

>  <SCORE.INTRA.SOLV.lig_0>
-15.1033

>  <SCORE.INTRA.VDW>
0.107731

>  <SCORE.INTRA.VDW.0>
-0.755285

>  <SCORE.INTRA.norm>
-0.0767981

>  <SCORE.RESTR>
0

>  <SCORE.RESTR.CAVITY>
0

>  <SCORE.RESTR.norm>
0

>  <SCORE.SYSTEM>
0

>  <SCORE.SYSTEM.CONST>
0

>  <SCORE.SYSTEM.DIHEDRAL>
0

>  <SCORE.SYSTEM.SOLV>
0

>  <SCORE.SYSTEM.norm>
0

>  <SCORE.heavy>
13

>  <SCORE.norm>
-3.83781

>  <RMSD>
0.778

$$$$
ligand
 OpenBabel11021811513D
libRbt.so/2013.1/901 2013/11/27
 13 14  0  0  0  0  0  0  0  0999 V2000
   34.5996   29.8368  108.0634 N   0  0  0  0  0  0  0  0  0  0  0  0
   34.5262   31.0821  108.7290 C   0  0  0  0  0  0  0  0  0  0  0  0
   35.7431   31.7809  109.0564 N   0  0  0  0  0  0  0  0  0  0  0  0
   33.3218   31.6407  109.0722 N   0  0  0  0  0  0  0  0  0  0  0  0
   32.1097   31.0031  108.7773 C   0  0  0  0  0  0  0  0  0  0  0  0
   32.1386   29.7330  108.1005 C   0  0  0  0  0  0  0  0  0  0  0  0
   33.4360   29.1567  107.7450 C   0  0  0  0  0  0  0  0  0  0  0  0
   33.5035   27.9450  107.0981 O   0  0  0  0  0  0  0  0  0  0  0  0
   30.7533   29.3275  107.9393 C   0  0  0  0  0  0  0  0  0  0  0  0
   29.9716   30.3387  108.4993 C   0  0  0  0  0  0  0  0  0  0  0  0
   30.7847   31.3313  108.9988 N   0  0  0  0  0  0  0  0  0  0  0  0
   30.2626   28.0711  107.2845 C   0  0  0  0  0  0  0  0  0  0  0  0
   28.9620   28.3171  106.6894 N   0  0  0  0  0  0  0  0  0  0  0  0
  1  2  1  0  0  0  0
  1  7  1  0  0  0  0
  2  3  1  0  0  0  0
  2  4  2  0  0  0  0
  4  5  1  0  0  0  0
  5  6  2  0  0  0  0
  5 11  1  0  0  0  0
  6  7  1  0  0  0  0
  6  9  1  0  0  0  0
  7  8  2  0  0  0  0
  9 10  2  0  0  0  0
  9 12  1  0  0  0  0
 10 11  1  0  0  0  0
 12 13  1  0  0  0  0
M  END
>  <CHROM.1>
176.67709521,-149.89464765,172.70458863,32.35142707,29.94785894,108.13071787
-0.49714760,0.00960596,-2.61853671

>  <Name>
ligand

>  <RI>
2.73617e+07

>  <Rbt.Current_Directory>
/home/itssahil/PROJECTS/Mol_Feturizer/New_Systems/rnas/4RZD

>  <Rbt.Executable>
rbdock ($Id: //depot/dev/client3/rdock/2013.1/src/exe/rbdock.cxx#4 $)

>  <Rbt.Library>
libRbt.so (2013.1, Build901 2013/11/27)

>  <Rbt.Parameter_File>
/export/apps/rDock/src/rDock_2013.1_src/data/scripts/dock_solv.prm

>  <Rbt.Receptor>
prm/pocket_docking_6.prm

>  <SCORE>
-44.9172

>  <SCORE.INTER>
-43.8163

>  <SCORE.INTER.CONST>
1

>  <SCORE.INTER.POLAR>
-4.28515

>  <SCORE.INTER.ROT>
3

>  <SCORE.INTER.SOLV>
12.4069

>  <SCORE.INTER.VDW>
-24.6627

>  <SCORE.INTER.norm>
-3.37049

>  <SCORE.INTRA>
-1.10088

>  <SCORE.INTRA.DIHEDRAL>
-2.294

>  <SCORE.INTRA.DIHEDRAL.0>
4.88905

>  <SCORE.INTRA.POLAR>
0

>  <SCORE.INTRA.POLAR.0>
0

>  <SCORE.INTRA.REPUL>
0

>  <SCORE.INTRA.REPUL.0>
0

>  <SCORE.INTRA.SOLV>
-0.697791

>  <SCORE.INTRA.SOLV.lig_0>
-15.1033

>  <SCORE.INTRA.VDW>
0.395017

>  <SCORE.INTRA.VDW.0>
-0.755285

>  <SCORE.INTRA.norm>
-0.0846828

>  <SCORE.RESTR>
0

>  <SCORE.RESTR.CAVITY>
0

>  <SCORE.RESTR.norm>
0

>  <SCORE.SYSTEM>
0

>  <SCORE.SYSTEM.CONST>
0

>  <SCORE.SYSTEM.DIHEDRAL>
0

>  <SCORE.SYSTEM.SOLV>
0

>  <SCORE.SYSTEM.norm>
0

>  <SCORE.heavy>
13

>  <SCORE.norm>
-3.45517

>  <RMSD>
0.830

$$$$
ligand
 OpenBabel11021811513D
libRbt.so/2013.1/901 2013/11/27
 13 14  0  0  0  0  0  0  0  0999 V2000
   34.6023   29.8283  108.0593 N   0  0  0  0  0  0  0  0  0  0  0  0
   34.5385   31.0659  108.7401 C   0  0  0  0  0  0  0  0  0  0  0  0
   35.7604   31.7564  109.0662 N   0  0  0  0  0  0  0  0  0  0  0  0
   33.3389   31.6245  109.0994 N   0  0  0  0  0  0  0  0  0  0  0  0
   32.1223   30.9947  108.8065 C   0  0  0  0  0  0  0  0  0  0  0  0
   32.1413   29.7327  108.1145 C   0  0  0  0  0  0  0  0  0  0  0  0
   33.4338   29.1561  107.7420 C   0  0  0  0  0  0  0  0  0  0  0  0
   33.4919   27.9519  107.0803 O   0  0  0  0  0  0  0  0  0  0  0  0
   30.7533   29.3340  107.9594 C   0  0  0  0  0  0  0  0  0  0  0  0
   29.9796   30.3412  108.5375 C   0  0  0  0  0  0  0  0  0  0  0  0
   30.8002   31.3249  109.0422 N   0  0  0  0  0  0  0  0  0  0  0  0
   30.2530   28.0872  107.2937 C   0  0  0  0  0  0  0  0  0  0  0  0
   28.9600   28.3519  106.6899 N   0  0  0  0  0  0  0  0  0  0  0  0
  1  2  1  0  0  0  0
  1  7  1  0  0  0  0
  2  3  1  0  0  0  0
  2  4  2  0  0  0  0
  4  5  1  0  0  0  0
  5  6  2  0  0  0  0
  5 11  1  0  0  0  0
  6  7  1  0  0  0  0
  6  9  1  0  0  0  0
  7  8  2  0  0  0  0
  9 10  2  0  0  0  0
  9 12  1  0  0  0  0
 10 11  1  0  0  0  0
 12 13  1  0  0  0  0
M  END
>  <CHROM.1>
-171.27873685,-148.82470509,175.06020880,32.35617233,29.94682882,108.14360605
-0.49140250,0.00517490,-2.60470928

>  <Name>
ligand

>  <RI>
1.38753e+07

>  <Rbt.Current_Directory>
/home/itssahil/PROJECTS/Mol_Feturizer/New_Systems/rnas/4RZD

>  <Rbt.Executable>
rbdock ($Id: //depot/dev/client3/rdock/2013.1/src/exe/rbdock.cxx#4 $)

>  <Rbt.Library>
libRbt.so (2013.1, Build901 2013/11/27)

>  <Rbt.Parameter_File>
/export/apps/rDock/src/rDock_2013.1_src/data/scripts/dock_solv.prm

>  <Rbt.Receptor>
prm/pocket_docking_7.prm

>  <SCORE>
-44.8434

>  <SCORE.INTER>
-43.6988

>  <SCORE.INTER.CONST>
1

>  <SCORE.INTER.POLAR>
-4.25689

>  <SCORE.INTER.ROT>
3

>  <SCORE.INTER.SOLV>
12.4403

>  <SCORE.INTER.VDW>
-24.6897

>  <SCORE.INTER.norm>
-3.36145

>  <SCORE.INTRA>
-1.14452

>  <SCORE.INTRA.DIHEDRAL>
-2.34016

>  <SCORE.INTRA.DIHEDRAL.0>
4.88905

>  <SCORE.INTRA.POLAR>
0

>  <SCORE.INTRA.POLAR.0>
0

>  <SCORE.INTRA.REPUL>
0

>  <SCORE.INTRA.REPUL.0>
0

>  <SCORE.INTRA.SOLV>
-0.69872

>  <SCORE.INTRA.SOLV.lig_0>
-15.1033

>  <SCORE.INTRA.VDW>
0.374921

>  <SCORE.INTRA.VDW.0>
-0.755285

>  <SCORE.INTRA.norm>
-0.0880401

>  <SCORE.RESTR>
0

>  <SCORE.RESTR.CAVITY>
0

>  <SCORE.RESTR.norm>
0

>  <SCORE.SYSTEM>
0

>  <SCORE.SYSTEM.CONST>
0

>  <SCORE.SYSTEM.DIHEDRAL>
0

>  <SCORE.SYSTEM.SOLV>
0

>  <SCORE.SYSTEM.norm>
0

>  <SCORE.heavy>
13

>  <SCORE.norm>
-3.44949

>  <RMSD>
0.840

$$$$
ligand
 OpenBabel11021811513D
libRbt.so/2013.1/901 2013/11/27
 13 14  0  0  0  0  0  0  0  0999 V2000
   34.6153   29.8286  108.0519 N   0  0  0  0  0  0  0  0  0  0  0  0
   34.5475   31.0685  108.7281 C   0  0  0  0  0  0  0  0  0  0  0  0
   35.7676   31.7579  109.0634 N   0  0  0  0  0  0  0  0  0  0  0  0
   33.3456   31.6306  109.0742 N   0  0  0  0  0  0  0  0  0  0  0  0
   32.1306   31.0021  108.7720 C   0  0  0  0  0  0  0  0  0  0  0  0
   32.1538   29.7377  108.0842 C   0  0  0  0  0  0  0  0  0  0  0  0
   33.4486   29.1576  107.7258 C   0  0  0  0  0  0  0  0  0  0  0  0
   33.5107   27.9512  107.0685 O   0  0  0  0  0  0  0  0  0  0  0  0
   30.7665   29.3411  107.9174 C   0  0  0  0  0  0  0  0  0  0  0  0
   29.9894   30.3516  108.4849 C   0  0  0  0  0  0  0  0  0  0  0  0
   30.8070   31.3355  108.9942 N   0  0  0  0  0  0  0  0  0  0  0  0
   30.2702   28.0931  107.2511 C   0  0  0  0  0  0  0  0  0  0  0  0
   28.9496   28.3364  106.7004 N   0  0  0  0  0  0  0  0  0  0  0  0
  1  2  1  0  0  0  0
  1  7  1  0  0  0  0
  2  3  1  0  0  0  0
  2  4  2  0  0  0  0
  4  5  1  0  0  0  0
  5  6  2  0  0  0  0
  5 11  1  0  0  0  0
  6  7  1  0  0  0  0
  6  9  1  0  0  0  0
  7  8  2  0  0  0  0
  9 10  2  0  0  0  0
  9 12  1  0  0  0  0
 10 11  1  0  0  0  0
 12 13  1  0  0  0  0
M  END
>  <CHROM.1>
-171.83138514,-152.05740937,173.77314948,32.36548438,29.94980145,108.12068972
-0.49126652,0.01096258,-2.61181110

>  <Name>
ligand

>  <RI>
1.35221e+07

>  <Rbt.Current_Directory>
/home/itssahil/PROJECTS/Mol_Feturizer/New_Systems/rnas/4RZD

>  <Rbt.Executable>
rbdock ($Id: //depot/dev/client3/rdock/2013.1/src/exe/rbdock.cxx#4 $)

>  <Rbt.Library>
libRbt.so (2013.1, Build901 2013/11/27)

>  <Rbt.Parameter_File>
/export/apps/rDock/src/rDock_2013.1_src/data/scripts/dock_solv.prm

>  <Rbt.Receptor>
prm/pocket_docking_5.prm

>  <SCORE>
-44.9569

>  <SCORE.INTER>
-43.8479

>  <SCORE.INTER.CONST>
1

>  <SCORE.INTER.POLAR>
-4.31343

>  <SCORE.INTER.ROT>
3

>  <SCORE.INTER.SOLV>
12.4695

>  <SCORE.INTER.VDW>
-24.6103

>  <SCORE.INTER.norm>
-3.37292

>  <SCORE.INTRA>
-1.109

>  <SCORE.INTRA.DIHEDRAL>
-2.31731

>  <SCORE.INTRA.DIHEDRAL.0>
4.88905

>  <SCORE.INTRA.POLAR>
0

>  <SCORE.INTRA.POLAR.0>
0

>  <SCORE.INTRA.REPUL>
0

>  <SCORE.INTRA.REPUL.0>
0

>  <SCORE.INTRA.SOLV>
-0.697785

>  <SCORE.INTRA.SOLV.lig_0>
-15.1033

>  <SCORE.INTRA.VDW>
0.398543

>  <SCORE.INTRA.VDW.0>
-0.755285

>  <SCORE.INTRA.norm>
-0.085308

>  <SCORE.RESTR>
0

>  <SCORE.RESTR.CAVITY>
0

>  <SCORE.RESTR.norm>
0

>  <SCORE.SYSTEM>
0

>  <SCORE.SYSTEM.CONST>
0

>  <SCORE.SYSTEM.DIHEDRAL>
0

>  <SCORE.SYSTEM.SOLV>
0

>  <SCORE.SYSTEM.norm>
0

>  <SCORE.heavy>
13

>  <SCORE.norm>
-3.45822

>  <RMSD>
0.841

$$$$
ligand
 OpenBabel11021811513D
libRbt.so/2013.1/901 2013/11/27
 13 14  0  0  0  0  0  0  0  0999 V2000
   34.6150   29.8336  108.0448 N   0  0  0  0  0  0  0  0  0  0  0  0
   34.5465   31.0733  108.7214 C   0  0  0  0  0  0  0  0  0  0  0  0
   35.7661   31.7644  109.0548 N   0  0  0  0  0  0  0  0  0  0  0  0
   33.3443   31.6335  109.0696 N   0  0  0  0  0  0  0  0  0  0  0  0
   32.1298   31.0032  108.7693 C   0  0  0  0  0  0  0  0  0  0  0  0
   32.1537   29.7391  108.0813 C   0  0  0  0  0  0  0  0  0  0  0  0
   33.4488   29.1609  107.7206 C   0  0  0  0  0  0  0  0  0  0  0  0
   33.5115   27.9547  107.0631 O   0  0  0  0  0  0  0  0  0  0  0  0
   30.7668   29.3404  107.9168 C   0  0  0  0  0  0  0  0  0  0  0  0
   29.9890   30.3497  108.4857 C   0  0  0  0  0  0  0  0  0  0  0  0
   30.8061   31.3347  108.9938 N   0  0  0  0  0  0  0  0  0  0  0  0
   30.2711   28.0918  107.2510 C   0  0  0  0  0  0  0  0  0  0  0  0
   28.9545   28.3369  106.6918 N   0  0  0  0  0  0  0  0  0  0  0  0
  1  2  1  0  0  0  0
  1  7  1  0  0  0  0
  2  3  1  0  0  0  0
  2  4  2  0  0  0  0
  4  5  1  0  0  0  0
  5  6  2  0  0  0  0
  5 11  1  0  0  0  0
  6  7  1  0  0  0  0
  6  9  1  0  0  0  0
  7  8  2  0  0  0  0
  9 10  2  0  0  0  0
  9 12  1  0  0  0  0
 10 11  1  0  0  0  0
 12 13  1  0  0  0  0
M  END
>  <CHROM.1>
3.43526445,-151.53419265,174.09991047,32.36559865,29.95177984,108.11651354
-0.49230216,0.00949775,-2.61132721

>  <Name>
ligand

>  <RI>
1.0531e+07

>  <Rbt.Current_Directory>
/home/itssahil/PROJECTS/Mol_Feturizer/New_Systems/rnas/4RZD

>  <Rbt.Executable>
rbdock ($Id: //depot/dev/client3/rdock/2013.1/src/exe/rbdock.cxx#4 $)

>  <Rbt.Library>
libRbt.so (2013.1, Build901 2013/11/27)

>  <Rbt.Parameter_File>
/export/apps/rDock/src/rDock_2013.1_src/data/scripts/dock_solv.prm

>  <Rbt.Receptor>
prm/pocket_docking_8.prm

>  <SCORE>
-44.9538

>  <SCORE.INTER>
-43.8368

>  <SCORE.INTER.CONST>
1

>  <SCORE.INTER.POLAR>
-4.30682

>  <SCORE.INTER.ROT>
3

>  <SCORE.INTER.SOLV>
12.479

>  <SCORE.INTER.VDW>
-24.6281

>  <SCORE.INTER.norm>
-3.37206

>  <SCORE.INTRA>
-1.11702

>  <SCORE.INTRA.DIHEDRAL>
-2.32356

>  <SCORE.INTRA.DIHEDRAL.0>
4.88905

>  <SCORE.INTRA.POLAR>
0

>  <SCORE.INTRA.POLAR.0>
0

>  <SCORE.INTRA.REPUL>
0

>  <SCORE.INTRA.REPUL.0>
0

>  <SCORE.INTRA.SOLV>
-0.697888

>  <SCORE.INTRA.SOLV.lig_0>
-15.1033

>  <SCORE.INTRA.VDW>
0.393708

>  <SCORE.INTRA.VDW.0>
-0.755285

>  <SCORE.INTRA.norm>
-0.0859243

>  <SCORE.RESTR>
0

>  <SCORE.RESTR.CAVITY>
0

>  <SCORE.RESTR.norm>
0

>  <SCORE.SYSTEM>
0

>  <SCORE.SYSTEM.CONST>
0

>  <SCORE.SYSTEM.DIHEDRAL>
0

>  <SCORE.SYSTEM.SOLV>
0

>  <SCORE.SYSTEM.norm>
0

>  <SCORE.heavy>
13

>  <SCORE.norm>
-3.45798

>  <RMSD>
0.841

$$$$
ligand
 OpenBabel11021811513D
libRbt.so/2013.1/901 2013/11/27
 13 14  0  0  0  0  0  0  0  0999 V2000
   34.6283   29.8245  108.0508 N   0  0  0  0  0  0  0  0  0  0  0  0
   34.5622   31.0603  108.7347 C   0  0  0  0  0  0  0  0  0  0  0  0
   35.7833   31.7440  109.0777 N   0  0  0  0  0  0  0  0  0  0  0  0
   33.3609   31.6236  109.0811 N   0  0  0  0  0  0  0  0  0  0  0  0
   32.1450   31.0004  108.7716 C   0  0  0  0  0  0  0  0  0  0  0  0
   32.1664   29.7404  108.0760 C   0  0  0  0  0  0  0  0  0  0  0  0
   33.4606   29.1588  107.7174 C   0  0  0  0  0  0  0  0  0  0  0  0
   33.5210   27.9564  107.0527 O   0  0  0  0  0  0  0  0  0  0  0  0
   30.7785   29.3488  107.9029 C   0  0  0  0  0  0  0  0  0  0  0  0
   30.0027   30.3579  108.4747 C   0  0  0  0  0  0  0  0  0  0  0  0
   30.8217   31.3362  108.9924 N   0  0  0  0  0  0  0  0  0  0  0  0
   30.2804   28.1064  107.2274 C   0  0  0  0  0  0  0  0  0  0  0  0
   28.9472   28.3457  106.7064 N   0  0  0  0  0  0  0  0  0  0  0  0
  1  2  1  0  0  0  0
  1  7  1  0  0  0  0
  2  3  1  0  0  0  0
  2  4  2  0  0  0  0
  4  5  1  0  0  0  0
  5  6  2  0  0  0  0
  5 11  1  0  0  0  0
  6  7  1  0  0  0  0
  6  9  1  0  0  0  0
  7  8  2  0  0  0  0
  9 10  2  0  0  0  0
  9 12  1  0  0  0  0
 10 11  1  0  0  0  0
 12 13  1  0  0  0  0
M  END
>  <CHROM.1>
3.01503459,-153.60033612,170.92637553,32.37716978,29.95093451,108.11728779
-0.48862560,0.01337210,-2.60762502

>  <Name>
ligand

>  <RI>
2.51964e+07

>  <Rbt.Current_Directory>
/home/itssahil/PROJECTS/Mol_Feturizer/New_Systems/rnas/4RZD

>  <Rbt.Executable>
rbdock ($Id: //depot/dev/client3/rdock/2013.1/src/exe/rbdock.cxx#4 $)

>  <Rbt.Library>
libRbt.so (2013.1, Build901 2013/11/27)

>  <Rbt.Parameter_File>
/export/apps/rDock/src/rDock_2013.1_src/data/scripts/dock_solv.prm

>  <Rbt.Receptor>
prm/pocket_docking_4.prm

>  <SCORE>
-44.9396

>  <SCORE.INTER>
-43.8942

>  <SCORE.INTER.CONST>
1

>  <SCORE.INTER.POLAR>
-4.34813

>  <SCORE.INTER.ROT>
3

>  <SCORE.INTER.SOLV>
12.5227

>  <SCORE.INTER.VDW>
-24.5433

>  <SCORE.INTER.norm>
-3.37648

>  <SCORE.INTRA>
-1.0454

>  <SCORE.INTRA.DIHEDRAL>
-2.24853

>  <SCORE.INTRA.DIHEDRAL.0>
4.88905

>  <SCORE.INTRA.POLAR>
0

>  <SCORE.INTRA.POLAR.0>
0

>  <SCORE.INTRA.REPUL>
0

>  <SCORE.INTRA.REPUL.0>
0

>  <SCORE.INTRA.SOLV>
-0.696816

>  <SCORE.INTRA.SOLV.lig_0>
-15.1033

>  <SCORE.INTRA.VDW>
0.427276

>  <SCORE.INTRA.VDW.0>
-0.755285

>  <SCORE.INTRA.norm>
-0.080415

>  <SCORE.RESTR>
0

>  <SCORE.RESTR.CAVITY>
0

>  <SCORE.RESTR.norm>
0

>  <SCORE.SYSTEM>
0

>  <SCORE.SYSTEM.CONST>
0

>  <SCORE.SYSTEM.DIHEDRAL>
0

>  <SCORE.SYSTEM.SOLV>
0

>  <SCORE.SYSTEM.norm>
0

>  <SCORE.heavy>
13

>  <SCORE.norm>
-3.45689

>  <RMSD>
0.848

$$$$
ligand
 OpenBabel11021811513D
libRbt.so/2013.1/901 2013/11/27
 13 14  0  0  0  0  0  0  0  0999 V2000
   34.5823   29.8299  108.1618 N   0  0  0  0  0  0  0  0  0  0  0  0
   34.5274   30.9610  109.0084 C   0  0  0  0  0  0  0  0  0  0  0  0
   35.7542   31.5407  109.4932 N   0  0  0  0  0  0  0  0  0  0  0  0
   33.3316   31.5191  109.3810 N   0  0  0  0  0  0  0  0  0  0  0  0
   32.1104   30.9945  108.9380 C   0  0  0  0  0  0  0  0  0  0  0  0
   32.1205   29.8429  108.0745 C   0  0  0  0  0  0  0  0  0  0  0  0
   33.4089   29.2646  107.6911 C   0  0  0  0  0  0  0  0  0  0  0  0
   33.4585   28.1641  106.8678 O   0  0  0  0  0  0  0  0  0  0  0  0
   30.7293   29.5355  107.7919 C   0  0  0  0  0  0  0  0  0  0  0  0
   29.9632   30.4865  108.4671 C   0  0  0  0  0  0  0  0  0  0  0  0
   30.7908   31.3499  109.1494 N   0  0  0  0  0  0  0  0  0  0  0  0
   30.2204   28.4197  106.9295 C   0  0  0  0  0  0  0  0  0  0  0  0
   28.8434   28.6898  106.5592 N   0  0  0  0  0  0  0  0  0  0  0  0
  1  2  1  0  0  0  0
  1  7  1  0  0  0  0
  2  3  1  0  0  0  0
  2  4  2  0  0  0  0
  4  5  1  0  0  0  0
  5  6  2  0  0  0  0
  5 11  1  0  0  0  0
  6  7  1  0  0  0  0
  6  9  1  0  0  0  0
  7  8  2  0  0  0  0
  9 10  2  0  0  0  0
  9 12  1  0  0  0  0
 10 11  1  0  0  0  0
 12 13  1  0  0  0  0
M  END
>  <CHROM.1>
159.91508684,-162.20594519,-175.62886127,32.32827656,30.02768814,108.16841138
-0.47583060,0.06042469,-2.47965768

>  <Name>
ligand

>  <RI>
1.38753e+07

>  <Rbt.Current_Directory>
/home/itssahil/PROJECTS/Mol_Feturizer/New_Systems/rnas/4RZD

>  <Rbt.Executable>
rbdock ($Id: //depot/dev/client3/rdock/2013.1/src/exe/rbdock.cxx#4 $)

>  <Rbt.Library>
libRbt.so (2013.1, Build901 2013/11/27)

>  <Rbt.Parameter_File>
/export/apps/rDock/src/rDock_2013.1_src/data/scripts/dock_solv.prm

>  <Rbt.Receptor>
prm/pocket_docking_7.prm

>  <SCORE>
-46.3309

>  <SCORE.INTER>
-45.2752

>  <SCORE.INTER.CONST>
1

>  <SCORE.INTER.POLAR>
-4.87084

>  <SCORE.INTER.ROT>
3

>  <SCORE.INTER.SOLV>
13.984

>  <SCORE.INTER.VDW>
-24.2086

>  <SCORE.INTER.norm>
-3.48271

>  <SCORE.INTRA>
-1.12298

>  <SCORE.INTRA.DIHEDRAL>
-2.3532

>  <SCORE.INTRA.DIHEDRAL.0>
4.88905

>  <SCORE.INTRA.POLAR>
0

>  <SCORE.INTRA.POLAR.0>
0

>  <SCORE.INTRA.REPUL>
0

>  <SCORE.INTRA.REPUL.0>
0

>  <SCORE.INTRA.SOLV>
-0.699379

>  <SCORE.INTRA.SOLV.lig_0>
-15.1033

>  <SCORE.INTRA.VDW>
0.40331

>  <SCORE.INTRA.VDW.0>
-0.755285

>  <SCORE.INTRA.norm>
-0.0863832

>  <SCORE.RESTR>
0.067304

>  <SCORE.RESTR.CAVITY>
0.067304

>  <SCORE.RESTR.norm>
0.00517723

>  <SCORE.SYSTEM>
0

>  <SCORE.SYSTEM.CONST>
0

>  <SCORE.SYSTEM.DIHEDRAL>
0

>  <SCORE.SYSTEM.SOLV>
0

>  <SCORE.SYSTEM.norm>
0

>  <SCORE.heavy>
13

>  <SCORE.norm>
-3.56391

>  <RMSD>
0.974

$$$$
ligand
 OpenBabel11021811513D
libRbt.so/2013.1/901 2013/11/27
 13 14  0  0  0  0  0  0  0  0999 V2000
   34.5028   29.8851  108.1795 N   0  0  0  0  0  0  0  0  0  0  0  0
   34.4898   30.9687  109.0877 C   0  0  0  0  0  0  0  0  0  0  0  0
   35.7391   31.5144  109.5543 N   0  0  0  0  0  0  0  0  0  0  0  0
   33.3138   31.5124  109.5368 N   0  0  0  0  0  0  0  0  0  0  0  0
   32.0722   31.0195  109.1147 C   0  0  0  0  0  0  0  0  0  0  0  0
   32.0396   29.9166  108.1904 C   0  0  0  0  0  0  0  0  0  0  0  0
   33.3076   29.3527  107.7257 C   0  0  0  0  0  0  0  0  0  0  0  0
   33.3164   28.2984  106.8427 O   0  0  0  0  0  0  0  0  0  0  0  0
   30.6362   29.6327  107.9468 C   0  0  0  0  0  0  0  0  0  0  0  0
   29.9044   30.5498  108.7022 C   0  0  0  0  0  0  0  0  0  0  0  0
   30.7646   31.3702  109.3970 N   0  0  0  0  0  0  0  0  0  0  0  0
   30.0852   28.5683  107.0460 C   0  0  0  0  0  0  0  0  0  0  0  0
   28.7489   28.9434  106.6219 N   0  0  0  0  0  0  0  0  0  0  0  0
  1  2  1  0  0  0  0
  1  7  1  0  0  0  0
  2  3  1  0  0  0  0
  2  4  2  0  0  0  0
  4  5  1  0  0  0  0
  5  6  2  0  0  0  0
  5 11  1  0  0  0  0
  6  7  1  0  0  0  0
  6  9  1  0  0  0  0
  7  8  2  0  0  0  0
  9 10  2  0  0  0  0
  9 12  1  0  0  0  0
 10 11  1  0  0  0  0
 12 13  1  0  0  0  0
M  END
>  <CHROM.1>
-20.22780576,-155.72038896,-172.42633336,32.25739545,30.10143491,108.27464032
-0.45088198,0.04221914,-2.41968604

>  <Name>
ligand

>  <RI>
2.51964e+07

>  <Rbt.Current_Directory>
/home/itssahil/PROJECTS/Mol_Feturizer/New_Systems/rnas/4RZD

>  <Rbt.Executable>
rbdock ($Id: //depot/dev/client3/rdock/2013.1/src/exe/rbdock.cxx#4 $)

>  <Rbt.Library>
libRbt.so (2013.1, Build901 2013/11/27)

>  <Rbt.Parameter_File>
/export/apps/rDock/src/rDock_2013.1_src/data/scripts/dock_solv.prm

>  <Rbt.Receptor>
prm/pocket_docking_4.prm

>  <SCORE>
-47.2989

>  <SCORE.INTER>
-46.1735

>  <SCORE.INTER.CONST>
1

>  <SCORE.INTER.POLAR>
-5.14543

>  <SCORE.INTER.ROT>
3

>  <SCORE.INTER.SOLV>
14.3971

>  <SCORE.INTER.VDW>
-24.0299

>  <SCORE.INTER.norm>
-3.5518

>  <SCORE.INTRA>
-1.12542

>  <SCORE.INTRA.DIHEDRAL>
-2.28605

>  <SCORE.INTRA.DIHEDRAL.0>
4.88905

>  <SCORE.INTRA.POLAR>
0

>  <SCORE.INTRA.POLAR.0>
0

>  <SCORE.INTRA.REPUL>
0

>  <SCORE.INTRA.REPUL.0>
0

>  <SCORE.INTRA.SOLV>
-0.701213

>  <SCORE.INTRA.SOLV.lig_0>
-15.1033

>  <SCORE.INTRA.VDW>
0.368208

>  <SCORE.INTRA.VDW.0>
-0.755285

>  <SCORE.INTRA.norm>
-0.0865709

>  <SCORE.RESTR>
0

>  <SCORE.RESTR.CAVITY>
0

>  <SCORE.RESTR.norm>
0

>  <SCORE.SYSTEM>
0

>  <SCORE.SYSTEM.CONST>
0

>  <SCORE.SYSTEM.DIHEDRAL>
0

>  <SCORE.SYSTEM.SOLV>
0

>  <SCORE.SYSTEM.norm>
0

>  <SCORE.heavy>
13

>  <SCORE.norm>
-3.63838

>  <RMSD>
1.087

$$$$
ligand
 OpenBabel11021811513D
libRbt.so/2013.1/901 2013/11/27
 13 14  0  0  0  0  0  0  0  0999 V2000
   34.5064   29.8861  108.1780 N   0  0  0  0  0  0  0  0  0  0  0  0
   34.4929   30.9702  109.0856 C   0  0  0  0  0  0  0  0  0  0  0  0
   35.7419   31.5160  109.5528 N   0  0  0  0  0  0  0  0  0  0  0  0
   33.3166   31.5143  109.5336 N   0  0  0  0  0  0  0  0  0  0  0  0
   32.0753   31.0214  109.1109 C   0  0  0  0  0  0  0  0  0  0  0  0
   32.0432   29.9180  108.1871 C   0  0  0  0  0  0  0  0  0  0  0  0
   33.3114   29.3537  107.7236 C   0  0  0  0  0  0  0  0  0  0  0  0
   33.3206   28.2989  106.8412 O   0  0  0  0  0  0  0  0  0  0  0  0
   30.6398   29.6342  107.9427 C   0  0  0  0  0  0  0  0  0  0  0  0
   29.9077   30.5518  108.6971 C   0  0  0  0  0  0  0  0  0  0  0  0
   30.7676   31.3724  109.3921 N   0  0  0  0  0  0  0  0  0  0  0  0
   30.0894   28.5694  107.0421 C   0  0  0  0  0  0  0  0  0  0  0  0
   28.7496   28.9397  106.6249 N   0  0  0  0  0  0  0  0  0  0  0  0
  1  2  1  0  0  0  0
  1  7  1  0  0  0  0
  2  3  1  0  0  0  0
  2  4  2  0  0  0  0
  4  5  1  0  0  0  0
  5  6  2  0  0  0  0
  5 11  1  0  0  0  0
  6  7  1  0  0  0  0
  6  9  1  0  0  0  0
  7  8  2  0  0  0  0
  9 10  2  0  0  0  0
  9 12  1  0  0  0  0
 10 11  1  0  0  0  0
 12 13  1  0  0  0  0
M  END
>  <CHROM.1>
-19.78505472,-156.14224546,-173.45369606,32.26057089,30.10251710,108.27214781
-0.45081634,0.04237886,-2.42063346

>  <Name>
ligand

>  <RI>
2.73617e+07

>  <Rbt.Current_Directory>
/home/itssahil/PROJECTS/Mol_Feturizer/New_Systems/rnas/4RZD

>  <Rbt.Executable>
rbdock ($Id: //depot/dev/client3/rdock/2013.1/src/exe/rbdock.cxx#4 $)

>  <Rbt.Library>
libRbt.so (2013.1, Build901 2013/11/27)

>  <Rbt.Parameter_File>
/export/apps/rDock/src/rDock_2013.1_src/data/scripts/dock_solv.prm

>  <Rbt.Receptor>
prm/pocket_docking_6.prm

>  <SCORE>
-47.3043

>  <SCORE.INTER>
-46.1719

>  <SCORE.INTER.CONST>
1

>  <SCORE.INTER.POLAR>
-5.14672

>  <SCORE.INTER.ROT>
3

>  <SCORE.INTER.SOLV>
14.3931

>  <SCORE.INTER.VDW>
-24.0233

>  <SCORE.INTER.norm>
-3.55169

>  <SCORE.INTRA>
-1.1324

>  <SCORE.INTRA.DIHEDRAL>
-2.30976

>  <SCORE.INTRA.DIHEDRAL.0>
4.88905

>  <SCORE.INTRA.POLAR>
0

>  <SCORE.INTRA.POLAR.0>
0

>  <SCORE.INTRA.REPUL>
0

>  <SCORE.INTRA.REPUL.0>
0

>  <SCORE.INTRA.SOLV>
-0.700873

>  <SCORE.INTRA.SOLV.lig_0>
-15.1033

>  <SCORE.INTRA.VDW>
0.372921

>  <SCORE.INTRA.VDW.0>
-0.755285

>  <SCORE.INTRA.norm>
-0.0871075

>  <SCORE.RESTR>
0

>  <SCORE.RESTR.CAVITY>
0

>  <SCORE.RESTR.norm>
0

>  <SCORE.SYSTEM>
0

>  <SCORE.SYSTEM.CONST>
0

>  <SCORE.SYSTEM.DIHEDRAL>
0

>  <SCORE.SYSTEM.SOLV>
0

>  <SCORE.SYSTEM.norm>
0

>  <SCORE.heavy>
13

>  <SCORE.norm>
-3.6388

>  <RMSD>
1.087

$$$$
ligand
 OpenBabel11021811513D
libRbt.so/2013.1/901 2013/11/27
 13 14  0  0  0  0  0  0  0  0999 V2000
   34.5073   29.8946  108.1710 N   0  0  0  0  0  0  0  0  0  0  0  0
   34.4946   30.9746  109.0835 C   0  0  0  0  0  0  0  0  0  0  0  0
   35.7441   31.5203  109.5496 N   0  0  0  0  0  0  0  0  0  0  0  0
   33.3188   31.5149  109.5373 N   0  0  0  0  0  0  0  0  0  0  0  0
   32.0771   31.0218  109.1159 C   0  0  0  0  0  0  0  0  0  0  0  0
   32.0441   29.9225  108.1872 C   0  0  0  0  0  0  0  0  0  0  0  0
   33.3119   29.3623  107.7176 C   0  0  0  0  0  0  0  0  0  0  0  0
   33.3203   28.3115  106.8305 O   0  0  0  0  0  0  0  0  0  0  0  0
   30.6405   29.6376  107.9455 C   0  0  0  0  0  0  0  0  0  0  0  0
   29.9090   30.5506  108.7060 C   0  0  0  0  0  0  0  0  0  0  0  0
   30.7696   31.3695  109.4023 N   0  0  0  0  0  0  0  0  0  0  0  0
   30.0892   28.5759  107.0416 C   0  0  0  0  0  0  0  0  0  0  0  0
   28.7463   28.9442  106.6329 N   0  0  0  0  0  0  0  0  0  0  0  0
  1  2  1  0  0  0  0
  1  7  1  0  0  0  0
  2  3  1  0  0  0  0
  2  4  2  0  0  0  0
  4  5  1  0  0  0  0
  5  6  2  0  0  0  0
  5 11  1  0  0  0  0
  6  7  1  0  0  0  0
  6  9  1  0  0  0  0
  7  8  2  0  0  0  0
  9 10  2  0  0  0  0
  9 12  1  0  0  0  0
 10 11  1  0  0  0  0
 12 13  1  0  0  0  0
M  END
>  <CHROM.1>
-20.99193049,-156.30006286,-173.81643771,32.26129601,30.10688181,108.27274633
-0.44999194,0.03908131,-2.41641375

>  <Name>
ligand

>  <RI>
2.73617e+07

>  <Rbt.Current_Directory>
/home/itssahil/PROJECTS/Mol_Feturizer/New_Systems/rnas/4RZD

>  <Rbt.Executable>
rbdock ($Id: //depot/dev/client3/rdock/2013.1/src/exe/rbdock.cxx#4 $)

>  <Rbt.Library>
libRbt.so (2013.1, Build901 2013/11/27)

>  <Rbt.Parameter_File>
/export/apps/rDock/src/rDock_2013.1_src/data/scripts/dock_solv.prm

>  <Rbt.Receptor>
prm/pocket_docking_6.prm

>  <SCORE>
-47.2955

>  <SCORE.INTER>
-46.1613

>  <SCORE.INTER.CONST>
1

>  <SCORE.INTER.POLAR>
-5.14429

>  <SCORE.INTER.ROT>
3

>  <SCORE.INTER.SOLV>
14.4176

>  <SCORE.INTER.VDW>
-24.0324

>  <SCORE.INTER.norm>
-3.55087

>  <SCORE.INTRA>
-1.13424

>  <SCORE.INTRA.DIHEDRAL>
-2.31737

>  <SCORE.INTRA.DIHEDRAL.0>
4.88905

>  <SCORE.INTRA.POLAR>
0

>  <SCORE.INTRA.POLAR.0>
0

>  <SCORE.INTRA.REPUL>
0

>  <SCORE.INTRA.REPUL.0>
0

>  <SCORE.INTRA.SOLV>
-0.700922

>  <SCORE.INTRA.SOLV.lig_0>
-15.1033

>  <SCORE.INTRA.VDW>
0.374907

>  <SCORE.INTRA.VDW.0>
-0.755285

>  <SCORE.INTRA.norm>
-0.0872491

>  <SCORE.RESTR>
0

>  <SCORE.RESTR.CAVITY>
0

>  <SCORE.RESTR.norm>
0

>  <SCORE.SYSTEM>
0

>  <SCORE.SYSTEM.CONST>
0

>  <SCORE.SYSTEM.DIHEDRAL>
0

>  <SCORE.SYSTEM.SOLV>
0

>  <SCORE.SYSTEM.norm>
0

>  <SCORE.heavy>
13

>  <SCORE.norm>
-3.63812

>  <RMSD>
1.093

$$$$
ligand
 OpenBabel11021811513D
libRbt.so/2013.1/901 2013/11/27
 13 14  0  0  0  0  0  0  0  0999 V2000
   34.4627   29.8965  108.2016 N   0  0  0  0  0  0  0  0  0  0  0  0
   34.4588   30.9603  109.1330 C   0  0  0  0  0  0  0  0  0  0  0  0
   35.7127   31.4964  109.5984 N   0  0  0  0  0  0  0  0  0  0  0  0
   33.2873   31.4938  109.6057 N   0  0  0  0  0  0  0  0  0  0  0  0
   32.0416   31.0096  109.1858 C   0  0  0  0  0  0  0  0  0  0  0  0
   31.9997   29.9267  108.2384 C   0  0  0  0  0  0  0  0  0  0  0  0
   33.2630   29.3735  107.7487 C   0  0  0  0  0  0  0  0  0  0  0  0
   33.2629   28.3385  106.8432 O   0  0  0  0  0  0  0  0  0  0  0  0
   30.5939   29.6477  108.0031 C   0  0  0  0  0  0  0  0  0  0  0  0
   29.8697   30.5480  108.7855 C   0  0  0  0  0  0  0  0  0  0  0  0
   30.7369   31.3536  109.4890 N   0  0  0  0  0  0  0  0  0  0  0  0
   30.0339   28.6026  107.0853 C   0  0  0  0  0  0  0  0  0  0  0  0
   28.6962   28.9900  106.6771 N   0  0  0  0  0  0  0  0  0  0  0  0
  1  2  1  0  0  0  0
  1  7  1  0  0  0  0
  2  3  1  0  0  0  0
  2  4  2  0  0  0  0
  4  5  1  0  0  0  0
  5  6  2  0  0  0  0
  5 11  1  0  0  0  0
  6  7  1  0  0  0  0
  6  9  1  0  0  0  0
  7  8  2  0  0  0  0
  9 10  2  0  0  0  0
  9 12  1  0  0  0  0
 10 11  1  0  0  0  0
 12 13  1  0  0  0  0
M  END
>  <CHROM.1>
-22.22734115,-155.40158032,-172.81322343,32.21861266,30.11021921,108.32378561
-0.44449458,0.03486957,-2.39817233

>  <Name>
ligand

>  <RI>
1.99388e+07

>  <Rbt.Current_Directory>
/home/itssahil/PROJECTS/Mol_Feturizer/New_Systems/rnas/4RZD

>  <Rbt.Executable>
rbdock ($Id: //depot/dev/client3/rdock/2013.1/src/exe/rbdock.cxx#4 $)

>  <Rbt.Library>
libRbt.so (2013.1, Build901 2013/11/27)

>  <Rbt.Parameter_File>
/export/apps/rDock/src/rDock_2013.1_src/data/scripts/dock_solv.prm

>  <Rbt.Receptor>
prm/pocket_docking_2.prm

>  <SCORE>
-46.623

>  <SCORE.INTER>
-45.8326

>  <SCORE.INTER.CONST>
1

>  <SCORE.INTER.POLAR>
-5.15435

>  <SCORE.INTER.ROT>
3

>  <SCORE.INTER.SOLV>
14.5199

>  <SCORE.INTER.VDW>
-23.8139

>  <SCORE.INTER.norm>
-3.52559

>  <SCORE.INTRA>
-1.12979

>  <SCORE.INTRA.DIHEDRAL>
-2.29513

>  <SCORE.INTRA.DIHEDRAL.0>
4.88905

>  <SCORE.INTRA.POLAR>
0

>  <SCORE.INTRA.POLAR.0>
0

>  <SCORE.INTRA.REPUL>
0

>  <SCORE.INTRA.REPUL.0>
0

>  <SCORE.INTRA.SOLV>
-0.701451

>  <SCORE.INTRA.SOLV.lig_0>
-15.1033

>  <SCORE.INTRA.VDW>
0.368498

>  <SCORE.INTRA.VDW.0>
-0.755285

>  <SCORE.INTRA.norm>
-0.086907

>  <SCORE.RESTR>
0.339372

>  <SCORE.RESTR.CAVITY>
0.339372

>  <SCORE.RESTR.norm>
0.0261056

>  <SCORE.SYSTEM>
0

>  <SCORE.SYSTEM.CONST>
0

>  <SCORE.SYSTEM.DIHEDRAL>
0

>  <SCORE.SYSTEM.SOLV>
0

>  <SCORE.SYSTEM.norm>
0

>  <SCORE.heavy>
13

>  <SCORE.norm>
-3.58639

>  <RMSD>
1.124

$$$$
ligand
 OpenBabel11021811513D
libRbt.so/2013.1/901 2013/11/27
 13 14  0  0  0  0  0  0  0  0999 V2000
   32.8531   30.7736  109.3234 N   0  0  0  0  0  0  0  0  0  0  0  0
   34.1643   30.5630  108.8380 C   0  0  0  0  0  0  0  0  0  0  0  0
   35.2284   31.4286  109.2791 N   0  0  0  0  0  0  0  0  0  0  0  0
   34.4471   29.5532  107.9543 N   0  0  0  0  0  0  0  0  0  0  0  0
   33.4497   28.6839  107.4940 C   0  0  0  0  0  0  0  0  0  0  0  0
   32.1005   28.8629  107.9627 C   0  0  0  0  0  0  0  0  0  0  0  0
   31.8231   29.9478  108.9049 C   0  0  0  0  0  0  0  0  0  0  0  0
   30.5465   30.1499  109.3746 O   0  0  0  0  0  0  0  0  0  0  0  0
   31.3068   27.8313  107.3182 C   0  0  0  0  0  0  0  0  0  0  0  0
   32.1811   27.0924  106.5203 C   0  0  0  0  0  0  0  0  0  0  0  0
   33.4540   27.6065  106.6270 N   0  0  0  0  0  0  0  0  0  0  0  0
   29.8355   27.6003  107.4909 C   0  0  0  0  0  0  0  0  0  0  0  0
   29.3216   26.8947  106.3315 N   0  0  0  0  0  0  0  0  0  0  0  0
  1  2  1  0  0  0  0
  1  7  1  0  0  0  0
  2  3  1  0  0  0  0
  2  4  2  0  0  0  0
  4  5  1  0  0  0  0
  5  6  2  0  0  0  0
  5 11  1  0  0  0  0
  6  7  1  0  0  0  0
  6  9  1  0  0  0  0
  7  8  2  0  0  0  0
  9 10  2  0  0  0  0
  9 12  1  0  0  0  0
 10 11  1  0  0  0  0
 12 13  1  0  0  0  0
M  END
>  <CHROM.1>
-16.67177224,156.68162044,-47.57718647,32.34286853,29.03649426,107.97390553
0.78888980,0.14835132,0.70390612

>  <Name>
ligand

>  <RI>
2.51964e+07

>  <Rbt.Current_Directory>
/home/itssahil/PROJECTS/Mol_Feturizer/New_Systems/rnas/4RZD

>  <Rbt.Executable>
rbdock ($Id: //depot/dev/client3/rdock/2013.1/src/exe/rbdock.cxx#4 $)

>  <Rbt.Library>
libRbt.so (2013.1, Build901 2013/11/27)

>  <Rbt.Parameter_File>
/export/apps/rDock/src/rDock_2013.1_src/data/scripts/dock_solv.prm

>  <Rbt.Receptor>
prm/pocket_docking_4.prm

>  <SCORE>
-30.6794

>  <SCORE.INTER>
-29.7251

>  <SCORE.INTER.CONST>
1

>  <SCORE.INTER.POLAR>
-3.14694

>  <SCORE.INTER.ROT>
3

>  <SCORE.INTER.SOLV>
11.8473

>  <SCORE.INTER.VDW>
-18.876

>  <SCORE.INTER.norm>
-2.28655

>  <SCORE.INTRA>
-0.954315

>  <SCORE.INTRA.DIHEDRAL>
-2.19007

>  <SCORE.INTRA.DIHEDRAL.0>
4.88905

>  <SCORE.INTRA.POLAR>
0

>  <SCORE.INTRA.POLAR.0>
0

>  <SCORE.INTRA.REPUL>
0

>  <SCORE.INTRA.REPUL.0>
0

>  <SCORE.INTRA.SOLV>
-0.697431

>  <SCORE.INTRA.SOLV.lig_0>
-15.1033

>  <SCORE.INTRA.VDW>
0.489434

>  <SCORE.INTRA.VDW.0>
-0.755285

>  <SCORE.INTRA.norm>
-0.0734088

>  <SCORE.RESTR>
0

>  <SCORE.RESTR.CAVITY>
0

>  <SCORE.RESTR.norm>
0

>  <SCORE.SYSTEM>
0

>  <SCORE.SYSTEM.CONST>
0

>  <SCORE.SYSTEM.DIHEDRAL>
0

>  <SCORE.SYSTEM.SOLV>
0

>  <SCORE.SYSTEM.norm>
0

>  <SCORE.heavy>
13

>  <SCORE.norm>
-2.35996

>  <RMSD>
2.613

$$$$
ligand
 OpenBabel11021811513D
libRbt.so/2013.1/901 2013/11/27
 13 14  0  0  0  0  0  0  0  0999 V2000
   32.8804   30.7432  109.2855 N   0  0  0  0  0  0  0  0  0  0  0  0
   34.2027   30.5492  108.8238 C   0  0  0  0  0  0  0  0  0  0  0  0
   35.2442   31.4400  109.2690 N   0  0  0  0  0  0  0  0  0  0  0  0
   34.5174   29.5323  107.9595 N   0  0  0  0  0  0  0  0  0  0  0  0
   33.5430   28.6388  107.4962 C   0  0  0  0  0  0  0  0  0  0  0  0
   32.1836   28.8002  107.9410 C   0  0  0  0  0  0  0  0  0  0  0  0
   31.8720   29.8932  108.8629 C   0  0  0  0  0  0  0  0  0  0  0  0
   30.5846   30.0792  109.3094 O   0  0  0  0  0  0  0  0  0  0  0  0
   31.4186   27.7455  107.2991 C   0  0  0  0  0  0  0  0  0  0  0  0
   32.3185   27.0111  106.5258 C   0  0  0  0  0  0  0  0  0  0  0  0
   33.5802   27.5494  106.6451 N   0  0  0  0  0  0  0  0  0  0  0  0
   29.9491   27.4906  107.4520 C   0  0  0  0  0  0  0  0  0  0  0  0
   29.4787   26.7063  106.3251 N   0  0  0  0  0  0  0  0  0  0  0  0
  1  2  1  0  0  0  0
  1  7  1  0  0  0  0
  2  3  1  0  0  0  0
  2  4  2  0  0  0  0
  4  5  1  0  0  0  0
  5  6  2  0  0  0  0
  5 11  1  0  0  0  0
  6  7  1  0  0  0  0
  6  9  1  0  0  0  0
  7  8  2  0  0  0  0
  9 10  2  0  0  0  0
  9 12  1  0  0  0  0
 10 11  1  0  0  0  0
 12 13  1  0  0  0  0
M  END
>  <CHROM.1>
-14.29551898,159.29098812,16.57194415,32.42862773,28.97214018,107.95479568
0.82192662,0.15095905,0.68305775

>  <Name>
ligand

>  <RI>
1.35221e+07

>  <Rbt.Current_Directory>
/home/itssahil/PROJECTS/Mol_Feturizer/New_Systems/rnas/4RZD

>  <Rbt.Executable>
rbdock ($Id: //depot/dev/client3/rdock/2013.1/src/exe/rbdock.cxx#4 $)

>  <Rbt.Library>
libRbt.so (2013.1, Build901 2013/11/27)

>  <Rbt.Parameter_File>
/export/apps/rDock/src/rDock_2013.1_src/data/scripts/dock_solv.prm

>  <Rbt.Receptor>
prm/pocket_docking_5.prm

>  <SCORE>
-26.7821

>  <SCORE.INTER>
-27.4805

>  <SCORE.INTER.CONST>
1

>  <SCORE.INTER.POLAR>
-2.81386

>  <SCORE.INTER.ROT>
3

>  <SCORE.INTER.SOLV>
11.0726

>  <SCORE.INTER.VDW>
-18.2317

>  <SCORE.INTER.norm>
-2.11388

>  <SCORE.INTRA>
0.698402

>  <SCORE.INTRA.DIHEDRAL>
-0.462684

>  <SCORE.INTRA.DIHEDRAL.0>
4.88905

>  <SCORE.INTRA.POLAR>
0

>  <SCORE.INTRA.POLAR.0>
0

>  <SCORE.INTRA.REPUL>
0

>  <SCORE.INTRA.REPUL.0>
0

>  <SCORE.INTRA.SOLV>
-0.686577

>  <SCORE.INTRA.SOLV.lig_0>
-15.1033

>  <SCORE.INTRA.VDW>
1.27303

>  <SCORE.INTRA.VDW.0>
-0.755285

>  <SCORE.INTRA.norm>
0.0537233

>  <SCORE.RESTR>
0

>  <SCORE.RESTR.CAVITY>
0

>  <SCORE.RESTR.norm>
0

>  <SCORE.SYSTEM>
0

>  <SCORE.SYSTEM.CONST>
0

>  <SCORE.SYSTEM.DIHEDRAL>
0

>  <SCORE.SYSTEM.SOLV>
0

>  <SCORE.SYSTEM.norm>
0

>  <SCORE.heavy>
13

>  <SCORE.norm>
-2.06016

>  <RMSD>
2.636

$$$$
ligand
 OpenBabel11021811513D
libRbt.so/2013.1/901 2013/11/27
 13 14  0  0  0  0  0  0  0  0999 V2000
   32.8840   30.7304  109.2383 N   0  0  0  0  0  0  0  0  0  0  0  0
   34.2301   30.5208  108.8597 C   0  0  0  0  0  0  0  0  0  0  0  0
   35.2527   31.3967  109.3728 N   0  0  0  0  0  0  0  0  0  0  0  0
   34.5855   29.5026  108.0128 N   0  0  0  0  0  0  0  0  0  0  0  0
   33.6308   28.6232  107.4858 C   0  0  0  0  0  0  0  0  0  0  0  0
   32.2483   28.8007  107.8452 C   0  0  0  0  0  0  0  0  0  0  0  0
   31.8934   29.8948  108.7501 C   0  0  0  0  0  0  0  0  0  0  0  0
   30.5830   30.0959  109.1158 O   0  0  0  0  0  0  0  0  0  0  0  0
   31.5118   27.7580  107.1525 C   0  0  0  0  0  0  0  0  0  0  0  0
   32.4490   27.0144  106.4342 C   0  0  0  0  0  0  0  0  0  0  0  0
   33.7075   27.5361  106.6345 N   0  0  0  0  0  0  0  0  0  0  0  0
   30.0324   27.5216  107.2120 C   0  0  0  0  0  0  0  0  0  0  0  0
   29.6559   26.5764  106.1771 N   0  0  0  0  0  0  0  0  0  0  0  0
  1  2  1  0  0  0  0
  1  7  1  0  0  0  0
  2  3  1  0  0  0  0
  2  4  2  0  0  0  0
  4  5  1  0  0  0  0
  5  6  2  0  0  0  0
  5 11  1  0  0  0  0
  6  7  1  0  0  0  0
  6  9  1  0  0  0  0
  7  8  2  0  0  0  0
  9 10  2  0  0  0  0
  9 12  1  0  0  0  0
 10 11  1  0  0  0  0
 12 13  1  0  0  0  0
M  END
>  <CHROM.1>
-14.88589024,168.17876065,54.72332625,32.49884533,28.95097449,107.88743848
0.86057747,0.10870622,0.67228898

>  <Name>
ligand

>  <RI>
1.38753e+07

>  <Rbt.Current_Directory>
/home/itssahil/PROJECTS/Mol_Feturizer/New_Systems/rnas/4RZD

>  <Rbt.Executable>
rbdock ($Id: //depot/dev/client3/rdock/2013.1/src/exe/rbdock.cxx#4 $)

>  <Rbt.Library>
libRbt.so (2013.1, Build901 2013/11/27)

>  <Rbt.Parameter_File>
/export/apps/rDock/src/rDock_2013.1_src/data/scripts/dock_solv.prm

>  <Rbt.Receptor>
prm/pocket_docking_7.prm

>  <SCORE>
-27.5499

>  <SCORE.INTER>
-26.5296

>  <SCORE.INTER.CONST>
1

>  <SCORE.INTER.POLAR>
-2.48203

>  <SCORE.INTER.ROT>
3

>  <SCORE.INTER.SOLV>
10.5046

>  <SCORE.INTER.VDW>
-18.5145

>  <SCORE.INTER.norm>
-2.04074

>  <SCORE.INTRA>
-1.02036

>  <SCORE.INTRA.DIHEDRAL>
-2.38233

>  <SCORE.INTRA.DIHEDRAL.0>
4.88905

>  <SCORE.INTRA.POLAR>
0

>  <SCORE.INTRA.POLAR.0>
0

>  <SCORE.INTRA.REPUL>
0

>  <SCORE.INTRA.REPUL.0>
0

>  <SCORE.INTRA.SOLV>
-0.681971

>  <SCORE.INTRA.SOLV.lig_0>
-15.1033

>  <SCORE.INTRA.VDW>
0.511789

>  <SCORE.INTRA.VDW.0>
-0.755285

>  <SCORE.INTRA.norm>
-0.0784895

>  <SCORE.RESTR>
0

>  <SCORE.RESTR.CAVITY>
0

>  <SCORE.RESTR.norm>
0

>  <SCORE.SYSTEM>
0

>  <SCORE.SYSTEM.CONST>
0

>  <SCORE.SYSTEM.DIHEDRAL>
0

>  <SCORE.SYSTEM.SOLV>
0

>  <SCORE.SYSTEM.norm>
0

>  <SCORE.heavy>
13

>  <SCORE.norm>
-2.11923

>  <RMSD>
2.658

$$$$
ligand
 OpenBabel11021811513D
libRbt.so/2013.1/901 2013/11/27
 13 14  0  0  0  0  0  0  0  0999 V2000
   32.8895   30.7596  109.2271 N   0  0  0  0  0  0  0  0  0  0  0  0
   34.2438   30.5193  108.8997 C   0  0  0  0  0  0  0  0  0  0  0  0
   35.2675   31.3606  109.4658 N   0  0  0  0  0  0  0  0  0  0  0  0
   34.6064   29.5034  108.0530 N   0  0  0  0  0  0  0  0  0  0  0  0
   33.6511   28.6569  107.4756 C   0  0  0  0  0  0  0  0  0  0  0  0
   32.2603   28.8664  107.7820 C   0  0  0  0  0  0  0  0  0  0  0  0
   31.8979   29.9573  108.6876 C   0  0  0  0  0  0  0  0  0  0  0  0
   30.5795   30.1883  109.0035 O   0  0  0  0  0  0  0  0  0  0  0  0
   31.5255   27.8530  107.0453 C   0  0  0  0  0  0  0  0  0  0  0  0
   32.4712   27.0944  106.3545 C   0  0  0  0  0  0  0  0  0  0  0  0
   33.7337   27.5796  106.6124 N   0  0  0  0  0  0  0  0  0  0  0  0
   30.0392   27.6554  107.0422 C   0  0  0  0  0  0  0  0  0  0  0  0
   29.4323   28.5970  106.1196 N   0  0  0  0  0  0  0  0  0  0  0  0
  1  2  1  0  0  0  0
  1  7  1  0  0  0  0
  2  3  1  0  0  0  0
  2  4  2  0  0  0  0
  4  5  1  0  0  0  0
  5  6  2  0  0  0  0
  5 11  1  0  0  0  0
  6  7  1  0  0  0  0
  6  9  1  0  0  0  0
  7  8  2  0  0  0  0
  9 10  2  0  0  0  0
  9 12  1  0  0  0  0
 10 11  1  0  0  0  0
 12 13  1  0  0  0  0
M  END
>  <CHROM.1>
-14.25457266,81.27688002,175.10575591,32.48386893,29.17756059,107.84797958
0.73669402,-0.03335958,0.68937667

>  <Name>
ligand

>  <RI>
4.18181e+07

>  <Rbt.Current_Directory>
/home/itssahil/PROJECTS/Mol_Feturizer/New_Systems/rnas/4RZD

>  <Rbt.Executable>
rbdock ($Id: //depot/dev/client3/rdock/2013.1/src/exe/rbdock.cxx#4 $)

>  <Rbt.Library>
libRbt.so (2013.1, Build901 2013/11/27)

>  <Rbt.Parameter_File>
/export/apps/rDock/src/rDock_2013.1_src/data/scripts/dock_solv.prm

>  <Rbt.Receptor>
prm/pocket_docking_3.prm

>  <SCORE>
-31.4692

>  <SCORE.INTER>
-30.2267

>  <SCORE.INTER.CONST>
1

>  <SCORE.INTER.POLAR>
-3.00472

>  <SCORE.INTER.ROT>
3

>  <SCORE.INTER.SOLV>
12.7579

>  <SCORE.INTER.VDW>
-19.988

>  <SCORE.INTER.norm>
-2.32513

>  <SCORE.INTRA>
-1.24252

>  <SCORE.INTRA.DIHEDRAL>
-2.34416

>  <SCORE.INTRA.DIHEDRAL.0>
4.88905

>  <SCORE.INTRA.POLAR>
0

>  <SCORE.INTRA.POLAR.0>
0

>  <SCORE.INTRA.REPUL>
0

>  <SCORE.INTRA.REPUL.0>
0

>  <SCORE.INTRA.SOLV>
-0.416393

>  <SCORE.INTRA.SOLV.lig_0>
-15.1033

>  <SCORE.INTRA.VDW>
0.137753

>  <SCORE.INTRA.VDW.0>
-0.755285

>  <SCORE.INTRA.norm>
-0.0955787

>  <SCORE.RESTR>
0

>  <SCORE.RESTR.CAVITY>
0

>  <SCORE.RESTR.norm>
0

>  <SCORE.SYSTEM>
0

>  <SCORE.SYSTEM.CONST>
0

>  <SCORE.SYSTEM.DIHEDRAL>
0

>  <SCORE.SYSTEM.SOLV>
0

>  <SCORE.SYSTEM.norm>
0

>  <SCORE.heavy>
13

>  <SCORE.norm>
-2.42071

>  <RMSD>
2.689

$$$$
ligand
 OpenBabel11021811513D
libRbt.so/2013.1/901 2013/11/27
 13 14  0  0  0  0  0  0  0  0999 V2000
   32.8926   30.7565  109.2209 N   0  0  0  0  0  0  0  0  0  0  0  0
   34.2472   30.5206  108.8914 C   0  0  0  0  0  0  0  0  0  0  0  0
   35.2691   31.3635  109.4584 N   0  0  0  0  0  0  0  0  0  0  0  0
   34.6117   29.5076  108.0422 N   0  0  0  0  0  0  0  0  0  0  0  0
   33.6581   28.6597  107.4639 C   0  0  0  0  0  0  0  0  0  0  0  0
   32.2671   28.8647  107.7722 C   0  0  0  0  0  0  0  0  0  0  0  0
   31.9026   29.9526  108.6806 C   0  0  0  0  0  0  0  0  0  0  0  0
   30.5840   30.1794  108.9984 O   0  0  0  0  0  0  0  0  0  0  0  0
   31.5343   27.8510  107.0341 C   0  0  0  0  0  0  0  0  0  0  0  0
   32.4813   27.0965  106.3406 C   0  0  0  0  0  0  0  0  0  0  0  0
   33.7428   27.5846  106.5982 N   0  0  0  0  0  0  0  0  0  0  0  0
   30.0486   27.6492  107.0321 C   0  0  0  0  0  0  0  0  0  0  0  0
   29.4370   28.5991  106.1210 N   0  0  0  0  0  0  0  0  0  0  0  0
  1  2  1  0  0  0  0
  1  7  1  0  0  0  0
  2  3  1  0  0  0  0
  2  4  2  0  0  0  0
  4  5  1  0  0  0  0
  5  6  2  0  0  0  0
  5 11  1  0  0  0  0
  6  7  1  0  0  0  0
  6  9  1  0  0  0  0
  7  8  2  0  0  0  0
  9 10  2  0  0  0  0
  9 12  1  0  0  0  0
 10 11  1  0  0  0  0
 12 13  1  0  0  0  0
M  END
>  <CHROM.1>
-14.62573839,80.78004622,175.53319580,32.48973326,29.17712864,107.83947081
0.73721746,-0.03088883,0.69115941

>  <Name>
ligand

>  <RI>
1.0531e+07

>  <Rbt.Current_Directory>
/home/itssahil/PROJECTS/Mol_Feturizer/New_Systems/rnas/4RZD

>  <Rbt.Executable>
rbdock ($Id: //depot/dev/client3/rdock/2013.1/src/exe/rbdock.cxx#4 $)

>  <Rbt.Library>
libRbt.so (2013.1, Build901 2013/11/27)

>  <Rbt.Parameter_File>
/export/apps/rDock/src/rDock_2013.1_src/data/scripts/dock_solv.prm

>  <Rbt.Receptor>
prm/pocket_docking_8.prm

>  <SCORE>
-31.4814

>  <SCORE.INTER>
-30.2342

>  <SCORE.INTER.CONST>
1

>  <SCORE.INTER.POLAR>
-3.00479

>  <SCORE.INTER.ROT>
3

>  <SCORE.INTER.SOLV>
12.7483

>  <SCORE.INTER.VDW>
-19.9896

>  <SCORE.INTER.norm>
-2.32571

>  <SCORE.INTRA>
-1.24726

>  <SCORE.INTRA.DIHEDRAL>
-2.35096

>  <SCORE.INTRA.DIHEDRAL.0>
4.88905

>  <SCORE.INTRA.POLAR>
0

>  <SCORE.INTRA.POLAR.0>
0

>  <SCORE.INTRA.REPUL>
0

>  <SCORE.INTRA.REPUL.0>
0

>  <SCORE.INTRA.SOLV>
-0.411869

>  <SCORE.INTRA.SOLV.lig_0>
-15.1033

>  <SCORE.INTRA.VDW>
0.134158

>  <SCORE.INTRA.VDW.0>
-0.755285

>  <SCORE.INTRA.norm>
-0.0959428

>  <SCORE.RESTR>
0

>  <SCORE.RESTR.CAVITY>
0

>  <SCORE.RESTR.norm>
0

>  <SCORE.SYSTEM>
0

>  <SCORE.SYSTEM.CONST>
0

>  <SCORE.SYSTEM.DIHEDRAL>
0

>  <SCORE.SYSTEM.SOLV>
0

>  <SCORE.SYSTEM.norm>
0

>  <SCORE.heavy>
13

>  <SCORE.norm>
-2.42165

>  <RMSD>
2.690

$$$$
ligand
 OpenBabel11021811513D
libRbt.so/2013.1/901 2013/11/27
 13 14  0  0  0  0  0  0  0  0999 V2000
   33.2186   30.9865  109.5437 N   0  0  0  0  0  0  0  0  0  0  0  0
   34.4177   30.4883  108.9842 C   0  0  0  0  0  0  0  0  0  0  0  0
   35.6799   31.0241  109.4269 N   0  0  0  0  0  0  0  0  0  0  0  0
   34.4074   29.5064  108.0270 N   0  0  0  0  0  0  0  0  0  0  0  0
   33.2081   28.9516  107.5617 C   0  0  0  0  0  0  0  0  0  0  0  0
   31.9637   29.4300  108.1045 C   0  0  0  0  0  0  0  0  0  0  0  0
   32.0002   30.4789  109.1244 C   0  0  0  0  0  0  0  0  0  0  0  0
   30.8318   30.9613  109.6661 O   0  0  0  0  0  0  0  0  0  0  0  0
   30.9145   28.6807  107.4357 C   0  0  0  0  0  0  0  0  0  0  0  0
   31.5475   27.8051  106.5526 C   0  0  0  0  0  0  0  0  0  0  0  0
   32.9119   27.9733  106.6303 N   0  0  0  0  0  0  0  0  0  0  0  0
   29.4388   28.8155  107.6638 C   0  0  0  0  0  0  0  0  0  0  0  0
   29.0138   30.1483  107.2777 N   0  0  0  0  0  0  0  0  0  0  0  0
  1  2  1  0  0  0  0
  1  7  1  0  0  0  0
  2  3  1  0  0  0  0
  2  4  2  0  0  0  0
  4  5  1  0  0  0  0
  5  6  2  0  0  0  0
  5 11  1  0  0  0  0
  6  7  1  0  0  0  0
  6  9  1  0  0  0  0
  7  8  2  0  0  0  0
  9 10  2  0  0  0  0
  9 12  1  0  0  0  0
 10 11  1  0  0  0  0
 12 13  1  0  0  0  0
M  END
>  <CHROM.1>
-27.04701298,63.70344932,-136.10310381,32.26546156,29.69588516,108.18873997
0.42765386,-0.05944989,0.74394721

>  <Name>
ligand

>  <RI>
2.51964e+07

>  <Rbt.Current_Directory>
/home/itssahil/PROJECTS/Mol_Feturizer/New_Systems/rnas/4RZD

>  <Rbt.Executable>
rbdock ($Id: //depot/dev/client3/rdock/2013.1/src/exe/rbdock.cxx#4 $)

>  <Rbt.Library>
libRbt.so (2013.1, Build901 2013/11/27)

>  <Rbt.Parameter_File>
/export/apps/rDock/src/rDock_2013.1_src/data/scripts/dock_solv.prm

>  <Rbt.Receptor>
prm/pocket_docking_4.prm

>  <SCORE>
-24.8262

>  <SCORE.INTER>
-24.5439

>  <SCORE.INTER.CONST>
1

>  <SCORE.INTER.POLAR>
-3.21748

>  <SCORE.INTER.ROT>
3

>  <SCORE.INTER.SOLV>
13.5859

>  <SCORE.INTER.VDW>
-15.7663

>  <SCORE.INTER.norm>
-1.888

>  <SCORE.INTRA>
-0.28227

>  <SCORE.INTRA.DIHEDRAL>
-0.402922

>  <SCORE.INTRA.DIHEDRAL.0>
4.88905

>  <SCORE.INTRA.POLAR>
0

>  <SCORE.INTRA.POLAR.0>
0

>  <SCORE.INTRA.REPUL>
0

>  <SCORE.INTRA.REPUL.0>
0

>  <SCORE.INTRA.SOLV>
-0.156356

>  <SCORE.INTRA.SOLV.lig_0>
-15.1033

>  <SCORE.INTRA.VDW>
-0.00263132

>  <SCORE.INTRA.VDW.0>
-0.755285

>  <SCORE.INTRA.norm>
-0.0217131

>  <SCORE.RESTR>
0

>  <SCORE.RESTR.CAVITY>
0

>  <SCORE.RESTR.norm>
0

>  <SCORE.SYSTEM>
0

>  <SCORE.SYSTEM.CONST>
0

>  <SCORE.SYSTEM.DIHEDRAL>
0

>  <SCORE.SYSTEM.SOLV>
0

>  <SCORE.SYSTEM.norm>
0

>  <SCORE.heavy>
13

>  <SCORE.norm>
-1.90971

>  <RMSD>
2.692

$$$$
ligand
 OpenBabel11021811513D
libRbt.so/2013.1/901 2013/11/27
 13 14  0  0  0  0  0  0  0  0999 V2000
   32.7784   30.6887  108.9718 N   0  0  0  0  0  0  0  0  0  0  0  0
   34.0964   30.2200  108.7661 C   0  0  0  0  0  0  0  0  0  0  0  0
   35.1947   30.8949  109.4100 N   0  0  0  0  0  0  0  0  0  0  0  0
   34.3546   29.1371  107.9655 N   0  0  0  0  0  0  0  0  0  0  0  0
   33.3236   28.4455  107.3164 C   0  0  0  0  0  0  0  0  0  0  0  0
   31.9664   28.8894  107.4982 C   0  0  0  0  0  0  0  0  0  0  0  0
   31.7159   30.0477  108.3568 C   0  0  0  0  0  0  0  0  0  0  0  0
   30.4327   30.5010  108.5541 O   0  0  0  0  0  0  0  0  0  0  0  0
   31.1375   27.9928  106.7115 C   0  0  0  0  0  0  0  0  0  0  0  0
   31.9983   27.0714  106.1140 C   0  0  0  0  0  0  0  0  0  0  0  0
   33.2978   27.3479  106.4755 N   0  0  0  0  0  0  0  0  0  0  0  0
   29.6447   28.0432  106.5811 C   0  0  0  0  0  0  0  0  0  0  0  0
   29.1312   26.6947  106.4257 N   0  0  0  0  0  0  0  0  0  0  0  0
  1  2  1  0  0  0  0
  1  7  1  0  0  0  0
  2  3  1  0  0  0  0
  2  4  2  0  0  0  0
  4  5  1  0  0  0  0
  5  6  2  0  0  0  0
  5 11  1  0  0  0  0
  6  7  1  0  0  0  0
  6  9  1  0  0  0  0
  7  8  2  0  0  0  0
  9 10  2  0  0  0  0
  9 12  1  0  0  0  0
 10 11  1  0  0  0  0
 12 13  1  0  0  0  0
M  END
>  <CHROM.1>
166.60708329,-147.07286713,-178.29793503,32.21731856,28.94781492,107.66318992
0.76034987,-0.04346156,0.62172243

>  <Name>
ligand

>  <RI>
1.38753e+07

>  <Rbt.Current_Directory>
/home/itssahil/PROJECTS/Mol_Feturizer/New_Systems/rnas/4RZD

>  <Rbt.Executable>
rbdock ($Id: //depot/dev/client3/rdock/2013.1/src/exe/rbdock.cxx#4 $)

>  <Rbt.Library>
libRbt.so (2013.1, Build901 2013/11/27)

>  <Rbt.Parameter_File>
/export/apps/rDock/src/rDock_2013.1_src/data/scripts/dock_solv.prm

>  <Rbt.Receptor>
prm/pocket_docking_7.prm

>  <SCORE>
-25.692

>  <SCORE.INTER>
-24.489

>  <SCORE.INTER.CONST>
1

>  <SCORE.INTER.POLAR>
-1.80299

>  <SCORE.INTER.ROT>
3

>  <SCORE.INTER.SOLV>
11.629

>  <SCORE.INTER.VDW>
-19.7923

>  <SCORE.INTER.norm>
-1.88377

>  <SCORE.INTRA>
-1.20306

>  <SCORE.INTRA.DIHEDRAL>
-2.37429

>  <SCORE.INTRA.DIHEDRAL.0>
4.88905

>  <SCORE.INTRA.POLAR>
0

>  <SCORE.INTRA.POLAR.0>
0

>  <SCORE.INTRA.REPUL>
0

>  <SCORE.INTRA.REPUL.0>
0

>  <SCORE.INTRA.SOLV>
-0.700802

>  <SCORE.INTRA.SOLV.lig_0>
-15.1033

>  <SCORE.INTRA.VDW>
0.334489

>  <SCORE.INTRA.VDW.0>
-0.755285

>  <SCORE.INTRA.norm>
-0.0925428

>  <SCORE.RESTR>
0

>  <SCORE.RESTR.CAVITY>
0

>  <SCORE.RESTR.norm>
0

>  <SCORE.SYSTEM>
0

>  <SCORE.SYSTEM.CONST>
0

>  <SCORE.SYSTEM.DIHEDRAL>
0

>  <SCORE.SYSTEM.SOLV>
0

>  <SCORE.SYSTEM.norm>
0

>  <SCORE.heavy>
13

>  <SCORE.norm>
-1.97631

>  <RMSD>
2.704

$$$$
ligand
 OpenBabel11021811513D
libRbt.so/2013.1/901 2013/11/27
 13 14  0  0  0  0  0  0  0  0999 V2000
   32.8731   30.7626  109.2392 N   0  0  0  0  0  0  0  0  0  0  0  0
   34.2216   30.5172  108.8920 C   0  0  0  0  0  0  0  0  0  0  0  0
   35.2580   31.3445  109.4557 N   0  0  0  0  0  0  0  0  0  0  0  0
   34.5667   29.5093  108.0286 N   0  0  0  0  0  0  0  0  0  0  0  0
   33.5985   28.6764  107.4529 C   0  0  0  0  0  0  0  0  0  0  0  0
   32.2131   28.8916  107.7790 C   0  0  0  0  0  0  0  0  0  0  0  0
   31.8694   29.9738  108.7023 C   0  0  0  0  0  0  0  0  0  0  0  0
   30.5567   30.2099  109.0373 O   0  0  0  0  0  0  0  0  0  0  0  0
   31.4622   27.8924  107.0392 C   0  0  0  0  0  0  0  0  0  0  0  0
   32.3941   27.1359  106.3275 C   0  0  0  0  0  0  0  0  0  0  0  0
   33.6630   27.6093  106.5756 N   0  0  0  0  0  0  0  0  0  0  0  0
   29.9747   27.7049  107.0521 C   0  0  0  0  0  0  0  0  0  0  0  0
   29.3281   28.9854  106.8320 N   0  0  0  0  0  0  0  0  0  0  0  0
  1  2  1  0  0  0  0
  1  7  1  0  0  0  0
  2  3  1  0  0  0  0
  2  4  2  0  0  0  0
  4  5  1  0  0  0  0
  5  6  2  0  0  0  0
  5 11  1  0  0  0  0
  6  7  1  0  0  0  0
  6  9  1  0  0  0  0
  7  8  2  0  0  0  0
  9 10  2  0  0  0  0
  9 12  1  0  0  0  0
 10 11  1  0  0  0  0
 12 13  1  0  0  0  0
M  END
>  <CHROM.1>
164.36475062,49.20203901,-85.04894170,32.43424044,29.23269042,107.91493609
0.67051729,-0.00728823,0.67736056

>  <Name>
ligand

>  <RI>
2.73617e+07

>  <Rbt.Current_Directory>
/home/itssahil/PROJECTS/Mol_Feturizer/New_Systems/rnas/4RZD

>  <Rbt.Executable>
rbdock ($Id: //depot/dev/client3/rdock/2013.1/src/exe/rbdock.cxx#4 $)

>  <Rbt.Library>
libRbt.so (2013.1, Build901 2013/11/27)

>  <Rbt.Parameter_File>
/export/apps/rDock/src/rDock_2013.1_src/data/scripts/dock_solv.prm

>  <Rbt.Receptor>
prm/pocket_docking_6.prm

>  <SCORE>
-31.6078

>  <SCORE.INTER>
-29.5563

>  <SCORE.INTER.CONST>
1

>  <SCORE.INTER.POLAR>
-2.68884

>  <SCORE.INTER.ROT>
3

>  <SCORE.INTER.SOLV>
11.9173

>  <SCORE.INTER.VDW>
-20.3138

>  <SCORE.INTER.norm>
-2.27357

>  <SCORE.INTRA>
-2.05141

>  <SCORE.INTRA.DIHEDRAL>
-1.53671

>  <SCORE.INTRA.DIHEDRAL.0>
4.88905

>  <SCORE.INTRA.POLAR>
-0.392423

>  <SCORE.INTRA.POLAR.0>
0

>  <SCORE.INTRA.REPUL>
0

>  <SCORE.INTRA.REPUL.0>
0

>  <SCORE.INTRA.SOLV>
0.119597

>  <SCORE.INTRA.SOLV.lig_0>
-15.1033

>  <SCORE.INTRA.VDW>
-0.00861405

>  <SCORE.INTRA.VDW.0>
-0.755285

>  <SCORE.INTRA.norm>
-0.157801

>  <SCORE.RESTR>
0

>  <SCORE.RESTR.CAVITY>
0

>  <SCORE.RESTR.norm>
0

>  <SCORE.SYSTEM>
0

>  <SCORE.SYSTEM.CONST>
0

>  <SCORE.SYSTEM.DIHEDRAL>
0

>  <SCORE.SYSTEM.SOLV>
0

>  <SCORE.SYSTEM.norm>
0

>  <SCORE.heavy>
13

>  <SCORE.norm>
-2.43137

>  <RMSD>
2.706

$$$$
ligand
 OpenBabel11021811513D
libRbt.so/2013.1/901 2013/11/27
 13 14  0  0  0  0  0  0  0  0999 V2000
   32.8808   30.7552  109.2311 N   0  0  0  0  0  0  0  0  0  0  0  0
   34.2335   30.5237  108.8904 C   0  0  0  0  0  0  0  0  0  0  0  0
   35.2578   31.3669  109.4526 N   0  0  0  0  0  0  0  0  0  0  0  0
   34.5937   29.5147  108.0346 N   0  0  0  0  0  0  0  0  0  0  0  0
   33.6377   28.6668  107.4605 C   0  0  0  0  0  0  0  0  0  0  0  0
   32.2486   28.8674  107.7802 C   0  0  0  0  0  0  0  0  0  0  0  0
   31.8886   29.9511  108.6954 C   0  0  0  0  0  0  0  0  0  0  0  0
   30.5720   30.1736  109.0241 O   0  0  0  0  0  0  0  0  0  0  0  0
   31.5124   27.8547  107.0439 C   0  0  0  0  0  0  0  0  0  0  0  0
   32.4559   27.1050  106.3404 C   0  0  0  0  0  0  0  0  0  0  0  0
   33.7182   27.5951  106.5902 N   0  0  0  0  0  0  0  0  0  0  0  0
   30.0272   27.6495  107.0526 C   0  0  0  0  0  0  0  0  0  0  0  0
   29.3664   28.9200  106.8171 N   0  0  0  0  0  0  0  0  0  0  0  0
  1  2  1  0  0  0  0
  1  7  1  0  0  0  0
  2  3  1  0  0  0  0
  2  4  2  0  0  0  0
  4  5  1  0  0  0  0
  5  6  2  0  0  0  0
  5 11  1  0  0  0  0
  6  7  1  0  0  0  0
  6  9  1  0  0  0  0
  7  8  2  0  0  0  0
  9 10  2  0  0  0  0
  9 12  1  0  0  0  0
 10 11  1  0  0  0  0
 12 13  1  0  0  0  0
M  END
>  <CHROM.1>
-15.24133046,49.41054726,-85.07087477,32.46522185,29.21183618,107.91432345
0.68224055,-0.00298601,0.67126925

>  <Name>
ligand

>  <RI>
1.35221e+07

>  <Rbt.Current_Directory>
/home/itssahil/PROJECTS/Mol_Feturizer/New_Systems/rnas/4RZD

>  <Rbt.Executable>
rbdock ($Id: //depot/dev/client3/rdock/2013.1/src/exe/rbdock.cxx#4 $)

>  <Rbt.Library>
libRbt.so (2013.1, Build901 2013/11/27)

>  <Rbt.Parameter_File>
/export/apps/rDock/src/rDock_2013.1_src/data/scripts/dock_solv.prm

>  <Rbt.Receptor>
prm/pocket_docking_5.prm

>  <SCORE>
-31.6081

>  <SCORE.INTER>
-29.5604

>  <SCORE.INTER.CONST>
1

>  <SCORE.INTER.POLAR>
-2.70969

>  <SCORE.INTER.ROT>
3

>  <SCORE.INTER.SOLV>
11.8058

>  <SCORE.INTER.VDW>
-20.2099

>  <SCORE.INTER.norm>
-2.27388

>  <SCORE.INTRA>
-2.0477

>  <SCORE.INTRA.DIHEDRAL>
-1.53511

>  <SCORE.INTRA.DIHEDRAL.0>
4.88905

>  <SCORE.INTRA.POLAR>
-0.390413

>  <SCORE.INTRA.POLAR.0>
0

>  <SCORE.INTRA.REPUL>
0

>  <SCORE.INTRA.REPUL.0>
0

>  <SCORE.INTRA.SOLV>
0.116803

>  <SCORE.INTRA.SOLV.lig_0>
-15.1033

>  <SCORE.INTRA.VDW>
-0.0111488

>  <SCORE.INTRA.VDW.0>
-0.755285

>  <SCORE.INTRA.norm>
-0.157516

>  <SCORE.RESTR>
0

>  <SCORE.RESTR.CAVITY>
0

>  <SCORE.RESTR.norm>
0

>  <SCORE.SYSTEM>
0

>  <SCORE.SYSTEM.CONST>
0

>  <SCORE.SYSTEM.DIHEDRAL>
0

>  <SCORE.SYSTEM.SOLV>
0

>  <SCORE.SYSTEM.norm>
0

>  <SCORE.heavy>
13

>  <SCORE.norm>
-2.43139

>  <RMSD>
2.711

$$$$
ligand
 OpenBabel11021811513D
libRbt.so/2013.1/901 2013/11/27
 13 14  0  0  0  0  0  0  0  0999 V2000
   32.1329   30.9117  109.0317 N   0  0  0  0  0  0  0  0  0  0  0  0
   33.5451   30.8538  108.9908 C   0  0  0  0  0  0  0  0  0  0  0  0
   34.3136   31.8611  109.6771 N   0  0  0  0  0  0  0  0  0  0  0  0
   34.2015   29.8604  108.3106 N   0  0  0  0  0  0  0  0  0  0  0  0
   33.5023   28.8573  107.6269 C   0  0  0  0  0  0  0  0  0  0  0  0
   32.0631   28.8786  107.6425 C   0  0  0  0  0  0  0  0  0  0  0  0
   31.3850   29.9490  108.3746 C   0  0  0  0  0  0  0  0  0  0  0  0
   30.0113   30.0025  108.4119 O   0  0  0  0  0  0  0  0  0  0  0  0
   31.6319   27.7346  106.8583 C   0  0  0  0  0  0  0  0  0  0  0  0
   32.7890   27.0875  106.4230 C   0  0  0  0  0  0  0  0  0  0  0  0
   33.8984   27.7621  106.8812 N   0  0  0  0  0  0  0  0  0  0  0  0
   30.2161   27.3244  106.5841 C   0  0  0  0  0  0  0  0  0  0  0  0
   29.4005   28.5106  106.3993 N   0  0  0  0  0  0  0  0  0  0  0  0
  1  2  1  0  0  0  0
  1  7  1  0  0  0  0
  2  3  1  0  0  0  0
  2  4  2  0  0  0  0
  4  5  1  0  0  0  0
  5  6  2  0  0  0  0
  5 11  1  0  0  0  0
  6  7  1  0  0  0  0
  6  9  1  0  0  0  0
  7  8  2  0  0  0  0
  9 10  2  0  0  0  0
  9 12  1  0  0  0  0
 10 11  1  0  0  0  0
 12 13  1  0  0  0  0
M  END
>  <CHROM.1>
-116.90083867,37.19130203,-71.71670746,32.19613309,29.25976063,107.81575361
0.90328501,-0.07000590,0.60792746

>  <Name>
ligand

>  <RI>
2.73617e+07

>  <Rbt.Current_Directory>
/home/itssahil/PROJECTS/Mol_Feturizer/New_Systems/rnas/4RZD

>  <Rbt.Executable>
rbdock ($Id: //depot/dev/client3/rdock/2013.1/src/exe/rbdock.cxx#4 $)

>  <Rbt.Library>
libRbt.so (2013.1, Build901 2013/11/27)

>  <Rbt.Parameter_File>
/export/apps/rDock/src/rDock_2013.1_src/data/scripts/dock_solv.prm

>  <Rbt.Receptor>
prm/pocket_docking_6.prm

>  <SCORE>
-29.5892

>  <SCORE.INTER>
-27.5472

>  <SCORE.INTER.CONST>
1

>  <SCORE.INTER.POLAR>
-1.82543

>  <SCORE.INTER.ROT>
3

>  <SCORE.INTER.SOLV>
11.7683

>  <SCORE.INTER.VDW>
-21.8028

>  <SCORE.INTER.norm>
-2.11901

>  <SCORE.INTRA>
-2.04207

>  <SCORE.INTRA.DIHEDRAL>
-2.22037

>  <SCORE.INTRA.DIHEDRAL.0>
4.88905

>  <SCORE.INTRA.POLAR>
-0.430471

>  <SCORE.INTRA.POLAR.0>
0

>  <SCORE.INTRA.REPUL>
0

>  <SCORE.INTRA.REPUL.0>
0

>  <SCORE.INTRA.SOLV>
0.277034

>  <SCORE.INTRA.SOLV.lig_0>
-15.1033

>  <SCORE.INTRA.VDW>
0.393199

>  <SCORE.INTRA.VDW.0>
-0.755285

>  <SCORE.INTRA.norm>
-0.157082

>  <SCORE.RESTR>
0

>  <SCORE.RESTR.CAVITY>
0

>  <SCORE.RESTR.norm>
0

>  <SCORE.SYSTEM>
0

>  <SCORE.SYSTEM.CONST>
0

>  <SCORE.SYSTEM.DIHEDRAL>
0

>  <SCORE.SYSTEM.SOLV>
0

>  <SCORE.SYSTEM.norm>
0

>  <SCORE.heavy>
13

>  <SCORE.norm>
-2.2761

>  <RMSD>
2.747

$$$$
ligand
 OpenBabel11021811513D
libRbt.so/2013.1/901 2013/11/27
 13 14  0  0  0  0  0  0  0  0999 V2000
   32.1737   30.8025  109.0575 N   0  0  0  0  0  0  0  0  0  0  0  0
   33.5872   30.8096  109.0256 C   0  0  0  0  0  0  0  0  0  0  0  0
   34.3035   31.8697  109.6885 N   0  0  0  0  0  0  0  0  0  0  0  0
   34.2937   29.8302  108.3760 N   0  0  0  0  0  0  0  0  0  0  0  0
   33.6464   28.7776  107.7160 C   0  0  0  0  0  0  0  0  0  0  0  0
   32.2077   28.7319  107.7234 C   0  0  0  0  0  0  0  0  0  0  0  0
   31.4758   29.7887  108.4228 C   0  0  0  0  0  0  0  0  0  0  0  0
   30.1009   29.7788  108.4514 O   0  0  0  0  0  0  0  0  0  0  0  0
   31.8354   27.5485  106.9682 C   0  0  0  0  0  0  0  0  0  0  0  0
   33.0242   26.9447  106.5567 C   0  0  0  0  0  0  0  0  0  0  0  0
   34.0980   27.6825  107.0023 N   0  0  0  0  0  0  0  0  0  0  0  0
   30.4420   27.0653  106.6977 C   0  0  0  0  0  0  0  0  0  0  0  0
   29.7024   28.1011  106.0003 N   0  0  0  0  0  0  0  0  0  0  0  0
  1  2  1  0  0  0  0
  1  7  1  0  0  0  0
  2  3  1  0  0  0  0
  2  4  2  0  0  0  0
  4  5  1  0  0  0  0
  5  6  2  0  0  0  0
  5 11  1  0  0  0  0
  6  7  1  0  0  0  0
  6  9  1  0  0  0  0
  7  8  2  0  0  0  0
  9 10  2  0  0  0  0
  9 12  1  0  0  0  0
 10 11  1  0  0  0  0
 12 13  1  0  0  0  0
M  END
>  <CHROM.1>
65.49192993,58.42512014,-163.23924261,32.33505284,29.11219283,107.83688800
0.97191554,-0.07681112,0.59967467

>  <Name>
ligand

>  <RI>
1.99388e+07

>  <Rbt.Current_Directory>
/home/itssahil/PROJECTS/Mol_Feturizer/New_Systems/rnas/4RZD

>  <Rbt.Executable>
rbdock ($Id: //depot/dev/client3/rdock/2013.1/src/exe/rbdock.cxx#4 $)

>  <Rbt.Library>
libRbt.so (2013.1, Build901 2013/11/27)

>  <Rbt.Parameter_File>
/export/apps/rDock/src/rDock_2013.1_src/data/scripts/dock_solv.prm

>  <Rbt.Receptor>
prm/pocket_docking_2.prm

>  <SCORE>
-28.9582

>  <SCORE.INTER>
-27.9198

>  <SCORE.INTER.CONST>
1

>  <SCORE.INTER.POLAR>
-2.20028

>  <SCORE.INTER.ROT>
3

>  <SCORE.INTER.SOLV>
11.4915

>  <SCORE.INTER.VDW>
-20.7094

>  <SCORE.INTER.norm>
-2.14768

>  <SCORE.INTRA>
-1.03942

>  <SCORE.INTRA.DIHEDRAL>
-1.97601

>  <SCORE.INTRA.DIHEDRAL.0>
4.88905

>  <SCORE.INTRA.POLAR>
0

>  <SCORE.INTRA.POLAR.0>
0

>  <SCORE.INTRA.REPUL>
0

>  <SCORE.INTRA.REPUL.0>
0

>  <SCORE.INTRA.SOLV>
-0.137365

>  <SCORE.INTRA.SOLV.lig_0>
-15.1033

>  <SCORE.INTRA.VDW>
0.0172632

>  <SCORE.INTRA.VDW.0>
-0.755285

>  <SCORE.INTRA.norm>
-0.0799555

>  <SCORE.RESTR>
0.00104653

>  <SCORE.RESTR.CAVITY>
0.00104653

>  <SCORE.RESTR.norm>
8.05025e-05

>  <SCORE.SYSTEM>
0

>  <SCORE.SYSTEM.CONST>
0

>  <SCORE.SYSTEM.DIHEDRAL>
0

>  <SCORE.SYSTEM.SOLV>
0

>  <SCORE.SYSTEM.norm>
0

>  <SCORE.heavy>
13

>  <SCORE.norm>
-2.22755

>  <RMSD>
2.757

$$$$
ligand
 OpenBabel11021811513D
libRbt.so/2013.1/901 2013/11/27
 13 14  0  0  0  0  0  0  0  0999 V2000
   34.0709   28.5326  107.9374 N   0  0  0  0  0  0  0  0  0  0  0  0
   33.9192   27.5701  106.9128 C   0  0  0  0  0  0  0  0  0  0  0  0
   35.0556   26.7799  106.5121 N   0  0  0  0  0  0  0  0  0  0  0  0
   32.7141   27.3717  106.2893 N   0  0  0  0  0  0  0  0  0  0  0  0
   31.5785   28.1130  106.6407 C   0  0  0  0  0  0  0  0  0  0  0  0
   31.6886   29.1038  107.6790 C   0  0  0  0  0  0  0  0  0  0  0  0
   32.9851   29.2978  108.3293 C   0  0  0  0  0  0  0  0  0  0  0  0
   33.1290   30.2353  109.3251 O   0  0  0  0  0  0  0  0  0  0  0  0
   30.3703   29.6985  107.8137 C   0  0  0  0  0  0  0  0  0  0  0  0
   29.5450   29.0585  106.8882 C   0  0  0  0  0  0  0  0  0  0  0  0
   30.2706   28.1183  106.1915 N   0  0  0  0  0  0  0  0  0  0  0  0
   29.9743   30.7807  108.7729 C   0  0  0  0  0  0  0  0  0  0  0  0
   28.9122   30.2935  109.6336 N   0  0  0  0  0  0  0  0  0  0  0  0
  1  2  1  0  0  0  0
  1  7  1  0  0  0  0
  2  3  1  0  0  0  0
  2  4  2  0  0  0  0
  4  5  1  0  0  0  0
  5  6  2  0  0  0  0
  5 11  1  0  0  0  0
  6  7  1  0  0  0  0
  6  9  1  0  0  0  0
  7  8  2  0  0  0  0
  9 10  2  0  0  0  0
  9 12  1  0  0  0  0
 10 11  1  0  0  0  0
 12 13  1  0  0  0  0
M  END
>  <CHROM.1>
-168.59227277,-120.51420410,-78.32863434,31.89694901,28.84595173,107.64770978
-0.57673786,-0.18805272,0.86327723

>  <Name>
ligand

>  <RI>
1.35221e+07

>  <Rbt.Current_Directory>
/home/itssahil/PROJECTS/Mol_Feturizer/New_Systems/rnas/4RZD

>  <Rbt.Executable>
rbdock ($Id: //depot/dev/client3/rdock/2013.1/src/exe/rbdock.cxx#4 $)

>  <Rbt.Library>
libRbt.so (2013.1, Build901 2013/11/27)

>  <Rbt.Parameter_File>
/export/apps/rDock/src/rDock_2013.1_src/data/scripts/dock_solv.prm

>  <Rbt.Receptor>
prm/pocket_docking_5.prm

>  <SCORE>
-35.4851

>  <SCORE.INTER>
-34.9024

>  <SCORE.INTER.CONST>
1

>  <SCORE.INTER.POLAR>
-3.95388

>  <SCORE.INTER.ROT>
3

>  <SCORE.INTER.SOLV>
12.1635

>  <SCORE.INTER.VDW>
-19.7432

>  <SCORE.INTER.norm>
-2.6848

>  <SCORE.INTRA>
-1.11096

>  <SCORE.INTRA.DIHEDRAL>
-1.89926

>  <SCORE.INTRA.DIHEDRAL.0>
4.88905

>  <SCORE.INTRA.POLAR>
0

>  <SCORE.INTRA.POLAR.0>
0

>  <SCORE.INTRA.REPUL>
0

>  <SCORE.INTRA.REPUL.0>
0

>  <SCORE.INTRA.SOLV>
-0.681333

>  <SCORE.INTRA.SOLV.lig_0>
-15.1033

>  <SCORE.INTRA.VDW>
0.179337

>  <SCORE.INTRA.VDW.0>
-0.755285

>  <SCORE.INTRA.norm>
-0.0854586

>  <SCORE.RESTR>
0.528265

>  <SCORE.RESTR.CAVITY>
0.528265

>  <SCORE.RESTR.norm>
0.0406357

>  <SCORE.SYSTEM>
0

>  <SCORE.SYSTEM.CONST>
0

>  <SCORE.SYSTEM.DIHEDRAL>
0

>  <SCORE.SYSTEM.SOLV>
0

>  <SCORE.SYSTEM.norm>
0

>  <SCORE.heavy>
13

>  <SCORE.norm>
-2.72962

>  <RMSD>
3.329

$$$$
ligand
 OpenBabel11021811513D
libRbt.so/2013.1/901 2013/11/27
 13 14  0  0  0  0  0  0  0  0999 V2000
   34.0263   28.3813  107.9395 N   0  0  0  0  0  0  0  0  0  0  0  0
   33.9595   27.4570  106.8716 C   0  0  0  0  0  0  0  0  0  0  0  0
   35.1560   26.7701  106.4561 N   0  0  0  0  0  0  0  0  0  0  0  0
   32.7808   27.1998  106.2199 N   0  0  0  0  0  0  0  0  0  0  0  0
   31.5892   27.8403  106.5840 C   0  0  0  0  0  0  0  0  0  0  0  0
   31.6123   28.7893  107.6661 C   0  0  0  0  0  0  0  0  0  0  0  0
   32.8822   29.0475  108.3460 C   0  0  0  0  0  0  0  0  0  0  0  0
   32.9435   29.9476  109.3840 O   0  0  0  0  0  0  0  0  0  0  0  0
   30.2523   29.2801  107.8044 C   0  0  0  0  0  0  0  0  0  0  0  0
   29.4888   28.6239  106.8382 C   0  0  0  0  0  0  0  0  0  0  0  0
   30.2907   27.7708  106.1135 N   0  0  0  0  0  0  0  0  0  0  0  0
   29.7651   30.2869  108.8029 C   0  0  0  0  0  0  0  0  0  0  0  0
   29.8110   31.6109  108.2104 N   0  0  0  0  0  0  0  0  0  0  0  0
  1  2  1  0  0  0  0
  1  7  1  0  0  0  0
  2  3  1  0  0  0  0
  2  4  2  0  0  0  0
  4  5  1  0  0  0  0
  5  6  2  0  0  0  0
  5 11  1  0  0  0  0
  6  7  1  0  0  0  0
  6  9  1  0  0  0  0
  7  8  2  0  0  0  0
  9 10  2  0  0  0  0
  9 12  1  0  0  0  0
 10 11  1  0  0  0  0
 12 13  1  0  0  0  0
M  END
>  <CHROM.1>
8.33558088,93.28338992,-133.50025493,31.93898582,28.72406362,107.50053667
-0.60529272,-0.24734561,0.74622467

>  <Name>
ligand

>  <RI>
2.51964e+07

>  <Rbt.Current_Directory>
/home/itssahil/PROJECTS/Mol_Feturizer/New_Systems/rnas/4RZD

>  <Rbt.Executable>
rbdock ($Id: //depot/dev/client3/rdock/2013.1/src/exe/rbdock.cxx#4 $)

>  <Rbt.Library>
libRbt.so (2013.1, Build901 2013/11/27)

>  <Rbt.Parameter_File>
/export/apps/rDock/src/rDock_2013.1_src/data/scripts/dock_solv.prm

>  <Rbt.Receptor>
prm/pocket_docking_4.prm

>  <SCORE>
-40.3774

>  <SCORE.INTER>
-40.0819

>  <SCORE.INTER.CONST>
1

>  <SCORE.INTER.POLAR>
-5.2183

>  <SCORE.INTER.ROT>
3

>  <SCORE.INTER.SOLV>
12.3215

>  <SCORE.INTER.VDW>
-19.0341

>  <SCORE.INTER.norm>
-3.08323

>  <SCORE.INTRA>
-0.295456

>  <SCORE.INTRA.DIHEDRAL>
-0.264599

>  <SCORE.INTRA.DIHEDRAL.0>
4.88905

>  <SCORE.INTRA.POLAR>
0

>  <SCORE.INTRA.POLAR.0>
0

>  <SCORE.INTRA.REPUL>
0

>  <SCORE.INTRA.REPUL.0>
0

>  <SCORE.INTRA.SOLV>
-0.505743

>  <SCORE.INTRA.SOLV.lig_0>
-15.1033

>  <SCORE.INTRA.VDW>
0.089715

>  <SCORE.INTRA.VDW.0>
-0.755285

>  <SCORE.INTRA.norm>
-0.0227274

>  <SCORE.RESTR>
0

>  <SCORE.RESTR.CAVITY>
0

>  <SCORE.RESTR.norm>
0

>  <SCORE.SYSTEM>
0

>  <SCORE.SYSTEM.CONST>
0

>  <SCORE.SYSTEM.DIHEDRAL>
0

>  <SCORE.SYSTEM.SOLV>
0

>  <SCORE.SYSTEM.norm>
0

>  <SCORE.heavy>
13

>  <SCORE.norm>
-3.10595

>  <RMSD>
3.358

$$$$
ligand
 OpenBabel11021811513D
libRbt.so/2013.1/901 2013/11/27
 13 14  0  0  0  0  0  0  0  0999 V2000
   33.9470   28.4113  107.9000 N   0  0  0  0  0  0  0  0  0  0  0  0
   33.8965   27.4246  106.8885 C   0  0  0  0  0  0  0  0  0  0  0  0
   35.0974   26.7090  106.5391 N   0  0  0  0  0  0  0  0  0  0  0  0
   32.7295   27.1334  106.2299 N   0  0  0  0  0  0  0  0  0  0  0  0
   31.5344   27.7994  106.5309 C   0  0  0  0  0  0  0  0  0  0  0  0
   31.5410   28.8118  107.5542 C   0  0  0  0  0  0  0  0  0  0  0  0
   32.7986   29.1054  108.2426 C   0  0  0  0  0  0  0  0  0  0  0  0
   32.8441   30.0662  109.2256 O   0  0  0  0  0  0  0  0  0  0  0  0
   30.1812   29.3156  107.6353 C   0  0  0  0  0  0  0  0  0  0  0  0
   29.4335   28.6054  106.6953 C   0  0  0  0  0  0  0  0  0  0  0  0
   30.2451   27.7069  106.0395 N   0  0  0  0  0  0  0  0  0  0  0  0
   29.6797   30.3826  108.5615 C   0  0  0  0  0  0  0  0  0  0  0  0
   30.6667   31.4428  108.6508 N   0  0  0  0  0  0  0  0  0  0  0  0
  1  2  1  0  0  0  0
  1  7  1  0  0  0  0
  2  3  1  0  0  0  0
  2  4  2  0  0  0  0
  4  5  1  0  0  0  0
  5  6  2  0  0  0  0
  5 11  1  0  0  0  0
  6  7  1  0  0  0  0
  6  9  1  0  0  0  0
  7  8  2  0  0  0  0
  9 10  2  0  0  0  0
  9 12  1  0  0  0  0
 10 11  1  0  0  0  0
 12 13  1  0  0  0  0
M  END
>  <CHROM.1>
13.72586645,40.58106227,-76.22199001,31.95795550,28.71282001,107.47086949
-0.66895124,-0.22611849,0.71147385

>  <Name>
ligand

>  <RI>
1.35221e+07

>  <Rbt.Current_Directory>
/home/itssahil/PROJECTS/Mol_Feturizer/New_Systems/rnas/4RZD

>  <Rbt.Executable>
rbdock ($Id: //depot/dev/client3/rdock/2013.1/src/exe/rbdock.cxx#4 $)

>  <Rbt.Library>
libRbt.so (2013.1, Build901 2013/11/27)

>  <Rbt.Parameter_File>
/export/apps/rDock/src/rDock_2013.1_src/data/scripts/dock_solv.prm

>  <Rbt.Receptor>
prm/pocket_docking_5.prm

>  <SCORE>
-39.227

>  <SCORE.INTER>
-37.5323

>  <SCORE.INTER.CONST>
1

>  <SCORE.INTER.POLAR>
-3.9509

>  <SCORE.INTER.ROT>
3

>  <SCORE.INTER.SOLV>
11.2447

>  <SCORE.INTER.VDW>
-21.2001

>  <SCORE.INTER.norm>
-2.8871

>  <SCORE.INTRA>
-2.19102

>  <SCORE.INTRA.DIHEDRAL>
-2.03008

>  <SCORE.INTRA.DIHEDRAL.0>
4.88905

>  <SCORE.INTRA.POLAR>
-0.441738

>  <SCORE.INTRA.POLAR.0>
0

>  <SCORE.INTRA.REPUL>
0

>  <SCORE.INTRA.REPUL.0>
0

>  <SCORE.INTRA.SOLV>
0.239235

>  <SCORE.INTRA.SOLV.lig_0>
-15.1033

>  <SCORE.INTRA.VDW>
0.206316

>  <SCORE.INTRA.VDW.0>
-0.755285

>  <SCORE.INTRA.norm>
-0.16854

>  <SCORE.RESTR>
0.496352

>  <SCORE.RESTR.CAVITY>
0.496352

>  <SCORE.RESTR.norm>
0.0381809

>  <SCORE.SYSTEM>
0

>  <SCORE.SYSTEM.CONST>
0

>  <SCORE.SYSTEM.DIHEDRAL>
0

>  <SCORE.SYSTEM.SOLV>
0

>  <SCORE.SYSTEM.norm>
0

>  <SCORE.heavy>
13

>  <SCORE.norm>
-3.01746

>  <RMSD>
3.388

$$$$
ligand
 OpenBabel11021811513D
libRbt.so/2013.1/901 2013/11/27
 13 14  0  0  0  0  0  0  0  0999 V2000
   33.8991   28.6624  107.7175 N   0  0  0  0  0  0  0  0  0  0  0  0
   33.7975   27.5729  106.8220 C   0  0  0  0  0  0  0  0  0  0  0  0
   34.9761   26.8072  106.5045 N   0  0  0  0  0  0  0  0  0  0  0  0
   32.6016   27.2284  106.2462 N   0  0  0  0  0  0  0  0  0  0  0  0
   31.4263   27.9397  106.5207 C   0  0  0  0  0  0  0  0  0  0  0  0
   31.4848   29.0565  107.4270 C   0  0  0  0  0  0  0  0  0  0  0  0
   32.7725   29.4053  108.0285 C   0  0  0  0  0  0  0  0  0  0  0  0
   32.8676   30.4659  108.8988 O   0  0  0  0  0  0  0  0  0  0  0  0
   30.1343   29.5850  107.5074 C   0  0  0  0  0  0  0  0  0  0  0  0
   29.3417   28.7878  106.6807 C   0  0  0  0  0  0  0  0  0  0  0  0
   30.1169   27.8126  106.0943 N   0  0  0  0  0  0  0  0  0  0  0  0
   29.6816   30.7527  108.3317 C   0  0  0  0  0  0  0  0  0  0  0  0
   30.4850   30.8283  109.5379 N   0  0  0  0  0  0  0  0  0  0  0  0
  1  2  1  0  0  0  0
  1  7  1  0  0  0  0
  2  3  1  0  0  0  0
  2  4  2  0  0  0  0
  4  5  1  0  0  0  0
  5  6  2  0  0  0  0
  5 11  1  0  0  0  0
  6  7  1  0  0  0  0
  6  9  1  0  0  0  0
  7  8  2  0  0  0  0
  9 10  2  0  0  0  0
  9 12  1  0  0  0  0
 10 11  1  0  0  0  0
 12 13  1  0  0  0  0
M  END
>  <CHROM.1>
-160.36461952,-31.62950799,76.02412619,31.88257233,28.84971019,107.44894436
-0.67288006,-0.18812770,0.74078820

>  <Name>
ligand

>  <RI>
4.18181e+07

>  <Rbt.Current_Directory>
/home/itssahil/PROJECTS/Mol_Feturizer/New_Systems/rnas/4RZD

>  <Rbt.Executable>
rbdock ($Id: //depot/dev/client3/rdock/2013.1/src/exe/rbdock.cxx#4 $)

>  <Rbt.Library>
libRbt.so (2013.1, Build901 2013/11/27)

>  <Rbt.Parameter_File>
/export/apps/rDock/src/rDock_2013.1_src/data/scripts/dock_solv.prm

>  <Rbt.Receptor>
prm/pocket_docking_3.prm

>  <SCORE>
-30.9478

>  <SCORE.INTER>
-29.5117

>  <SCORE.INTER.CONST>
1

>  <SCORE.INTER.POLAR>
-2.7379

>  <SCORE.INTER.ROT>
3

>  <SCORE.INTER.SOLV>
11.3777

>  <SCORE.INTER.VDW>
-19.9407

>  <SCORE.INTER.norm>
-2.27013

>  <SCORE.INTRA>
-1.43606

>  <SCORE.INTRA.DIHEDRAL>
-1.97835

>  <SCORE.INTRA.DIHEDRAL.0>
4.88905

>  <SCORE.INTRA.POLAR>
-0.408548

>  <SCORE.INTRA.POLAR.0>
0

>  <SCORE.INTRA.REPUL>
0

>  <SCORE.INTRA.REPUL.0>
0

>  <SCORE.INTRA.SOLV>
0.417668

>  <SCORE.INTRA.SOLV.lig_0>
-15.1033

>  <SCORE.INTRA.VDW>
0.73334

>  <SCORE.INTRA.VDW.0>
-0.755285

>  <SCORE.INTRA.norm>
-0.110466

>  <SCORE.RESTR>
0

>  <SCORE.RESTR.CAVITY>
0

>  <SCORE.RESTR.norm>
0

>  <SCORE.SYSTEM>
0

>  <SCORE.SYSTEM.CONST>
0

>  <SCORE.SYSTEM.DIHEDRAL>
0

>  <SCORE.SYSTEM.SOLV>
0

>  <SCORE.SYSTEM.norm>
0

>  <SCORE.heavy>
13

>  <SCORE.norm>
-2.3806

>  <RMSD>
3.389

$$$$
ligand
 OpenBabel11021811513D
libRbt.so/2013.1/901 2013/11/27
 13 14  0  0  0  0  0  0  0  0999 V2000
   33.8973   28.6385  107.7290 N   0  0  0  0  0  0  0  0  0  0  0  0
   33.8040   27.5525  106.8283 C   0  0  0  0  0  0  0  0  0  0  0  0
   34.9874   26.7943  106.5110 N   0  0  0  0  0  0  0  0  0  0  0  0
   32.6116   27.2045  106.2474 N   0  0  0  0  0  0  0  0  0  0  0  0
   31.4318   27.9085  106.5215 C   0  0  0  0  0  0  0  0  0  0  0  0
   31.4819   29.0215  107.4329 C   0  0  0  0  0  0  0  0  0  0  0  0
   32.7659   29.3743  108.0399 C   0  0  0  0  0  0  0  0  0  0  0  0
   32.8529   30.4314  108.9151 O   0  0  0  0  0  0  0  0  0  0  0  0
   30.1284   29.5427  107.5115 C   0  0  0  0  0  0  0  0  0  0  0  0
   29.3424   28.7451  106.6789 C   0  0  0  0  0  0  0  0  0  0  0  0
   30.1244   27.7765  106.0905 N   0  0  0  0  0  0  0  0  0  0  0  0
   29.6672   30.7044  108.3396 C   0  0  0  0  0  0  0  0  0  0  0  0
   30.4552   30.7685  109.5567 N   0  0  0  0  0  0  0  0  0  0  0  0
  1  2  1  0  0  0  0
  1  7  1  0  0  0  0
  2  3  1  0  0  0  0
  2  4  2  0  0  0  0
  4  5  1  0  0  0  0
  5  6  2  0  0  0  0
  5 11  1  0  0  0  0
  6  7  1  0  0  0  0
  6  9  1  0  0  0  0
  7  8  2  0  0  0  0
  9 10  2  0  0  0  0
  9 12  1  0  0  0  0
 10 11  1  0  0  0  0
 12 13  1  0  0  0  0
M  END
>  <CHROM.1>
-160.13062274,-32.35442382,164.61618279,31.87875063,28.82246887,107.45606180
-0.67441426,-0.18730428,0.74481588

>  <Name>
ligand

>  <RI>
2.51964e+07

>  <Rbt.Current_Directory>
/home/itssahil/PROJECTS/Mol_Feturizer/New_Systems/rnas/4RZD

>  <Rbt.Executable>
rbdock ($Id: //depot/dev/client3/rdock/2013.1/src/exe/rbdock.cxx#4 $)

>  <Rbt.Library>
libRbt.so (2013.1, Build901 2013/11/27)

>  <Rbt.Parameter_File>
/export/apps/rDock/src/rDock_2013.1_src/data/scripts/dock_solv.prm

>  <Rbt.Receptor>
prm/pocket_docking_4.prm

>  <SCORE>
-33.9702

>  <SCORE.INTER>
-34.5285

>  <SCORE.INTER.CONST>
1

>  <SCORE.INTER.POLAR>
-3.36735

>  <SCORE.INTER.ROT>
3

>  <SCORE.INTER.SOLV>
11.3296

>  <SCORE.INTER.VDW>
-21.171

>  <SCORE.INTER.norm>
-2.65604

>  <SCORE.INTRA>
0.558283

>  <SCORE.INTRA.DIHEDRAL>
-2.01338

>  <SCORE.INTRA.DIHEDRAL.0>
4.88905

>  <SCORE.INTRA.POLAR>
0

>  <SCORE.INTRA.POLAR.0>
0

>  <SCORE.INTRA.REPUL>
0

>  <SCORE.INTRA.REPUL.0>
0

>  <SCORE.INTRA.SOLV>
0.368686

>  <SCORE.INTRA.SOLV.lig_0>
-15.1033

>  <SCORE.INTRA.VDW>
1.38063

>  <SCORE.INTRA.VDW.0>
-0.755285

>  <SCORE.INTRA.norm>
0.0429449

>  <SCORE.RESTR>
0

>  <SCORE.RESTR.CAVITY>
0

>  <SCORE.RESTR.norm>
0

>  <SCORE.SYSTEM>
0

>  <SCORE.SYSTEM.CONST>
0

>  <SCORE.SYSTEM.DIHEDRAL>
0

>  <SCORE.SYSTEM.SOLV>
0

>  <SCORE.SYSTEM.norm>
0

>  <SCORE.heavy>
13

>  <SCORE.norm>
-2.61309

>  <RMSD>
3.390

$$$$
ligand
 OpenBabel11021811513D
libRbt.so/2013.1/901 2013/11/27
 13 14  0  0  0  0  0  0  0  0999 V2000
   34.2782   27.7104  107.2760 N   0  0  0  0  0  0  0  0  0  0  0  0
   33.6877   26.5725  106.6795 C   0  0  0  0  0  0  0  0  0  0  0  0
   34.5285   25.4853  106.2468 N   0  0  0  0  0  0  0  0  0  0  0  0
   32.3312   26.4800  106.5015 N   0  0  0  0  0  0  0  0  0  0  0  0
   31.4692   27.5084  106.9041 C   0  0  0  0  0  0  0  0  0  0  0  0
   32.0286   28.6853  107.5156 C   0  0  0  0  0  0  0  0  0  0  0  0
   33.4790   28.7612  107.6945 C   0  0  0  0  0  0  0  0  0  0  0  0
   34.0499   29.8698  108.2746 O   0  0  0  0  0  0  0  0  0  0  0  0
   30.9074   29.5585  107.8157 C   0  0  0  0  0  0  0  0  0  0  0  0
   29.7560   28.8921  107.3944 C   0  0  0  0  0  0  0  0  0  0  0  0
   30.0973   27.6742  106.8503 N   0  0  0  0  0  0  0  0  0  0  0  0
   30.9774   30.9079  108.4653 C   0  0  0  0  0  0  0  0  0  0  0  0
   29.7816   31.1201  109.2600 N   0  0  0  0  0  0  0  0  0  0  0  0
  1  2  1  0  0  0  0
  1  7  1  0  0  0  0
  2  3  1  0  0  0  0
  2  4  2  0  0  0  0
  4  5  1  0  0  0  0
  5  6  2  0  0  0  0
  5 11  1  0  0  0  0
  6  7  1  0  0  0  0
  6  9  1  0  0  0  0
  7  8  2  0  0  0  0
  9 10  2  0  0  0  0
  9 12  1  0  0  0  0
 10 11  1  0  0  0  0
 12 13  1  0  0  0  0
M  END
>  <CHROM.1>
142.09025762,-147.57490135,-68.16425758,32.14510936,28.41099519,107.46861511
-0.87407627,-0.06281444,0.48748527

>  <Name>
ligand

>  <RI>
2.73617e+07

>  <Rbt.Current_Directory>
/home/itssahil/PROJECTS/Mol_Feturizer/New_Systems/rnas/4RZD

>  <Rbt.Executable>
rbdock ($Id: //depot/dev/client3/rdock/2013.1/src/exe/rbdock.cxx#4 $)

>  <Rbt.Library>
libRbt.so (2013.1, Build901 2013/11/27)

>  <Rbt.Parameter_File>
/export/apps/rDock/src/rDock_2013.1_src/data/scripts/dock_solv.prm

>  <Rbt.Receptor>
prm/pocket_docking_6.prm

>  <SCORE>
-30.2667

>  <SCORE.INTER>
-29.1143

>  <SCORE.INTER.CONST>
1

>  <SCORE.INTER.POLAR>
-2.83565

>  <SCORE.INTER.ROT>
3

>  <SCORE.INTER.SOLV>
9.53797

>  <SCORE.INTER.VDW>
-18.7366

>  <SCORE.INTER.norm>
-2.23956

>  <SCORE.INTRA>
-1.15247

>  <SCORE.INTRA.DIHEDRAL>
-2.27283

>  <SCORE.INTRA.DIHEDRAL.0>
4.88905

>  <SCORE.INTRA.POLAR>
0

>  <SCORE.INTRA.POLAR.0>
0

>  <SCORE.INTRA.REPUL>
0

>  <SCORE.INTRA.REPUL.0>
0

>  <SCORE.INTRA.SOLV>
-0.702474

>  <SCORE.INTRA.SOLV.lig_0>
-15.1033

>  <SCORE.INTRA.VDW>
0.335178

>  <SCORE.INTRA.VDW.0>
-0.755285

>  <SCORE.INTRA.norm>
-0.0886518

>  <SCORE.RESTR>
0

>  <SCORE.RESTR.CAVITY>
0

>  <SCORE.RESTR.norm>
0

>  <SCORE.SYSTEM>
0

>  <SCORE.SYSTEM.CONST>
0

>  <SCORE.SYSTEM.DIHEDRAL>
0

>  <SCORE.SYSTEM.SOLV>
0

>  <SCORE.SYSTEM.norm>
0

>  <SCORE.heavy>
13

>  <SCORE.norm>
-2.32821

>  <RMSD>
3.678

$$$$
ligand
 OpenBabel11021811513D
libRbt.so/2013.1/901 2013/11/27
 13 14  0  0  0  0  0  0  0  0999 V2000
   34.1426   27.1973  107.8737 N   0  0  0  0  0  0  0  0  0  0  0  0
   33.7914   26.3877  106.7689 C   0  0  0  0  0  0  0  0  0  0  0  0
   34.7091   25.3729  106.3168 N   0  0  0  0  0  0  0  0  0  0  0  0
   32.5965   26.5470  106.1155 N   0  0  0  0  0  0  0  0  0  0  0  0
   31.6690   27.5183  106.5144 C   0  0  0  0  0  0  0  0  0  0  0  0
   31.9865   28.3645  107.6347 C   0  0  0  0  0  0  0  0  0  0  0  0
   33.2680   28.1760  108.3156 C   0  0  0  0  0  0  0  0  0  0  0  0
   33.6064   28.9656  109.3895 O   0  0  0  0  0  0  0  0  0  0  0  0
   30.8531   29.2572  107.8028 C   0  0  0  0  0  0  0  0  0  0  0  0
   29.9265   28.9194  106.8157 C   0  0  0  0  0  0  0  0  0  0  0  0
   30.4191   27.8860  106.0507 N   0  0  0  0  0  0  0  0  0  0  0  0
   30.7060   30.3244  108.8457 C   0  0  0  0  0  0  0  0  0  0  0  0
   29.9822   31.4490  108.2820 N   0  0  0  0  0  0  0  0  0  0  0  0
  1  2  1  0  0  0  0
  1  7  1  0  0  0  0
  2  3  1  0  0  0  0
  2  4  2  0  0  0  0
  4  5  1  0  0  0  0
  5  6  2  0  0  0  0
  5 11  1  0  0  0  0
  6  7  1  0  0  0  0
  6  9  1  0  0  0  0
  7  8  2  0  0  0  0
  9 10  2  0  0  0  0
  9 12  1  0  0  0  0
 10 11  1  0  0  0  0
 12 13  1  0  0  0  0
M  END
>  <CHROM.1>
91.45229985,145.31112342,-156.69670132,32.16613019,28.19103941,107.46234856
-0.75091827,-0.47090613,0.76420145

>  <Name>
ligand

>  <RI>
1.35221e+07

>  <Rbt.Current_Directory>
/home/itssahil/PROJECTS/Mol_Feturizer/New_Systems/rnas/4RZD

>  <Rbt.Executable>
rbdock ($Id: //depot/dev/client3/rdock/2013.1/src/exe/rbdock.cxx#4 $)

>  <Rbt.Library>
libRbt.so (2013.1, Build901 2013/11/27)

>  <Rbt.Parameter_File>
/export/apps/rDock/src/rDock_2013.1_src/data/scripts/dock_solv.prm

>  <Rbt.Receptor>
prm/pocket_docking_5.prm

>  <SCORE>
-35.2356

>  <SCORE.INTER>
-34.3252

>  <SCORE.INTER.CONST>
1

>  <SCORE.INTER.POLAR>
-4.24605

>  <SCORE.INTER.ROT>
3

>  <SCORE.INTER.SOLV>
9.79145

>  <SCORE.INTER.VDW>
-17.5938

>  <SCORE.INTER.norm>
-2.6404

>  <SCORE.INTRA>
-0.910326

>  <SCORE.INTRA.DIHEDRAL>
-1.64667

>  <SCORE.INTRA.DIHEDRAL.0>
4.88905

>  <SCORE.INTRA.POLAR>
0

>  <SCORE.INTRA.POLAR.0>
0

>  <SCORE.INTRA.REPUL>
0

>  <SCORE.INTRA.REPUL.0>
0

>  <SCORE.INTRA.SOLV>
-0.70991

>  <SCORE.INTRA.SOLV.lig_0>
-15.1033

>  <SCORE.INTRA.VDW>
0.267965

>  <SCORE.INTRA.VDW.0>
-0.755285

>  <SCORE.INTRA.norm>
-0.0700251

>  <SCORE.RESTR>
0

>  <SCORE.RESTR.CAVITY>
0

>  <SCORE.RESTR.norm>
0

>  <SCORE.SYSTEM>
0

>  <SCORE.SYSTEM.CONST>
0

>  <SCORE.SYSTEM.DIHEDRAL>
0

>  <SCORE.SYSTEM.SOLV>
0

>  <SCORE.SYSTEM.norm>
0

>  <SCORE.heavy>
13

>  <SCORE.norm>
-2.71043

>  <RMSD>
3.706

$$$$
ligand
 OpenBabel11021811513D
libRbt.so/2013.1/901 2013/11/27
 13 14  0  0  0  0  0  0  0  0999 V2000
   29.7913   29.0012  107.3030 N   0  0  0  0  0  0  0  0  0  0  0  0
   30.5686   29.9691  107.9799 C   0  0  0  0  0  0  0  0  0  0  0  0
   29.9202   31.1221  108.5512 N   0  0  0  0  0  0  0  0  0  0  0  0
   31.9278   29.8368  108.1042 N   0  0  0  0  0  0  0  0  0  0  0  0
   32.6072   28.7356  107.5673 C   0  0  0  0  0  0  0  0  0  0  0  0
   31.8542   27.7263  106.8697 C   0  0  0  0  0  0  0  0  0  0  0  0
   30.4050   27.8899  106.7495 C   0  0  0  0  0  0  0  0  0  0  0  0
   29.6523   26.9466  106.0900 O   0  0  0  0  0  0  0  0  0  0  0  0
   32.8176   26.7310  106.4326 C   0  0  0  0  0  0  0  0  0  0  0  0
   34.0686   27.1618  106.8760 C   0  0  0  0  0  0  0  0  0  0  0  0
   33.9370   28.3564  107.5478 N   0  0  0  0  0  0  0  0  0  0  0  0
   32.5188   25.4778  105.6658 C   0  0  0  0  0  0  0  0  0  0  0  0
   33.6883   24.6184  105.6774 N   0  0  0  0  0  0  0  0  0  0  0  0
  1  2  1  0  0  0  0
  1  7  1  0  0  0  0
  2  3  1  0  0  0  0
  2  4  2  0  0  0  0
  4  5  1  0  0  0  0
  5  6  2  0  0  0  0
  5 11  1  0  0  0  0
  6  7  1  0  0  0  0
  6  9  1  0  0  0  0
  7  8  2  0  0  0  0
  9 10  2  0  0  0  0
  9 12  1  0  0  0  0
 10 11  1  0  0  0  0
 12 13  1  0  0  0  0
M  END
>  <CHROM.1>
-169.02859054,-167.66118001,57.19398214,31.78955019,27.96546549,107.03054459
2.12820473,-0.13634924,0.50534406

>  <Name>
ligand

>  <RI>
2.51964e+07

>  <Rbt.Current_Directory>
/home/itssahil/PROJECTS/Mol_Feturizer/New_Systems/rnas/4RZD

>  <Rbt.Executable>
rbdock ($Id: //depot/dev/client3/rdock/2013.1/src/exe/rbdock.cxx#4 $)

>  <Rbt.Library>
libRbt.so (2013.1, Build901 2013/11/27)

>  <Rbt.Parameter_File>
/export/apps/rDock/src/rDock_2013.1_src/data/scripts/dock_solv.prm

>  <Rbt.Receptor>
prm/pocket_docking_4.prm

>  <SCORE>
-33.3668

>  <SCORE.INTER>
-32.3159

>  <SCORE.INTER.CONST>
1

>  <SCORE.INTER.POLAR>
-3.78961

>  <SCORE.INTER.ROT>
3

>  <SCORE.INTER.SOLV>
7.9847

>  <SCORE.INTER.VDW>
-17.1734

>  <SCORE.INTER.norm>
-2.48584

>  <SCORE.INTRA>
-1.05093

>  <SCORE.INTRA.DIHEDRAL>
-2.37906

>  <SCORE.INTRA.DIHEDRAL.0>
4.88905

>  <SCORE.INTRA.POLAR>
0

>  <SCORE.INTRA.POLAR.0>
0

>  <SCORE.INTRA.REPUL>
0

>  <SCORE.INTRA.REPUL.0>
0

>  <SCORE.INTRA.SOLV>
-0.681005

>  <SCORE.INTRA.SOLV.lig_0>
-15.1033

>  <SCORE.INTRA.VDW>
0.479107

>  <SCORE.INTRA.VDW.0>
-0.755285

>  <SCORE.INTRA.norm>
-0.0808404

>  <SCORE.RESTR>
0

>  <SCORE.RESTR.CAVITY>
0

>  <SCORE.RESTR.norm>
0

>  <SCORE.SYSTEM>
0

>  <SCORE.SYSTEM.CONST>
0

>  <SCORE.SYSTEM.DIHEDRAL>
0

>  <SCORE.SYSTEM.SOLV>
0

>  <SCORE.SYSTEM.norm>
0

>  <SCORE.heavy>
13

>  <SCORE.norm>
-2.56668

>  <RMSD>
3.822

$$$$
ligand
 OpenBabel11021811513D
libRbt.so/2013.1/901 2013/11/27
 13 14  0  0  0  0  0  0  0  0999 V2000
   31.6950   27.3475  106.8626 N   0  0  0  0  0  0  0  0  0  0  0  0
   30.3382   27.4229  107.2533 C   0  0  0  0  0  0  0  0  0  0  0  0
   29.4196   26.4021  106.8168 N   0  0  0  0  0  0  0  0  0  0  0  0
   29.8749   28.4476  108.0380 N   0  0  0  0  0  0  0  0  0  0  0  0
   30.7256   29.4651  108.4891 C   0  0  0  0  0  0  0  0  0  0  0  0
   32.1149   29.4272  108.1145 C   0  0  0  0  0  0  0  0  0  0  0  0
   32.5857   28.3241  107.2760 C   0  0  0  0  0  0  0  0  0  0  0  0
   33.9060   28.2542  106.8975 O   0  0  0  0  0  0  0  0  0  0  0  0
   32.7303   30.5955  108.7194 C   0  0  0  0  0  0  0  0  0  0  0  0
   31.7232   31.2635  109.4170 C   0  0  0  0  0  0  0  0  0  0  0  0
   30.5323   30.5875  109.2736 N   0  0  0  0  0  0  0  0  0  0  0  0
   34.1722   30.9947  108.6219 C   0  0  0  0  0  0  0  0  0  0  0  0
   35.0050   29.9012  109.0875 N   0  0  0  0  0  0  0  0  0  0  0  0
  1  2  1  0  0  0  0
  1  7  1  0  0  0  0
  2  3  1  0  0  0  0
  2  4  2  0  0  0  0
  4  5  1  0  0  0  0
  5  6  2  0  0  0  0
  5 11  1  0  0  0  0
  6  7  1  0  0  0  0
  6  9  1  0  0  0  0
  7  8  2  0  0  0  0
  9 10  2  0  0  0  0
  9 12  1  0  0  0  0
 10 11  1  0  0  0  0
 12 13  1  0  0  0  0
M  END
>  <CHROM.1>
-173.62337619,-55.87130206,-166.38332305,31.94248051,29.04880253,108.03611066
-2.36578478,0.10865625,0.58312445

>  <Name>
ligand

>  <RI>
1.99388e+07

>  <Rbt.Current_Directory>
/home/itssahil/PROJECTS/Mol_Feturizer/New_Systems/rnas/4RZD

>  <Rbt.Executable>
rbdock ($Id: //depot/dev/client3/rdock/2013.1/src/exe/rbdock.cxx#4 $)

>  <Rbt.Library>
libRbt.so (2013.1, Build901 2013/11/27)

>  <Rbt.Parameter_File>
/export/apps/rDock/src/rDock_2013.1_src/data/scripts/dock_solv.prm

>  <Rbt.Receptor>
prm/pocket_docking_2.prm

>  <SCORE>
-27.1547

>  <SCORE.INTER>
-25.6143

>  <SCORE.INTER.CONST>
1

>  <SCORE.INTER.POLAR>
-2.08218

>  <SCORE.INTER.ROT>
3

>  <SCORE.INTER.SOLV>
9.40852

>  <SCORE.INTER.VDW>
-18.8718

>  <SCORE.INTER.norm>
-1.97033

>  <SCORE.INTRA>
-1.5404

>  <SCORE.INTRA.DIHEDRAL>
-2.10844

>  <SCORE.INTRA.DIHEDRAL.0>
4.88905

>  <SCORE.INTRA.POLAR>
-0.136974

>  <SCORE.INTRA.POLAR.0>
0

>  <SCORE.INTRA.REPUL>
0

>  <SCORE.INTRA.REPUL.0>
0

>  <SCORE.INTRA.SOLV>
0.048969

>  <SCORE.INTRA.SOLV.lig_0>
-15.1033

>  <SCORE.INTRA.VDW>
-0.044949

>  <SCORE.INTRA.VDW.0>
-0.755285

>  <SCORE.INTRA.norm>
-0.118492

>  <SCORE.RESTR>
0

>  <SCORE.RESTR.CAVITY>
0

>  <SCORE.RESTR.norm>
0

>  <SCORE.SYSTEM>
0

>  <SCORE.SYSTEM.CONST>
0

>  <SCORE.SYSTEM.DIHEDRAL>
0

>  <SCORE.SYSTEM.SOLV>
0

>  <SCORE.SYSTEM.norm>
0

>  <SCORE.heavy>
13

>  <SCORE.norm>
-2.08882

>  <RMSD>
4.037

$$$$
ligand
 OpenBabel11021811513D
libRbt.so/2013.1/901 2013/11/27
 13 14  0  0  0  0  0  0  0  0999 V2000
   31.6294   27.1540  106.5262 N   0  0  0  0  0  0  0  0  0  0  0  0
   30.2201   27.1476  106.4113 C   0  0  0  0  0  0  0  0  0  0  0  0
   29.5736   26.0691  105.7076 N   0  0  0  0  0  0  0  0  0  0  0  0
   29.4530   28.1464  106.9537 N   0  0  0  0  0  0  0  0  0  0  0  0
   30.0311   29.2174  107.6474 C   0  0  0  0  0  0  0  0  0  0  0  0
   31.4630   29.2634  107.7876 C   0  0  0  0  0  0  0  0  0  0  0  0
   32.2605   28.1864  107.1998 C   0  0  0  0  0  0  0  0  0  0  0  0
   33.6311   28.1962  107.3130 O   0  0  0  0  0  0  0  0  0  0  0  0
   31.7586   30.4714  108.5380 C   0  0  0  0  0  0  0  0  0  0  0  0
   30.5343   31.0799  108.8171 C   0  0  0  0  0  0  0  0  0  0  0  0
   29.5106   30.3305  108.2820 N   0  0  0  0  0  0  0  0  0  0  0  0
   33.1172   30.9586  108.9440 C   0  0  0  0  0  0  0  0  0  0  0  0
   34.0126   30.8869  107.8041 N   0  0  0  0  0  0  0  0  0  0  0  0
  1  2  1  0  0  0  0
  1  7  1  0  0  0  0
  2  3  1  0  0  0  0
  2  4  2  0  0  0  0
  4  5  1  0  0  0  0
  5  6  2  0  0  0  0
  5 11  1  0  0  0  0
  6  7  1  0  0  0  0
  6  9  1  0  0  0  0
  7  8  2  0  0  0  0
  9 10  2  0  0  0  0
  9 12  1  0  0  0  0
 10 11  1  0  0  0  0
 12 13  1  0  0  0  0
M  END
>  <CHROM.1>
-80.03337921,46.98896948,-74.30316842,31.37054152,28.96098479,107.49423490
-2.13406684,0.01861380,0.52326929

>  <Name>
ligand

>  <RI>
1.38753e+07

>  <Rbt.Current_Directory>
/home/itssahil/PROJECTS/Mol_Feturizer/New_Systems/rnas/4RZD

>  <Rbt.Executable>
rbdock ($Id: //depot/dev/client3/rdock/2013.1/src/exe/rbdock.cxx#4 $)

>  <Rbt.Library>
libRbt.so (2013.1, Build901 2013/11/27)

>  <Rbt.Parameter_File>
/export/apps/rDock/src/rDock_2013.1_src/data/scripts/dock_solv.prm

>  <Rbt.Receptor>
prm/pocket_docking_7.prm

>  <SCORE>
-29.2278

>  <SCORE.INTER>
-27.0735

>  <SCORE.INTER.CONST>
1

>  <SCORE.INTER.POLAR>
-1.91119

>  <SCORE.INTER.ROT>
3

>  <SCORE.INTER.SOLV>
9.38877

>  <SCORE.INTER.VDW>
-20.4079

>  <SCORE.INTER.norm>
-2.08257

>  <SCORE.INTRA>
-2.15434

>  <SCORE.INTRA.DIHEDRAL>
-2.10974

>  <SCORE.INTRA.DIHEDRAL.0>
4.88905

>  <SCORE.INTRA.POLAR>
-0.357219

>  <SCORE.INTRA.POLAR.0>
0

>  <SCORE.INTRA.REPUL>
0

>  <SCORE.INTRA.REPUL.0>
0

>  <SCORE.INTRA.SOLV>
0.160996

>  <SCORE.INTRA.SOLV.lig_0>
-15.1033

>  <SCORE.INTRA.VDW>
0.0345747

>  <SCORE.INTRA.VDW.0>
-0.755285

>  <SCORE.INTRA.norm>
-0.165718

>  <SCORE.RESTR>
0

>  <SCORE.RESTR.CAVITY>
0

>  <SCORE.RESTR.norm>
0

>  <SCORE.SYSTEM>
0

>  <SCORE.SYSTEM.CONST>
0

>  <SCORE.SYSTEM.DIHEDRAL>
0

>  <SCORE.SYSTEM.SOLV>
0

>  <SCORE.SYSTEM.norm>
0

>  <SCORE.heavy>
13

>  <SCORE.norm>
-2.24829

>  <RMSD>
4.081

$$$$
ligand
 OpenBabel11021811513D
libRbt.so/2013.1/901 2013/11/27
 13 14  0  0  0  0  0  0  0  0999 V2000
   31.2169   27.2085  106.6808 N   0  0  0  0  0  0  0  0  0  0  0  0
   29.8186   27.3993  106.7680 C   0  0  0  0  0  0  0  0  0  0  0  0
   28.9339   26.3917  106.2402 N   0  0  0  0  0  0  0  0  0  0  0  0
   29.2837   28.5236  107.3426 N   0  0  0  0  0  0  0  0  0  0  0  0
   30.0989   29.5332  107.8706 C   0  0  0  0  0  0  0  0  0  0  0  0
   31.5285   29.3795  107.8026 C   0  0  0  0  0  0  0  0  0  0  0  0
   32.0757   28.1713  107.1842 C   0  0  0  0  0  0  0  0  0  0  0  0
   33.4363   27.9894  107.1007 O   0  0  0  0  0  0  0  0  0  0  0  0
   32.0940   30.5678  108.4171 C   0  0  0  0  0  0  0  0  0  0  0  0
   31.0192   31.3593  108.8240 C   0  0  0  0  0  0  0  0  0  0  0  0
   29.8350   30.7394  108.4933 N   0  0  0  0  0  0  0  0  0  0  0  0
   33.5515   30.8739  108.5910 C   0  0  0  0  0  0  0  0  0  0  0  0
   34.2276   29.7031  109.1187 N   0  0  0  0  0  0  0  0  0  0  0  0
  1  2  1  0  0  0  0
  1  7  1  0  0  0  0
  2  3  1  0  0  0  0
  2  4  2  0  0  0  0
  4  5  1  0  0  0  0
  5  6  2  0  0  0  0
  5 11  1  0  0  0  0
  6  7  1  0  0  0  0
  6  9  1  0  0  0  0
  7  8  2  0  0  0  0
  9 10  2  0  0  0  0
  9 12  1  0  0  0  0
 10 11  1  0  0  0  0
 12 13  1  0  0  0  0
M  END
>  <CHROM.1>
-176.76027168,-46.62390251,118.50379707,31.34625087,28.99472370,107.70467144
-2.32256994,-0.09402166,0.48066677

>  <Name>
ligand

>  <RI>
1.38753e+07

>  <Rbt.Current_Directory>
/home/itssahil/PROJECTS/Mol_Feturizer/New_Systems/rnas/4RZD

>  <Rbt.Executable>
rbdock ($Id: //depot/dev/client3/rdock/2013.1/src/exe/rbdock.cxx#4 $)

>  <Rbt.Library>
libRbt.so (2013.1, Build901 2013/11/27)

>  <Rbt.Parameter_File>
/export/apps/rDock/src/rDock_2013.1_src/data/scripts/dock_solv.prm

>  <Rbt.Receptor>
prm/pocket_docking_7.prm

>  <SCORE>
-32.1742

>  <SCORE.INTER>
-32.8353

>  <SCORE.INTER.CONST>
1

>  <SCORE.INTER.POLAR>
-2.8911

>  <SCORE.INTER.ROT>
3

>  <SCORE.INTER.SOLV>
9.97114

>  <SCORE.INTER.VDW>
-21.1769

>  <SCORE.INTER.norm>
-2.52579

>  <SCORE.INTRA>
0.661078

>  <SCORE.INTRA.DIHEDRAL>
0.00642754

>  <SCORE.INTRA.DIHEDRAL.0>
4.88905

>  <SCORE.INTRA.POLAR>
0

>  <SCORE.INTRA.POLAR.0>
0

>  <SCORE.INTRA.REPUL>
0

>  <SCORE.INTRA.REPUL.0>
0

>  <SCORE.INTRA.SOLV>
0.247385

>  <SCORE.INTRA.SOLV.lig_0>
-15.1033

>  <SCORE.INTRA.VDW>
0.534171

>  <SCORE.INTRA.VDW.0>
-0.755285

>  <SCORE.INTRA.norm>
0.0508521

>  <SCORE.RESTR>
0

>  <SCORE.RESTR.CAVITY>
0

>  <SCORE.RESTR.norm>
0

>  <SCORE.SYSTEM>
0

>  <SCORE.SYSTEM.CONST>
0

>  <SCORE.SYSTEM.DIHEDRAL>
0

>  <SCORE.SYSTEM.SOLV>
0

>  <SCORE.SYSTEM.norm>
0

>  <SCORE.heavy>
13

>  <SCORE.norm>
-2.47494

>  <RMSD>
4.113

$$$$
ligand
 OpenBabel11021811513D
libRbt.so/2013.1/901 2013/11/27
 13 14  0  0  0  0  0  0  0  0999 V2000
   29.9986   28.1152  106.2023 N   0  0  0  0  0  0  0  0  0  0  0  0
   29.8074   29.2368  107.0417 C   0  0  0  0  0  0  0  0  0  0  0  0
   28.5692   29.9702  106.9697 N   0  0  0  0  0  0  0  0  0  0  0  0
   30.7753   29.6447  107.9233 N   0  0  0  0  0  0  0  0  0  0  0  0
   31.9966   28.9673  108.0329 C   0  0  0  0  0  0  0  0  0  0  0  0
   32.2331   27.8198  107.1965 C   0  0  0  0  0  0  0  0  0  0  0  0
   31.1854   27.4041  106.2631 C   0  0  0  0  0  0  0  0  0  0  0  0
   31.3751   26.3129  105.4478 O   0  0  0  0  0  0  0  0  0  0  0  0
   33.5633   27.3417  107.5302 C   0  0  0  0  0  0  0  0  0  0  0  0
   34.0553   28.1866  108.5258 C   0  0  0  0  0  0  0  0  0  0  0  0
   33.1195   29.1534  108.8184 N   0  0  0  0  0  0  0  0  0  0  0  0
   34.2628   26.1599  106.9284 C   0  0  0  0  0  0  0  0  0  0  0  0
   35.4265   25.8317  107.7311 N   0  0  0  0  0  0  0  0  0  0  0  0
  1  2  1  0  0  0  0
  1  7  1  0  0  0  0
  2  3  1  0  0  0  0
  2  4  2  0  0  0  0
  4  5  1  0  0  0  0
  5  6  2  0  0  0  0
  5 11  1  0  0  0  0
  6  7  1  0  0  0  0
  6  9  1  0  0  0  0
  7  8  2  0  0  0  0
  9 10  2  0  0  0  0
  9 12  1  0  0  0  0
 10 11  1  0  0  0  0
 12 13  1  0  0  0  0
M  END
>  <CHROM.1>
-27.69804738,-167.00686316,-33.05789121,32.00574422,27.99343682,107.25019946
2.85728735,-0.42011124,0.69391170

>  <Name>
ligand

>  <RI>
1.0531e+07

>  <Rbt.Current_Directory>
/home/itssahil/PROJECTS/Mol_Feturizer/New_Systems/rnas/4RZD

>  <Rbt.Executable>
rbdock ($Id: //depot/dev/client3/rdock/2013.1/src/exe/rbdock.cxx#4 $)

>  <Rbt.Library>
libRbt.so (2013.1, Build901 2013/11/27)

>  <Rbt.Parameter_File>
/export/apps/rDock/src/rDock_2013.1_src/data/scripts/dock_solv.prm

>  <Rbt.Receptor>
prm/pocket_docking_8.prm

>  <SCORE>
-33.6367

>  <SCORE.INTER>
-33.5833

>  <SCORE.INTER.CONST>
1

>  <SCORE.INTER.POLAR>
-4.89078

>  <SCORE.INTER.ROT>
3

>  <SCORE.INTER.SOLV>
10.9034

>  <SCORE.INTER.VDW>
-15.3207

>  <SCORE.INTER.norm>
-2.58333

>  <SCORE.INTRA>
-0.0533871

>  <SCORE.INTRA.DIHEDRAL>
-1.3783

>  <SCORE.INTRA.DIHEDRAL.0>
4.88905

>  <SCORE.INTRA.POLAR>
0

>  <SCORE.INTRA.POLAR.0>
0

>  <SCORE.INTRA.REPUL>
0

>  <SCORE.INTRA.REPUL.0>
0

>  <SCORE.INTRA.SOLV>
-0.692692

>  <SCORE.INTRA.SOLV.lig_0>
-15.1033

>  <SCORE.INTRA.VDW>
0.982109

>  <SCORE.INTRA.VDW.0>
-0.755285

>  <SCORE.INTRA.norm>
-0.0041067

>  <SCORE.RESTR>
0

>  <SCORE.RESTR.CAVITY>
0

>  <SCORE.RESTR.norm>
0

>  <SCORE.SYSTEM>
0

>  <SCORE.SYSTEM.CONST>
0

>  <SCORE.SYSTEM.DIHEDRAL>
0

>  <SCORE.SYSTEM.SOLV>
0

>  <SCORE.SYSTEM.norm>
0

>  <SCORE.heavy>
13

>  <SCORE.norm>
-2.58744

>  <RMSD>
4.121

$$$$
ligand
 OpenBabel11021811513D
libRbt.so/2013.1/901 2013/11/27
 13 14  0  0  0  0  0  0  0  0999 V2000
   31.6828   27.4502  106.5985 N   0  0  0  0  0  0  0  0  0  0  0  0
   30.3222   27.7552  106.8330 C   0  0  0  0  0  0  0  0  0  0  0  0
   29.3008   26.9398  106.2264 N   0  0  0  0  0  0  0  0  0  0  0  0
   29.9514   28.8119  107.6243 N   0  0  0  0  0  0  0  0  0  0  0  0
   30.9042   29.6358  108.2374 C   0  0  0  0  0  0  0  0  0  0  0  0
   32.3011   29.3610  108.0250 C   0  0  0  0  0  0  0  0  0  0  0  0
   32.6723   28.2283  107.1760 C   0  0  0  0  0  0  0  0  0  0  0  0
   33.9966   27.9349  106.9498 O   0  0  0  0  0  0  0  0  0  0  0  0
   33.0314   30.3694  108.7730 C   0  0  0  0  0  0  0  0  0  0  0  0
   32.0778   31.1790  109.3914 C   0  0  0  0  0  0  0  0  0  0  0  0
   30.8142   30.7391  109.0664 N   0  0  0  0  0  0  0  0  0  0  0  0
   34.5216   30.5021  108.8703 C   0  0  0  0  0  0  0  0  0  0  0  0
   34.8988   31.8782  108.6053 N   0  0  0  0  0  0  0  0  0  0  0  0
  1  2  1  0  0  0  0
  1  7  1  0  0  0  0
  2  3  1  0  0  0  0
  2  4  2  0  0  0  0
  4  5  1  0  0  0  0
  5  6  2  0  0  0  0
  5 11  1  0  0  0  0
  6  7  1  0  0  0  0
  6  9  1  0  0  0  0
  7  8  2  0  0  0  0
  9 10  2  0  0  0  0
  9 12  1  0  0  0  0
 10 11  1  0  0  0  0
 12 13  1  0  0  0  0
M  END
>  <CHROM.1>
-35.49587359,131.06461845,-146.41974847,32.05958508,29.26570897,107.83928692
-2.31317940,0.07243333,0.60525398

>  <Name>
ligand

>  <RI>
4.18181e+07

>  <Rbt.Current_Directory>
/home/itssahil/PROJECTS/Mol_Feturizer/New_Systems/rnas/4RZD

>  <Rbt.Executable>
rbdock ($Id: //depot/dev/client3/rdock/2013.1/src/exe/rbdock.cxx#4 $)

>  <Rbt.Library>
libRbt.so (2013.1, Build901 2013/11/27)

>  <Rbt.Parameter_File>
/export/apps/rDock/src/rDock_2013.1_src/data/scripts/dock_solv.prm

>  <Rbt.Receptor>
prm/pocket_docking_3.prm

>  <SCORE>
-26.8302

>  <SCORE.INTER>
-26.1811

>  <SCORE.INTER.CONST>
1

>  <SCORE.INTER.POLAR>
-1.81508

>  <SCORE.INTER.ROT>
3

>  <SCORE.INTER.SOLV>
11.2683

>  <SCORE.INTER.VDW>
-20.7599

>  <SCORE.INTER.norm>
-2.01393

>  <SCORE.INTRA>
-0.649143

>  <SCORE.INTRA.DIHEDRAL>
-0.997722

>  <SCORE.INTRA.DIHEDRAL.0>
4.88905

>  <SCORE.INTRA.POLAR>
0

>  <SCORE.INTRA.POLAR.0>
0

>  <SCORE.INTRA.REPUL>
0

>  <SCORE.INTRA.REPUL.0>
0

>  <SCORE.INTRA.SOLV>
-0.710327

>  <SCORE.INTRA.SOLV.lig_0>
-15.1033

>  <SCORE.INTRA.VDW>
0.204881

>  <SCORE.INTRA.VDW.0>
-0.755285

>  <SCORE.INTRA.norm>
-0.0499341

>  <SCORE.RESTR>
0

>  <SCORE.RESTR.CAVITY>
0

>  <SCORE.RESTR.norm>
0

>  <SCORE.SYSTEM>
0

>  <SCORE.SYSTEM.CONST>
0

>  <SCORE.SYSTEM.DIHEDRAL>
0

>  <SCORE.SYSTEM.SOLV>
0

>  <SCORE.SYSTEM.norm>
0

>  <SCORE.heavy>
13

>  <SCORE.norm>
-2.06386

>  <RMSD>
4.129

$$$$
ligand
 OpenBabel11021811513D
libRbt.so/2013.1/901 2013/11/27
 13 14  0  0  0  0  0  0  0  0999 V2000
   31.1391   27.1374  106.9050 N   0  0  0  0  0  0  0  0  0  0  0  0
   29.7394   27.3335  106.8650 C   0  0  0  0  0  0  0  0  0  0  0  0
   28.9025   26.3299  106.2578 N   0  0  0  0  0  0  0  0  0  0  0  0
   29.1588   28.4594  107.3900 N   0  0  0  0  0  0  0  0  0  0  0  0
   29.9265   29.4654  107.9911 C   0  0  0  0  0  0  0  0  0  0  0  0
   31.3558   29.3062  108.0530 C   0  0  0  0  0  0  0  0  0  0  0  0
   31.9523   28.0964  107.4854 C   0  0  0  0  0  0  0  0  0  0  0  0
   33.3142   27.9092  107.5257 O   0  0  0  0  0  0  0  0  0  0  0  0
   31.8677   30.4918  108.7178 C   0  0  0  0  0  0  0  0  0  0  0  0
   30.7634   31.2870  109.0263 C   0  0  0  0  0  0  0  0  0  0  0  0
   29.6117   30.6721  108.5887 N   0  0  0  0  0  0  0  0  0  0  0  0
   33.3044   30.7920  109.0238 C   0  0  0  0  0  0  0  0  0  0  0  0
   34.0355   30.9547  107.7806 N   0  0  0  0  0  0  0  0  0  0  0  0
  1  2  1  0  0  0  0
  1  7  1  0  0  0  0
  2  3  1  0  0  0  0
  2  4  2  0  0  0  0
  4  5  1  0  0  0  0
  5  6  2  0  0  0  0
  5 11  1  0  0  0  0
  6  7  1  0  0  0  0
  6  9  1  0  0  0  0
  7  8  2  0  0  0  0
  9 10  2  0  0  0  0
  9 12  1  0  0  0  0
 10 11  1  0  0  0  0
 12 13  1  0  0  0  0
M  END
>  <CHROM.1>
174.45516742,65.11081436,-61.41833118,31.19602280,29.04451227,107.77497573
-2.26750159,0.01548182,0.46113082

>  <Name>
ligand

>  <RI>
1.0531e+07

>  <Rbt.Current_Directory>
/home/itssahil/PROJECTS/Mol_Feturizer/New_Systems/rnas/4RZD

>  <Rbt.Executable>
rbdock ($Id: //depot/dev/client3/rdock/2013.1/src/exe/rbdock.cxx#4 $)

>  <Rbt.Library>
libRbt.so (2013.1, Build901 2013/11/27)

>  <Rbt.Parameter_File>
/export/apps/rDock/src/rDock_2013.1_src/data/scripts/dock_solv.prm

>  <Rbt.Receptor>
prm/pocket_docking_8.prm

>  <SCORE>
-28.9026

>  <SCORE.INTER>
-27.6589

>  <SCORE.INTER.CONST>
1

>  <SCORE.INTER.POLAR>
-2.35526

>  <SCORE.INTER.ROT>
3

>  <SCORE.INTER.SOLV>
10.3998

>  <SCORE.INTER.VDW>
-19.655

>  <SCORE.INTER.norm>
-2.12761

>  <SCORE.INTRA>
-1.24366

>  <SCORE.INTRA.DIHEDRAL>
-2.39861

>  <SCORE.INTRA.DIHEDRAL.0>
4.88905

>  <SCORE.INTRA.POLAR>
0

>  <SCORE.INTRA.POLAR.0>
0

>  <SCORE.INTRA.REPUL>
0

>  <SCORE.INTRA.REPUL.0>
0

>  <SCORE.INTRA.SOLV>
-0.061931

>  <SCORE.INTRA.SOLV.lig_0>
-15.1033

>  <SCORE.INTRA.VDW>
-0.0133877

>  <SCORE.INTRA.VDW.0>
-0.755285

>  <SCORE.INTRA.norm>
-0.0956659

>  <SCORE.RESTR>
0

>  <SCORE.RESTR.CAVITY>
0

>  <SCORE.RESTR.norm>
0

>  <SCORE.SYSTEM>
0

>  <SCORE.SYSTEM.CONST>
0

>  <SCORE.SYSTEM.DIHEDRAL>
0

>  <SCORE.SYSTEM.SOLV>
0

>  <SCORE.SYSTEM.norm>
0

>  <SCORE.heavy>
13

>  <SCORE.norm>
-2.22328

>  <RMSD>
4.133

$$$$
ligand
 OpenBabel11021811513D
libRbt.so/2013.1/901 2013/11/27
 13 14  0  0  0  0  0  0  0  0999 V2000
   32.0344   27.2482  106.5618 N   0  0  0  0  0  0  0  0  0  0  0  0
   30.6902   27.6851  106.6011 C   0  0  0  0  0  0  0  0  0  0  0  0
   29.6739   26.9036  105.9434 N   0  0  0  0  0  0  0  0  0  0  0  0
   30.3308   28.8383  107.2503 N   0  0  0  0  0  0  0  0  0  0  0  0
   31.2793   29.6345  107.9052 C   0  0  0  0  0  0  0  0  0  0  0  0
   32.6597   29.2266  107.8898 C   0  0  0  0  0  0  0  0  0  0  0  0
   33.0189   27.9926  107.1900 C   0  0  0  0  0  0  0  0  0  0  0  0
   34.3274   27.5709  107.1535 O   0  0  0  0  0  0  0  0  0  0  0  0
   33.3897   30.2368  108.6355 C   0  0  0  0  0  0  0  0  0  0  0  0
   32.4509   31.1768  109.0625 C   0  0  0  0  0  0  0  0  0  0  0  0
   31.1976   30.8142  108.6222 N   0  0  0  0  0  0  0  0  0  0  0  0
   34.8647   30.2545  108.9039 C   0  0  0  0  0  0  0  0  0  0  0  0
   35.3625   31.6099  108.7571 N   0  0  0  0  0  0  0  0  0  0  0  0
  1  2  1  0  0  0  0
  1  7  1  0  0  0  0
  2  3  1  0  0  0  0
  2  4  2  0  0  0  0
  4  5  1  0  0  0  0
  5  6  2  0  0  0  0
  5 11  1  0  0  0  0
  6  7  1  0  0  0  0
  6  9  1  0  0  0  0
  7  8  2  0  0  0  0
  9 10  2  0  0  0  0
  9 12  1  0  0  0  0
 10 11  1  0  0  0  0
 12 13  1  0  0  0  0
M  END
>  <CHROM.1>
-179.35602258,139.09968044,-168.61865937,32.42890455,29.13906571,107.70227156
-2.31155307,-0.08965352,0.51727531

>  <Name>
ligand

>  <RI>
2.73617e+07

>  <Rbt.Current_Directory>
/home/itssahil/PROJECTS/Mol_Feturizer/New_Systems/rnas/4RZD

>  <Rbt.Executable>
rbdock ($Id: //depot/dev/client3/rdock/2013.1/src/exe/rbdock.cxx#4 $)

>  <Rbt.Library>
libRbt.so (2013.1, Build901 2013/11/27)

>  <Rbt.Parameter_File>
/export/apps/rDock/src/rDock_2013.1_src/data/scripts/dock_solv.prm

>  <Rbt.Receptor>
prm/pocket_docking_6.prm

>  <SCORE>
-26.4565

>  <SCORE.INTER>
-25.2637

>  <SCORE.INTER.CONST>
1

>  <SCORE.INTER.POLAR>
-2.00066

>  <SCORE.INTER.ROT>
3

>  <SCORE.INTER.SOLV>
10.4722

>  <SCORE.INTER.VDW>
-19.2643

>  <SCORE.INTER.norm>
-1.94336

>  <SCORE.INTRA>
-1.19285

>  <SCORE.INTRA.DIHEDRAL>
-2.22502

>  <SCORE.INTRA.DIHEDRAL.0>
4.88905

>  <SCORE.INTRA.POLAR>
0

>  <SCORE.INTRA.POLAR.0>
0

>  <SCORE.INTRA.REPUL>
0

>  <SCORE.INTRA.REPUL.0>
0

>  <SCORE.INTRA.SOLV>
-0.701038

>  <SCORE.INTRA.SOLV.lig_0>
-15.1033

>  <SCORE.INTRA.VDW>
0.270182

>  <SCORE.INTRA.VDW.0>
-0.755285

>  <SCORE.INTRA.norm>
-0.0917574

>  <SCORE.RESTR>
0

>  <SCORE.RESTR.CAVITY>
0

>  <SCORE.RESTR.norm>
0

>  <SCORE.SYSTEM>
0

>  <SCORE.SYSTEM.CONST>
0

>  <SCORE.SYSTEM.DIHEDRAL>
0

>  <SCORE.SYSTEM.SOLV>
0

>  <SCORE.SYSTEM.norm>
0

>  <SCORE.heavy>
13

>  <SCORE.norm>
-2.03512

>  <RMSD>
4.144

$$$$
ligand
 OpenBabel11021811513D
libRbt.so/2013.1/901 2013/11/27
 13 14  0  0  0  0  0  0  0  0999 V2000
   31.6355   26.9700  106.8904 N   0  0  0  0  0  0  0  0  0  0  0  0
   30.3162   27.4784  106.8714 C   0  0  0  0  0  0  0  0  0  0  0  0
   29.2546   26.6680  106.3305 N   0  0  0  0  0  0  0  0  0  0  0  0
   30.0232   28.7275  107.3552 N   0  0  0  0  0  0  0  0  0  0  0  0
   31.0178   29.5556  107.8915 C   0  0  0  0  0  0  0  0  0  0  0  0
   32.3749   29.0774  107.9300 C   0  0  0  0  0  0  0  0  0  0  0  0
   32.6631   27.7412  107.4073 C   0  0  0  0  0  0  0  0  0  0  0  0
   33.9476   27.2502  107.4269 O   0  0  0  0  0  0  0  0  0  0  0  0
   33.1633   30.1412  108.5269 C   0  0  0  0  0  0  0  0  0  0  0  0
   32.2785   31.1793  108.8214 C   0  0  0  0  0  0  0  0  0  0  0  0
   31.0041   30.8258  108.4382 N   0  0  0  0  0  0  0  0  0  0  0  0
   34.6397   30.1181  108.7872 C   0  0  0  0  0  0  0  0  0  0  0  0
   35.2272   31.3627  108.3266 N   0  0  0  0  0  0  0  0  0  0  0  0
  1  2  1  0  0  0  0
  1  7  1  0  0  0  0
  2  3  1  0  0  0  0
  2  4  2  0  0  0  0
  4  5  1  0  0  0  0
  5  6  2  0  0  0  0
  5 11  1  0  0  0  0
  6  7  1  0  0  0  0
  6  9  1  0  0  0  0
  7  8  2  0  0  0  0
  9 10  2  0  0  0  0
  9 12  1  0  0  0  0
 10 11  1  0  0  0  0
 12 13  1  0  0  0  0
M  END
>  <CHROM.1>
173.48450728,133.35445740,-171.74692410,32.13998462,28.97299536,107.74527661
-2.36887788,-0.09901583,0.37148158

>  <Name>
ligand

>  <RI>
1.35221e+07

>  <Rbt.Current_Directory>
/home/itssahil/PROJECTS/Mol_Feturizer/New_Systems/rnas/4RZD

>  <Rbt.Executable>
rbdock ($Id: //depot/dev/client3/rdock/2013.1/src/exe/rbdock.cxx#4 $)

>  <Rbt.Library>
libRbt.so (2013.1, Build901 2013/11/27)

>  <Rbt.Parameter_File>
/export/apps/rDock/src/rDock_2013.1_src/data/scripts/dock_solv.prm

>  <Rbt.Receptor>
prm/pocket_docking_5.prm

>  <SCORE>
-27.9215

>  <SCORE.INTER>
-26.6702

>  <SCORE.INTER.CONST>
1

>  <SCORE.INTER.POLAR>
-2.18069

>  <SCORE.INTER.ROT>
3

>  <SCORE.INTER.SOLV>
9.81758

>  <SCORE.INTER.VDW>
-19.3837

>  <SCORE.INTER.norm>
-2.05155

>  <SCORE.INTRA>
-1.25132

>  <SCORE.INTRA.DIHEDRAL>
-2.31604

>  <SCORE.INTRA.DIHEDRAL.0>
4.88905

>  <SCORE.INTRA.POLAR>
0

>  <SCORE.INTRA.POLAR.0>
0

>  <SCORE.INTRA.REPUL>
0

>  <SCORE.INTRA.REPUL.0>
0

>  <SCORE.INTRA.SOLV>
-0.701582

>  <SCORE.INTRA.SOLV.lig_0>
-15.1033

>  <SCORE.INTRA.VDW>
0.257494

>  <SCORE.INTRA.VDW.0>
-0.755285

>  <SCORE.INTRA.norm>
-0.0962552

>  <SCORE.RESTR>
0

>  <SCORE.RESTR.CAVITY>
0

>  <SCORE.RESTR.norm>
0

>  <SCORE.SYSTEM>
0

>  <SCORE.SYSTEM.CONST>
0

>  <SCORE.SYSTEM.DIHEDRAL>
0

>  <SCORE.SYSTEM.SOLV>
0

>  <SCORE.SYSTEM.norm>
0

>  <SCORE.heavy>
13

>  <SCORE.norm>
-2.14781

>  <RMSD>
4.147

$$$$
ligand
 OpenBabel11021811513D
libRbt.so/2013.1/901 2013/11/27
 13 14  0  0  0  0  0  0  0  0999 V2000
   31.6383   26.9775  106.8787 N   0  0  0  0  0  0  0  0  0  0  0  0
   30.3208   27.4896  106.8453 C   0  0  0  0  0  0  0  0  0  0  0  0
   29.2617   26.6796  106.2990 N   0  0  0  0  0  0  0  0  0  0  0  0
   30.0271   28.7421  107.3200 N   0  0  0  0  0  0  0  0  0  0  0  0
   31.0193   29.5700  107.8610 C   0  0  0  0  0  0  0  0  0  0  0  0
   32.3746   29.0880  107.9141 C   0  0  0  0  0  0  0  0  0  0  0  0
   32.6635   27.7483  107.4009 C   0  0  0  0  0  0  0  0  0  0  0  0
   33.9463   27.2536  107.4346 O   0  0  0  0  0  0  0  0  0  0  0  0
   33.1608   30.1525  108.5127 C   0  0  0  0  0  0  0  0  0  0  0  0
   32.2765   31.1947  108.7939 C   0  0  0  0  0  0  0  0  0  0  0  0
   31.0045   30.8430  108.4011 N   0  0  0  0  0  0  0  0  0  0  0  0
   34.6347   30.1265  108.7864 C   0  0  0  0  0  0  0  0  0  0  0  0
   35.2297   31.3677  108.3265 N   0  0  0  0  0  0  0  0  0  0  0  0
  1  2  1  0  0  0  0
  1  7  1  0  0  0  0
  2  3  1  0  0  0  0
  2  4  2  0  0  0  0
  4  5  1  0  0  0  0
  5  6  2  0  0  0  0
  5 11  1  0  0  0  0
  6  7  1  0  0  0  0
  6  9  1  0  0  0  0
  7  8  2  0  0  0  0
  9 10  2  0  0  0  0
  9 12  1  0  0  0  0
 10 11  1  0  0  0  0
 12 13  1  0  0  0  0
M  END
>  <CHROM.1>
-9.45957049,133.43236844,-171.38455981,32.14099400,28.98342468,107.72801399
-2.36840454,-0.10841850,0.36660294

>  <Name>
ligand

>  <RI>
1.35221e+07

>  <Rbt.Current_Directory>
/home/itssahil/PROJECTS/Mol_Feturizer/New_Systems/rnas/4RZD

>  <Rbt.Executable>
rbdock ($Id: //depot/dev/client3/rdock/2013.1/src/exe/rbdock.cxx#4 $)

>  <Rbt.Library>
libRbt.so (2013.1, Build901 2013/11/27)

>  <Rbt.Parameter_File>
/export/apps/rDock/src/rDock_2013.1_src/data/scripts/dock_solv.prm

>  <Rbt.Receptor>
prm/pocket_docking_5.prm

>  <SCORE>
-27.9547

>  <SCORE.INTER>
-26.7072

>  <SCORE.INTER.CONST>
1

>  <SCORE.INTER.POLAR>
-2.1726

>  <SCORE.INTER.ROT>
3

>  <SCORE.INTER.SOLV>
9.86889

>  <SCORE.INTER.VDW>
-19.4525

>  <SCORE.INTER.norm>
-2.0544

>  <SCORE.INTRA>
-1.24748

>  <SCORE.INTRA.DIHEDRAL>
-2.30633

>  <SCORE.INTRA.DIHEDRAL.0>
4.88905

>  <SCORE.INTRA.POLAR>
0

>  <SCORE.INTRA.POLAR.0>
0

>  <SCORE.INTRA.REPUL>
0

>  <SCORE.INTRA.REPUL.0>
0

>  <SCORE.INTRA.SOLV>
-0.701901

>  <SCORE.INTRA.SOLV.lig_0>
-15.1033

>  <SCORE.INTRA.VDW>
0.256639

>  <SCORE.INTRA.VDW.0>
-0.755285

>  <SCORE.INTRA.norm>
-0.0959599

>  <SCORE.RESTR>
0

>  <SCORE.RESTR.CAVITY>
0

>  <SCORE.RESTR.norm>
0

>  <SCORE.SYSTEM>
0

>  <SCORE.SYSTEM.CONST>
0

>  <SCORE.SYSTEM.DIHEDRAL>
0

>  <SCORE.SYSTEM.SOLV>
0

>  <SCORE.SYSTEM.norm>
0

>  <SCORE.heavy>
13

>  <SCORE.norm>
-2.15036

>  <RMSD>
4.148

$$$$
ligand
 OpenBabel11021811513D
libRbt.so/2013.1/901 2013/11/27
 13 14  0  0  0  0  0  0  0  0999 V2000
   31.0607   27.1218  106.8181 N   0  0  0  0  0  0  0  0  0  0  0  0
   29.6577   27.2930  106.7816 C   0  0  0  0  0  0  0  0  0  0  0  0
   28.8390   26.2850  106.1571 N   0  0  0  0  0  0  0  0  0  0  0  0
   29.0569   28.3988  107.3262 N   0  0  0  0  0  0  0  0  0  0  0  0
   29.8063   29.4079  107.9447 C   0  0  0  0  0  0  0  0  0  0  0  0
   31.2383   29.2738  108.0037 C   0  0  0  0  0  0  0  0  0  0  0  0
   31.8566   28.0852  107.4151 C   0  0  0  0  0  0  0  0  0  0  0  0
   33.2216   27.9222  107.4520 O   0  0  0  0  0  0  0  0  0  0  0  0
   31.7287   30.4568  108.6891 C   0  0  0  0  0  0  0  0  0  0  0  0
   30.6102   31.2262  109.0115 C   0  0  0  0  0  0  0  0  0  0  0  0
   29.4698   30.5981  108.5633 N   0  0  0  0  0  0  0  0  0  0  0  0
   33.1599   30.7778  109.0001 C   0  0  0  0  0  0  0  0  0  0  0  0
   33.8980   30.9282  107.7596 N   0  0  0  0  0  0  0  0  0  0  0  0
  1  2  1  0  0  0  0
  1  7  1  0  0  0  0
  2  3  1  0  0  0  0
  2  4  2  0  0  0  0
  4  5  1  0  0  0  0
  5  6  2  0  0  0  0
  5 11  1  0  0  0  0
  6  7  1  0  0  0  0
  6  9  1  0  0  0  0
  7  8  2  0  0  0  0
  9 10  2  0  0  0  0
  9 12  1  0  0  0  0
 10 11  1  0  0  0  0
 12 13  1  0  0  0  0
M  END
>  <CHROM.1>
-8.38391498,63.08272198,16.91831549,31.07882613,29.00949228,107.71813676
-2.24825653,0.02279146,0.47869380

>  <Name>
ligand

>  <RI>
1.35221e+07

>  <Rbt.Current_Directory>
/home/itssahil/PROJECTS/Mol_Feturizer/New_Systems/rnas/4RZD

>  <Rbt.Executable>
rbdock ($Id: //depot/dev/client3/rdock/2013.1/src/exe/rbdock.cxx#4 $)

>  <Rbt.Library>
libRbt.so (2013.1, Build901 2013/11/27)

>  <Rbt.Parameter_File>
/export/apps/rDock/src/rDock_2013.1_src/data/scripts/dock_solv.prm

>  <Rbt.Receptor>
prm/pocket_docking_5.prm

>  <SCORE>
-31.4785

>  <SCORE.INTER>
-31.545

>  <SCORE.INTER.CONST>
1

>  <SCORE.INTER.POLAR>
-3.2737

>  <SCORE.INTER.ROT>
3

>  <SCORE.INTER.SOLV>
10.6675

>  <SCORE.INTER.VDW>
-19.2735

>  <SCORE.INTER.norm>
-2.42654

>  <SCORE.INTRA>
0.0665523

>  <SCORE.INTRA.DIHEDRAL>
-0.448465

>  <SCORE.INTRA.DIHEDRAL.0>
4.88905

>  <SCORE.INTRA.POLAR>
0

>  <SCORE.INTRA.POLAR.0>
0

>  <SCORE.INTRA.REPUL>
0

>  <SCORE.INTRA.REPUL.0>
0

>  <SCORE.INTRA.SOLV>
0.00727885

>  <SCORE.INTRA.SOLV.lig_0>
-15.1033

>  <SCORE.INTRA.VDW>
0.287145

>  <SCORE.INTRA.VDW.0>
-0.755285

>  <SCORE.INTRA.norm>
0.00511941

>  <SCORE.RESTR>
0

>  <SCORE.RESTR.CAVITY>
0

>  <SCORE.RESTR.norm>
0

>  <SCORE.SYSTEM>
0

>  <SCORE.SYSTEM.CONST>
0

>  <SCORE.SYSTEM.DIHEDRAL>
0

>  <SCORE.SYSTEM.SOLV>
0

>  <SCORE.SYSTEM.norm>
0

>  <SCORE.heavy>
13

>  <SCORE.norm>
-2.42142

>  <RMSD>
4.165

$$$$
ligand
 OpenBabel11021811513D
libRbt.so/2013.1/901 2013/11/27
 13 14  0  0  0  0  0  0  0  0999 V2000
   31.6106   27.1839  106.5952 N   0  0  0  0  0  0  0  0  0  0  0  0
   30.2519   27.5203  106.7951 C   0  0  0  0  0  0  0  0  0  0  0  0
   29.2256   26.6430  106.2918 N   0  0  0  0  0  0  0  0  0  0  0  0
   29.8874   28.6649  107.4564 N   0  0  0  0  0  0  0  0  0  0  0  0
   30.8452   29.5517  107.9652 C   0  0  0  0  0  0  0  0  0  0  0  0
   32.2404   29.2477  107.7837 C   0  0  0  0  0  0  0  0  0  0  0  0
   32.6047   28.0207  107.0741 C   0  0  0  0  0  0  0  0  0  0  0  0
   33.9273   27.6970  106.8812 O   0  0  0  0  0  0  0  0  0  0  0  0
   32.9767   30.3346  108.4052 C   0  0  0  0  0  0  0  0  0  0  0  0
   32.0281   31.2158  108.9254 C   0  0  0  0  0  0  0  0  0  0  0  0
   30.7618   30.7458  108.6578 N   0  0  0  0  0  0  0  0  0  0  0  0
   34.4677   30.4715  108.4825 C   0  0  0  0  0  0  0  0  0  0  0  0
   34.8016   31.6240  109.2990 N   0  0  0  0  0  0  0  0  0  0  0  0
  1  2  1  0  0  0  0
  1  7  1  0  0  0  0
  2  3  1  0  0  0  0
  2  4  2  0  0  0  0
  4  5  1  0  0  0  0
  5  6  2  0  0  0  0
  5 11  1  0  0  0  0
  6  7  1  0  0  0  0
  6  9  1  0  0  0  0
  7  8  2  0  0  0  0
  9 10  2  0  0  0  0
  9 12  1  0  0  0  0
 10 11  1  0  0  0  0
 12 13  1  0  0  0  0
M  END
>  <CHROM.1>
-176.29840940,-174.28543982,49.50157789,31.98490532,29.11700606,107.72309705
-2.27264772,-0.00299619,0.53013331

>  <Name>
ligand

>  <RI>
1.0531e+07

>  <Rbt.Current_Directory>
/home/itssahil/PROJECTS/Mol_Feturizer/New_Systems/rnas/4RZD

>  <Rbt.Executable>
rbdock ($Id: //depot/dev/client3/rdock/2013.1/src/exe/rbdock.cxx#4 $)

>  <Rbt.Library>
libRbt.so (2013.1, Build901 2013/11/27)

>  <Rbt.Parameter_File>
/export/apps/rDock/src/rDock_2013.1_src/data/scripts/dock_solv.prm

>  <Rbt.Receptor>
prm/pocket_docking_8.prm

>  <SCORE>
-25.4523

>  <SCORE.INTER>
-24.5379

>  <SCORE.INTER.CONST>
1

>  <SCORE.INTER.POLAR>
-1.12069

>  <SCORE.INTER.ROT>
3

>  <SCORE.INTER.SOLV>
10.8426

>  <SCORE.INTER.VDW>
-21.8371

>  <SCORE.INTER.norm>
-1.88753

>  <SCORE.INTRA>
-0.914486

>  <SCORE.INTRA.DIHEDRAL>
-2.22588

>  <SCORE.INTRA.DIHEDRAL.0>
4.88905

>  <SCORE.INTRA.POLAR>
0

>  <SCORE.INTRA.POLAR.0>
0

>  <SCORE.INTRA.REPUL>
0

>  <SCORE.INTRA.REPUL.0>
0

>  <SCORE.INTRA.SOLV>
-0.680412

>  <SCORE.INTRA.SOLV.lig_0>
-15.1033

>  <SCORE.INTRA.VDW>
0.53866

>  <SCORE.INTRA.VDW.0>
-0.755285

>  <SCORE.INTRA.norm>
-0.0703451

>  <SCORE.RESTR>
0

>  <SCORE.RESTR.CAVITY>
0

>  <SCORE.RESTR.norm>
0

>  <SCORE.SYSTEM>
0

>  <SCORE.SYSTEM.CONST>
0

>  <SCORE.SYSTEM.DIHEDRAL>
0

>  <SCORE.SYSTEM.SOLV>
0

>  <SCORE.SYSTEM.norm>
0

>  <SCORE.heavy>
13

>  <SCORE.norm>
-1.95787

>  <RMSD>
4.188

$$$$
ligand
 OpenBabel11021811513D
libRbt.so/2013.1/901 2013/11/27
 13 14  0  0  0  0  0  0  0  0999 V2000
   31.5749   27.0764  106.6875 N   0  0  0  0  0  0  0  0  0  0  0  0
   30.2526   27.4288  107.0432 C   0  0  0  0  0  0  0  0  0  0  0  0
   29.1627   26.5734  106.6472 N   0  0  0  0  0  0  0  0  0  0  0  0
   29.9825   28.5685  107.7562 N   0  0  0  0  0  0  0  0  0  0  0  0
   31.0050   29.4343  108.1656 C   0  0  0  0  0  0  0  0  0  0  0  0
   32.3661   29.1135  107.8244 C   0  0  0  0  0  0  0  0  0  0  0  0
   32.6294   27.8922  107.0624 C   0  0  0  0  0  0  0  0  0  0  0  0
   33.9167   27.5528  106.7177 O   0  0  0  0  0  0  0  0  0  0  0  0
   33.1843   30.1808  108.3732 C   0  0  0  0  0  0  0  0  0  0  0  0
   32.3138   31.0674  109.0082 C   0  0  0  0  0  0  0  0  0  0  0  0
   31.0184   30.6191  108.8786 N   0  0  0  0  0  0  0  0  0  0  0  0
   34.6765   30.2958  108.2841 C   0  0  0  0  0  0  0  0  0  0  0  0
   35.1762   30.9764  109.4645 N   0  0  0  0  0  0  0  0  0  0  0  0
  1  2  1  0  0  0  0
  1  7  1  0  0  0  0
  2  3  1  0  0  0  0
  2  4  2  0  0  0  0
  4  5  1  0  0  0  0
  5  6  2  0  0  0  0
  5 11  1  0  0  0  0
  6  7  1  0  0  0  0
  6  9  1  0  0  0  0
  7  8  2  0  0  0  0
  9 10  2  0  0  0  0
  9 12  1  0  0  0  0
 10 11  1  0  0  0  0
 12 13  1  0  0  0  0
M  END
>  <CHROM.1>
-143.81803772,-148.84854931,-69.28554073,32.11595908,28.94694146,107.82402825
-2.36694322,0.04895373,0.56641196

>  <Name>
ligand

>  <RI>
1.38753e+07

>  <Rbt.Current_Directory>
/home/itssahil/PROJECTS/Mol_Feturizer/New_Systems/rnas/4RZD

>  <Rbt.Executable>
rbdock ($Id: //depot/dev/client3/rdock/2013.1/src/exe/rbdock.cxx#4 $)

>  <Rbt.Library>
libRbt.so (2013.1, Build901 2013/11/27)

>  <Rbt.Parameter_File>
/export/apps/rDock/src/rDock_2013.1_src/data/scripts/dock_solv.prm

>  <Rbt.Receptor>
prm/pocket_docking_7.prm

>  <SCORE>
-28.2125

>  <SCORE.INTER>
-27.0755

>  <SCORE.INTER.CONST>
1

>  <SCORE.INTER.POLAR>
-2.17794

>  <SCORE.INTER.ROT>
3

>  <SCORE.INTER.SOLV>
10.5139

>  <SCORE.INTER.VDW>
-19.8952

>  <SCORE.INTER.norm>
-2.08273

>  <SCORE.INTRA>
-1.13704

>  <SCORE.INTRA.DIHEDRAL>
-2.2418

>  <SCORE.INTRA.DIHEDRAL.0>
4.88905

>  <SCORE.INTRA.POLAR>
0

>  <SCORE.INTRA.POLAR.0>
0

>  <SCORE.INTRA.REPUL>
0

>  <SCORE.INTRA.REPUL.0>
0

>  <SCORE.INTRA.SOLV>
-0.702214

>  <SCORE.INTRA.SOLV.lig_0>
-15.1033

>  <SCORE.INTRA.VDW>
0.334967

>  <SCORE.INTRA.VDW.0>
-0.755285

>  <SCORE.INTRA.norm>
-0.0874647

>  <SCORE.RESTR>
0

>  <SCORE.RESTR.CAVITY>
0

>  <SCORE.RESTR.norm>
0

>  <SCORE.SYSTEM>
0

>  <SCORE.SYSTEM.CONST>
0

>  <SCORE.SYSTEM.DIHEDRAL>
0

>  <SCORE.SYSTEM.SOLV>
0

>  <SCORE.SYSTEM.norm>
0

>  <SCORE.heavy>
13

>  <SCORE.norm>
-2.17019

>  <RMSD>
4.193

$$$$
ligand
 OpenBabel11021811513D
libRbt.so/2013.1/901 2013/11/27
 13 14  0  0  0  0  0  0  0  0999 V2000
   31.5792   27.0459  106.6914 N   0  0  0  0  0  0  0  0  0  0  0  0
   30.2553   27.4067  107.0325 C   0  0  0  0  0  0  0  0  0  0  0  0
   29.1655   26.5521  106.6345 N   0  0  0  0  0  0  0  0  0  0  0  0
   29.9835   28.5537  107.7330 N   0  0  0  0  0  0  0  0  0  0  0  0
   31.0059   29.4190  108.1436 C   0  0  0  0  0  0  0  0  0  0  0  0
   32.3686   29.0899  107.8172 C   0  0  0  0  0  0  0  0  0  0  0  0
   32.6336   27.8608  107.0684 C   0  0  0  0  0  0  0  0  0  0  0  0
   33.9226   27.5134  106.7380 O   0  0  0  0  0  0  0  0  0  0  0  0
   33.1863   30.1588  108.3637 C   0  0  0  0  0  0  0  0  0  0  0  0
   32.3139   31.0545  108.9832 C   0  0  0  0  0  0  0  0  0  0  0  0
   31.0178   30.6101  108.8462 N   0  0  0  0  0  0  0  0  0  0  0  0
   34.6797   30.2671  108.2867 C   0  0  0  0  0  0  0  0  0  0  0  0
   35.1695   30.9790  109.4527 N   0  0  0  0  0  0  0  0  0  0  0  0
  1  2  1  0  0  0  0
  1  7  1  0  0  0  0
  2  3  1  0  0  0  0
  2  4  2  0  0  0  0
  4  5  1  0  0  0  0
  5  6  2  0  0  0  0
  5 11  1  0  0  0  0
  6  7  1  0  0  0  0
  6  9  1  0  0  0  0
  7  8  2  0  0  0  0
  9 10  2  0  0  0  0
  9 12  1  0  0  0  0
 10 11  1  0  0  0  0
 12 13  1  0  0  0  0
M  END
>  <CHROM.1>
-144.61574387,-149.93902268,-69.06732579,32.11759804,28.92638937,107.81490365
-2.36460145,0.04100327,0.55672779

>  <Name>
ligand

>  <RI>
1.0531e+07

>  <Rbt.Current_Directory>
/home/itssahil/PROJECTS/Mol_Feturizer/New_Systems/rnas/4RZD

>  <Rbt.Executable>
rbdock ($Id: //depot/dev/client3/rdock/2013.1/src/exe/rbdock.cxx#4 $)

>  <Rbt.Library>
libRbt.so (2013.1, Build901 2013/11/27)

>  <Rbt.Parameter_File>
/export/apps/rDock/src/rDock_2013.1_src/data/scripts/dock_solv.prm

>  <Rbt.Receptor>
prm/pocket_docking_8.prm

>  <SCORE>
-28.1679

>  <SCORE.INTER>
-27.0336

>  <SCORE.INTER.CONST>
1

>  <SCORE.INTER.POLAR>
-2.16616

>  <SCORE.INTER.ROT>
3

>  <SCORE.INTER.SOLV>
10.4305

>  <SCORE.INTER.VDW>
-19.8787

>  <SCORE.INTER.norm>
-2.07951

>  <SCORE.INTRA>
-1.13432

>  <SCORE.INTRA.DIHEDRAL>
-2.24808

>  <SCORE.INTRA.DIHEDRAL.0>
4.88905

>  <SCORE.INTRA.POLAR>
0

>  <SCORE.INTRA.POLAR.0>
0

>  <SCORE.INTRA.REPUL>
0

>  <SCORE.INTRA.REPUL.0>
0

>  <SCORE.INTRA.SOLV>
-0.701895

>  <SCORE.INTRA.SOLV.lig_0>
-15.1033

>  <SCORE.INTRA.VDW>
0.340667

>  <SCORE.INTRA.VDW.0>
-0.755285

>  <SCORE.INTRA.norm>
-0.0872553

>  <SCORE.RESTR>
0

>  <SCORE.RESTR.CAVITY>
0

>  <SCORE.RESTR.norm>
0

>  <SCORE.SYSTEM>
0

>  <SCORE.SYSTEM.CONST>
0

>  <SCORE.SYSTEM.DIHEDRAL>
0

>  <SCORE.SYSTEM.SOLV>
0

>  <SCORE.SYSTEM.norm>
0

>  <SCORE.heavy>
13

>  <SCORE.norm>
-2.16676

>  <RMSD>
4.196

$$$$
ligand
 OpenBabel11021811513D
libRbt.so/2013.1/901 2013/11/27
 13 14  0  0  0  0  0  0  0  0999 V2000
   31.4415   27.1758  106.6902 N   0  0  0  0  0  0  0  0  0  0  0  0
   30.0648   27.4158  106.9053 C   0  0  0  0  0  0  0  0  0  0  0  0
   29.0969   26.4710  106.4083 N   0  0  0  0  0  0  0  0  0  0  0  0
   29.6282   28.5295  107.5755 N   0  0  0  0  0  0  0  0  0  0  0  0
   30.5270   29.4790  108.0788 C   0  0  0  0  0  0  0  0  0  0  0  0
   31.9381   29.2739  107.8818 C   0  0  0  0  0  0  0  0  0  0  0  0
   32.3797   28.0781  107.1629 C   0  0  0  0  0  0  0  0  0  0  0  0
   33.7196   27.8482  106.9552 O   0  0  0  0  0  0  0  0  0  0  0  0
   32.6032   30.4070  108.5008 C   0  0  0  0  0  0  0  0  0  0  0  0
   31.6008   31.2179  109.0346 C   0  0  0  0  0  0  0  0  0  0  0  0
   30.3678   30.6617  108.7776 N   0  0  0  0  0  0  0  0  0  0  0  0
   34.0818   30.6474  108.5638 C   0  0  0  0  0  0  0  0  0  0  0  0
   34.3449   31.7976  109.4088 N   0  0  0  0  0  0  0  0  0  0  0  0
  1  2  1  0  0  0  0
  1  7  1  0  0  0  0
  2  3  1  0  0  0  0
  2  4  2  0  0  0  0
  4  5  1  0  0  0  0
  5  6  2  0  0  0  0
  5 11  1  0  0  0  0
  6  7  1  0  0  0  0
  6  9  1  0  0  0  0
  7  8  2  0  0  0  0
  9 10  2  0  0  0  0
  9 12  1  0  0  0  0
 10 11  1  0  0  0  0
 12 13  1  0  0  0  0
M  END
>  <CHROM.1>
-162.01874640,-172.89770417,-111.71927389,31.70134010,29.12292033,107.82429176
-2.22896304,0.03759971,0.53369220

>  <Name>
ligand

>  <RI>
2.73617e+07

>  <Rbt.Current_Directory>
/home/itssahil/PROJECTS/Mol_Feturizer/New_Systems/rnas/4RZD

>  <Rbt.Executable>
rbdock ($Id: //depot/dev/client3/rdock/2013.1/src/exe/rbdock.cxx#4 $)

>  <Rbt.Library>
libRbt.so (2013.1, Build901 2013/11/27)

>  <Rbt.Parameter_File>
/export/apps/rDock/src/rDock_2013.1_src/data/scripts/dock_solv.prm

>  <Rbt.Receptor>
prm/pocket_docking_6.prm

>  <SCORE>
-29.3887

>  <SCORE.INTER>
-29.3653

>  <SCORE.INTER.CONST>
1

>  <SCORE.INTER.POLAR>
-1.94868

>  <SCORE.INTER.ROT>
3

>  <SCORE.INTER.SOLV>
10.8714

>  <SCORE.INTER.VDW>
-22.305

>  <SCORE.INTER.norm>
-2.25887

>  <SCORE.INTRA>
-0.0234476

>  <SCORE.INTRA.DIHEDRAL>
-0.111272

>  <SCORE.INTRA.DIHEDRAL.0>
4.88905

>  <SCORE.INTRA.POLAR>
0

>  <SCORE.INTRA.POLAR.0>
0

>  <SCORE.INTRA.REPUL>
0

>  <SCORE.INTRA.REPUL.0>
0

>  <SCORE.INTRA.SOLV>
-0.705617

>  <SCORE.INTRA.SOLV.lig_0>
-15.1033

>  <SCORE.INTRA.VDW>
0.384997

>  <SCORE.INTRA.VDW.0>
-0.755285

>  <SCORE.INTRA.norm>
-0.00180366

>  <SCORE.RESTR>
0

>  <SCORE.RESTR.CAVITY>
0

>  <SCORE.RESTR.norm>
0

>  <SCORE.SYSTEM>
0

>  <SCORE.SYSTEM.CONST>
0

>  <SCORE.SYSTEM.DIHEDRAL>
0

>  <SCORE.SYSTEM.SOLV>
0

>  <SCORE.SYSTEM.norm>
0

>  <SCORE.heavy>
13

>  <SCORE.norm>
-2.26067

>  <RMSD>
4.204

$$$$
ligand
 OpenBabel11021811513D
libRbt.so/2013.1/901 2013/11/27
 13 14  0  0  0  0  0  0  0  0999 V2000
   30.9792   29.3310  108.0482 N   0  0  0  0  0  0  0  0  0  0  0  0
   29.8086   29.1051  107.2880 C   0  0  0  0  0  0  0  0  0  0  0  0
   28.7443   30.0758  107.3245 N   0  0  0  0  0  0  0  0  0  0  0  0
   29.6616   27.9809  106.5166 N   0  0  0  0  0  0  0  0  0  0  0  0
   30.6655   27.0064  106.4460 C   0  0  0  0  0  0  0  0  0  0  0  0
   31.8740   27.1965  107.2045 C   0  0  0  0  0  0  0  0  0  0  0  0
   32.0075   28.4038  108.0207 C   0  0  0  0  0  0  0  0  0  0  0  0
   33.1474   28.6200  108.7592 O   0  0  0  0  0  0  0  0  0  0  0  0
   32.7086   26.0388  106.9350 C   0  0  0  0  0  0  0  0  0  0  0  0
   31.9971   25.2288  106.0491 C   0  0  0  0  0  0  0  0  0  0  0  0
   30.7812   25.8087  105.7643 N   0  0  0  0  0  0  0  0  0  0  0  0
   34.0755   25.7760  107.4924 C   0  0  0  0  0  0  0  0  0  0  0  0
   35.0737   26.3219  106.5914 N   0  0  0  0  0  0  0  0  0  0  0  0
  1  2  1  0  0  0  0
  1  7  1  0  0  0  0
  2  3  1  0  0  0  0
  2  4  2  0  0  0  0
  4  5  1  0  0  0  0
  5  6  2  0  0  0  0
  5 11  1  0  0  0  0
  6  7  1  0  0  0  0
  6  9  1  0  0  0  0
  7  8  2  0  0  0  0
  9 10  2  0  0  0  0
  9 12  1  0  0  0  0
 10 11  1  0  0  0  0
 12 13  1  0  0  0  0
M  END
>  <CHROM.1>
144.90285958,-91.06677102,-40.48401135,31.67562441,27.50650349,107.12753154
-2.53883083,0.31485106,-2.57462650

>  <Name>
ligand

>  <RI>
2.73617e+07

>  <Rbt.Current_Directory>
/home/itssahil/PROJECTS/Mol_Feturizer/New_Systems/rnas/4RZD

>  <Rbt.Executable>
rbdock ($Id: //depot/dev/client3/rdock/2013.1/src/exe/rbdock.cxx#4 $)

>  <Rbt.Library>
libRbt.so (2013.1, Build901 2013/11/27)

>  <Rbt.Parameter_File>
/export/apps/rDock/src/rDock_2013.1_src/data/scripts/dock_solv.prm

>  <Rbt.Receptor>
prm/pocket_docking_6.prm

>  <SCORE>
-25.4427

>  <SCORE.INTER>
-24.5187

>  <SCORE.INTER.CONST>
1

>  <SCORE.INTER.POLAR>
-3.5058

>  <SCORE.INTER.ROT>
3

>  <SCORE.INTER.SOLV>
10.0441

>  <SCORE.INTER.VDW>
-13.6078

>  <SCORE.INTER.norm>
-1.88605

>  <SCORE.INTRA>
-0.924049

>  <SCORE.INTRA.DIHEDRAL>
-1.86188

>  <SCORE.INTRA.DIHEDRAL.0>
4.88905

>  <SCORE.INTRA.POLAR>
0

>  <SCORE.INTRA.POLAR.0>
0

>  <SCORE.INTRA.REPUL>
0

>  <SCORE.INTRA.REPUL.0>
0

>  <SCORE.INTRA.SOLV>
-0.508308

>  <SCORE.INTRA.SOLV.lig_0>
-15.1033

>  <SCORE.INTRA.VDW>
0.261047

>  <SCORE.INTRA.VDW.0>
-0.755285

>  <SCORE.INTRA.norm>
-0.0710807

>  <SCORE.RESTR>
0

>  <SCORE.RESTR.CAVITY>
0

>  <SCORE.RESTR.norm>
0

>  <SCORE.SYSTEM>
0

>  <SCORE.SYSTEM.CONST>
0

>  <SCORE.SYSTEM.DIHEDRAL>
0

>  <SCORE.SYSTEM.SOLV>
0

>  <SCORE.SYSTEM.norm>
0

>  <SCORE.heavy>
13

>  <SCORE.norm>
-1.95713

>  <RMSD>
4.438

$$$$
ligand
 OpenBabel11021811513D
libRbt.so/2013.1/901 2013/11/27
 13 14  0  0  0  0  0  0  0  0999 V2000
   30.4627   30.7478  108.2914 N   0  0  0  0  0  0  0  0  0  0  0  0
   29.9364   29.7161  107.4803 C   0  0  0  0  0  0  0  0  0  0  0  0
   28.5424   29.7448  107.1169 N   0  0  0  0  0  0  0  0  0  0  0  0
   30.7228   28.6861  107.0320 N   0  0  0  0  0  0  0  0  0  0  0  0
   32.0836   28.6106  107.3563 C   0  0  0  0  0  0  0  0  0  0  0  0
   32.6604   29.6404  108.1803 C   0  0  0  0  0  0  0  0  0  0  0  0
   31.8010   30.7290  108.6471 C   0  0  0  0  0  0  0  0  0  0  0  0
   32.3162   31.7305  109.4363 O   0  0  0  0  0  0  0  0  0  0  0  0
   34.0610   29.2924  108.3435 C   0  0  0  0  0  0  0  0  0  0  0  0
   34.2669   28.1115  107.6292 C   0  0  0  0  0  0  0  0  0  0  0  0
   33.0859   27.7095  107.0466 N   0  0  0  0  0  0  0  0  0  0  0  0
   35.0867   30.0637  109.1188 C   0  0  0  0  0  0  0  0  0  0  0  0
   35.3874   31.2991  108.4192 N   0  0  0  0  0  0  0  0  0  0  0  0
  1  2  1  0  0  0  0
  1  7  1  0  0  0  0
  2  3  1  0  0  0  0
  2  4  2  0  0  0  0
  4  5  1  0  0  0  0
  5  6  2  0  0  0  0
  5 11  1  0  0  0  0
  6  7  1  0  0  0  0
  6  9  1  0  0  0  0
  7  8  2  0  0  0  0
  9 10  2  0  0  0  0
  9 12  1  0  0  0  0
 10 11  1  0  0  0  0
 12 13  1  0  0  0  0
M  END
>  <CHROM.1>
174.73362070,-70.38865920,-1.00905313,32.30966189,29.75821175,108.01091522
2.98330575,0.14948916,-2.64999172

>  <Name>
ligand

>  <RI>
4.18181e+07

>  <Rbt.Current_Directory>
/home/itssahil/PROJECTS/Mol_Feturizer/New_Systems/rnas/4RZD

>  <Rbt.Executable>
rbdock ($Id: //depot/dev/client3/rdock/2013.1/src/exe/rbdock.cxx#4 $)

>  <Rbt.Library>
libRbt.so (2013.1, Build901 2013/11/27)

>  <Rbt.Parameter_File>
/export/apps/rDock/src/rDock_2013.1_src/data/scripts/dock_solv.prm

>  <Rbt.Receptor>
prm/pocket_docking_3.prm

>  <SCORE>
-20.0152

>  <SCORE.INTER>
-20.3349

>  <SCORE.INTER.CONST>
1

>  <SCORE.INTER.POLAR>
-3.84221

>  <SCORE.INTER.ROT>
3

>  <SCORE.INTER.SOLV>
14.1283

>  <SCORE.INTER.VDW>
-11.0586

>  <SCORE.INTER.norm>
-1.56422

>  <SCORE.INTRA>
0.319684

>  <SCORE.INTRA.DIHEDRAL>
-0.0264869

>  <SCORE.INTRA.DIHEDRAL.0>
4.88905

>  <SCORE.INTRA.POLAR>
0

>  <SCORE.INTRA.POLAR.0>
0

>  <SCORE.INTRA.REPUL>
0

>  <SCORE.INTRA.REPUL.0>
0

>  <SCORE.INTRA.SOLV>
-0.222287

>  <SCORE.INTRA.SOLV.lig_0>
-15.1033

>  <SCORE.INTRA.VDW>
0.444071

>  <SCORE.INTRA.VDW.0>
-0.755285

>  <SCORE.INTRA.norm>
0.024591

>  <SCORE.RESTR>
0

>  <SCORE.RESTR.CAVITY>
0

>  <SCORE.RESTR.norm>
0

>  <SCORE.SYSTEM>
0

>  <SCORE.SYSTEM.CONST>
0

>  <SCORE.SYSTEM.DIHEDRAL>
0

>  <SCORE.SYSTEM.SOLV>
0

>  <SCORE.SYSTEM.norm>
0

>  <SCORE.heavy>
13

>  <SCORE.norm>
-1.53963

>  <RMSD>
4.629

$$$$
ligand
 OpenBabel11021811513D
libRbt.so/2013.1/901 2013/11/27
 13 14  0  0  0  0  0  0  0  0999 V2000
   30.4558   30.7454  108.3701 N   0  0  0  0  0  0  0  0  0  0  0  0
   29.9291   29.7162  107.5563 C   0  0  0  0  0  0  0  0  0  0  0  0
   28.5130   29.6791  107.2924 N   0  0  0  0  0  0  0  0  0  0  0  0
   30.7357   28.7496  107.0126 N   0  0  0  0  0  0  0  0  0  0  0  0
   32.1183   28.7396  107.2379 C   0  0  0  0  0  0  0  0  0  0  0  0
   32.6964   29.7693  108.0610 C   0  0  0  0  0  0  0  0  0  0  0  0
   31.8153   30.7895  108.6306 C   0  0  0  0  0  0  0  0  0  0  0  0
   32.3311   31.7889  109.4221 O   0  0  0  0  0  0  0  0  0  0  0  0
   34.1219   29.4956  108.1119 C   0  0  0  0  0  0  0  0  0  0  0  0
   34.3393   28.3554  107.3374 C   0  0  0  0  0  0  0  0  0  0  0  0
   33.1429   27.9088  106.8226 N   0  0  0  0  0  0  0  0  0  0  0  0
   35.1575   30.2947  108.8447 C   0  0  0  0  0  0  0  0  0  0  0  0
   34.9625   31.7050  108.5632 N   0  0  0  0  0  0  0  0  0  0  0  0
  1  2  1  0  0  0  0
  1  7  1  0  0  0  0
  2  3  1  0  0  0  0
  2  4  2  0  0  0  0
  4  5  1  0  0  0  0
  5  6  2  0  0  0  0
  5 11  1  0  0  0  0
  6  7  1  0  0  0  0
  6  9  1  0  0  0  0
  7  8  2  0  0  0  0
  9 10  2  0  0  0  0
  9 12  1  0  0  0  0
 10 11  1  0  0  0  0
 12 13  1  0  0  0  0
M  END
>  <CHROM.1>
164.54654557,-46.93400752,-160.85140990,32.29319177,29.88902374,107.96584793
2.92749457,0.08722133,-2.60026363

>  <Name>
ligand

>  <RI>
1.38753e+07

>  <Rbt.Current_Directory>
/home/itssahil/PROJECTS/Mol_Feturizer/New_Systems/rnas/4RZD

>  <Rbt.Executable>
rbdock ($Id: //depot/dev/client3/rdock/2013.1/src/exe/rbdock.cxx#4 $)

>  <Rbt.Library>
libRbt.so (2013.1, Build901 2013/11/27)

>  <Rbt.Parameter_File>
/export/apps/rDock/src/rDock_2013.1_src/data/scripts/dock_solv.prm

>  <Rbt.Receptor>
prm/pocket_docking_7.prm

>  <SCORE>
-23.5558

>  <SCORE.INTER>
-21.411

>  <SCORE.INTER.CONST>
1

>  <SCORE.INTER.POLAR>
-3.32032

>  <SCORE.INTER.ROT>
3

>  <SCORE.INTER.SOLV>
13.8312

>  <SCORE.INTER.VDW>
-13.4167

>  <SCORE.INTER.norm>
-1.647

>  <SCORE.INTRA>
-2.17456

>  <SCORE.INTRA.DIHEDRAL>
-1.83315

>  <SCORE.INTRA.DIHEDRAL.0>
4.88905

>  <SCORE.INTRA.POLAR>
-0.397418

>  <SCORE.INTRA.POLAR.0>
0

>  <SCORE.INTRA.REPUL>
0

>  <SCORE.INTRA.REPUL.0>
0

>  <SCORE.INTRA.SOLV>
0.15629

>  <SCORE.INTRA.SOLV.lig_0>
-15.1033

>  <SCORE.INTRA.VDW>
0.015084

>  <SCORE.INTRA.VDW.0>
-0.755285

>  <SCORE.INTRA.norm>
-0.167274

>  <SCORE.RESTR>
0.0297762

>  <SCORE.RESTR.CAVITY>
0.0297762

>  <SCORE.RESTR.norm>
0.00229048

>  <SCORE.SYSTEM>
0

>  <SCORE.SYSTEM.CONST>
0

>  <SCORE.SYSTEM.DIHEDRAL>
0

>  <SCORE.SYSTEM.SOLV>
0

>  <SCORE.SYSTEM.norm>
0

>  <SCORE.heavy>
13

>  <SCORE.norm>
-1.81199

>  <RMSD>
4.648

$$$$
ligand
 OpenBabel11021811513D
libRbt.so/2013.1/901 2013/11/27
 13 14  0  0  0  0  0  0  0  0999 V2000
   30.4296   30.7164  108.4766 N   0  0  0  0  0  0  0  0  0  0  0  0
   29.9340   29.7310  107.5919 C   0  0  0  0  0  0  0  0  0  0  0  0
   28.5239   29.6903  107.2981 N   0  0  0  0  0  0  0  0  0  0  0  0
   30.7653   28.8104  107.0072 N   0  0  0  0  0  0  0  0  0  0  0  0
   32.1434   28.8059  107.2591 C   0  0  0  0  0  0  0  0  0  0  0  0
   32.6901   29.7919  108.1540 C   0  0  0  0  0  0  0  0  0  0  0  0
   31.7830   30.7635  108.7663 C   0  0  0  0  0  0  0  0  0  0  0  0
   32.2685   31.7202  109.6266 O   0  0  0  0  0  0  0  0  0  0  0  0
   34.1183   29.5354  108.2167 C   0  0  0  0  0  0  0  0  0  0  0  0
   34.3676   28.4473  107.3795 C   0  0  0  0  0  0  0  0  0  0  0  0
   33.1881   28.0160  106.8150 N   0  0  0  0  0  0  0  0  0  0  0  0
   35.1276   30.3031  109.0168 C   0  0  0  0  0  0  0  0  0  0  0  0
   35.4699   31.5244  108.3115 N   0  0  0  0  0  0  0  0  0  0  0  0
  1  2  1  0  0  0  0
  1  7  1  0  0  0  0
  2  3  1  0  0  0  0
  2  4  2  0  0  0  0
  4  5  1  0  0  0  0
  5  6  2  0  0  0  0
  5 11  1  0  0  0  0
  6  7  1  0  0  0  0
  6  9  1  0  0  0  0
  7  8  2  0  0  0  0
  9 10  2  0  0  0  0
  9 12  1  0  0  0  0
 10 11  1  0  0  0  0
 12 13  1  0  0  0  0
M  END
>  <CHROM.1>
166.83980704,-79.82674566,-125.98967465,32.33993702,29.89372136,108.01061696
2.95308836,0.06461698,-2.54436241

>  <Name>
ligand

>  <RI>
1.38753e+07

>  <Rbt.Current_Directory>
/home/itssahil/PROJECTS/Mol_Feturizer/New_Systems/rnas/4RZD

>  <Rbt.Executable>
rbdock ($Id: //depot/dev/client3/rdock/2013.1/src/exe/rbdock.cxx#4 $)

>  <Rbt.Library>
libRbt.so (2013.1, Build901 2013/11/27)

>  <Rbt.Parameter_File>
/export/apps/rDock/src/rDock_2013.1_src/data/scripts/dock_solv.prm

>  <Rbt.Receptor>
prm/pocket_docking_7.prm

>  <SCORE>
-23.2767

>  <SCORE.INTER>
-23.13

>  <SCORE.INTER.CONST>
1

>  <SCORE.INTER.POLAR>
-3.6558

>  <SCORE.INTER.ROT>
3

>  <SCORE.INTER.SOLV>
14.2845

>  <SCORE.INTER.VDW>
-13.5955

>  <SCORE.INTER.norm>
-1.77923

>  <SCORE.INTRA>
-0.165767

>  <SCORE.INTRA.DIHEDRAL>
-0.0925066

>  <SCORE.INTRA.DIHEDRAL.0>
4.88905

>  <SCORE.INTRA.POLAR>
0

>  <SCORE.INTRA.POLAR.0>
0

>  <SCORE.INTRA.REPUL>
0

>  <SCORE.INTRA.REPUL.0>
0

>  <SCORE.INTRA.SOLV>
-0.317526

>  <SCORE.INTRA.SOLV.lig_0>
-15.1033

>  <SCORE.INTRA.VDW>
0.0392496

>  <SCORE.INTRA.VDW.0>
-0.755285

>  <SCORE.INTRA.norm>
-0.0127513

>  <SCORE.RESTR>
0.0190728

>  <SCORE.RESTR.CAVITY>
0.0190728

>  <SCORE.RESTR.norm>
0.00146714

>  <SCORE.SYSTEM>
0

>  <SCORE.SYSTEM.CONST>
0

>  <SCORE.SYSTEM.DIHEDRAL>
0

>  <SCORE.SYSTEM.SOLV>
0

>  <SCORE.SYSTEM.norm>
0

>  <SCORE.heavy>
13

>  <SCORE.norm>
-1.79051

>  <RMSD>
4.661

$$$$
ligand
 OpenBabel11021811513D
libRbt.so/2013.1/901 2013/11/27
 13 14  0  0  0  0  0  0  0  0999 V2000
   30.4154   30.7317  108.4740 N   0  0  0  0  0  0  0  0  0  0  0  0
   29.9343   29.7393  107.5892 C   0  0  0  0  0  0  0  0  0  0  0  0
   28.5257   29.6814  107.2912 N   0  0  0  0  0  0  0  0  0  0  0  0
   30.7782   28.8280  107.0081 N   0  0  0  0  0  0  0  0  0  0  0  0
   32.1555   28.8403  107.2640 C   0  0  0  0  0  0  0  0  0  0  0  0
   32.6878   29.8339  108.1592 C   0  0  0  0  0  0  0  0  0  0  0  0
   31.7674   30.7953  108.7676 C   0  0  0  0  0  0  0  0  0  0  0  0
   32.2389   31.7589  109.6282 O   0  0  0  0  0  0  0  0  0  0  0  0
   34.1188   29.5946  108.2265 C   0  0  0  0  0  0  0  0  0  0  0  0
   34.3835   28.5084  107.3914 C   0  0  0  0  0  0  0  0  0  0  0  0
   33.2109   28.0624  106.8240 N   0  0  0  0  0  0  0  0  0  0  0  0
   35.1164   30.3752  109.0285 C   0  0  0  0  0  0  0  0  0  0  0  0
   34.8647   31.7942  108.8568 N   0  0  0  0  0  0  0  0  0  0  0  0
  1  2  1  0  0  0  0
  1  7  1  0  0  0  0
  2  3  1  0  0  0  0
  2  4  2  0  0  0  0
  4  5  1  0  0  0  0
  5  6  2  0  0  0  0
  5 11  1  0  0  0  0
  6  7  1  0  0  0  0
  6  9  1  0  0  0  0
  7  8  2  0  0  0  0
  9 10  2  0  0  0  0
  9 12  1  0  0  0  0
 10 11  1  0  0  0  0
 12 13  1  0  0  0  0
M  END
>  <CHROM.1>
-9.31853012,-45.29029875,150.05196845,32.27752468,29.94765926,108.06397114
2.89313039,0.09455282,-2.53615549

>  <Name>
ligand

>  <RI>
1.0531e+07

>  <Rbt.Current_Directory>
/home/itssahil/PROJECTS/Mol_Feturizer/New_Systems/rnas/4RZD

>  <Rbt.Executable>
rbdock ($Id: //depot/dev/client3/rdock/2013.1/src/exe/rbdock.cxx#4 $)

>  <Rbt.Library>
libRbt.so (2013.1, Build901 2013/11/27)

>  <Rbt.Parameter_File>
/export/apps/rDock/src/rDock_2013.1_src/data/scripts/dock_solv.prm

>  <Rbt.Receptor>
prm/pocket_docking_8.prm

>  <SCORE>
-23.8684

>  <SCORE.INTER>
-23.9938

>  <SCORE.INTER.CONST>
1

>  <SCORE.INTER.POLAR>
-3.61377

>  <SCORE.INTER.ROT>
3

>  <SCORE.INTER.SOLV>
13.942

>  <SCORE.INTER.VDW>
-14.1973

>  <SCORE.INTER.norm>
-1.84568

>  <SCORE.INTRA>
0.125467

>  <SCORE.INTRA.DIHEDRAL>
-1.19555

>  <SCORE.INTRA.DIHEDRAL.0>
4.88905

>  <SCORE.INTRA.POLAR>
0

>  <SCORE.INTRA.POLAR.0>
0

>  <SCORE.INTRA.REPUL>
0

>  <SCORE.INTRA.REPUL.0>
0

>  <SCORE.INTRA.SOLV>
0.247976

>  <SCORE.INTRA.SOLV.lig_0>
-15.1033

>  <SCORE.INTRA.VDW>
0.599254

>  <SCORE.INTRA.VDW.0>
-0.755285

>  <SCORE.INTRA.norm>
0.00965128

>  <SCORE.RESTR>
0

>  <SCORE.RESTR.CAVITY>
0

>  <SCORE.RESTR.norm>
0

>  <SCORE.SYSTEM>
0

>  <SCORE.SYSTEM.CONST>
0

>  <SCORE.SYSTEM.DIHEDRAL>
0

>  <SCORE.SYSTEM.SOLV>
0

>  <SCORE.SYSTEM.norm>
0

>  <SCORE.heavy>
13

>  <SCORE.norm>
-1.83603

>  <RMSD>
4.667

$$$$
ligand
 OpenBabel11021811513D
libRbt.so/2013.1/901 2013/11/27
 13 14  0  0  0  0  0  0  0  0999 V2000
   30.4176   30.7201  108.5284 N   0  0  0  0  0  0  0  0  0  0  0  0
   29.9338   29.7403  107.6311 C   0  0  0  0  0  0  0  0  0  0  0  0
   28.5223   29.6768  107.3485 N   0  0  0  0  0  0  0  0  0  0  0  0
   30.7778   28.8465  107.0236 N   0  0  0  0  0  0  0  0  0  0  0  0
   32.1579   28.8651  107.2637 C   0  0  0  0  0  0  0  0  0  0  0  0
   32.6929   29.8463  108.1709 C   0  0  0  0  0  0  0  0  0  0  0  0
   31.7723   30.7891  108.8075 C   0  0  0  0  0  0  0  0  0  0  0  0
   32.2464   31.7404  109.6801 O   0  0  0  0  0  0  0  0  0  0  0  0
   34.1264   29.6171  108.2172 C   0  0  0  0  0  0  0  0  0  0  0  0
   34.3897   28.5485  107.3592 C   0  0  0  0  0  0  0  0  0  0  0  0
   33.2140   28.1038  106.7973 N   0  0  0  0  0  0  0  0  0  0  0  0
   35.1274   30.3908  109.0218 C   0  0  0  0  0  0  0  0  0  0  0  0
   34.8856   31.8114  108.8500 N   0  0  0  0  0  0  0  0  0  0  0  0
  1  2  1  0  0  0  0
  1  7  1  0  0  0  0
  2  3  1  0  0  0  0
  2  4  2  0  0  0  0
  4  5  1  0  0  0  0
  5  6  2  0  0  0  0
  5 11  1  0  0  0  0
  6  7  1  0  0  0  0
  6  9  1  0  0  0  0
  7  8  2  0  0  0  0
  9 10  2  0  0  0  0
  9 12  1  0  0  0  0
 10 11  1  0  0  0  0
 12 13  1  0  0  0  0
M  END
>  <CHROM.1>
-11.16576054,-46.84567170,147.64320761,32.28262564,29.95865524,108.07963125
2.89534065,0.07888250,-2.51930597

>  <Name>
ligand

>  <RI>
1.38753e+07

>  <Rbt.Current_Directory>
/home/itssahil/PROJECTS/Mol_Feturizer/New_Systems/rnas/4RZD

>  <Rbt.Executable>
rbdock ($Id: //depot/dev/client3/rdock/2013.1/src/exe/rbdock.cxx#4 $)

>  <Rbt.Library>
libRbt.so (2013.1, Build901 2013/11/27)

>  <Rbt.Parameter_File>
/export/apps/rDock/src/rDock_2013.1_src/data/scripts/dock_solv.prm

>  <Rbt.Receptor>
prm/pocket_docking_7.prm

>  <SCORE>
-23.7997

>  <SCORE.INTER>
-23.9372

>  <SCORE.INTER.CONST>
1

>  <SCORE.INTER.POLAR>
-3.5454

>  <SCORE.INTER.ROT>
3

>  <SCORE.INTER.SOLV>
13.9277

>  <SCORE.INTER.VDW>
-14.3827

>  <SCORE.INTER.norm>
-1.84132

>  <SCORE.INTRA>
0.137468

>  <SCORE.INTRA.DIHEDRAL>
-1.0464

>  <SCORE.INTRA.DIHEDRAL.0>
4.88905

>  <SCORE.INTRA.POLAR>
0

>  <SCORE.INTRA.POLAR.0>
0

>  <SCORE.INTRA.REPUL>
0

>  <SCORE.INTRA.REPUL.0>
0

>  <SCORE.INTRA.SOLV>
0.230216

>  <SCORE.INTRA.SOLV.lig_0>
-15.1033

>  <SCORE.INTRA.VDW>
0.545558

>  <SCORE.INTRA.VDW.0>
-0.755285

>  <SCORE.INTRA.norm>
0.0105744

>  <SCORE.RESTR>
0

>  <SCORE.RESTR.CAVITY>
0

>  <SCORE.RESTR.norm>
0

>  <SCORE.SYSTEM>
0

>  <SCORE.SYSTEM.CONST>
0

>  <SCORE.SYSTEM.DIHEDRAL>
0

>  <SCORE.SYSTEM.SOLV>
0

>  <SCORE.SYSTEM.norm>
0

>  <SCORE.heavy>
13

>  <SCORE.norm>
-1.83075

>  <RMSD>
4.668

$$$$
ligand
 OpenBabel11021811513D
libRbt.so/2013.1/901 2013/11/27
 13 14  0  0  0  0  0  0  0  0999 V2000
   30.4167   30.7352  108.5153 N   0  0  0  0  0  0  0  0  0  0  0  0
   29.9381   29.7506  107.6204 C   0  0  0  0  0  0  0  0  0  0  0  0
   28.5281   29.6842  107.3314 N   0  0  0  0  0  0  0  0  0  0  0  0
   30.7860   28.8548  107.0213 N   0  0  0  0  0  0  0  0  0  0  0  0
   32.1649   28.8759  107.2678 C   0  0  0  0  0  0  0  0  0  0  0  0
   32.6946   29.8620  108.1728 C   0  0  0  0  0  0  0  0  0  0  0  0
   31.7700   30.8069  108.8005 C   0  0  0  0  0  0  0  0  0  0  0  0
   32.2390   31.7629  109.6708 O   0  0  0  0  0  0  0  0  0  0  0  0
   34.1281   29.6345  108.2270 C   0  0  0  0  0  0  0  0  0  0  0  0
   34.3966   28.5622  107.3755 C   0  0  0  0  0  0  0  0  0  0  0  0
   33.2240   28.1134  106.8102 N   0  0  0  0  0  0  0  0  0  0  0  0
   35.1244   30.4131  109.0327 C   0  0  0  0  0  0  0  0  0  0  0  0
   35.0116   31.8219  108.7029 N   0  0  0  0  0  0  0  0  0  0  0  0
  1  2  1  0  0  0  0
  1  7  1  0  0  0  0
  2  3  1  0  0  0  0
  2  4  2  0  0  0  0
  4  5  1  0  0  0  0
  5  6  2  0  0  0  0
  5 11  1  0  0  0  0
  6  7  1  0  0  0  0
  6  9  1  0  0  0  0
  7  8  2  0  0  0  0
  9 10  2  0  0  0  0
  9 12  1  0  0  0  0
 10 11  1  0  0  0  0
 12 13  1  0  0  0  0
M  END
>  <CHROM.1>
-10.92622885,-55.15605805,-103.32791013,32.30414241,29.97342959,108.06358725
2.90108743,0.06996016,-2.53099393

>  <Name>
ligand

>  <RI>
1.38753e+07

>  <Rbt.Current_Directory>
/home/itssahil/PROJECTS/Mol_Feturizer/New_Systems/rnas/4RZD

>  <Rbt.Executable>
rbdock ($Id: //depot/dev/client3/rdock/2013.1/src/exe/rbdock.cxx#4 $)

>  <Rbt.Library>
libRbt.so (2013.1, Build901 2013/11/27)

>  <Rbt.Parameter_File>
/export/apps/rDock/src/rDock_2013.1_src/data/scripts/dock_solv.prm

>  <Rbt.Receptor>
prm/pocket_docking_7.prm

>  <SCORE>
-25.2791

>  <SCORE.INTER>
-25.0317

>  <SCORE.INTER.CONST>
1

>  <SCORE.INTER.POLAR>
-3.77873

>  <SCORE.INTER.ROT>
3

>  <SCORE.INTER.SOLV>
14.1195

>  <SCORE.INTER.VDW>
-14.3985

>  <SCORE.INTER.norm>
-1.92552

>  <SCORE.INTRA>
-0.24786

>  <SCORE.INTRA.DIHEDRAL>
-0.433807

>  <SCORE.INTRA.DIHEDRAL.0>
4.88905

>  <SCORE.INTRA.POLAR>
0

>  <SCORE.INTRA.POLAR.0>
0

>  <SCORE.INTRA.REPUL>
0

>  <SCORE.INTRA.REPUL.0>
0

>  <SCORE.INTRA.SOLV>
-0.0610192

>  <SCORE.INTRA.SOLV.lig_0>
-15.1033

>  <SCORE.INTRA.VDW>
-0.000446935

>  <SCORE.INTRA.VDW.0>
-0.755285

>  <SCORE.INTRA.norm>
-0.0190662

>  <SCORE.RESTR>
0.000501847

>  <SCORE.RESTR.CAVITY>
0.000501847

>  <SCORE.RESTR.norm>
3.86036e-05

>  <SCORE.SYSTEM>
0

>  <SCORE.SYSTEM.CONST>
0

>  <SCORE.SYSTEM.DIHEDRAL>
0

>  <SCORE.SYSTEM.SOLV>
0

>  <SCORE.SYSTEM.norm>
0

>  <SCORE.heavy>
13

>  <SCORE.norm>
-1.94455

>  <RMSD>
4.673

$$$$
ligand
 OpenBabel11021811513D
libRbt.so/2013.1/901 2013/11/27
 13 14  0  0  0  0  0  0  0  0999 V2000
   30.4150   30.7302  108.5160 N   0  0  0  0  0  0  0  0  0  0  0  0
   29.9378   29.7449  107.6212 C   0  0  0  0  0  0  0  0  0  0  0  0
   28.5277   29.6764  107.3324 N   0  0  0  0  0  0  0  0  0  0  0  0
   30.7869   28.8504  107.0219 N   0  0  0  0  0  0  0  0  0  0  0  0
   32.1657   28.8736  107.2682 C   0  0  0  0  0  0  0  0  0  0  0  0
   32.6941   29.8604  108.1732 C   0  0  0  0  0  0  0  0  0  0  0  0
   31.7682   30.8039  108.8010 C   0  0  0  0  0  0  0  0  0  0  0  0
   32.2359   31.7606  109.6712 O   0  0  0  0  0  0  0  0  0  0  0  0
   34.1280   29.6351  108.2271 C   0  0  0  0  0  0  0  0  0  0  0  0
   34.3979   28.5632  107.3755 C   0  0  0  0  0  0  0  0  0  0  0  0
   33.2259   28.1128  106.8103 N   0  0  0  0  0  0  0  0  0  0  0  0
   35.1233   30.4152  109.0326 C   0  0  0  0  0  0  0  0  0  0  0  0
   35.0101   31.8235  108.7010 N   0  0  0  0  0  0  0  0  0  0  0  0
  1  2  1  0  0  0  0
  1  7  1  0  0  0  0
  2  3  1  0  0  0  0
  2  4  2  0  0  0  0
  4  5  1  0  0  0  0
  5  6  2  0  0  0  0
  5 11  1  0  0  0  0
  6  7  1  0  0  0  0
  6  9  1  0  0  0  0
  7  8  2  0  0  0  0
  9 10  2  0  0  0  0
  9 12  1  0  0  0  0
 10 11  1  0  0  0  0
 12 13  1  0  0  0  0
M  END
>  <CHROM.1>
169.06204232,-55.26612251,-101.52730528,32.30371805,29.97130192,108.06370675
2.90031444,0.06878869,-2.53095772

>  <Name>
ligand

>  <RI>
1.0531e+07

>  <Rbt.Current_Directory>
/home/itssahil/PROJECTS/Mol_Feturizer/New_Systems/rnas/4RZD

>  <Rbt.Executable>
rbdock ($Id: //depot/dev/client3/rdock/2013.1/src/exe/rbdock.cxx#4 $)

>  <Rbt.Library>
libRbt.so (2013.1, Build901 2013/11/27)

>  <Rbt.Parameter_File>
/export/apps/rDock/src/rDock_2013.1_src/data/scripts/dock_solv.prm

>  <Rbt.Receptor>
prm/pocket_docking_8.prm

>  <SCORE>
-25.193

>  <SCORE.INTER>
-24.9097

>  <SCORE.INTER.CONST>
1

>  <SCORE.INTER.POLAR>
-3.76897

>  <SCORE.INTER.ROT>
3

>  <SCORE.INTER.SOLV>
14.1117

>  <SCORE.INTER.VDW>
-14.3471

>  <SCORE.INTER.norm>
-1.91613

>  <SCORE.INTRA>
-0.283266

>  <SCORE.INTRA.DIHEDRAL>
-0.524173

>  <SCORE.INTRA.DIHEDRAL.0>
4.88905

>  <SCORE.INTRA.POLAR>
0

>  <SCORE.INTRA.POLAR.0>
0

>  <SCORE.INTRA.REPUL>
0

>  <SCORE.INTRA.REPUL.0>
0

>  <SCORE.INTRA.SOLV>
-0.0648943

>  <SCORE.INTRA.SOLV.lig_0>
-15.1033

>  <SCORE.INTRA.VDW>
0.0112681

>  <SCORE.INTRA.VDW.0>
-0.755285

>  <SCORE.INTRA.norm>
-0.0217897

>  <SCORE.RESTR>
0

>  <SCORE.RESTR.CAVITY>
0

>  <SCORE.RESTR.norm>
0

>  <SCORE.SYSTEM>
0

>  <SCORE.SYSTEM.CONST>
0

>  <SCORE.SYSTEM.DIHEDRAL>
0

>  <SCORE.SYSTEM.SOLV>
0

>  <SCORE.SYSTEM.norm>
0

>  <SCORE.heavy>
13

>  <SCORE.norm>
-1.93792

>  <RMSD>
4.673

$$$$
ligand
 OpenBabel11021811513D
libRbt.so/2013.1/901 2013/11/27
 13 14  0  0  0  0  0  0  0  0999 V2000
   30.4163   30.7188  108.5309 N   0  0  0  0  0  0  0  0  0  0  0  0
   29.9427   29.7420  107.6250 C   0  0  0  0  0  0  0  0  0  0  0  0
   28.5331   29.6727  107.3341 N   0  0  0  0  0  0  0  0  0  0  0  0
   30.7949   28.8563  107.0169 N   0  0  0  0  0  0  0  0  0  0  0  0
   32.1734   28.8807  107.2648 C   0  0  0  0  0  0  0  0  0  0  0  0
   32.6982   29.8591  108.1809 C   0  0  0  0  0  0  0  0  0  0  0  0
   31.7691   30.7932  108.8180 C   0  0  0  0  0  0  0  0  0  0  0  0
   32.2333   31.7417  109.6990 O   0  0  0  0  0  0  0  0  0  0  0  0
   34.1326   29.6372  108.2338 C   0  0  0  0  0  0  0  0  0  0  0  0
   34.4064   28.5753  107.3709 C   0  0  0  0  0  0  0  0  0  0  0  0
   33.2362   28.1278  106.7998 N   0  0  0  0  0  0  0  0  0  0  0  0
   35.1249   30.4113  109.0488 C   0  0  0  0  0  0  0  0  0  0  0  0
   35.0271   31.8196  108.7122 N   0  0  0  0  0  0  0  0  0  0  0  0
  1  2  1  0  0  0  0
  1  7  1  0  0  0  0
  2  3  1  0  0  0  0
  2  4  2  0  0  0  0
  4  5  1  0  0  0  0
  5  6  2  0  0  0  0
  5 11  1  0  0  0  0
  6  7  1  0  0  0  0
  6  9  1  0  0  0  0
  7  8  2  0  0  0  0
  9 10  2  0  0  0  0
  9 12  1  0  0  0  0
 10 11  1  0  0  0  0
 12 13  1  0  0  0  0
M  END
>  <CHROM.1>
170.67040847,-56.42714409,-102.96705051,32.30927526,29.96979219,108.07059720
2.89898525,0.06688238,-2.52058080

>  <Name>
ligand

>  <RI>
1.38753e+07

>  <Rbt.Current_Directory>
/home/itssahil/PROJECTS/Mol_Feturizer/New_Systems/rnas/4RZD

>  <Rbt.Executable>
rbdock ($Id: //depot/dev/client3/rdock/2013.1/src/exe/rbdock.cxx#4 $)

>  <Rbt.Library>
libRbt.so (2013.1, Build901 2013/11/27)

>  <Rbt.Parameter_File>
/export/apps/rDock/src/rDock_2013.1_src/data/scripts/dock_solv.prm

>  <Rbt.Receptor>
prm/pocket_docking_7.prm

>  <SCORE>
-25.2127

>  <SCORE.INTER>
-24.9448

>  <SCORE.INTER.CONST>
1

>  <SCORE.INTER.POLAR>
-3.75397

>  <SCORE.INTER.ROT>
3

>  <SCORE.INTER.SOLV>
14.1295

>  <SCORE.INTER.VDW>
-14.4265

>  <SCORE.INTER.norm>
-1.91883

>  <SCORE.INTRA>
-0.269305

>  <SCORE.INTRA.DIHEDRAL>
-0.453317

>  <SCORE.INTRA.DIHEDRAL.0>
4.88905

>  <SCORE.INTRA.POLAR>
0

>  <SCORE.INTRA.POLAR.0>
0

>  <SCORE.INTRA.REPUL>
0

>  <SCORE.INTRA.REPUL.0>
0

>  <SCORE.INTRA.SOLV>
-0.076799

>  <SCORE.INTRA.SOLV.lig_0>
-15.1033

>  <SCORE.INTRA.VDW>
-0.00424709

>  <SCORE.INTRA.VDW.0>
-0.755285

>  <SCORE.INTRA.norm>
-0.0207158

>  <SCORE.RESTR>
0.00139603

>  <SCORE.RESTR.CAVITY>
0.00139603

>  <SCORE.RESTR.norm>
0.000107387

>  <SCORE.SYSTEM>
0

>  <SCORE.SYSTEM.CONST>
0

>  <SCORE.SYSTEM.DIHEDRAL>
0

>  <SCORE.SYSTEM.SOLV>
0

>  <SCORE.SYSTEM.norm>
0

>  <SCORE.heavy>
13

>  <SCORE.norm>
-1.93944

>  <RMSD>
4.674

$$$$
ligand
 OpenBabel11021811513D
libRbt.so/2013.1/901 2013/11/27
 13 14  0  0  0  0  0  0  0  0999 V2000
   30.3117   30.4100  107.8650 N   0  0  0  0  0  0  0  0  0  0  0  0
   29.9599   29.3305  107.0223 C   0  0  0  0  0  0  0  0  0  0  0  0
   28.6052   29.2201  106.5441 N   0  0  0  0  0  0  0  0  0  0  0  0
   30.8793   28.3836  106.6501 N   0  0  0  0  0  0  0  0  0  0  0  0
   32.2089   28.4441  107.0870 C   0  0  0  0  0  0  0  0  0  0  0  0
   32.6099   29.5267  107.9468 C   0  0  0  0  0  0  0  0  0  0  0  0
   31.6109   30.5247  108.3309 C   0  0  0  0  0  0  0  0  0  0  0  0
   31.9565   31.5731  109.1511 O   0  0  0  0  0  0  0  0  0  0  0  0
   34.0196   29.3200  108.2290 C   0  0  0  0  0  0  0  0  0  0  0  0
   34.4005   28.1650  107.5449 C   0  0  0  0  0  0  0  0  0  0  0  0
   33.3179   27.6470  106.8698 N   0  0  0  0  0  0  0  0  0  0  0  0
   34.8953   30.1900  109.0799 C   0  0  0  0  0  0  0  0  0  0  0  0
   35.4574   31.2496  108.2629 N   0  0  0  0  0  0  0  0  0  0  0  0
  1  2  1  0  0  0  0
  1  7  1  0  0  0  0
  2  3  1  0  0  0  0
  2  4  2  0  0  0  0
  4  5  1  0  0  0  0
  5  6  2  0  0  0  0
  5 11  1  0  0  0  0
  6  7  1  0  0  0  0
  6  9  1  0  0  0  0
  7  8  2  0  0  0  0
  9 10  2  0  0  0  0
  9 12  1  0  0  0  0
 10 11  1  0  0  0  0
 12 13  1  0  0  0  0
M  END
>  <CHROM.1>
32.83764860,-87.44496097,-110.27598989,32.29571665,29.59413693,107.74285184
2.87372277,0.16571410,-2.62838391

>  <Name>
ligand

>  <RI>
1.0531e+07

>  <Rbt.Current_Directory>
/home/itssahil/PROJECTS/Mol_Feturizer/New_Systems/rnas/4RZD

>  <Rbt.Executable>
rbdock ($Id: //depot/dev/client3/rdock/2013.1/src/exe/rbdock.cxx#4 $)

>  <Rbt.Library>
libRbt.so (2013.1, Build901 2013/11/27)

>  <Rbt.Parameter_File>
/export/apps/rDock/src/rDock_2013.1_src/data/scripts/dock_solv.prm

>  <Rbt.Receptor>
prm/pocket_docking_8.prm

>  <SCORE>
-18.0783

>  <SCORE.INTER>
-17.8391

>  <SCORE.INTER.CONST>
1

>  <SCORE.INTER.POLAR>
-3.00789

>  <SCORE.INTER.ROT>
3

>  <SCORE.INTER.SOLV>
14.5226

>  <SCORE.INTER.VDW>
-12.3073

>  <SCORE.INTER.norm>
-1.37224

>  <SCORE.INTRA>
-0.239184

>  <SCORE.INTRA.DIHEDRAL>
-0.1928

>  <SCORE.INTRA.DIHEDRAL.0>
4.88905

>  <SCORE.INTRA.POLAR>
0

>  <SCORE.INTRA.POLAR.0>
0

>  <SCORE.INTRA.REPUL>
0

>  <SCORE.INTRA.REPUL.0>
0

>  <SCORE.INTRA.SOLV>
-0.436658

>  <SCORE.INTRA.SOLV.lig_0>
-15.1033

>  <SCORE.INTRA.VDW>
0.0755455

>  <SCORE.INTRA.VDW.0>
-0.755285

>  <SCORE.INTRA.norm>
-0.0183987

>  <SCORE.RESTR>
0

>  <SCORE.RESTR.CAVITY>
0

>  <SCORE.RESTR.norm>
0

>  <SCORE.SYSTEM>
0

>  <SCORE.SYSTEM.CONST>
0

>  <SCORE.SYSTEM.DIHEDRAL>
0

>  <SCORE.SYSTEM.SOLV>
0

>  <SCORE.SYSTEM.norm>
0

>  <SCORE.heavy>
13

>  <SCORE.norm>
-1.39064

>  <RMSD>
4.704

$$$$
ligand
 OpenBabel11021811513D
libRbt.so/2013.1/901 2013/11/27
 13 14  0  0  0  0  0  0  0  0999 V2000
   30.0668   30.3139  107.9533 N   0  0  0  0  0  0  0  0  0  0  0  0
   29.9940   29.2384  107.0382 C   0  0  0  0  0  0  0  0  0  0  0  0
   28.7123   28.8467  106.5089 N   0  0  0  0  0  0  0  0  0  0  0  0
   31.1166   28.5572  106.6433 N   0  0  0  0  0  0  0  0  0  0  0  0
   32.3864   28.8973  107.1276 C   0  0  0  0  0  0  0  0  0  0  0  0
   32.5059   29.9861  108.0615 C   0  0  0  0  0  0  0  0  0  0  0  0
   31.2936   30.6977  108.4686 C   0  0  0  0  0  0  0  0  0  0  0  0
   31.3681   31.7429  109.3591 O   0  0  0  0  0  0  0  0  0  0  0  0
   33.9191   30.0954  108.3787 C   0  0  0  0  0  0  0  0  0  0  0  0
   34.5731   29.1069  107.6423 C   0  0  0  0  0  0  0  0  0  0  0  0
   33.6553   28.3956  106.9022 N   0  0  0  0  0  0  0  0  0  0  0  0
   34.5500   31.0889  109.3075 C   0  0  0  0  0  0  0  0  0  0  0  0
   35.7706   31.5969  108.7089 N   0  0  0  0  0  0  0  0  0  0  0  0
  1  2  1  0  0  0  0
  1  7  1  0  0  0  0
  2  3  1  0  0  0  0
  2  4  2  0  0  0  0
  4  5  1  0  0  0  0
  5  6  2  0  0  0  0
  5 11  1  0  0  0  0
  6  7  1  0  0  0  0
  6  9  1  0  0  0  0
  7  8  2  0  0  0  0
  9 10  2  0  0  0  0
  9 12  1  0  0  0  0
 10 11  1  0  0  0  0
 12 13  1  0  0  0  0
M  END
>  <CHROM.1>
-127.42520023,-137.34836214,179.05278720,32.26796237,29.92948769,107.86003570
2.73659582,0.06305005,-2.48891045

>  <Name>
ligand

>  <RI>
1.0531e+07

>  <Rbt.Current_Directory>
/home/itssahil/PROJECTS/Mol_Feturizer/New_Systems/rnas/4RZD

>  <Rbt.Executable>
rbdock ($Id: //depot/dev/client3/rdock/2013.1/src/exe/rbdock.cxx#4 $)

>  <Rbt.Library>
libRbt.so (2013.1, Build901 2013/11/27)

>  <Rbt.Parameter_File>
/export/apps/rDock/src/rDock_2013.1_src/data/scripts/dock_solv.prm

>  <Rbt.Receptor>
prm/pocket_docking_8.prm

>  <SCORE>
-10.7942

>  <SCORE.INTER>
-9.56556

>  <SCORE.INTER.CONST>
1

>  <SCORE.INTER.POLAR>
-1.72984

>  <SCORE.INTER.ROT>
3

>  <SCORE.INTER.SOLV>
14.8629

>  <SCORE.INTER.VDW>
-11.1652

>  <SCORE.INTER.norm>
-0.735813

>  <SCORE.INTRA>
-1.22859

>  <SCORE.INTRA.DIHEDRAL>
-2.38382

>  <SCORE.INTRA.DIHEDRAL.0>
4.88905

>  <SCORE.INTRA.POLAR>
0

>  <SCORE.INTRA.POLAR.0>
0

>  <SCORE.INTRA.REPUL>
0

>  <SCORE.INTRA.REPUL.0>
0

>  <SCORE.INTRA.SOLV>
-0.707808

>  <SCORE.INTRA.SOLV.lig_0>
-15.1033

>  <SCORE.INTRA.VDW>
0.317222

>  <SCORE.INTRA.VDW.0>
-0.755285

>  <SCORE.INTRA.norm>
-0.0945069

>  <SCORE.RESTR>
0

>  <SCORE.RESTR.CAVITY>
0

>  <SCORE.RESTR.norm>
0

>  <SCORE.SYSTEM>
0

>  <SCORE.SYSTEM.CONST>
0

>  <SCORE.SYSTEM.DIHEDRAL>
0

>  <SCORE.SYSTEM.SOLV>
0

>  <SCORE.SYSTEM.norm>
0

>  <SCORE.heavy>
13

>  <SCORE.norm>
-0.83032

>  <RMSD>
4.823

$$$$
ligand
 OpenBabel11021811513D
libRbt.so/2013.1/901 2013/11/27
 13 14  0  0  0  0  0  0  0  0999 V2000
   30.0473   29.5828  107.6468 N   0  0  0  0  0  0  0  0  0  0  0  0
   30.1828   28.2168  107.3081 C   0  0  0  0  0  0  0  0  0  0  0  0
   29.0562   27.5120  106.7510 N   0  0  0  0  0  0  0  0  0  0  0  0
   31.3630   27.5453  107.4992 N   0  0  0  0  0  0  0  0  0  0  0  0
   32.4882   28.1833  108.0373 C   0  0  0  0  0  0  0  0  0  0  0  0
   32.3939   29.5740  108.3964 C   0  0  0  0  0  0  0  0  0  0  0  0
   31.1237   30.2691  108.1837 C   0  0  0  0  0  0  0  0  0  0  0  0
   30.9954   31.5977  108.5148 O   0  0  0  0  0  0  0  0  0  0  0  0
   33.6960   29.9470  108.9207 C   0  0  0  0  0  0  0  0  0  0  0  0
   34.4978   28.8070  108.8515 C   0  0  0  0  0  0  0  0  0  0  0  0
   33.7724   27.7604  108.3277 N   0  0  0  0  0  0  0  0  0  0  0  0
   34.1000   31.3001  109.4244 C   0  0  0  0  0  0  0  0  0  0  0  0
   35.3627   31.6801  108.8182 N   0  0  0  0  0  0  0  0  0  0  0  0
  1  2  1  0  0  0  0
  1  7  1  0  0  0  0
  2  3  1  0  0  0  0
  2  4  2  0  0  0  0
  4  5  1  0  0  0  0
  5  6  2  0  0  0  0
  5 11  1  0  0  0  0
  6  7  1  0  0  0  0
  6  9  1  0  0  0  0
  7  8  2  0  0  0  0
  9 10  2  0  0  0  0
  9 12  1  0  0  0  0
 10 11  1  0  0  0  0
 12 13  1  0  0  0  0
M  END
>  <CHROM.1>
-142.87127326,-131.21581456,-58.38823214,32.20643836,29.41528919,108.19199269
2.59354854,0.24873183,-2.92823744

>  <Name>
ligand

>  <RI>
1.0531e+07

>  <Rbt.Current_Directory>
/home/itssahil/PROJECTS/Mol_Feturizer/New_Systems/rnas/4RZD

>  <Rbt.Executable>
rbdock ($Id: //depot/dev/client3/rdock/2013.1/src/exe/rbdock.cxx#4 $)

>  <Rbt.Library>
libRbt.so (2013.1, Build901 2013/11/27)

>  <Rbt.Parameter_File>
/export/apps/rDock/src/rDock_2013.1_src/data/scripts/dock_solv.prm

>  <Rbt.Receptor>
prm/pocket_docking_8.prm

>  <SCORE>
-18.2603

>  <SCORE.INTER>
-17.0294

>  <SCORE.INTER.CONST>
1

>  <SCORE.INTER.POLAR>
-2.15875

>  <SCORE.INTER.ROT>
3

>  <SCORE.INTER.SOLV>
12.255

>  <SCORE.INTER.VDW>
-13.8421

>  <SCORE.INTER.norm>
-1.30996

>  <SCORE.INTRA>
-1.23082

>  <SCORE.INTRA.DIHEDRAL>
-2.38743

>  <SCORE.INTRA.DIHEDRAL.0>
4.88905

>  <SCORE.INTRA.POLAR>
0

>  <SCORE.INTRA.POLAR.0>
0

>  <SCORE.INTRA.REPUL>
0

>  <SCORE.INTRA.REPUL.0>
0

>  <SCORE.INTRA.SOLV>
-0.702865

>  <SCORE.INTRA.SOLV.lig_0>
-15.1033

>  <SCORE.INTRA.VDW>
0.314323

>  <SCORE.INTRA.VDW.0>
-0.755285

>  <SCORE.INTRA.norm>
-0.0946787

>  <SCORE.RESTR>
0

>  <SCORE.RESTR.CAVITY>
0

>  <SCORE.RESTR.norm>
0

>  <SCORE.SYSTEM>
0

>  <SCORE.SYSTEM.CONST>
0

>  <SCORE.SYSTEM.DIHEDRAL>
0

>  <SCORE.SYSTEM.SOLV>
0

>  <SCORE.SYSTEM.norm>
0

>  <SCORE.heavy>
13

>  <SCORE.norm>
-1.40464

>  <RMSD>
4.828

$$$$
ligand
 OpenBabel11021811513D
libRbt.so/2013.1/901 2013/11/27
 13 14  0  0  0  0  0  0  0  0999 V2000
   29.9127   29.2195  108.0915 N   0  0  0  0  0  0  0  0  0  0  0  0
   30.1207   28.1249  107.2210 C   0  0  0  0  0  0  0  0  0  0  0  0
   28.9872   27.3655  106.7576 N   0  0  0  0  0  0  0  0  0  0  0  0
   31.3785   27.7675  106.8079 N   0  0  0  0  0  0  0  0  0  0  0  0
   32.5139   28.4720  107.2287 C   0  0  0  0  0  0  0  0  0  0  0  0
   32.3474   29.5934  108.1158 C   0  0  0  0  0  0  0  0  0  0  0  0
   30.9954   29.9553  108.5433 C   0  0  0  0  0  0  0  0  0  0  0  0
   30.7970   31.0203  109.3905 O   0  0  0  0  0  0  0  0  0  0  0  0
   33.6808   30.1089  108.3727 C   0  0  0  0  0  0  0  0  0  0  0  0
   34.5663   29.3096  107.6487 C   0  0  0  0  0  0  0  0  0  0  0  0
   33.8660   28.3358  106.9726 N   0  0  0  0  0  0  0  0  0  0  0  0
   34.0316   31.2819  109.2381 C   0  0  0  0  0  0  0  0  0  0  0  0
   35.3500   31.7682  108.8752 N   0  0  0  0  0  0  0  0  0  0  0  0
  1  2  1  0  0  0  0
  1  7  1  0  0  0  0
  2  3  1  0  0  0  0
  2  4  2  0  0  0  0
  4  5  1  0  0  0  0
  5  6  2  0  0  0  0
  5 11  1  0  0  0  0
  6  7  1  0  0  0  0
  6  9  1  0  0  0  0
  7  8  2  0  0  0  0
  9 10  2  0  0  0  0
  9 12  1  0  0  0  0
 10 11  1  0  0  0  0
 12 13  1  0  0  0  0
M  END
>  <CHROM.1>
70.57849088,-159.79041314,-64.82062934,32.16251522,29.42966629,107.95870536
2.55556710,-0.10840919,-2.50659542

>  <Name>
ligand

>  <RI>
4.18181e+07

>  <Rbt.Current_Directory>
/home/itssahil/PROJECTS/Mol_Feturizer/New_Systems/rnas/4RZD

>  <Rbt.Executable>
rbdock ($Id: //depot/dev/client3/rdock/2013.1/src/exe/rbdock.cxx#4 $)

>  <Rbt.Library>
libRbt.so (2013.1, Build901 2013/11/27)

>  <Rbt.Parameter_File>
/export/apps/rDock/src/rDock_2013.1_src/data/scripts/dock_solv.prm

>  <Rbt.Receptor>
prm/pocket_docking_3.prm

>  <SCORE>
-23.3857

>  <SCORE.INTER>
-22.2727

>  <SCORE.INTER.CONST>
1

>  <SCORE.INTER.POLAR>
-2.51526

>  <SCORE.INTER.ROT>
3

>  <SCORE.INTER.SOLV>
12.4534

>  <SCORE.INTER.VDW>
-16.2154

>  <SCORE.INTER.norm>
-1.71328

>  <SCORE.INTRA>
-1.11302

>  <SCORE.INTRA.DIHEDRAL>
-2.34612

>  <SCORE.INTRA.DIHEDRAL.0>
4.88905

>  <SCORE.INTRA.POLAR>
0

>  <SCORE.INTRA.POLAR.0>
0

>  <SCORE.INTRA.REPUL>
0

>  <SCORE.INTRA.REPUL.0>
0

>  <SCORE.INTRA.SOLV>
-0.703668

>  <SCORE.INTRA.SOLV.lig_0>
-15.1033

>  <SCORE.INTRA.VDW>
0.411869

>  <SCORE.INTRA.VDW.0>
-0.755285

>  <SCORE.INTRA.norm>
-0.0856173

>  <SCORE.RESTR>
0

>  <SCORE.RESTR.CAVITY>
0

>  <SCORE.RESTR.norm>
0

>  <SCORE.SYSTEM>
0

>  <SCORE.SYSTEM.CONST>
0

>  <SCORE.SYSTEM.DIHEDRAL>
0

>  <SCORE.SYSTEM.SOLV>
0

>  <SCORE.SYSTEM.norm>
0

>  <SCORE.heavy>
13

>  <SCORE.norm>
-1.7989

>  <RMSD>
4.853

$$$$
ligand
 OpenBabel11021811513D
libRbt.so/2013.1/901 2013/11/27
 13 14  0  0  0  0  0  0  0  0999 V2000
   29.9395   29.2979  108.1006 N   0  0  0  0  0  0  0  0  0  0  0  0
   30.1373   28.1963  107.2365 C   0  0  0  0  0  0  0  0  0  0  0  0
   28.9965   27.4462  106.7757 N   0  0  0  0  0  0  0  0  0  0  0  0
   31.3919   27.8234  106.8275 N   0  0  0  0  0  0  0  0  0  0  0  0
   32.5340   28.5183  107.2461 C   0  0  0  0  0  0  0  0  0  0  0  0
   32.3780   29.6463  108.1266 C   0  0  0  0  0  0  0  0  0  0  0  0
   31.0293   30.0248  108.5499 C   0  0  0  0  0  0  0  0  0  0  0  0
   30.8407   31.0966  109.3908 O   0  0  0  0  0  0  0  0  0  0  0  0
   33.7163   30.1491  108.3827 C   0  0  0  0  0  0  0  0  0  0  0  0
   34.5945   29.3365  107.6646 C   0  0  0  0  0  0  0  0  0  0  0  0
   33.8850   28.3664  106.9928 N   0  0  0  0  0  0  0  0  0  0  0  0
   34.0782   31.3233  109.2420 C   0  0  0  0  0  0  0  0  0  0  0  0
   35.3993   31.7978  108.8739 N   0  0  0  0  0  0  0  0  0  0  0  0
  1  2  1  0  0  0  0
  1  7  1  0  0  0  0
  2  3  1  0  0  0  0
  2  4  2  0  0  0  0
  4  5  1  0  0  0  0
  5  6  2  0  0  0  0
  5 11  1  0  0  0  0
  6  7  1  0  0  0  0
  6  9  1  0  0  0  0
  7  8  2  0  0  0  0
  9 10  2  0  0  0  0
  9 12  1  0  0  0  0
 10 11  1  0  0  0  0
 12 13  1  0  0  0  0
M  END
>  <CHROM.1>
72.78813901,-159.50447864,-64.64690513,32.19138880,29.48400079,107.96969643
2.56300987,-0.10135841,-2.51166606

>  <Name>
ligand

>  <RI>
2.73617e+07

>  <Rbt.Current_Directory>
/home/itssahil/PROJECTS/Mol_Feturizer/New_Systems/rnas/4RZD

>  <Rbt.Executable>
rbdock ($Id: //depot/dev/client3/rdock/2013.1/src/exe/rbdock.cxx#4 $)

>  <Rbt.Library>
libRbt.so (2013.1, Build901 2013/11/27)

>  <Rbt.Parameter_File>
/export/apps/rDock/src/rDock_2013.1_src/data/scripts/dock_solv.prm

>  <Rbt.Receptor>
prm/pocket_docking_6.prm

>  <SCORE>
-23.4021

>  <SCORE.INTER>
-22.2886

>  <SCORE.INTER.CONST>
1

>  <SCORE.INTER.POLAR>
-2.55603

>  <SCORE.INTER.ROT>
3

>  <SCORE.INTER.SOLV>
12.5082

>  <SCORE.INTER.VDW>
-16.1084

>  <SCORE.INTER.norm>
-1.71451

>  <SCORE.INTRA>
-1.11357

>  <SCORE.INTRA.DIHEDRAL>
-2.34854

>  <SCORE.INTRA.DIHEDRAL.0>
4.88905

>  <SCORE.INTRA.POLAR>
0

>  <SCORE.INTRA.POLAR.0>
0

>  <SCORE.INTRA.REPUL>
0

>  <SCORE.INTRA.REPUL.0>
0

>  <SCORE.INTRA.SOLV>
-0.703734

>  <SCORE.INTRA.SOLV.lig_0>
-15.1033

>  <SCORE.INTRA.VDW>
0.412571

>  <SCORE.INTRA.VDW.0>
-0.755285

>  <SCORE.INTRA.norm>
-0.085659

>  <SCORE.RESTR>
0

>  <SCORE.RESTR.CAVITY>
0

>  <SCORE.RESTR.norm>
0

>  <SCORE.SYSTEM>
0

>  <SCORE.SYSTEM.CONST>
0

>  <SCORE.SYSTEM.DIHEDRAL>
0

>  <SCORE.SYSTEM.SOLV>
0

>  <SCORE.SYSTEM.norm>
0

>  <SCORE.heavy>
13

>  <SCORE.norm>
-1.80016

>  <RMSD>
4.853

$$$$
ligand
 OpenBabel11021811513D
libRbt.so/2013.1/901 2013/11/27
 13 14  0  0  0  0  0  0  0  0999 V2000
   29.8997   29.1070  108.0778 N   0  0  0  0  0  0  0  0  0  0  0  0
   30.1283   28.0158  107.2081 C   0  0  0  0  0  0  0  0  0  0  0  0
   29.0092   27.2352  106.7448 N   0  0  0  0  0  0  0  0  0  0  0  0
   31.3927   27.6814  106.7959 N   0  0  0  0  0  0  0  0  0  0  0  0
   32.5146   28.4071  107.2168 C   0  0  0  0  0  0  0  0  0  0  0  0
   32.3271   29.5258  108.1029 C   0  0  0  0  0  0  0  0  0  0  0  0
   30.9685   29.8629  108.5296 C   0  0  0  0  0  0  0  0  0  0  0  0
   30.7500   30.9247  109.3759 O   0  0  0  0  0  0  0  0  0  0  0  0
   33.6506   30.0660  108.3601 C   0  0  0  0  0  0  0  0  0  0  0  0
   34.5511   29.2827  107.6371 C   0  0  0  0  0  0  0  0  0  0  0  0
   33.8692   28.2956  106.9613 N   0  0  0  0  0  0  0  0  0  0  0  0
   33.9793   31.2459  109.2248 C   0  0  0  0  0  0  0  0  0  0  0  0
   35.2987   31.7413  108.8786 N   0  0  0  0  0  0  0  0  0  0  0  0
  1  2  1  0  0  0  0
  1  7  1  0  0  0  0
  2  3  1  0  0  0  0
  2  4  2  0  0  0  0
  4  5  1  0  0  0  0
  5  6  2  0  0  0  0
  5 11  1  0  0  0  0
  6  7  1  0  0  0  0
  6  9  1  0  0  0  0
  7  8  2  0  0  0  0
  9 10  2  0  0  0  0
  9 12  1  0  0  0  0
 10 11  1  0  0  0  0
 12 13  1  0  0  0  0
M  END
>  <CHROM.1>
-110.87938930,-160.81158657,-62.83346919,32.14623109,29.35705978,107.94733033
2.54123756,-0.11766782,-2.50768237

>  <Name>
ligand

>  <RI>
1.38753e+07

>  <Rbt.Current_Directory>
/home/itssahil/PROJECTS/Mol_Feturizer/New_Systems/rnas/4RZD

>  <Rbt.Executable>
rbdock ($Id: //depot/dev/client3/rdock/2013.1/src/exe/rbdock.cxx#4 $)

>  <Rbt.Library>
libRbt.so (2013.1, Build901 2013/11/27)

>  <Rbt.Parameter_File>
/export/apps/rDock/src/rDock_2013.1_src/data/scripts/dock_solv.prm

>  <Rbt.Receptor>
prm/pocket_docking_7.prm

>  <SCORE>
-23.419

>  <SCORE.INTER>
-22.311

>  <SCORE.INTER.CONST>
1

>  <SCORE.INTER.POLAR>
-2.44953

>  <SCORE.INTER.ROT>
3

>  <SCORE.INTER.SOLV>
12.2868

>  <SCORE.INTER.VDW>
-16.4045

>  <SCORE.INTER.norm>
-1.71623

>  <SCORE.INTRA>
-1.10799

>  <SCORE.INTRA.DIHEDRAL>
-2.37142

>  <SCORE.INTRA.DIHEDRAL.0>
4.88905

>  <SCORE.INTRA.POLAR>
0

>  <SCORE.INTRA.POLAR.0>
0

>  <SCORE.INTRA.REPUL>
0

>  <SCORE.INTRA.REPUL.0>
0

>  <SCORE.INTRA.SOLV>
-0.703081

>  <SCORE.INTRA.SOLV.lig_0>
-15.1033

>  <SCORE.INTRA.VDW>
0.429263

>  <SCORE.INTRA.VDW.0>
-0.755285

>  <SCORE.INTRA.norm>
-0.08523

>  <SCORE.RESTR>
0

>  <SCORE.RESTR.CAVITY>
0

>  <SCORE.RESTR.norm>
0

>  <SCORE.SYSTEM>
0

>  <SCORE.SYSTEM.CONST>
0

>  <SCORE.SYSTEM.DIHEDRAL>
0

>  <SCORE.SYSTEM.SOLV>
0

>  <SCORE.SYSTEM.norm>
0

>  <SCORE.heavy>
13

>  <SCORE.norm>
-1.80146

>  <RMSD>
4.855

$$$$
ligand
 OpenBabel11021811513D
libRbt.so/2013.1/901 2013/11/27
 13 14  0  0  0  0  0  0  0  0999 V2000
   30.3631   29.9001  108.1240 N   0  0  0  0  0  0  0  0  0  0  0  0
   30.4418   28.7544  107.2991 C   0  0  0  0  0  0  0  0  0  0  0  0
   29.2275   28.1430  106.8216 N   0  0  0  0  0  0  0  0  0  0  0  0
   31.6489   28.2097  106.9435 N   0  0  0  0  0  0  0  0  0  0  0  0
   32.8586   28.7649  107.3804 C   0  0  0  0  0  0  0  0  0  0  0  0
   32.8243   29.9319  108.2224 C   0  0  0  0  0  0  0  0  0  0  0  0
   31.5242   30.4947  108.5890 C   0  0  0  0  0  0  0  0  0  0  0  0
   31.4515   31.6088  109.3919 O   0  0  0  0  0  0  0  0  0  0  0  0
   34.2084   30.2662  108.5091 C   0  0  0  0  0  0  0  0  0  0  0  0
   34.9946   29.3241  107.8446 C   0  0  0  0  0  0  0  0  0  0  0  0
   34.1854   28.4319  107.1773 N   0  0  0  0  0  0  0  0  0  0  0  0
   34.6939   31.4114  109.3462 C   0  0  0  0  0  0  0  0  0  0  0  0
   35.6613   32.1831  108.5880 N   0  0  0  0  0  0  0  0  0  0  0  0
  1  2  1  0  0  0  0
  1  7  1  0  0  0  0
  2  3  1  0  0  0  0
  2  4  2  0  0  0  0
  4  5  1  0  0  0  0
  5  6  2  0  0  0  0
  5 11  1  0  0  0  0
  6  7  1  0  0  0  0
  6  9  1  0  0  0  0
  7  8  2  0  0  0  0
  9 10  2  0  0  0  0
  9 12  1  0  0  0  0
 10 11  1  0  0  0  0
 12 13  1  0  0  0  0
M  END
>  <CHROM.1>
76.81029137,-127.12574426,-77.50146402,32.58627228,29.83548059,108.02441388
2.61431167,-0.03011192,-2.57716684

>  <Name>
ligand

>  <RI>
1.0531e+07

>  <Rbt.Current_Directory>
/home/itssahil/PROJECTS/Mol_Feturizer/New_Systems/rnas/4RZD

>  <Rbt.Executable>
rbdock ($Id: //depot/dev/client3/rdock/2013.1/src/exe/rbdock.cxx#4 $)

>  <Rbt.Library>
libRbt.so (2013.1, Build901 2013/11/27)

>  <Rbt.Parameter_File>
/export/apps/rDock/src/rDock_2013.1_src/data/scripts/dock_solv.prm

>  <Rbt.Receptor>
prm/pocket_docking_8.prm

>  <SCORE>
-13.7089

>  <SCORE.INTER>
-12.5861

>  <SCORE.INTER.CONST>
1

>  <SCORE.INTER.POLAR>
-3.05806

>  <SCORE.INTER.ROT>
3

>  <SCORE.INTER.SOLV>
12.6758

>  <SCORE.INTER.VDW>
-8.0225

>  <SCORE.INTER.norm>
-0.968164

>  <SCORE.INTRA>
-1.12276

>  <SCORE.INTRA.DIHEDRAL>
-1.93101

>  <SCORE.INTRA.DIHEDRAL.0>
4.88905

>  <SCORE.INTRA.POLAR>
0

>  <SCORE.INTRA.POLAR.0>
0

>  <SCORE.INTRA.REPUL>
0

>  <SCORE.INTRA.REPUL.0>
0

>  <SCORE.INTRA.SOLV>
-0.71015

>  <SCORE.INTRA.SOLV.lig_0>
-15.1033

>  <SCORE.INTRA.VDW>
0.197817

>  <SCORE.INTRA.VDW.0>
-0.755285

>  <SCORE.INTRA.norm>
-0.0863663

>  <SCORE.RESTR>
0

>  <SCORE.RESTR.CAVITY>
0

>  <SCORE.RESTR.norm>
0

>  <SCORE.SYSTEM>
0

>  <SCORE.SYSTEM.CONST>
0

>  <SCORE.SYSTEM.DIHEDRAL>
0

>  <SCORE.SYSTEM.SOLV>
0

>  <SCORE.SYSTEM.norm>
0

>  <SCORE.heavy>
13

>  <SCORE.norm>
-1.05453

>  <RMSD>
4.859

$$$$
ligand
 OpenBabel11021811513D
libRbt.so/2013.1/901 2013/11/27
 13 14  0  0  0  0  0  0  0  0999 V2000
   30.3453   29.8779  108.1321 N   0  0  0  0  0  0  0  0  0  0  0  0
   30.4316   28.7292  107.3122 C   0  0  0  0  0  0  0  0  0  0  0  0
   29.2214   28.1085  106.8363 N   0  0  0  0  0  0  0  0  0  0  0  0
   31.6422   28.1901  106.9600 N   0  0  0  0  0  0  0  0  0  0  0  0
   32.8482   28.7544  107.3956 C   0  0  0  0  0  0  0  0  0  0  0  0
   32.8062   29.9247  108.2325 C   0  0  0  0  0  0  0  0  0  0  0  0
   31.5024   30.4814  108.5955 C   0  0  0  0  0  0  0  0  0  0  0  0
   31.4224   31.5985  109.3936 O   0  0  0  0  0  0  0  0  0  0  0  0
   34.1881   30.2684  108.5190 C   0  0  0  0  0  0  0  0  0  0  0  0
   34.9804   29.3282  107.8593 C   0  0  0  0  0  0  0  0  0  0  0  0
   34.1771   28.4284  107.1951 N   0  0  0  0  0  0  0  0  0  0  0  0
   34.6660   31.4201  109.3516 C   0  0  0  0  0  0  0  0  0  0  0  0
   35.6637   32.1675  108.6084 N   0  0  0  0  0  0  0  0  0  0  0  0
  1  2  1  0  0  0  0
  1  7  1  0  0  0  0
  2  3  1  0  0  0  0
  2  4  2  0  0  0  0
  4  5  1  0  0  0  0
  5  6  2  0  0  0  0
  5 11  1  0  0  0  0
  6  7  1  0  0  0  0
  6  9  1  0  0  0  0
  7  8  2  0  0  0  0
  9 10  2  0  0  0  0
  9 12  1  0  0  0  0
 10 11  1  0  0  0  0
 12 13  1  0  0  0  0
M  END
>  <CHROM.1>
-106.97349920,-129.08615822,-80.29558918,32.57187228,29.82381162,108.03643460
2.61149786,-0.03136431,-2.57956642

>  <Name>
ligand

>  <RI>
1.38753e+07

>  <Rbt.Current_Directory>
/home/itssahil/PROJECTS/Mol_Feturizer/New_Systems/rnas/4RZD

>  <Rbt.Executable>
rbdock ($Id: //depot/dev/client3/rdock/2013.1/src/exe/rbdock.cxx#4 $)

>  <Rbt.Library>
libRbt.so (2013.1, Build901 2013/11/27)

>  <Rbt.Parameter_File>
/export/apps/rDock/src/rDock_2013.1_src/data/scripts/dock_solv.prm

>  <Rbt.Receptor>
prm/pocket_docking_7.prm

>  <SCORE>
-13.628

>  <SCORE.INTER>
-12.5817

>  <SCORE.INTER.CONST>
1

>  <SCORE.INTER.POLAR>
-2.98829

>  <SCORE.INTER.ROT>
3

>  <SCORE.INTER.SOLV>
12.6153

>  <SCORE.INTER.VDW>
-8.23191

>  <SCORE.INTER.norm>
-0.96782

>  <SCORE.INTRA>
-1.04636

>  <SCORE.INTRA.DIHEDRAL>
-1.78193

>  <SCORE.INTRA.DIHEDRAL.0>
4.88905

>  <SCORE.INTRA.POLAR>
0

>  <SCORE.INTRA.POLAR.0>
0

>  <SCORE.INTRA.REPUL>
0

>  <SCORE.INTRA.REPUL.0>
0

>  <SCORE.INTRA.SOLV>
-0.710169

>  <SCORE.INTRA.SOLV.lig_0>
-15.1033

>  <SCORE.INTRA.VDW>
0.199695

>  <SCORE.INTRA.VDW.0>
-0.755285

>  <SCORE.INTRA.norm>
-0.0804889

>  <SCORE.RESTR>
0

>  <SCORE.RESTR.CAVITY>
0

>  <SCORE.RESTR.norm>
0

>  <SCORE.SYSTEM>
0

>  <SCORE.SYSTEM.CONST>
0

>  <SCORE.SYSTEM.DIHEDRAL>
0

>  <SCORE.SYSTEM.SOLV>
0

>  <SCORE.SYSTEM.norm>
0

>  <SCORE.heavy>
13

>  <SCORE.norm>
-1.04831

>  <RMSD>
4.860

$$$$
ligand
 OpenBabel11021811513D
libRbt.so/2013.1/901 2013/11/27
 13 14  0  0  0  0  0  0  0  0999 V2000
   29.8455   29.0882  107.8032 N   0  0  0  0  0  0  0  0  0  0  0  0
   30.1088   27.8686  107.1380 C   0  0  0  0  0  0  0  0  0  0  0  0
   29.0078   27.0255  106.7465 N   0  0  0  0  0  0  0  0  0  0  0  0
   31.3899   27.4678  106.8577 N   0  0  0  0  0  0  0  0  0  0  0  0
   32.4955   28.2498  107.2164 C   0  0  0  0  0  0  0  0  0  0  0  0
   32.2727   29.4992  107.8957 C   0  0  0  0  0  0  0  0  0  0  0  0
   30.8967   29.9053  108.1845 C   0  0  0  0  0  0  0  0  0  0  0  0
   30.6445   31.0920  108.8320 O   0  0  0  0  0  0  0  0  0  0  0  0
   33.5863   30.0709  108.1349 C   0  0  0  0  0  0  0  0  0  0  0  0
   34.5159   29.1773  107.6015 C   0  0  0  0  0  0  0  0  0  0  0  0
   33.8606   28.0945  107.0591 N   0  0  0  0  0  0  0  0  0  0  0  0
   33.8808   31.3758  108.8120 C   0  0  0  0  0  0  0  0  0  0  0  0
   35.1353   31.2691  109.5337 N   0  0  0  0  0  0  0  0  0  0  0  0
  1  2  1  0  0  0  0
  1  7  1  0  0  0  0
  2  3  1  0  0  0  0
  2  4  2  0  0  0  0
  4  5  1  0  0  0  0
  5  6  2  0  0  0  0
  5 11  1  0  0  0  0
  6  7  1  0  0  0  0
  6  9  1  0  0  0  0
  7  8  2  0  0  0  0
  9 10  2  0  0  0  0
  9 12  1  0  0  0  0
 10 11  1  0  0  0  0
 12 13  1  0  0  0  0
M  END
>  <CHROM.1>
62.50835948,147.26815342,177.52840210,32.09131212,29.26158605,107.85109480
2.51011249,-0.01063453,-2.61234864

>  <Name>
ligand

>  <RI>
2.73617e+07

>  <Rbt.Current_Directory>
/home/itssahil/PROJECTS/Mol_Feturizer/New_Systems/rnas/4RZD

>  <Rbt.Executable>
rbdock ($Id: //depot/dev/client3/rdock/2013.1/src/exe/rbdock.cxx#4 $)

>  <Rbt.Library>
libRbt.so (2013.1, Build901 2013/11/27)

>  <Rbt.Parameter_File>
/export/apps/rDock/src/rDock_2013.1_src/data/scripts/dock_solv.prm

>  <Rbt.Receptor>
prm/pocket_docking_6.prm

>  <SCORE>
-21.0228

>  <SCORE.INTER>
-19.846

>  <SCORE.INTER.CONST>
1

>  <SCORE.INTER.POLAR>
-1.93929

>  <SCORE.INTER.ROT>
3

>  <SCORE.INTER.SOLV>
11.9812

>  <SCORE.INTER.VDW>
-16.3601

>  <SCORE.INTER.norm>
-1.52661

>  <SCORE.INTRA>
-1.17685

>  <SCORE.INTRA.DIHEDRAL>
-2.42903

>  <SCORE.INTRA.DIHEDRAL.0>
4.88905

>  <SCORE.INTRA.POLAR>
0

>  <SCORE.INTRA.POLAR.0>
0

>  <SCORE.INTRA.REPUL>
0

>  <SCORE.INTRA.REPUL.0>
0

>  <SCORE.INTRA.SOLV>
-0.703936

>  <SCORE.INTRA.SOLV.lig_0>
-15.1033

>  <SCORE.INTRA.VDW>
0.38963

>  <SCORE.INTRA.VDW.0>
-0.755285

>  <SCORE.INTRA.norm>
-0.0905271

>  <SCORE.RESTR>
0

>  <SCORE.RESTR.CAVITY>
0

>  <SCORE.RESTR.norm>
0

>  <SCORE.SYSTEM>
0

>  <SCORE.SYSTEM.CONST>
0

>  <SCORE.SYSTEM.DIHEDRAL>
0

>  <SCORE.SYSTEM.SOLV>
0

>  <SCORE.SYSTEM.norm>
0

>  <SCORE.heavy>
13

>  <SCORE.norm>
-1.61714

>  <RMSD>
4.878

$$$$
ligand
 OpenBabel11021811513D
libRbt.so/2013.1/901 2013/11/27
 13 14  0  0  0  0  0  0  0  0999 V2000
   29.8620   28.8379  107.8710 N   0  0  0  0  0  0  0  0  0  0  0  0
   30.0998   27.6958  107.0721 C   0  0  0  0  0  0  0  0  0  0  0  0
   28.9856   26.8878  106.6454 N   0  0  0  0  0  0  0  0  0  0  0  0
   31.3684   27.3376  106.6944 N   0  0  0  0  0  0  0  0  0  0  0  0
   32.4859   28.0883  107.0820 C   0  0  0  0  0  0  0  0  0  0  0  0
   32.2891   29.2589  107.8962 C   0  0  0  0  0  0  0  0  0  0  0  0
   30.9260   29.6207  108.2871 C   0  0  0  0  0  0  0  0  0  0  0  0
   30.6986   30.7320  109.0646 O   0  0  0  0  0  0  0  0  0  0  0  0
   33.6098   29.8146  108.1340 C   0  0  0  0  0  0  0  0  0  0  0  0
   34.5178   28.9892  107.4697 C   0  0  0  0  0  0  0  0  0  0  0  0
   33.8431   27.9623  106.8482 N   0  0  0  0  0  0  0  0  0  0  0  0
   33.9293   31.0453  108.9285 C   0  0  0  0  0  0  0  0  0  0  0  0
   35.2944   31.4534  108.6521 N   0  0  0  0  0  0  0  0  0  0  0  0
  1  2  1  0  0  0  0
  1  7  1  0  0  0  0
  2  3  1  0  0  0  0
  2  4  2  0  0  0  0
  4  5  1  0  0  0  0
  5  6  2  0  0  0  0
  5 11  1  0  0  0  0
  6  7  1  0  0  0  0
  6  9  1  0  0  0  0
  7  8  2  0  0  0  0
  9 10  2  0  0  0  0
  9 12  1  0  0  0  0
 10 11  1  0  0  0  0
 12 13  1  0  0  0  0
M  END
>  <CHROM.1>
-139.24780571,-165.65829534,60.43629036,32.11280253,29.07139874,107.74948206
2.54581195,-0.10639327,-2.56506855

>  <Name>
ligand

>  <RI>
1.35221e+07

>  <Rbt.Current_Directory>
/home/itssahil/PROJECTS/Mol_Feturizer/New_Systems/rnas/4RZD

>  <Rbt.Executable>
rbdock ($Id: //depot/dev/client3/rdock/2013.1/src/exe/rbdock.cxx#4 $)

>  <Rbt.Library>
libRbt.so (2013.1, Build901 2013/11/27)

>  <Rbt.Parameter_File>
/export/apps/rDock/src/rDock_2013.1_src/data/scripts/dock_solv.prm

>  <Rbt.Receptor>
prm/pocket_docking_5.prm

>  <SCORE>
-19.7823

>  <SCORE.INTER>
-18.7311

>  <SCORE.INTER.CONST>
1

>  <SCORE.INTER.POLAR>
-1.76229

>  <SCORE.INTER.ROT>
3

>  <SCORE.INTER.SOLV>
11.83

>  <SCORE.INTER.VDW>
-16.1564

>  <SCORE.INTER.norm>
-1.44085

>  <SCORE.INTRA>
-1.05116

>  <SCORE.INTRA.DIHEDRAL>
-2.38861

>  <SCORE.INTRA.DIHEDRAL.0>
4.88905

>  <SCORE.INTRA.POLAR>
0

>  <SCORE.INTRA.POLAR.0>
0

>  <SCORE.INTRA.REPUL>
0

>  <SCORE.INTRA.REPUL.0>
0

>  <SCORE.INTRA.SOLV>
-0.6858

>  <SCORE.INTRA.SOLV.lig_0>
-15.1033

>  <SCORE.INTRA.VDW>
0.486047

>  <SCORE.INTRA.VDW.0>
-0.755285

>  <SCORE.INTRA.norm>
-0.0808582

>  <SCORE.RESTR>
0

>  <SCORE.RESTR.CAVITY>
0

>  <SCORE.RESTR.norm>
0

>  <SCORE.SYSTEM>
0

>  <SCORE.SYSTEM.CONST>
0

>  <SCORE.SYSTEM.DIHEDRAL>
0

>  <SCORE.SYSTEM.SOLV>
0

>  <SCORE.SYSTEM.norm>
0

>  <SCORE.heavy>
13

>  <SCORE.norm>
-1.52171

>  <RMSD>
4.883

$$$$
ligand
 OpenBabel11021811513D
libRbt.so/2013.1/901 2013/11/27
 13 14  0  0  0  0  0  0  0  0999 V2000
   30.3903   29.8307  108.0685 N   0  0  0  0  0  0  0  0  0  0  0  0
   30.4721   28.5992  107.3786 C   0  0  0  0  0  0  0  0  0  0  0  0
   29.2593   27.9306  106.9807 N   0  0  0  0  0  0  0  0  0  0  0  0
   31.6808   28.0245  107.0802 N   0  0  0  0  0  0  0  0  0  0  0  0
   32.8892   28.6327  107.4442 C   0  0  0  0  0  0  0  0  0  0  0  0
   32.8518   29.8875  108.1484 C   0  0  0  0  0  0  0  0  0  0  0  0
   31.5500   30.4810  108.4562 C   0  0  0  0  0  0  0  0  0  0  0  0
   31.4743   31.6786  109.1278 O   0  0  0  0  0  0  0  0  0  0  0  0
   34.2352   30.2601  108.3873 C   0  0  0  0  0  0  0  0  0  0  0  0
   35.0239   29.2531  107.8296 C   0  0  0  0  0  0  0  0  0  0  0  0
   34.2170   28.2863  107.2726 N   0  0  0  0  0  0  0  0  0  0  0  0
   34.7177   31.4958  109.0861 C   0  0  0  0  0  0  0  0  0  0  0  0
   35.8716   31.1655  109.9020 N   0  0  0  0  0  0  0  0  0  0  0  0
  1  2  1  0  0  0  0
  1  7  1  0  0  0  0
  2  3  1  0  0  0  0
  2  4  2  0  0  0  0
  4  5  1  0  0  0  0
  5  6  2  0  0  0  0
  5 11  1  0  0  0  0
  6  7  1  0  0  0  0
  6  9  1  0  0  0  0
  7  8  2  0  0  0  0
  9 10  2  0  0  0  0
  9 12  1  0  0  0  0
 10 11  1  0  0  0  0
 12 13  1  0  0  0  0
M  END
>  <CHROM.1>
-106.24415224,141.62585308,-174.32487271,32.63110311,29.67678788,108.11132467
2.63017918,0.06228059,-2.58824737

>  <Name>
ligand

>  <RI>
1.0531e+07

>  <Rbt.Current_Directory>
/home/itssahil/PROJECTS/Mol_Feturizer/New_Systems/rnas/4RZD

>  <Rbt.Executable>
rbdock ($Id: //depot/dev/client3/rdock/2013.1/src/exe/rbdock.cxx#4 $)

>  <Rbt.Library>
libRbt.so (2013.1, Build901 2013/11/27)

>  <Rbt.Parameter_File>
/export/apps/rDock/src/rDock_2013.1_src/data/scripts/dock_solv.prm

>  <Rbt.Receptor>
prm/pocket_docking_8.prm

>  <SCORE>
-11.4174

>  <SCORE.INTER>
-10.1755

>  <SCORE.INTER.CONST>
1

>  <SCORE.INTER.POLAR>
-2.74452

>  <SCORE.INTER.ROT>
3

>  <SCORE.INTER.SOLV>
12.8813

>  <SCORE.INTER.VDW>
-7.529

>  <SCORE.INTER.norm>
-0.782728

>  <SCORE.INTRA>
-1.24193

>  <SCORE.INTRA.DIHEDRAL>
-2.38224

>  <SCORE.INTRA.DIHEDRAL.0>
4.88905

>  <SCORE.INTRA.POLAR>
0

>  <SCORE.INTRA.POLAR.0>
0

>  <SCORE.INTRA.REPUL>
0

>  <SCORE.INTRA.REPUL.0>
0

>  <SCORE.INTRA.SOLV>
-0.70682

>  <SCORE.INTRA.SOLV.lig_0>
-15.1033

>  <SCORE.INTRA.VDW>
0.302596

>  <SCORE.INTRA.VDW.0>
-0.755285

>  <SCORE.INTRA.norm>
-0.0955332

>  <SCORE.RESTR>
0

>  <SCORE.RESTR.CAVITY>
0

>  <SCORE.RESTR.norm>
0

>  <SCORE.SYSTEM>
0

>  <SCORE.SYSTEM.CONST>
0

>  <SCORE.SYSTEM.DIHEDRAL>
0

>  <SCORE.SYSTEM.SOLV>
0

>  <SCORE.SYSTEM.norm>
0

>  <SCORE.heavy>
13

>  <SCORE.norm>
-0.878261

>  <RMSD>
4.884

$$$$
ligand
 OpenBabel11021811513D
libRbt.so/2013.1/901 2013/11/27
 13 14  0  0  0  0  0  0  0  0999 V2000
   29.8387   28.9560  107.7448 N   0  0  0  0  0  0  0  0  0  0  0  0
   30.1369   27.7481  107.0731 C   0  0  0  0  0  0  0  0  0  0  0  0
   29.0599   26.8818  106.6658 N   0  0  0  0  0  0  0  0  0  0  0  0
   31.4296   27.3804  106.8010 N   0  0  0  0  0  0  0  0  0  0  0  0
   32.5130   28.1860  107.1751 C   0  0  0  0  0  0  0  0  0  0  0  0
   32.2543   29.4246  107.8615 C   0  0  0  0  0  0  0  0  0  0  0  0
   30.8665   29.7952  108.1413 C   0  0  0  0  0  0  0  0  0  0  0  0
   30.5802   30.9706  108.7953 O   0  0  0  0  0  0  0  0  0  0  0  0
   33.5517   30.0258  108.1164 C   0  0  0  0  0  0  0  0  0  0  0  0
   34.5070   29.1589  107.5846 C   0  0  0  0  0  0  0  0  0  0  0  0
   33.8828   28.0648  107.0286 N   0  0  0  0  0  0  0  0  0  0  0  0
   33.8088   31.3323  108.8056 C   0  0  0  0  0  0  0  0  0  0  0  0
   35.0695   31.2572  109.5206 N   0  0  0  0  0  0  0  0  0  0  0  0
  1  2  1  0  0  0  0
  1  7  1  0  0  0  0
  2  3  1  0  0  0  0
  2  4  2  0  0  0  0
  4  5  1  0  0  0  0
  5  6  2  0  0  0  0
  5 11  1  0  0  0  0
  6  7  1  0  0  0  0
  6  9  1  0  0  0  0
  7  8  2  0  0  0  0
  9 10  2  0  0  0  0
  9 12  1  0  0  0  0
 10 11  1  0  0  0  0
 12 13  1  0  0  0  0
M  END
>  <CHROM.1>
34.59785833,148.13508313,173.69014651,32.08010899,29.18339840,107.81185484
2.48620024,-0.01592003,-2.60686356

>  <Name>
ligand

>  <RI>
1.0531e+07

>  <Rbt.Current_Directory>
/home/itssahil/PROJECTS/Mol_Feturizer/New_Systems/rnas/4RZD

>  <Rbt.Executable>
rbdock ($Id: //depot/dev/client3/rdock/2013.1/src/exe/rbdock.cxx#4 $)

>  <Rbt.Library>
libRbt.so (2013.1, Build901 2013/11/27)

>  <Rbt.Parameter_File>
/export/apps/rDock/src/rDock_2013.1_src/data/scripts/dock_solv.prm

>  <Rbt.Receptor>
prm/pocket_docking_8.prm

>  <SCORE>
-21.5669

>  <SCORE.INTER>
-20.4771

>  <SCORE.INTER.CONST>
1

>  <SCORE.INTER.POLAR>
-2.02299

>  <SCORE.INTER.ROT>
3

>  <SCORE.INTER.SOLV>
11.7136

>  <SCORE.INTER.VDW>
-16.4126

>  <SCORE.INTER.norm>
-1.57516

>  <SCORE.INTRA>
-1.08984

>  <SCORE.INTRA.DIHEDRAL>
-2.37507

>  <SCORE.INTRA.DIHEDRAL.0>
4.88905

>  <SCORE.INTRA.POLAR>
0

>  <SCORE.INTRA.POLAR.0>
0

>  <SCORE.INTRA.REPUL>
0

>  <SCORE.INTRA.REPUL.0>
0

>  <SCORE.INTRA.SOLV>
-0.700014

>  <SCORE.INTRA.SOLV.lig_0>
-15.1033

>  <SCORE.INTRA.VDW>
0.447708

>  <SCORE.INTRA.VDW.0>
-0.755285

>  <SCORE.INTRA.norm>
-0.0838335

>  <SCORE.RESTR>
0

>  <SCORE.RESTR.CAVITY>
0

>  <SCORE.RESTR.norm>
0

>  <SCORE.SYSTEM>
0

>  <SCORE.SYSTEM.CONST>
0

>  <SCORE.SYSTEM.DIHEDRAL>
0

>  <SCORE.SYSTEM.SOLV>
0

>  <SCORE.SYSTEM.norm>
0

>  <SCORE.heavy>
13

>  <SCORE.norm>
-1.65899

>  <RMSD>
4.884

$$$$
ligand
 OpenBabel11021811513D
libRbt.so/2013.1/901 2013/11/27
 13 14  0  0  0  0  0  0  0  0999 V2000
   30.4001   29.8145  108.1188 N   0  0  0  0  0  0  0  0  0  0  0  0
   30.4870   28.5989  107.4018 C   0  0  0  0  0  0  0  0  0  0  0  0
   29.2769   27.9280  106.9996 N   0  0  0  0  0  0  0  0  0  0  0  0
   31.6982   28.0417  107.0812 N   0  0  0  0  0  0  0  0  0  0  0  0
   32.9042   28.6529  107.4483 C   0  0  0  0  0  0  0  0  0  0  0  0
   32.8616   29.8920  108.1796 C   0  0  0  0  0  0  0  0  0  0  0  0
   31.5571   30.4668  108.5108 C   0  0  0  0  0  0  0  0  0  0  0  0
   31.4765   31.6490  109.2087 O   0  0  0  0  0  0  0  0  0  0  0  0
   34.2435   30.2719  108.4151 C   0  0  0  0  0  0  0  0  0  0  0  0
   35.0364   29.2843  107.8294 C   0  0  0  0  0  0  0  0  0  0  0  0
   34.2335   28.3224  107.2584 N   0  0  0  0  0  0  0  0  0  0  0  0
   34.7209   31.4966  109.1363 C   0  0  0  0  0  0  0  0  0  0  0  0
   35.9018   31.1661  109.9125 N   0  0  0  0  0  0  0  0  0  0  0  0
  1  2  1  0  0  0  0
  1  7  1  0  0  0  0
  2  3  1  0  0  0  0
  2  4  2  0  0  0  0
  4  5  1  0  0  0  0
  5  6  2  0  0  0  0
  5 11  1  0  0  0  0
  6  7  1  0  0  0  0
  6  9  1  0  0  0  0
  7  8  2  0  0  0  0
  9 10  2  0  0  0  0
  9 12  1  0  0  0  0
 10 11  1  0  0  0  0
 12 13  1  0  0  0  0
M  END
>  <CHROM.1>
77.07810394,142.85861717,-174.75909840,32.64398216,29.68066409,108.13772249
2.62849514,0.04916824,-2.56792791

>  <Name>
ligand

>  <RI>
2.73617e+07

>  <Rbt.Current_Directory>
/home/itssahil/PROJECTS/Mol_Feturizer/New_Systems/rnas/4RZD

>  <Rbt.Executable>
rbdock ($Id: //depot/dev/client3/rdock/2013.1/src/exe/rbdock.cxx#4 $)

>  <Rbt.Library>
libRbt.so (2013.1, Build901 2013/11/27)

>  <Rbt.Parameter_File>
/export/apps/rDock/src/rDock_2013.1_src/data/scripts/dock_solv.prm

>  <Rbt.Receptor>
prm/pocket_docking_6.prm

>  <SCORE>
-11.3913

>  <SCORE.INTER>
-10.1541

>  <SCORE.INTER.CONST>
1

>  <SCORE.INTER.POLAR>
-2.76294

>  <SCORE.INTER.ROT>
3

>  <SCORE.INTER.SOLV>
12.8535

>  <SCORE.INTER.VDW>
-7.44409

>  <SCORE.INTER.norm>
-0.781084

>  <SCORE.INTRA>
-1.23724

>  <SCORE.INTRA.DIHEDRAL>
-2.39081

>  <SCORE.INTRA.DIHEDRAL.0>
4.88905

>  <SCORE.INTRA.POLAR>
0

>  <SCORE.INTRA.POLAR.0>
0

>  <SCORE.INTRA.REPUL>
0

>  <SCORE.INTRA.REPUL.0>
0

>  <SCORE.INTRA.SOLV>
-0.706695

>  <SCORE.INTRA.SOLV.lig_0>
-15.1033

>  <SCORE.INTRA.VDW>
0.311508

>  <SCORE.INTRA.VDW.0>
-0.755285

>  <SCORE.INTRA.norm>
-0.0951725

>  <SCORE.RESTR>
0

>  <SCORE.RESTR.CAVITY>
0

>  <SCORE.RESTR.norm>
0

>  <SCORE.SYSTEM>
0

>  <SCORE.SYSTEM.CONST>
0

>  <SCORE.SYSTEM.DIHEDRAL>
0

>  <SCORE.SYSTEM.SOLV>
0

>  <SCORE.SYSTEM.norm>
0

>  <SCORE.heavy>
13

>  <SCORE.norm>
-0.876256

>  <RMSD>
4.885

$$$$
ligand
 OpenBabel11021811513D
libRbt.so/2013.1/901 2013/11/27
 13 14  0  0  0  0  0  0  0  0999 V2000
   29.7846   28.7363  107.3939 N   0  0  0  0  0  0  0  0  0  0  0  0
   30.1878   27.5359  106.7647 C   0  0  0  0  0  0  0  0  0  0  0  0
   29.1857   26.6302  106.2631 N   0  0  0  0  0  0  0  0  0  0  0  0
   31.5126   27.2124  106.6219 N   0  0  0  0  0  0  0  0  0  0  0  0
   32.5263   28.0575  107.0917 C   0  0  0  0  0  0  0  0  0  0  0  0
   32.1600   29.2899  107.7390 C   0  0  0  0  0  0  0  0  0  0  0  0
   30.7398   29.6132  107.8803 C   0  0  0  0  0  0  0  0  0  0  0  0
   30.3513   30.7813  108.4933 O   0  0  0  0  0  0  0  0  0  0  0  0
   33.4052   29.9377  108.1126 C   0  0  0  0  0  0  0  0  0  0  0  0
   34.4368   29.1019  107.6830 C   0  0  0  0  0  0  0  0  0  0  0  0
   33.9072   27.9836  107.0791 N   0  0  0  0  0  0  0  0  0  0  0  0
   33.5494   31.2561  108.8118 C   0  0  0  0  0  0  0  0  0  0  0  0
   34.9583   31.5419  109.0106 N   0  0  0  0  0  0  0  0  0  0  0  0
  1  2  1  0  0  0  0
  1  7  1  0  0  0  0
  2  3  1  0  0  0  0
  2  4  2  0  0  0  0
  4  5  1  0  0  0  0
  5  6  2  0  0  0  0
  5 11  1  0  0  0  0
  6  7  1  0  0  0  0
  6  9  1  0  0  0  0
  7  8  2  0  0  0  0
  9 10  2  0  0  0  0
  9 12  1  0  0  0  0
 10 11  1  0  0  0  0
 12 13  1  0  0  0  0
M  END
>  <CHROM.1>
1.29462024,179.55816946,-176.10147886,32.01771759,29.07223450,107.61669588
2.42231002,0.01604258,-2.65373940

>  <Name>
ligand

>  <RI>
1.35221e+07

>  <Rbt.Current_Directory>
/home/itssahil/PROJECTS/Mol_Feturizer/New_Systems/rnas/4RZD

>  <Rbt.Executable>
rbdock ($Id: //depot/dev/client3/rdock/2013.1/src/exe/rbdock.cxx#4 $)

>  <Rbt.Library>
libRbt.so (2013.1, Build901 2013/11/27)

>  <Rbt.Parameter_File>
/export/apps/rDock/src/rDock_2013.1_src/data/scripts/dock_solv.prm

>  <Rbt.Receptor>
prm/pocket_docking_5.prm

>  <SCORE>
-22.7517

>  <SCORE.INTER>
-21.6576

>  <SCORE.INTER.CONST>
1

>  <SCORE.INTER.POLAR>
-1.98952

>  <SCORE.INTER.ROT>
3

>  <SCORE.INTER.SOLV>
11.2833

>  <SCORE.INTER.VDW>
-17.1677

>  <SCORE.INTER.norm>
-1.66597

>  <SCORE.INTRA>
-1.09414

>  <SCORE.INTRA.DIHEDRAL>
-2.3846

>  <SCORE.INTRA.DIHEDRAL.0>
4.88905

>  <SCORE.INTRA.POLAR>
0

>  <SCORE.INTRA.POLAR.0>
0

>  <SCORE.INTRA.REPUL>
0

>  <SCORE.INTRA.REPUL.0>
0

>  <SCORE.INTRA.SOLV>
-0.696422

>  <SCORE.INTRA.SOLV.lig_0>
-15.1033

>  <SCORE.INTRA.VDW>
0.446365

>  <SCORE.INTRA.VDW.0>
-0.755285

>  <SCORE.INTRA.norm>
-0.084165

>  <SCORE.RESTR>
0

>  <SCORE.RESTR.CAVITY>
0

>  <SCORE.RESTR.norm>
0

>  <SCORE.SYSTEM>
0

>  <SCORE.SYSTEM.CONST>
0

>  <SCORE.SYSTEM.DIHEDRAL>
0

>  <SCORE.SYSTEM.SOLV>
0

>  <SCORE.SYSTEM.norm>
0

>  <SCORE.heavy>
13

>  <SCORE.norm>
-1.75013

>  <RMSD>
4.902

$$$$
