@<TRIPOS>MOLECULE
4RZD_rdock.pdb
 2820 3038 0 0 0
SMALL
GASTEIGER

@<TRIPOS>ATOM
      1  P         34.3030   42.9250  122.8820 P.3     2  A2          0.1269
      2  C5'       36.5920   43.1070  124.1490 C.3     2  A2          0.0822
      3  O5'       35.7100   42.3340  123.3470 O.3     2  A2         -0.3389
      4  C4'       37.8050   42.3140  124.5610 C.3     2  A2          0.1139
      5  O4'       37.4270   41.2910  125.5200 O.3     2  A2         -0.3456
      6  C3'       38.5010   41.5360  123.4600 C.3     2  A2          0.1241
      7  O3'       39.3360   42.3380  122.6440 O.3     2  A2         -0.3187
      8  C2'       39.2450   40.4610  124.2400 C.3     2  A2          0.1292
      9  O2'       40.4370   40.9730  124.8180 O.3     2  A2         -0.3846
     10  C1'       38.2440   40.1510  125.3520 C.3     2  A2          0.1667
     11  N1        37.9510   35.0190  125.0410 N.ar    2  A2         -0.2188
     12  C2        38.9330   35.8440  125.4220 C.ar    2  A2          0.1205
     13  N3        38.9410   37.1730  125.4780 N.ar    2  A2         -0.2159
     14  C4        37.7580   37.6730  125.0790 C.ar    2  A2          0.1674
     15  C5        36.6540   36.9530  124.6590 C.ar    2  A2          0.1473
     16  C6        36.7750   35.5530  124.6470 C.ar    2  A2          0.1472
     17  N6        35.8010   34.7230  124.2670 N.pl3   2  A2         -0.3413
     18  N7        35.6120   37.8070  124.3250 N.ar    2  A2         -0.2306
     19  C8        36.1010   39.0030  124.5460 C.ar    2  A2          0.1004
     20  N9        37.3930   38.9960  125.0090 N.ar    2  A2         -0.2855
     21  OP1       34.5640   44.1140  122.0190 O.3     2  A2         -0.1956
     22  OP2       33.5010   41.8080  122.3040 O.co2   2  A2         -0.7864
     23 HO2'       40.3460   41.0000  125.6520 H       2  A2          0.2101
     24  H2        39.7230   35.4290  125.6850 H       2  A2          0.1048
     25  H8        35.6160   39.7840  124.4070 H       2  A2          0.1030
     26  H1'       38.7210   39.9690  126.1770 H       2  A2          0.0866
     27  H2'       39.4180   39.6800  123.6920 H       2  A2          0.0666
     28  H3'       37.8300   41.1120  122.9020 H       2  A2          0.0655
     29  H4'       38.4460   42.9130  124.9760 H       2  A2          0.0647
     30  H5'       36.1210   43.4010  124.9440 H       2  A2          0.0590
     31  H61       35.9310   33.8730  124.2780 H       2  A2          0.1438
     32  H62       35.0430   35.0390  124.0120 H       2  A2          0.1438
     33 H5''       36.8780   43.8850  123.6450 H       2  A2          0.0590
     34  P         39.6560   41.8820  121.1380 P.3     3  G3          0.2131
     35  C5'       41.8010   40.6440  121.9470 C.3     3  G3          0.0837
     36  O5'       40.5300   40.5640  121.3220 O.3     3  G3         -0.3248
     37  C4'       42.3480   39.2910  122.3240 C.3     3  G3          0.1139
     38  O4'       41.3910   38.5520  123.1270 O.3     3  G3         -0.3456
     39  C3'       42.6500   38.3410  121.1820 C.3     3  G3          0.1241
     40  O3'       43.8360   38.6630  120.4780 O.3     3  G3         -0.3187
     41  C2'       42.6930   36.9960  121.8940 C.3     3  G3          0.1292
     42  O2'       43.9100   36.8210  122.6010 O.3     3  G3         -0.3846
     43  C1'       41.5670   37.1640  122.9130 C.3     3  G3          0.1667
     44  N1        39.1900   32.8030  121.9330 N.ar    3  G3         -0.2934
     45  C2        40.4630   33.0300  122.3960 C.ar    3  G3          0.1950
     46  N2        41.2120   31.9420  122.6340 N.pl3   3  G3         -0.3289
     47  N3        40.9650   34.2350  122.6110 N.ar    3  G3         -0.1963
     48  C4        40.0790   35.2120  122.3210 C.ar    3  G3          0.1712
     49  C5        38.7880   35.0950  121.8540 C.ar    3  G3          0.1721
     50  C6        38.2610   33.7950  121.6270 C.ar    3  G3          0.2803
     51  O6        37.1390   33.4770  121.2150 O.2     3  G3         -0.2654
     52  N7        38.2150   36.3500  121.6840 N.ar    3  G3         -0.2286
     53  C8        39.1500   37.1890  122.0440 C.ar    3  G3          0.1005
     54  N9        40.3050   36.5630  122.4420 N.ar    3  G3         -0.2854
     55  OP1       40.5350   42.9150  120.5360 O.3     3  G3         -0.4373
     56  OP2       38.3770   41.5180  120.4740 O.co2   3  G3         -0.5172
     57 HO2'       43.8880   36.0850  123.0050 H       3  G3          0.2101
     58  H1        38.9480   31.9860  121.8210 H       3  G3          0.1716
     59  H8        39.0440   38.1130  122.0330 H       3  G3          0.1030
     60  H1'       41.8280   36.7430  123.7480 H       3  G3          0.0866
     61  H2'       42.5170   36.2610  121.2850 H       3  G3          0.0666
     62  H21       40.8880   31.1580  122.4950 H       3  G3          0.1451
     63  H3'       41.9050   38.3460  120.5620 H       3  G3          0.0655
     64  H22       42.0160   32.0300  122.9260 H       3  G3          0.1451
     65  H4'       43.1570   39.4180  122.8440 H       3  G3          0.0647
     66  H5'       41.7220   41.1850  122.7480 H       3  G3          0.0591
     67 H5''       42.4220   41.0750  121.3390 H       3  G3          0.0591
     68  P         44.0100   38.1850  118.9540 P.3     4  C4          0.2131
     69  C5'       45.4130   36.1730  119.8710 C.3     4  C4          0.0837
     70  O5'       44.3170   36.6300  119.0930 O.3     4  C4         -0.3248
     71  C4'       45.6320   34.6930  119.6970 C.3     4  C4          0.1139
     72  O4'       44.6310   33.9450  120.4330 O.3     4  C4         -0.3456
     73  C3'       45.5070   34.1890  118.2740 C.3     4  C4          0.1241
     74  O3'       46.6850   34.4200  117.5240 O.3     4  C4         -0.3187
     75  C2'       45.1550   32.7180  118.4680 C.3     4  C4          0.1293
     76  O2'       46.3120   31.9430  118.7500 O.3     4  C4         -0.3846
     77  C1'       44.2770   32.7780  119.7190 C.3     4  C4          0.1680
     78  N1        42.8330   32.8550  119.4010 N.ar    4  C4         -0.2700
     79  C2        42.0760   31.6910  119.2170 C.ar    4  C4          0.3522
     80  O2        42.6250   30.5830  119.3110 O.2     4  C4         -0.2444
     81  N3        40.7550   31.8020  118.9380 N.ar    4  C4         -0.1783
     82  C4        40.1840   33.0070  118.8430 C.ar    4  C4          0.1230
     83  N4        38.8800   33.0770  118.5670 N.pl3   4  C4         -0.3430
     84  C5        40.9280   34.2040  119.0280 C.ar    4  C4         -0.0056
     85  C6        42.2320   34.0800  119.3050 C.ar    4  C4          0.0152
     86  OP1       45.2200   38.8370  118.3950 O.3     4  C4         -0.4373
     87  OP2       42.7060   38.3440  118.2560 O.co2   4  C4         -0.5172
     88 HO2'       46.7930   31.9100  118.0620 H       4  C4          0.2101
     89  H5        40.5250   35.0400  118.9610 H       4  C4          0.0666
     90  H6        42.7430   34.8470  119.4320 H       4  C4          0.0812
     91  H1'       44.4460   31.9990  120.2710 H       4  C4          0.0867
     92  H2'       44.6640   32.3660  117.7080 H       4  C4          0.0666
     93  H3'       44.7630   34.6380  117.8420 H       4  C4          0.0655
     94  H4'       46.5110   34.4630  120.0370 H       4  C4          0.0647
     95  H41       38.4950   33.8430  118.5010 H       4  C4          0.1437
     96  H5'       45.2380   36.3590  120.8070 H       4  C4          0.0591
     97  H42       38.4250   32.3560  118.4540 H       4  C4          0.1437
     98 H5''       46.2150   36.6460  119.5990 H       4  C4          0.0591
     99  P         46.7080   34.1190  115.9510 P.3     5  A5          0.2131
    100  C5'       46.6020   31.8350  114.7010 C.3     5  A5          0.0837
    101  O5'       46.8720   32.5400  115.8960 O.3     5  A5         -0.3248
    102  C4'       46.1870   30.4180  114.9810 C.3     5  A5          0.1139
    103  O4'       45.2180   30.3800  116.0600 O.3     5  A5         -0.3456
    104  C3'       45.4940   29.7250  113.8250 C.3     5  A5          0.1241
    105  O3'       46.4230   29.2200  112.8860 O.3     5  A5         -0.3187
    106  C2'       44.6610   28.6570  114.5210 C.3     5  A5          0.1292
    107  O2'       45.4460   27.5180  114.8400 O.3     5  A5         -0.3846
    108  C1'       44.2590   29.3740  115.8120 C.3     5  A5          0.1667
    109  N1        39.1470   28.8480  115.0600 N.ar    5  A5         -0.2188
    110  C2        40.1390   27.9480  115.0800 C.ar    5  A5          0.1205
    111  N3        41.4440   28.1320  115.2770 N.ar    5  A5         -0.2159
    112  C4        41.7140   29.4340  115.4790 C.ar    5  A5          0.1674
    113  C5        40.7990   30.4730  115.4870 C.ar    5  A5          0.1473
    114  C6        39.4540   30.1460  115.2670 C.ar    5  A5          0.1472
    115  N6        38.4780   31.0530  115.2530 N.pl3   5  A5         -0.3413
    116  N7        41.4230   31.6870  115.7230 N.ar    5  A5         -0.2306
    117  C8        42.6850   31.3640  115.8510 C.ar    5  A5          0.1004
    118  N9        42.9370   30.0220  115.7120 N.ar    5  A5         -0.2855
    119  OP1       47.9370   34.7250  115.3810 O.3     5  A5         -0.4373
    120  OP2       45.3820   34.4620  115.3720 O.co2   5  A5         -0.5172
    121 HO2'       45.6640   27.1280  114.1280 H       5  A5          0.2101
    122  H2        39.8790   27.0670  114.9340 H       5  A5          0.1048
    123  H8        43.3520   31.9900  116.0190 H       5  A5          0.1030
    124  H1'       44.2550   28.7420  116.5470 H       5  A5          0.0866
    125  H2'       43.8820   28.4180  113.9950 H       5  A5          0.0666
    126  H3'       44.9030   30.3540  113.3840 H       5  A5          0.0655
    127  H4'       46.9680   29.9030  115.2380 H       5  A5          0.0647
    128  H5'       47.4000   31.8290  114.1500 H       5  A5          0.0591
    129  H61       37.6660   30.8090  115.1140 H       5  A5          0.1438
    130  H62       38.6610   31.8830  115.3830 H       5  A5          0.1438
    131 H5''       45.8890   32.2850  114.2220 H       5  A5          0.0591
    132  P         46.3520   29.6690  111.3460 P.3     6  A6          0.2131
    133  C5'       45.6560   27.1800  111.0110 C.3     6  A6          0.0837
    134  O5'       45.4390   28.5460  110.6940 O.3     6  A6         -0.3248
    135  C4'       44.3780   26.3930  110.9350 C.3     6  A6          0.1139
    136  O4'       43.4990   26.7590  112.0310 O.3     6  A6         -0.3456
    137  C3'       43.5320   26.6300  109.7010 C.3     6  A6          0.1241
    138  O3'       44.0220   25.9510  108.5590 O.3     6  A6         -0.3187
    139  C2'       42.1560   26.1720  110.1630 C.3     6  A6          0.1292
    140  O2'       42.0580   24.7560  110.1470 O.3     6  A6         -0.3846
    141  C1'       42.1520   26.6510  111.6150 C.3     6  A6          0.1667
    142  N1        37.6460   29.1400  111.9220 N.ar    6  A6         -0.2188
    143  C2        37.9540   27.8450  111.7770 C.ar    6  A6          0.1205
    144  N3        39.1520   27.2640  111.7060 N.ar    6  A6         -0.2159
    145  C4        40.1300   28.1820  111.7980 C.ar    6  A6          0.1674
    146  C5        39.9700   29.5480  111.9480 C.ar    6  A6          0.1473
    147  C6        38.6520   30.0360  112.0130 C.ar    6  A6          0.1472
    148  N6        38.3430   31.3270  112.1590 N.pl3   6  A6         -0.3413
    149  N7        41.2040   30.1810  112.0090 N.ar    6  A6         -0.2306
    150  C8        42.0690   29.2010  111.8960 C.ar    6  A6          0.1004
    151  N9        41.4890   27.9630  111.7670 N.ar    6  A6         -0.2855
    152  OP1       47.7140   29.5200  110.7710 O.2     6  A6         -0.5172
    153  OP2       45.6430   30.9710  111.2390 O.co2   6  A6         -0.4373
    154 HO2'       42.0600   24.4910  109.3500 H       6  A6          0.2101
    155  H2        37.2280   27.2670  111.7200 H       6  A6          0.1048
    156  H8        42.9890   29.3330  111.9040 H       6  A6          0.1030
    157  H1'       41.6980   25.9960  112.1680 H       6  A6          0.0866
    158  H2'       41.4480   26.5890  109.6480 H       6  A6          0.0666
    159  H3'       43.5030   27.5820  109.5150 H       6  A6          0.0655
    160  H4'       44.5850   25.4470  110.9990 H       6  A6          0.0647
    161  H5'       46.0160   27.1160  111.9100 H       6  A6          0.0591
    162  H61       37.5180   31.5710  112.1940 H       6  A6          0.1438
    163  H62       38.9670   31.9150  112.2200 H       6  A6          0.1438
    164 H5''       46.2970   26.8070  110.3850 H       6  A6          0.0591
    165  P         44.0140   26.6770  107.1280 P.3     7  C7          0.2131
    166  C5'       41.8780   25.2810  106.5840 C.3     7  C7          0.0837
    167  O5'       42.4950   26.5560  106.6680 O.3     7  C7         -0.3248
    168  C4'       40.3750   25.3840  106.5770 C.3     7  C7          0.1139
    169  O4'       39.9110   25.9500  107.8310 O.3     7  C7         -0.3456
    170  C3'       39.7680   26.2930  105.5230 C.3     7  C7          0.1241
    171  O3'       39.7140   25.6960  104.2390 O.3     7  C7         -0.3187
    172  C2'       38.4020   26.6100  106.1170 C.3     7  C7          0.1293
    173  O2'       37.4910   25.5390  105.9160 O.3     7  C7         -0.3846
    174  C1'       38.7340   26.7000  107.6090 C.3     7  C7          0.1680
    175  N1        38.9580   28.0970  108.0480 N.ar    7  C7         -0.2700
    176  C2        37.8370   28.8980  108.2810 C.ar    7  C7          0.3522
    177  O2        36.7090   28.4160  108.1160 O.2     7  C7         -0.2444
    178  N3        38.0010   30.1780  108.6780 N.ar    7  C7         -0.1783
    179  C4        39.2300   30.6650  108.8440 C.ar    7  C7          0.1230
    180  N4        39.3460   31.9360  109.2350 N.pl3   7  C7         -0.3430
    181  C5        40.3930   29.8730  108.6140 C.ar    7  C7         -0.0056
    182  C6        40.2160   28.6050  108.2200 C.ar    7  C7          0.0152
    183  OP1       44.8330   25.8450  106.2110 O.2     7  C7         -0.5172
    184  OP2       44.3460   28.1170  107.3030 O.co2   7  C7         -0.4373
    185 HO2'       37.3070   25.4860  105.0990 H       7  C7          0.2101
    186  H5        41.2460   30.2250  108.7330 H       7  C7          0.0666
    187  H6        40.9560   28.0650  108.0620 H       7  C7          0.0812
    188  H1'       38.0080   26.3150  108.1230 H       7  C7          0.0867
    189  H2'       38.0520   27.4500  105.7800 H       7  C7          0.0666
    190  H3'       40.2890   27.1100  105.4710 H       7  C7          0.0655
    191  H4'       40.0010   24.4950  106.4770 H       7  C7          0.0647
    192  H41       40.1260   32.2800  109.3510 H       7  C7          0.1437
    193  H5'       42.1540   24.7460  107.3440 H       7  C7          0.0591
    194  H42       38.6420   32.4100  109.3710 H       7  C7          0.1437
    195 H5''       42.1670   24.8440  105.7680 H       7  C7          0.0591
    196  P         39.5570   26.6080  102.9240 P.3     8  U8          0.2131
    197  C5'       37.2580   25.4720  102.4250 C.3     8  U8          0.0837
    198  O5'       37.9840   26.6610  102.6970 O.3     8  U8         -0.3248
    199  C4'       35.7780   25.7360  102.3280 C.3     8  U8          0.1139
    200  O4'       35.2570   26.1290  103.6260 O.3     8  U8         -0.3456
    201  C3'       35.3690   26.8760  101.4110 C.3     8  U8          0.1241
    202  O3'       35.3620   26.5300  100.0380 O.3     8  U8         -0.3187
    203  C2'       34.0000   27.2570  101.9570 C.3     8  U8          0.1293
    204  O2'       32.9990   26.3510  101.5160 O.3     8  U8         -0.3846
    205  C1'       34.2150   27.0710  103.4580 C.3     8  U8          0.1680
    206  N1        34.6010   28.3410  104.1160 N.ar    8  U8         -0.2715
    207  C2        33.6040   29.2680  104.3630 C.ar    8  U8          0.3314
    208  O2        32.4380   29.0760  104.0710 O.2     8  U8         -0.2464
    209  N3        34.0200   30.4290  104.9660 N.ar    8  U8         -0.2749
    210  C4        35.3090   30.7500  105.3370 C.ar    8  U8          0.2539
    211  O4        35.5270   31.8380  105.8720 O.2     8  U8         -0.2677
    212  C5        36.2890   29.7470  105.0470 C.ar    8  U8          0.0192
    213  C6        35.9070   28.6070  104.4580 C.ar    8  U8          0.0171
    214  OP1       40.1490   25.8710  101.7800 O.2     8  U8         -0.5172
    215  OP2       40.0280   27.9860  103.2180 O.co2   8  U8         -0.4373
    216 HO2'       32.7310   25.9000  102.1710 H       8  U8          0.2101
    217  H3        33.4140   31.0160  105.1310 H       8  U8          0.1734
    218  H5        37.1820   29.8850  105.2650 H       8  U8          0.0686
    219  H6        36.5530   27.9640  104.2760 H       8  U8          0.0813
    220  H1'       33.4020   26.7300  103.8620 H       8  U8          0.0867
    221  H2'       33.7740   28.1760  101.7420 H       8  U8          0.0666
    222  H3'       35.9770   27.6200  101.5440 H       8  U8          0.0655
    223  H4'       35.3310   24.9240  102.0410 H       8  U8          0.0647
    224  H5'       37.4200   24.8320  103.1360 H       8  U8          0.0591
    225 H5''       37.5690   25.0970  101.5860 H       8  U8          0.0591
    226  P         35.6040   27.6720   98.9340 P.3     9  U9          0.2131
    227  C5'       33.0310   28.1380   98.7820 C.3     9  U9          0.0837
    228  O5'       34.3320   28.6200   99.0830 O.3     9  U9         -0.3248
    229  C4'       31.9570   29.1260   99.1670 C.3     9  U9          0.1139
    230  O4'       32.0060   29.3920  100.5930 O.3     9  U9         -0.3456
    231  C3'       32.0520   30.5040   98.5350 C.3     9  U9          0.1241
    232  O3'       31.5680   30.5360   97.2040 O.3     9  U9         -0.3187
    233  C2'       31.2430   31.3590   99.5010 C.3     9  U9          0.1293
    234  O2'       29.8500   31.2010   99.2780 O.3     9  U9         -0.3846
    235  C1'       31.6050   30.7220  100.8460 C.3     9  U9          0.1680
    236  N1        32.7130   31.4420  101.5160 N.ar    9  U9         -0.2715
    237  C2        32.3930   32.5770  102.2350 C.ar    9  U9          0.3314
    238  O2        31.2550   32.9940  102.3440 O.2     9  U9         -0.2464
    239  N3        33.4560   33.2120  102.8260 N.ar    9  U9         -0.2749
    240  C4        34.7800   32.8370  102.7700 C.ar    9  U9          0.2539
    241  O4        35.6240   33.5150  103.3580 O.2     9  U9         -0.2677
    242  C5        35.0360   31.6520  102.0070 C.ar    9  U9          0.0192
    243  C6        34.0160   31.0140  101.4190 C.ar    9  U9          0.0171
    244  OP1       35.5500   27.0300   97.5950 O.2     9  U9         -0.5172
    245  OP2       36.8030   28.4560   99.3260 O.co2   9  U9         -0.4373
    246 HO2'       29.5130   30.7910   99.9290 H       9  U9          0.2101
    247  H3        33.2760   33.9200  103.2800 H       9  U9          0.1734
    248  H5        35.9040   31.3300  101.9190 H       9  U9          0.0686
    249  H6        34.1970   30.2480  100.9240 H       9  U9          0.0813
    250  H1'       30.8250   30.7210  101.4230 H       9  U9          0.0867
    251  H2'       31.5110   32.2900   99.4650 H       9  U9          0.0666
    252  H3'       32.9770   30.7980   98.5460 H       9  U9          0.0655
    253  H4'       31.0920   28.7440   98.9510 H       9  U9          0.0647
    254  H5'       32.8840   27.3090   99.2640 H       9  U9          0.0591
    255 H5''       32.9720   27.9630   97.8300 H       9  U9          0.0591
    256  P         32.2290   31.5210   96.1190 P.3    10  A10         0.2131
    257  C5'       34.6830   31.6740   95.1900 C.3    10  A10         0.0837
    258  O5'       33.7890   31.2020   96.1950 O.3    10  A10        -0.3248
    259  C4'       36.0120   32.1000   95.7680 C.3    10  A10         0.1139
    260  O4'       35.8200   33.3070   96.5550 O.3    10  A10        -0.3456
    261  C3'       36.6750   31.0910   96.7010 C.3    10  A10         0.1241
    262  O3'       38.0960   31.2010   96.5990 O.3    10  A10        -0.3187
    263  C2'       36.2220   31.5620   98.0780 C.3    10  A10         0.1292
    264  O2'       37.0580   31.1610   99.1440 O.3    10  A10        -0.3846
    265  C1'       36.2250   33.0770   97.8930 C.3    10  A10         0.1667
    266  N1        35.6920   36.9150  101.2690 N.ar   10  A10        -0.2188
    267  C2        36.7520   36.4500  100.5960 C.ar   10  A10         0.1205
    268  N3        36.8220   35.4410   99.7310 N.ar   10  A10        -0.2159
    269  C4        35.6170   34.8680   99.5720 C.ar   10  A10         0.1674
    270  C5        34.4370   35.2310  100.1920 C.ar   10  A10         0.1473
    271  C6        34.4980   36.3130  101.0840 C.ar   10  A10         0.1472
    272  N6        33.4400   36.7720  101.7470 N.pl3  10  A10        -0.3413
    273  N7        33.3930   34.4130   99.7860 N.ar   10  A10        -0.2306
    274  C8        33.9560   33.5850   98.9400 C.ar   10  A10         0.1004
    275  N9        35.3010   33.8000   98.7700 N.ar   10  A10        -0.2855
    276  OP1       32.0210   32.9170   96.5790 O.3    10  A10        -0.4373
    277  OP2       31.7430   31.1070   94.7790 O.co2  10  A10        -0.5172
    278 HO2'       37.0290   30.3240   99.2140 H      10  A10         0.2101
    279  H2        37.5530   36.8960  100.7550 H      10  A10         0.1048
    280  H8        33.4880   32.9120   98.4990 H      10  A10         0.1030
    281  H1'       37.1250   33.4170   98.0200 H      10  A10         0.0866
    282  H2'       35.3160   31.2580   98.2430 H      10  A10         0.0666
    283  H3'       36.3730   30.1870   96.5180 H      10  A10         0.0655
    284  H4'       36.6200   32.2970   95.0390 H      10  A10         0.0647
    285  H5'       34.2780   32.4310   94.7380 H      10  A10         0.0591
    286  H61       33.5250   37.4400  102.2820 H      10  A10         0.1438
    287  H62       32.6720   36.4000  101.6410 H      10  A10         0.1438
    288 H5''       34.8330   30.9660   94.5440 H      10  A10         0.0591
    289  P         38.9030   30.3990   95.4620 P.3    11  G11         0.2131
    290  C5'       41.4410   30.6000   94.8410 C.3    11  G11         0.0837
    291  O5'       40.2470   31.2370   95.2750 O.3    11  G11        -0.3248
    292  C4'       42.5700   31.5800   94.6310 C.3    11  G11         0.1139
    293  O4'       42.2000   32.5560   93.6210 O.3    11  G11        -0.3456
    294  C3'       42.9600   32.4310   95.8290 C.3    11  G11         0.1241
    295  O3'       43.7680   31.7510   96.7740 O.3    11  G11        -0.3187
    296  C2'       43.6510   33.6190   95.1740 C.3    11  G11         0.1292
    297  O2'       44.9800   33.2970   94.7880 O.3    11  G11        -0.3846
    298  C1'       42.8030   33.8010   93.9140 C.3    11  G11         0.1667
    299  N1        41.8190   38.7370   94.6030 N.ar   11  G11        -0.2934
    300  C2        43.0230   38.0900   94.4650 C.ar   11  G11         0.1950
    301  N2        44.1230   38.8530   94.5170 N.pl3  11  G11        -0.3289
    302  N3        43.1440   36.7860   94.2890 N.ar   11  G11        -0.1963
    303  C4        41.9480   36.1650   94.2590 C.ar   11  G11         0.1712
    304  C5        40.6900   36.7140   94.3870 C.ar   11  G11         0.1721
    305  C6        40.5730   38.1170   94.5770 C.ar   11  G11         0.2803
    306  O6        39.5470   38.7960   94.7110 O.2    11  G11        -0.2654
    307  N7        39.7150   35.7290   94.2990 N.ar   11  G11        -0.2286
    308  C8        40.3880   34.6210   94.1330 C.ar   11  G11         0.1005
    309  N9        41.7480   34.8160   94.0930 N.ar   11  G11        -0.2854
    310  OP1       38.1280   30.4760   94.1990 O.2    11  G11        -0.5172
    311  OP2       39.2680   29.0680   96.0120 O.co2  11  G11        -0.4373
    312 HO2'       45.2930   33.9300   94.3320 H      11  G11         0.2101
    313  H1        41.8370   39.5890   94.7130 H      11  G11         0.1716
    314  H8        39.9870   33.7880   94.0370 H      11  G11         0.1030
    315  H1'       43.3770   34.0610   93.1760 H      11  G11         0.0866
    316  H2'       43.6200   34.4060   95.7390 H      11  G11         0.0666
    317  H21       44.0520   39.7020   94.6320 H      11  G11         0.1451
    318  H3'       42.1540   32.7410   96.2710 H      11  G11         0.0655
    319  H22       44.9000   38.4930   94.4360 H      11  G11         0.1451
    320  H4'       43.3510   31.0950   94.3250 H      11  G11         0.0647
    321  H5'       41.2650   30.1390   94.0060 H      11  G11         0.0591
    322 H5''       41.7100   29.9490   95.5080 H      11  G11         0.0591
    323  P         43.7000   32.1690   98.3250 P.3    12  G12         0.2131
    324  C5'       45.8350   33.6490   98.0370 C.3    12  G12         0.0837
    325  O5'       44.4590   33.5690   98.3750 O.3    12  G12        -0.3248
    326  C4'       46.3800   35.0450   98.2040 C.3    12  G12         0.1139
    327  O4'       45.8180   35.9260   97.1940 O.3    12  G12        -0.3456
    328  C3'       46.0590   35.7440   99.5150 C.3    12  G12         0.1241
    329  O3'       46.8710   35.3180  100.5950 O.3    12  G12        -0.3187
    330  C2'       46.2360   37.2110   99.1490 C.3    12  G12         0.1292
    331  O2'       47.6100   37.5720   99.1170 O.3    12  G12        -0.3846
    332  C1'       45.6820   37.2310   97.7220 C.3    12  G12         0.1667
    333  N1        42.3170   41.0230   98.2040 N.ar   12  G12        -0.2934
    334  C2        43.6860   41.0530   98.3030 C.ar   12  G12         0.1950
    335  N2        44.2300   42.2510   98.5680 N.pl3  12  G12        -0.3289
    336  N3        44.4610   39.9900   98.1550 N.ar   12  G12        -0.1963
    337  C4        43.7440   38.8750   97.8940 C.ar   12  G12         0.1712
    338  C5        42.3770   38.7390   97.7760 C.ar   12  G12         0.1721
    339  C6        41.5590   39.8880   97.9360 C.ar   12  G12         0.2803
    340  O6        40.3270   39.9740   97.8690 O.2    12  G12        -0.2654
    341  N7        42.0360   37.4220   97.5030 N.ar   12  G12        -0.2286
    342  C8        43.1790   36.7920   97.4630 C.ar   12  G12         0.1005
    343  N9        44.2560   37.6140   97.6910 N.ar   12  G12        -0.2854
    344  OP1       44.5100   31.2020   99.1080 O.3    12  G12        -0.4373
    345  OP2       42.2740   32.3910   98.6800 O.co2  12  G12        -0.5172
    346 HO2'       48.0590   36.9760   99.5020 H      12  G12         0.2101
    347  H1        41.8950   41.7640   98.3140 H      12  G12         0.1716
    348  H8        43.2550   35.8810   97.2960 H      12  G12         0.1030
    349  H1'       46.1970   37.8530   97.1830 H      12  G12         0.0866
    350  H2'       45.7250   37.7890   99.7360 H      12  G12         0.0666
    351  H21       43.7260   42.9410   98.6640 H      12  G12         0.1451
    352  H3'       45.1290   35.5840   99.7370 H      12  G12         0.0655
    353  H22       45.0830   42.3290   98.6420 H      12  G12         0.1451
    354  H4'       47.3440   35.0180   98.0930 H      12  G12         0.0647
    355  H5'       45.9500   33.3750   97.1140 H      12  G12         0.0591
    356 H5''       46.3350   33.0460   98.6090 H      12  G12         0.0591
    357  P         46.2660   35.2790  102.0840 P.3    13  A13         0.2131
    358  C5'       47.1770   37.6990  102.5010 C.3    13  A13         0.0837
    359  O5'       46.0670   36.8150  102.4550 O.3    13  A13        -0.3248
    360  C4'       46.7440   39.1320  102.6810 C.3    13  A13         0.1139
    361  O4'       45.9770   39.5660  101.5260 O.3    13  A13        -0.3456
    362  C3'       45.8250   39.4110  103.8600 C.3    13  A13         0.1241
    363  O3'       46.5180   39.5110  105.0930 O.3    13  A13        -0.3187
    364  C2'       45.1320   40.6980  103.4350 C.3    13  A13         0.1292
    365  O2'       45.9680   41.8260  103.6470 O.3    13  A13        -0.3846
    366  C1'       44.9730   40.4740  101.9300 C.3    13  A13         0.1667
    367  N1        39.8990   41.3450  101.4020 N.ar   13  A13        -0.2188
    368  C2        40.9140   42.1420  101.7620 C.ar   13  A13         0.1205
    369  N3        42.2100   41.8550  101.8800 N.ar   13  A13        -0.2159
    370  C4        42.4470   40.5660  101.5760 C.ar   13  A13         0.1674
    371  C5        41.5070   39.6270  101.1910 C.ar   13  A13         0.1473
    372  C6        40.1700   40.0570  101.1000 C.ar   13  A13         0.1472
    373  N6        39.1610   39.2590  100.7420 N.pl3  13  A13        -0.3413
    374  N7        42.1080   38.3980  100.9560 N.ar   13  A13        -0.2306
    375  C8        43.3770   38.6160  101.2030 C.ar   13  A13         0.1004
    376  N9        43.6550   39.9060  101.5850 N.ar   13  A13        -0.2855
    377  OP1       47.3070   34.7230  102.9840 O.3    13  A13        -0.4373
    378  OP2       44.9240   34.6400  102.0330 O.co2  13  A13        -0.5172
    379 HO2'       46.0560   41.9500  104.4730 H      13  A13         0.2101
    380  H2        40.6810   43.0200  101.9580 H      13  A13         0.1048
    381  H8        44.0290   37.9580  101.1280 H      13  A13         0.1030
    382  H1'       45.0940   41.3160  101.4640 H      13  A13         0.0866
    383  H2'       44.2720   40.8010  103.8720 H      13  A13         0.0666
    384  H3'       45.1660   38.7020  103.9230 H      13  A13         0.0655
    385  H4'       47.5340   39.6900  102.7600 H      13  A13         0.0647
    386  H5'       47.6770   37.6210  101.6730 H      13  A13         0.0591
    387  H61       38.3590   39.5680  100.7080 H      13  A13         0.1438
    388  H62       39.3130   38.4350  100.5470 H      13  A13         0.1438
    389 H5''       47.7510   37.4460  103.2410 H      13  A13         0.0591
    390  P         45.8390   38.9890  106.4540 P.3    14  U14         0.2131
    391  C5'       45.2080   41.4260  107.1720 C.3    14  U14         0.0837
    392  O5'       44.7780   40.1220  106.8120 O.3    14  U14        -0.3248
    393  C4'       44.0640   42.4090  107.2160 C.3    14  U14         0.1139
    394  O4'       43.4830   42.5620  105.8910 O.3    14  U14        -0.3456
    395  C3'       42.8770   42.0230  108.0820 C.3    14  U14         0.1241
    396  O3'       43.0830   42.2180  109.4690 O.3    14  U14        -0.3187
    397  C2'       41.7650   42.8760  107.4930 C.3    14  U14         0.1293
    398  O2'       41.8770   44.2290  107.9070 O.3    14  U14        -0.3846
    399  C1'       42.0890   42.7840  106.0050 C.3    14  U14         0.1680
    400  N1        41.3680   41.6530  105.3770 N.ar   14  U14        -0.2715
    401  C2        40.0440   41.8430  105.0330 C.ar   14  U14         0.3314
    402  O2        39.4600   42.8990  105.2060 O.2    14  U14        -0.2464
    403  N3        39.4290   40.7520  104.4720 N.ar   14  U14        -0.2749
    404  C4        39.9910   39.5150  104.2330 C.ar   14  U14         0.2539
    405  O4        39.3080   38.6280  103.7180 O.2    14  U14        -0.2677
    406  C5        41.3610   39.3900  104.6220 C.ar   14  U14         0.0192
    407  C6        41.9790   40.4390  105.1720 C.ar   14  U14         0.0171
    408  OP1       46.8840   39.0060  107.5110 O.3    14  U14        -0.4373
    409  OP2       45.1110   37.7240  106.1740 O.co2  14  U14        -0.5172
    410 HO2'       41.6980   44.2810  108.7260 H      14  U14         0.2101
    411  H3        38.6060   40.8510  104.2440 H      14  U14         0.1734
    412  H5        41.8160   38.5890  104.4950 H      14  U14         0.0686
    413  H6        42.8710   40.3460  105.4210 H      14  U14         0.0813
    414  H1'       41.8500   43.6140  105.5630 H      14  U14         0.0867
    415  H2'       40.8890   42.5080  107.6910 H      14  U14         0.0666
    416  H3'       42.6680   41.0890  107.9270 H      14  U14         0.0655
    417  H4'       44.4010   43.2690  107.5120 H      14  U14         0.0647
    418  H5'       45.8610   41.7320  106.5240 H      14  U14         0.0591
    419 H5''       45.6260   41.3900  108.0470 H      14  U14         0.0591
    420  P         42.4390   41.1810  110.5160 P.3    15  U15         0.2131
    421  C5'       40.3240   42.7040  110.7910 C.3    15  U15         0.0837
    422  O5'       40.8700   41.4500  110.4080 O.3    15  U15        -0.3248
    423  C4'       38.9000   42.8820  110.3190 C.3    15  U15         0.1139
    424  O4'       38.8100   42.6710  108.8830 O.3    15  U15        -0.3456
    425  C3'       37.8730   41.9180  110.8910 C.3    15  U15         0.1241
    426  O3'       37.4630   42.2510  112.2070 O.3    15  U15        -0.3187
    427  C2'       36.7570   41.9900  109.8570 C.3    15  U15         0.1293
    428  O2'       35.9830   43.1700  110.0170 O.3    15  U15        -0.3846
    429  C1'       37.5580   42.1000  108.5600 C.3    15  U15         0.1680
    430  N1        37.7800   40.7780  107.9290 N.ar   15  U15        -0.2715
    431  C2        36.6850   40.1690  107.3400 C.ar   15  U15         0.3314
    432  O2        35.5740   40.6700  107.3220 O.2    15  U15        -0.2464
    433  N3        36.9350   38.9440  106.7730 N.ar   15  U15        -0.2749
    434  C4        38.1440   38.2810  106.7330 C.ar   15  U15         0.2539
    435  O4        38.2120   37.1800  106.1830 O.2    15  U15        -0.2677
    436  C5        39.2300   38.9720  107.3600 C.ar   15  U15         0.0192
    437  C6        39.0150   40.1680  107.9230 C.ar   15  U15         0.0171
    438  OP1       42.8810   41.5660  111.8790 O.3    15  U15        -0.4373
    439  OP2       42.7160   39.8040  110.0290 O.co2  15  U15        -0.5172
    440 HO2'       36.1270   43.6810  109.3660 H      15  U15         0.2101
    441  H3        36.2670   38.5490  106.4010 H      15  U15         0.1734
    442  H5        40.0790   38.5920  107.3770 H      15  U15         0.0686
    443  H6        39.7290   40.6040  108.3280 H      15  U15         0.0813
    444  H1'       37.0890   42.6800  107.9390 H      15  U15         0.0867
    445  H2'       36.2060   41.1910  109.8690 H      15  U15         0.0666
    446  H3'       38.2460   41.0230  110.8920 H      15  U15         0.0655
    447  H4'       38.6180   43.7880  110.5180 H      15  U15         0.0647
    448  H5'       40.8700   43.4120  110.4140 H      15  U15         0.0591
    449 H5''       40.3450   42.7730  111.7580 H      15  U15         0.0591
    450  P         36.8680   41.1160  113.1780 P.3    16  U16         0.2131
    451  C5'       34.4340   41.9110  112.6430 C.3    16  U16         0.0837
    452  O5'       35.3990   40.8700  112.6140 O.3    16  U16        -0.3248
    453  C4'       33.1160   41.4730  112.0570 C.3    16  U16         0.1139
    454  O4'       33.2530   41.2370  110.6290 O.3    16  U16        -0.3456
    455  C3'       32.5460   40.1670  112.5850 C.3    16  U16         0.1241
    456  O3'       31.9220   40.2900  113.8510 O.3    16  U16        -0.3187
    457  C2'       31.5980   39.7580  111.4680 C.3    16  U16         0.1293
    458  O2'       30.3920   40.5070  111.5180 O.3    16  U16        -0.3846
    459  C1'       32.3940   40.1840  110.2350 C.3    16  U16         0.1680
    460  N1        33.2120   39.0730  109.6940 N.ar   16  U16        -0.2715
    461  C2        32.5720   38.0970  108.9520 C.ar   16  U16         0.3314
    462  O2        31.3760   38.1170  108.7210 O.2    16  U16        -0.2464
    463  N3        33.3870   37.0940  108.4870 N.ar   16  U16        -0.2749
    464  C4        34.7470   36.9700  108.6820 C.ar   16  U16         0.2539
    465  O4        35.3420   36.0060  108.1950 O.2    16  U16        -0.2677
    466  C5        35.3380   38.0150  109.4630 C.ar   16  U16         0.0192
    467  C6        34.5650   39.0030  109.9280 C.ar   16  U16         0.0171
    468  OP1       36.7370   41.6930  114.5400 O.3    16  U16        -0.4373
    469  OP2       37.6500   39.8680  112.9930 O.co2  16  U16        -0.5172
    470 HO2'       29.9530   40.2740  112.1950 H      16  U16         0.2101
    471  H3        33.0090   36.4790  108.0200 H      16  U16         0.1734
    472  H5        36.2510   38.0080  109.6430 H      16  U16         0.0686
    473  H6        34.9630   39.6750  110.4330 H      16  U16         0.0813
    474  H1'       31.7850   40.5020  109.5500 H      16  U16         0.0867
    475  H2'       31.4310   38.8020  111.4720 H      16  U16         0.0666
    476  H3'       33.2610   39.5130  112.6480 H      16  U16         0.0655
    477  H4'       32.4630   42.1770  112.1960 H      16  U16         0.0647
    478  H5'       34.7700   42.6660  112.1350 H      16  U16         0.0591
    479 H5''       34.2950   42.1860  113.5620 H      16  U16         0.0591
    480  P         31.9800   39.0690  114.8950 P.3    17  U17         0.2131
    481  C5'       29.6730   38.1220  114.1030 C.3    17  U17         0.0837
    482  O5'       31.0750   37.9430  114.2210 O.3    17  U17        -0.3248
    483  C4'       29.0380   37.0950  113.1980 C.3    17  U17         0.1139
    484  O4'       29.6150   37.1720  111.8640 O.3    17  U17        -0.3456
    485  C3'       29.2190   35.6340  113.5720 C.3    17  U17         0.1241
    486  O3'       28.4110   35.2060  114.6530 O.3    17  U17        -0.3187
    487  C2'       28.9190   34.9460  112.2490 C.3    17  U17         0.1293
    488  O2'       27.5300   34.9890  111.9510 O.3    17  U17        -0.3846
    489  C1'       29.6420   35.8790  111.2850 C.3    17  U17         0.1680
    490  N1        31.0520   35.4670  111.0920 N.ar   17  U17        -0.2715
    491  C2        31.2860   34.3370  110.3320 C.ar   17  U17         0.3314
    492  O2        30.3970   33.6840  109.8160 O.2    17  U17        -0.2464
    493  N3        32.6020   33.9920  110.1930 N.ar   17  U17        -0.2749
    494  C4        33.6930   34.6410  110.7220 C.ar   17  U17         0.2539
    495  O4        34.8200   34.1980  110.4970 O.2    17  U17        -0.2677
    496  C5        33.3770   35.8000  111.4990 C.ar   17  U17         0.0192
    497  C6        32.0980   36.1610  111.6570 C.ar   17  U17         0.0171
    498  OP1       31.3070   39.5120  116.1430 O.3    17  U17        -0.4373
    499  OP2       33.3770   38.5640  114.9590 O.co2  17  U17        -0.5172
    500 HO2'       27.1220   34.4770  112.4770 H      17  U17         0.2101
    501  H3        32.7660   33.2930  109.7190 H      17  U17         0.1734
    502  H5        34.0560   36.2980  111.8940 H      17  U17         0.0686
    503  H6        31.9070   36.9170  112.1650 H      17  U17         0.0813
    504  H1'       29.1820   35.8920  110.4310 H      17  U17         0.0867
    505  H2'       29.2760   34.0450  112.2180 H      17  U17         0.0666
    506  H3'       30.1500   35.4830  113.7990 H      17  U17         0.0655
    507  H4'       28.0880   37.2830  113.1360 H      17  U17         0.0647
    508  H5'       29.4980   39.0070  113.7450 H      17  U17         0.0591
    509 H5''       29.2720   38.0550  114.9840 H      17  U17         0.0591
    510  P         28.9960   34.1440  115.7100 P.3    18  A18         0.2131
    511  C5'       27.6370   32.4490  114.2770 C.3    18  A18         0.0837
    512  O5'       28.8440   32.7450  114.9600 O.3    18  A18        -0.3248
    513  C4'       27.5620   31.0290  113.7650 C.3    18  A18         0.1139
    514  O4'       28.2930   30.8770  112.5190 O.3    18  A18        -0.3456
    515  C3'       28.1290   29.9250  114.6380 C.3    18  A18         0.1241
    516  O3'       27.3250   29.6130  115.7620 O.3    18  A18        -0.3187
    517  C2'       28.2500   28.7760  113.6420 C.3    18  A18         0.1292
    518  O2'       26.9930   28.1540  113.4210 O.3    18  A18        -0.3846
    519  C1'       28.6660   29.5190  112.3660 C.3    18  A18         0.1667
    520  N1        33.4970   31.5320  112.6190 N.ar   18  A18        -0.2188
    521  C2        32.3120   32.0490  112.9770 C.ar   18  A18         0.1205
    522  N3        31.0920   31.5110  112.8950 N.ar   18  A18        -0.2159
    523  C4        31.1510   30.2720  112.3740 C.ar   18  A18         0.1674
    524  C5        32.2990   29.6110  111.9560 C.ar   18  A18         0.1473
    525  C6        33.5230   30.2870  112.0930 C.ar   18  A18         0.1472
    526  N6        34.6980   29.7610  111.7370 N.pl3  18  A18        -0.3413
    527  N7        32.0030   28.3510  111.4610 N.ar   18  A18        -0.2306
    528  C8        30.7050   28.2730  111.5840 C.ar   18  A18         0.1004
    529  N9        30.1170   29.3970  112.1130 N.ar   18  A18        -0.2855
    530  OP1       28.0860   34.1280  116.8830 O.3    18  A18        -0.4373
    531  OP2       30.4410   34.4300  115.9140 O.co2  18  A18        -0.5172
    532 HO2'       26.7620   27.7470  114.1180 H      18  A18         0.2101
    533  H2        32.3450   32.9070  113.3340 H      18  A18         0.1048
    534  H8        30.2190   27.5230  111.3290 H      18  A18         0.1030
    535  H1'       28.1840   29.1430  111.6130 H      18  A18         0.0866
    536  H2'       28.9260   28.1360  113.9170 H      18  A18         0.0666
    537  H3'       29.0150   30.1800  114.9400 H      18  A18         0.0655
    538  H4'       26.6300   30.8240  113.5930 H      18  A18         0.0647
    539  H5'       27.5510   33.0540  113.5240 H      18  A18         0.0591
    540  H61       35.4210   30.2140  111.8440 H      18  A18         0.1438
    541  H62       34.7310   28.9700  111.4020 H      18  A18         0.1438
    542 H5''       26.8940   32.5990  114.8820 H      18  A18         0.0591
    543  P         28.0300   29.2230  117.1530 P.3    19  G19         0.2131
    544  C5'       28.6360   26.7930  116.3890 C.3    19  G19         0.0837
    545  O5'       29.0790   28.0920  116.7520 O.3    19  G19        -0.3248
    546  C4'       29.7740   25.9000  115.9550 C.3    19  G19         0.1139
    547  O4'       30.4460   26.4660  114.7950 O.3    19  G19        -0.3456
    548  C3'       30.9020   25.6990  116.9550 C.3    19  G19         0.1241
    549  O3'       30.6010   24.7920  118.0000 O.3    19  G19        -0.3187
    550  C2'       32.0400   25.2490  116.0550 C.3    19  G19         0.1292
    551  O2'       31.8690   23.8980  115.6470 O.3    19  G19        -0.3846
    552  C1'       31.8260   26.1600  114.8490 C.3    19  G19         0.1667
    553  N1        36.4510   28.2010  114.8840 N.ar   19  G19        -0.2934
    554  C2        36.0630   26.8980  114.6890 C.ar   19  G19         0.1950
    555  N2        37.0460   26.0110  114.4760 N.pl3  19  G19        -0.3289
    556  N3        34.8040   26.4960  114.7030 N.ar   19  G19        -0.1963
    557  C4        33.9520   27.5180  114.9290 C.ar   19  G19         0.1712
    558  C5        34.2320   28.8500  115.1360 C.ar   19  G19         0.1721
    559  C6        35.5860   29.2690  115.1200 C.ar   19  G19         0.2803
    560  O6        36.0380   30.4080  115.2810 O.2    19  G19        -0.2654
    561  N7        33.0630   29.5740  115.3340 N.ar   19  G19        -0.2286
    562  C8        32.1120   28.6830  115.2440 C.ar   19  G19         0.1005
    563  N9        32.5860   27.4160  114.9940 N.ar   19  G19        -0.2854
    564  OP1       27.0090   28.5980  118.0290 O.3    19  G19        -0.4373
    565  OP2       28.7900   30.4060  117.6260 O.co2  19  G19        -0.5172
    566 HO2'       31.4380   23.4860  116.2380 H      19  G19         0.2101
    567  H1        37.2930   28.3730  114.8570 H      19  G19         0.1716
    568  H8        31.2090   28.8840  115.3380 H      19  G19         0.1030
    569  H1'       32.0950   25.7030  114.0370 H      19  G19         0.0866
    570  H2'       32.9050   25.3970  116.4680 H      19  G19         0.0666
    571  H21       37.8660   26.2710  114.4670 H      19  G19         0.1451
    572  H3'       31.1320   26.5580  117.3440 H      19  G19         0.0655
    573  H22       36.8570   25.1820  114.3490 H      19  G19         0.1451
    574  H4'       29.4140   25.0330  115.7140 H      19  G19         0.0647
    575  H5'       28.0020   26.8700  115.6590 H      19  G19         0.0591
    576 H5''       28.1920   26.3880  117.1500 H      19  G19         0.0591
    577  P         31.2460   25.0210  119.4550 P.3    20  G20         0.2131
    578  C5'       33.3630   23.6350  118.7600 C.3    20  G20         0.0837
    579  O5'       32.8150   24.8660  119.2110 O.3    20  G20        -0.3248
    580  C4'       34.8710   23.6720  118.7070 C.3    20  G20         0.1139
    581  O4'       35.3150   24.6000  117.6810 O.3    20  G20        -0.3456
    582  C3'       35.5780   24.1540  119.9630 C.3    20  G20         0.1241
    583  O3'       35.6600   23.1700  120.9790 O.3    20  G20        -0.3187
    584  C2'       36.9300   24.6020  119.4230 C.3    20  G20         0.1292
    585  O2'       37.7910   23.4950  119.1920 O.3    20  G20        -0.3846
    586  C1'       36.5270   25.2100  118.0790 C.3    20  G20         0.1667
    587  N1        38.7220   29.7810  118.5840 N.ar   20  G20        -0.2934
    588  C2        39.3020   28.5390  118.5130 C.ar   20  G20         0.1950
    589  N2        40.6410   28.5110  118.5870 N.pl3  20  G20        -0.3289
    590  N3        38.6200   27.4120  118.3790 N.ar   20  G20        -0.1963
    591  C4        37.2890   27.6290  118.3200 C.ar   20  G20         0.1712
    592  C5        36.6100   28.8270  118.3830 C.ar   20  G20         0.1721
    593  C6        37.3540   30.0270  118.5260 C.ar   20  G20         0.2803
    594  O6        36.9370   31.1900  118.5990 O.2    20  G20        -0.2654
    595  N7        35.2400   28.6250  118.2880 N.ar   20  G20        -0.2286
    596  C8        35.1120   27.3310  118.1710 C.ar   20  G20         0.1005
    597  N9        36.3150   26.6660  118.1810 N.ar   20  G20        -0.2854
    598  OP1       30.8060   23.9140  120.3410 O.3    20  G20        -0.4373
    599  OP2       30.9880   26.4290  119.8550 O.co2  20  G20        -0.5172
    600 HO2'       37.4630   22.8130  119.5560 H      20  G20         0.2101
    601  H1        39.2440   30.4590  118.6700 H      20  G20         0.1716
    602  H8        34.2900   26.9030  118.0880 H      20  G20         0.1030
    603  H1'       37.2150   25.0270  117.4200 H      20  G20         0.0866
    604  H2'       37.3420   25.2630  120.0010 H      20  G20         0.0666
    605  H21       41.0820   29.2450  118.6740 H      20  G20         0.1451
    606  H3'       35.1070   24.9270  120.3110 H      20  G20         0.0655
    607  H22       41.0590   27.7610  118.5470 H      20  G20         0.1451
    608  H4'       35.1970   22.7850  118.4870 H      20  G20         0.0647
    609  H5'       33.0210   23.4450  117.8720 H      20  G20         0.0591
    610 H5''       33.0860   22.9280  119.3620 H      20  G20         0.0591
    611  P         35.5490   23.6050  122.5230 P.3    21  C21         0.2131
    612  C5'       38.1570   23.6730  122.6630 C.3    21  C21         0.0837
    613  O5'       36.9230   24.3580  122.8070 O.3    21  C21        -0.3248
    614  C4'       39.3320   24.6180  122.6900 C.3    21  C21         0.1139
    615  O4'       39.2450   25.5610  121.5890 O.3    21  C21        -0.3456
    616  C3'       39.4530   25.5060  123.9150 C.3    21  C21         0.1241
    617  O3'       39.9790   24.8320  125.0440 O.3    21  C21        -0.3187
    618  C2'       40.3300   26.6390  123.4030 C.3    21  C21         0.1293
    619  O2'       41.6930   26.2470  123.3370 O.3    21  C21        -0.3846
    620  C1'       39.7990   26.8030  121.9790 C.3    21  C21         0.1680
    621  N1        38.7500   27.8430  121.9010 N.ar   21  C21        -0.2700
    622  C2        39.1400   29.1850  121.9350 C.ar   21  C21         0.3522
    623  O2        40.3450   29.4600  122.0280 O.2    21  C21        -0.2444
    624  N3        38.1960   30.1510  121.8670 N.ar   21  C21        -0.1783
    625  C4        36.9090   29.8190  121.7690 C.ar   21  C21         0.1230
    626  N4        36.0140   30.8090  121.7050 N.pl3  21  C21        -0.3430
    627  C5        36.4820   28.4590  121.7310 C.ar   21  C21        -0.0056
    628  C6        37.4270   27.5120  121.7990 C.ar   21  C21         0.0152
    629  OP1       35.5330   22.3690  123.3460 O.3    21  C21        -0.4373
    630  OP2       34.4440   24.5900  122.6610 O.co2  21  C21        -0.5172
    631 HO2'       41.9220   26.1870  122.5310 H      21  C21         0.2101
    632  H5        35.5810   28.2380  121.6620 H      21  C21         0.0666
    633  H6        37.1790   26.6150  121.7780 H      21  C21         0.0812
    634  H1'       40.5300   27.0330  121.3850 H      21  C21         0.0867
    635  H2'       40.2100   27.4490  123.9240 H      21  C21         0.0666
    636  H3'       38.5770   25.8590  124.1380 H      21  C21         0.0655
    637  H4'       40.1480   24.1030  122.5960 H      21  C21         0.0647
    638  H41       35.1760   30.6280  121.6410 H      21  C21         0.1437
    639  H5'       38.1560   23.1950  121.8190 H      21  C21         0.0591
    640  H42       36.2770   31.6280  121.7270 H      21  C21         0.1437
    641 H5''       38.2500   23.0340  123.3870 H      21  C21         0.0591
    642  P         39.5160   25.2580  126.5230 P.3    22  U22         0.2131
    643  C5'       41.6420   26.7840  126.5980 C.3    22  U22         0.0837
    644  O5'       40.2340   26.6620  126.7400 O.3    22  U22        -0.3248
    645  C4'       42.1110   28.1940  126.8490 C.3    22  U22         0.1139
    646  O4'       41.7930   29.0460  125.7160 O.3    22  U22        -0.3456
    647  C3'       41.4710   28.9050  128.0260 C.3    22  U22         0.1241
    648  O3'       42.0030   28.5030  129.2760 O.3    22  U22        -0.3187
    649  C2'       41.7120   30.3700  127.6870 C.3    22  U22         0.1293
    650  O2'       43.0440   30.7550  127.9910 O.3    22  U22        -0.3846
    651  C1'       41.5310   30.3600  126.1680 C.3    22  U22         0.1680
    652  N1        40.1530   30.7380  125.7730 N.ar   22  U22        -0.2715
    653  C2        39.8600   32.0840  125.6390 C.ar   22  U22         0.3314
    654  O2        40.6800   32.9660  125.8210 O.2    22  U22        -0.2464
    655  N3        38.5650   32.3620  125.2780 N.ar   22  U22        -0.2749
    656  C4        37.5540   31.4530  125.0470 C.ar   22  U22         0.2539
    657  O4        36.4370   31.8620  124.7280 O.2    22  U22        -0.2677
    658  C5        37.9300   30.0800  125.2090 C.ar   22  U22         0.0192
    659  C6        39.1860   29.7840  125.5610 C.ar   22  U22         0.0171
    660  OP1       40.1000   24.2890  127.4840 O.3    22  U22        -0.4373
    661  OP2       38.0470   25.4810  126.5280 O.co2  22  U22        -0.5172
    662 HO2'       43.1440   30.7610  128.8250 H      22  U22         0.2101
    663  H3        38.3630   33.1930  125.1870 H      22  U22         0.1734
    664  H5        37.3080   29.4030  125.0720 H      22  U22         0.0686
    665  H6        39.4180   28.8890  125.6620 H      22  U22         0.0813
    666  H1'       42.1640   30.9740  125.7630 H      22  U22         0.0867
    667  H2'       41.0630   30.9470  128.1190 H      22  U22         0.0666
    668  H3'       40.5170   28.7320  128.0180 H      22  U22         0.0655
    669  H4'       43.0720   28.1850  126.9740 H      22  U22         0.0647
    670  H5'       41.8920   26.5240  125.6970 H      22  U22         0.0591
    671 H5''       42.0750   26.1900  127.2300 H      22  U22         0.0591
    672  P         41.2000   28.8320  130.6270 P.3    23  C23         0.2131
    673  C5'       40.6740   31.2250  131.5690 C.3    23  C23         0.0837
    674  O5'       41.5770   30.3510  130.9120 O.3    23  C23        -0.3248
    675  C4'       40.8360   32.6400  131.0760 C.3    23  C23         0.1139
    676  O4'       40.5180   32.7090  129.6610 O.3    23  C23        -0.3456
    677  C3'       39.9200   33.6690  131.7150 C.3    23  C23         0.1241
    678  O3'       40.3980   34.1120  132.9730 O.3    23  C23        -0.3187
    679  C2'       39.8600   34.7610  130.6560 C.3    23  C23         0.1293
    680  O2'       41.0220   35.5790  130.6920 O.3    23  C23        -0.3846
    681  C1'       39.8810   33.9350  129.3690 C.3    23  C23         0.1680
    682  N1        38.5220   33.6480  128.8480 N.ar   23  C23        -0.2700
    683  C2        37.7280   34.7100  128.4040 C.ar   23  C23         0.3522
    684  O2        38.1690   35.8660  128.4690 O.2    23  C23        -0.2444
    685  N3        36.4900   34.4570  127.9250 N.ar   23  C23        -0.1783
    686  C4        36.0360   33.2060  127.8650 C.ar   23  C23         0.1230
    687  N4        34.8060   33.0090  127.3810 N.pl3  23  C23        -0.3430
    688  C5        36.8240   32.1020  128.3010 C.ar   23  C23        -0.0056
    689  C6        38.0480   32.3640  128.7780 C.ar   23  C23         0.0152
    690  OP1       41.7860   28.0080  131.7110 O.3    23  C23        -0.4373
    691  OP2       39.7400   28.7430  130.3520 O.co2  23  C23        -0.5172
    692 HO2'       41.0130   36.0350  131.3970 H      23  C23         0.2101
    693  H5        36.4990   31.2320  128.2590 H      23  C23         0.0666
    694  H6        38.5840   31.6630  129.0710 H      23  C23         0.0812
    695  H1'       40.3910   34.4080  128.6930 H      23  C23         0.0867
    696  H2'       39.0470   35.2850  130.7280 H      23  C23         0.0666
    697  H3'       39.0370   33.2840  131.8270 H      23  C23         0.0655
    698  H4'       41.7570   32.9150  131.2060 H      23  C23         0.0647
    699  H41       34.4860   32.2120  127.3310 H      23  C23         0.1437
    700  H5'       40.8430   31.1990  132.5240 H      23  C23         0.0591
    701  H42       34.3340   33.6790  127.1200 H      23  C23         0.1437
    702 H5''       39.7660   30.9310  131.3990 H      23  C23         0.0591
    703  P         39.4010   34.2280  134.2270 P.3    24  C24         0.2131
    704  C5'       39.3220   36.7840  133.7080 C.3    24  C24         0.0837
    705  O5'       38.6120   35.5780  133.9440 O.3    24  C24        -0.3248
    706  C4'       38.4200   37.8700  133.1820 C.3    24  C24         0.1139
    707  O4'       38.0250   37.5790  131.8150 O.3    24  C24        -0.3456
    708  C3'       37.1000   38.0500  133.9090 C.3    24  C24         0.1241
    709  O3'       37.2300   38.7540  135.1310 O.3    24  C24        -0.3187
    710  C2'       36.2550   38.7620  132.8620 C.3    24  C24         0.1293
    711  O2'       36.5900   40.1390  132.7780 O.3    24  C24        -0.3846
    712  C1'       36.7180   38.0660  131.5820 C.3    24  C24         0.1680
    713  N1        35.8400   36.9320  131.2080 N.ar   24  C24        -0.2700
    714  C2        34.5500   37.2050  130.7410 C.ar   24  C24         0.3522
    715  O2        34.1750   38.3840  130.6580 O.2    24  C24        -0.2444
    716  N3        33.7370   36.1800  130.3960 N.ar   24  C24        -0.1783
    717  C4        34.1640   34.9200  130.4960 C.ar   24  C24         0.1230
    718  N4        33.3250   33.9420  130.1420 N.pl3  24  C24        -0.3430
    719  C5        35.4740   34.6100  130.9640 C.ar   24  C24        -0.0056
    720  C6        36.2690   35.6350  131.3050 C.ar   24  C24         0.0152
    721  OP1       40.2320   34.4390  135.4400 O.3    24  C24        -0.4373
    722  OP2       38.4310   33.1020  134.1880 O.co2  24  C24        -0.5172
    723 HO2'       36.3370   40.5250  133.4790 H      24  C24         0.2101
    724  H5        35.7660   33.7300  131.0330 H      24  C24         0.0666
    725  H6        37.1290   35.4610  131.6150 H      24  C24         0.0812
    726  H1'       36.7400   38.7090  130.8570 H      24  C24         0.0867
    727  H2'       35.3060   38.6300  133.0160 H      24  C24         0.0666
    728  H3'       36.7150   37.1770  134.0860 H      24  C24         0.0655
    729  H4'       38.9020   38.7110  133.1970 H      24  C24         0.0647
    730  H41       33.5750   33.1210  130.1970 H      24  C24         0.1437
    731  H5'       40.0240   36.6150  133.0610 H      24  C24         0.0591
    732  H42       32.5350   34.1330  129.8610 H      24  C24         0.1437
    733 H5''       39.7240   37.0820  134.5390 H      24  C24         0.0591
    734  P         36.3070   38.3710  136.3910 P.3    25  C25         0.2131
    735  C5'       34.9890   40.5710  135.9020 C.3    25  C25         0.0837
    736  O5'       34.9600   39.1700  136.1160 O.3    25  C25        -0.3248
    737  C4'       33.7050   41.0660  135.2900 C.3    25  C25         0.1139
    738  O4'       33.5240   40.5010  133.9640 O.3    25  C25        -0.3456
    739  C3'       32.4360   40.6820  136.0260 C.3    25  C25         0.1241
    740  O3'       32.2000   41.4910  137.1650 O.3    25  C25        -0.3187
    741  C2'       31.3790   40.8090  134.9370 C.3    25  C25         0.1293
    742  O2'       31.0140   42.1660  134.7290 O.3    25  C25        -0.3846
    743  C1'       32.1460   40.3080  133.7110 C.3    25  C25         0.1680
    744  N1        31.9040   38.8710  133.4400 N.ar   25  C25        -0.2700
    745  C2        30.6860   38.4820  132.8760 C.ar   25  C25         0.3522
    746  O2        29.8400   39.3510  132.6230 O.2    25  C25        -0.2444
    747  N3        30.4570   37.1720  132.6220 N.ar   25  C25        -0.1783
    748  C4        31.3900   36.2600  132.9060 C.ar   25  C25         0.1230
    749  N4        31.1280   34.9770  132.6400 N.pl3  25  C25        -0.3430
    750  C5        32.6400   36.6260  133.4780 C.ar   25  C25        -0.0056
    751  C6        32.8510   37.9260  133.7260 C.ar   25  C25         0.0152
    752  OP1       36.9320   38.9520  137.6060 O.3    25  C25        -0.4373
    753  OP2       36.0000   36.9170  136.3550 O.co2  25  C25        -0.5172
    754 HO2'       31.2960   42.4130  133.9770 H      25  C25         0.2101
    755  H5        33.2860   35.9870  133.6750 H      25  C25         0.0666
    756  H6        33.6600   38.1920  134.0990 H      25  C25         0.0812
    757  H1'       31.8870   40.8300  132.9360 H      25  C25         0.0867
    758  H2'       30.6060   40.2520  135.1230 H      25  C25         0.0666
    759  H3'       32.4970   39.7540  136.3020 H      25  C25         0.0655
    760  H4'       33.7450   42.0330  135.2160 H      25  C25         0.0647
    761  H41       31.7150   34.3730  132.8160 H      25  C25         0.1437
    762  H5'       35.7260   40.7860  135.3080 H      25  C25         0.0591
    763  H42       30.3730   34.7550  132.2950 H      25  C25         0.1437
    764 H5''       35.1270   41.0180  136.7520 H      25  C25         0.0591
    765  P         31.5420   40.8620  138.4890 P.3    26  C26         0.2131
    766  C5'       29.3330   41.9190  137.5740 C.3    26  C26         0.0837
    767  O5'       29.9960   40.7900  138.1240 O.3    26  C26        -0.3248
    768  C4'       27.9400   41.5750  137.1160 C.3    26  C26         0.1139
    769  O4'       27.9820   40.8780  135.8440 O.3    26  C26        -0.3456
    770  C3'       27.1610   40.6390  138.0180 C.3    26  C26         0.1241
    771  O3'       26.6350   41.2940  139.1590 O.3    26  C26        -0.3187
    772  C2'       26.1110   40.0800  137.0680 C.3    26  C26         0.1293
    773  O2'       25.0570   41.0090  136.8640 O.3    26  C26        -0.3846
    774  C1'       26.9190   39.9480  135.7760 C.3    26  C26         0.1680
    775  N1        27.4850   38.5880  135.6030 N.ar   26  C26        -0.2700
    776  C2        26.6500   37.5630  135.1470 C.ar   26  C26         0.3522
    777  O2        25.4640   37.8200  134.9010 O.2    26  C26        -0.2444
    778  N3        27.1510   36.3170  134.9860 N.ar   26  C26        -0.1783
    779  C4        28.4330   36.0710  135.2600 C.ar   26  C26         0.1230
    780  N4        28.8880   34.8260  135.0880 N.pl3  26  C26        -0.3430
    781  C5        29.3090   37.0930  135.7240 C.ar   26  C26        -0.0056
    782  C6        28.8000   38.3230  135.8800 C.ar   26  C26         0.0152
    783  OP1       31.7100   41.8530  139.5820 O.3    26  C26        -0.4373
    784  OP2       32.0370   39.4720  138.6790 O.co2  26  C26        -0.5172
    785 HO2'       25.0940   41.2950  136.0750 H      26  C26         0.2101
    786  H5        30.2020   36.9140  135.9140 H      26  C26         0.0666
    787  H6        29.3490   39.0090  136.1830 H      26  C26         0.0812
    788  H1'       26.3530   40.1610  135.0170 H      26  C26         0.0867
    789  H2'       25.7800   39.2190  137.3690 H      26  C26         0.0666
    790  H3'       27.7440   39.9190  138.3070 H      26  C26         0.0655
    791  H4'       27.4360   42.3970  137.0070 H      26  C26         0.0647
    792  H41       29.7100   34.6420  135.2570 H      26  C26         0.1437
    793  H5'       29.8430   42.2470  136.8160 H      26  C26         0.0591
    794  H42       28.3570   34.2100  134.8080 H      26  C26         0.1437
    795 H5''       29.2830   42.6150  138.2470 H      26  C26         0.0591
    796  P         26.6170   40.5540  140.5850 P.3    27  G27         0.2131
    797  C5'       24.0500   40.3750  140.1340 C.3    27  G27         0.0837
    798  O5'       25.2510   39.7440  140.5530 O.3    27  G27        -0.3248
    799  C4'       23.0080   39.3640  139.7370 C.3    27  G27         0.1139
    800  O4'       23.3830   38.7260  138.4890 O.3    27  G27        -0.3456
    801  C3'       22.8140   38.2060  140.6990 C.3    27  G27         0.1241
    802  O3'       22.0030   38.5530  141.8090 O.3    27  G27        -0.3187
    803  C2'       22.2120   37.1300  139.8050 C.3    27  G27         0.1292
    804  O2'       20.8200   37.3330  139.6240 O.3    27  G27        -0.3846
    805  C1'       22.9330   37.3870  138.4790 C.3    27  G27         0.1667
    806  N1        24.5270   32.6860  137.2730 N.ar   27  G27        -0.2934
    807  C2        23.2490   33.1800  137.3530 C.ar   27  G27         0.1950
    808  N2        22.2640   32.3120  137.0750 N.pl3  27  G27        -0.3289
    809  N3        22.9540   34.4300  137.6790 N.ar   27  G27        -0.1963
    810  C4        24.0600   35.1640  137.9250 C.ar   27  G27         0.1712
    811  C5        25.3800   34.7640  137.8720 C.ar   27  G27         0.1721
    812  C6        25.6810   33.4220  137.5220 C.ar   27  G27         0.2803
    813  O6        26.7900   32.8830  137.4240 O.2    27  G27        -0.2654
    814  N7        26.2260   35.8140  138.1930 N.ar   27  G27        -0.2286
    815  C8        25.4220   36.8120  138.4320 C.ar   27  G27         0.1005
    816  N9        24.0930   36.4930  138.2880 N.ar   27  G27        -0.2854
    817  OP1       26.4900   41.5990  141.6300 O.3    27  G27        -0.4373
    818  OP2       27.7330   39.5740  140.6620 O.co2  27  G27        -0.5172
    819 HO2'       20.5260   37.7950  140.2610 H      27  G27         0.2101
    820  H1        24.6220   31.8600  137.0530 H      27  G27         0.1716
    821  H8        25.7190   37.6600  138.6730 H      27  G27         0.1030
    822  H1'       22.3100   37.2640  137.7470 H      27  G27         0.0866
    823  H2'       22.4030   36.2410  140.1430 H      27  G27         0.0666
    824  H21       22.4530   31.5010  136.8630 H      27  G27         0.1451
    825  H3'       23.6800   37.9080  141.0180 H      27  G27         0.0655
    826  H22       21.4430   32.5680  137.1090 H      27  G27         0.1451
    827  H4'       22.1590   39.8180  139.6160 H      27  G27         0.0647
    828  H5'       24.2410   40.9480  139.3760 H      27  G27         0.0591
    829 H5''       23.7060   40.9160  140.8620 H      27  G27         0.0591
    830  P         22.2530   37.8830  143.2480 P.3    28  G28         0.2131
    831  C5'       22.1020   35.2640  143.2730 C.3    28  G28         0.0837
    832  O5'       21.4410   36.5150  143.1670 O.3    28  G28        -0.3248
    833  C4'       21.4160   34.2030  142.4500 C.3    28  G28         0.1139
    834  O4'       22.0090   34.1620  141.1240 O.3    28  G28        -0.3456
    835  C3'       21.5570   32.7840  142.9800 C.3    28  G28         0.1241
    836  O3'       20.5750   32.4800  143.9540 O.3    28  G28        -0.3187
    837  C2'       21.4590   31.9370  141.7190 C.3    28  G28         0.1292
    838  O2'       20.1060   31.7670  141.3200 O.3    28  G28        -0.3846
    839  C1'       22.1690   32.8280  140.7020 C.3    28  G28         0.1667
    840  N1        25.9170   29.4870  139.6900 N.ar   28  G28        -0.2934
    841  C2        24.5580   29.3010  139.6400 C.ar   28  G28         0.1950
    842  N2        24.1430   28.0790  139.2780 N.pl3  28  G28        -0.3289
    843  N3        23.6710   30.2390  139.9230 N.ar   28  G28        -0.1963
    844  C4        24.2610   31.4010  140.2670 C.ar   28  G28         0.1712
    845  C5        25.6100   31.6880  140.3490 C.ar   28  G28         0.1721
    846  C6        26.5500   30.6730  140.0420 C.ar   28  G28         0.2803
    847  O6        27.7850   30.7370  140.0550 O.2    28  G28        -0.2654
    848  N7        25.8140   33.0030  140.7410 N.ar   28  G28        -0.2286
    849  C8        24.6100   33.4810  140.8880 C.ar   28  G28         0.1005
    850  N9        23.6190   32.5640  140.6230 N.ar   28  G28        -0.2854
    851  OP1       21.5810   38.7410  144.2550 O.3    28  G28        -0.4373
    852  OP2       23.7020   37.5900  143.4090 O.co2  28  G28        -0.5172
    853 HO2'       19.6170   31.7770  142.0020 H      28  G28         0.2101
    854  H1        26.4160   28.8160  139.4880 H      28  G28         0.1716
    855  H8        24.4380   34.3560  141.1510 H      28  G28         0.1030
    856  H1'       21.7670   32.7110  139.8270 H      28  G28         0.0866
    857  H2'       21.9140   31.0860  141.8240 H      28  G28         0.0666
    858  H21       24.7180   27.4670  139.0930 H      28  G28         0.1451
    859  H3'       22.4390   32.6750  143.3700 H      28  G28         0.0655
    860  H22       23.3020   27.9070  139.2310 H      28  G28         0.1451
    861  H4'       20.4740   34.4210  142.3700 H      28  G28         0.0647
    862  H5'       22.1090   34.9870  144.2020 H      28  G28         0.0591
    863 H5''       23.0160   35.3610  142.9640 H      28  G28         0.0591
    864  P         20.9940   31.9030  145.3940 P.3    29  C29         0.2131
    865  C5'       20.0920   29.6320  144.4550 C.3    29  C29         0.0837
    866  O5'       21.1130   30.3360  145.1470 O.3    29  C29        -0.3248
    867  C4'       20.6030   28.3290  143.8960 C.3    29  C29         0.1139
    868  O4'       21.5180   28.5850  142.7990 O.3    29  C29        -0.3456
    869  C3'       21.4080   27.4680  144.8530 C.3    29  C29         0.1241
    870  O3'       20.5950   26.7220  145.7410 O.3    29  C29        -0.3187
    871  C2'       22.2350   26.6110  143.9060 C.3    29  C29         0.1293
    872  O2'       21.4600   25.5470  143.3800 O.3    29  C29        -0.3846
    873  C1'       22.5340   27.6020  142.7810 C.3    29  C29         0.1680
    874  N1        23.8430   28.2700  142.9590 N.ar   29  C29        -0.2700
    875  C2        24.9920   27.6580  142.4470 C.ar   29  C29         0.3522
    876  O2        24.8910   26.5720  141.8570 O.2    29  C29        -0.2444
    877  N3        26.1880   28.2680  142.6040 N.ar   29  C29        -0.1783
    878  C4        26.2620   29.4370  143.2430 C.ar   29  C29         0.1230
    879  N4        27.4680   29.9940  143.3730 N.pl3  29  C29        -0.3430
    880  C5        25.1090   30.0820  143.7760 C.ar   29  C29        -0.0056
    881  C6        23.9310   29.4690  143.6120 C.ar   29  C29         0.0152
    882  OP1       19.8510   32.1310  146.3150 O.3    29  C29        -0.4373
    883  OP2       22.3380   32.4240  145.7550 O.co2  29  C29        -0.5172
    884 HO2'       21.2940   24.9990  143.9950 H      29  C29         0.2101
    885  H5        25.1720   30.8970  144.2190 H      29  C29         0.0666
    886  H6        23.1590   29.8640  143.9470 H      29  C29         0.0812
    887  H1'       22.5200   27.1390  141.9290 H      29  C29         0.0867
    888  H2'       23.0490   26.2930  144.3280 H      29  C29         0.0666
    889  H3'       22.0020   28.0360  145.3680 H      29  C29         0.0655
    890  H4'       19.8510   27.8130  143.5650 H      29  C29         0.0647
    891  H41       27.5510   30.7480  143.7800 H      29  C29         0.1437
    892  H5'       19.7650   30.1830  143.7280 H      29  C29         0.0591
    893  H42       28.1610   29.6010  143.0510 H      29  C29         0.1437
    894 H5''       19.3630   29.4490  145.0680 H      29  C29         0.0591
    895  P         21.1960   26.2190  147.1430 P.3    30  G30         0.2131
    896  C5'       23.2700   24.7030  147.6580 C.3    30  G30         0.0837
    897  O5'       22.3370   25.1990  146.7130 O.3    30  G30        -0.3248
    898  C4'       24.1360   23.6330  147.0470 C.3    30  G30         0.1139
    899  O4'       24.6830   24.1100  145.7900 O.3    30  G30        -0.3456
    900  C3'       25.3550   23.2130  147.8550 C.3    30  G30         0.1241
    901  O3'       25.0390   22.2650  148.8590 O.3    30  G30        -0.3187
    902  C2'       26.2920   22.6780  146.7810 C.3    30  G30         0.1292
    903  O2'       25.9330   21.3570  146.4030 O.3    30  G30        -0.3846
    904  C1'       25.9960   23.6270  145.6180 C.3    30  G30         0.1667
    905  N1        30.8120   25.2150  145.1130 N.ar   30  G30        -0.2934
    906  C2        30.3070   23.9390  145.0880 C.ar   30  G30         0.1950
    907  N2        31.2020   22.9580  144.9050 N.pl3  30  G30        -0.3289
    908  N3        29.0250   23.6470  145.2320 N.ar   30  G30        -0.1963
    909  C4        28.2740   24.7550  145.4050 C.ar   30  G30         0.1712
    910  C5        28.6790   26.0740  145.4460 C.ar   30  G30         0.1721
    911  C6        30.0580   26.3700  145.2900 C.ar   30  G30         0.2803
    912  O6        30.6160   27.4740  145.2960 O.2    30  G30        -0.2654
    913  N7        27.5950   26.9180  145.6440 N.ar   30  G30        -0.2286
    914  C8        26.5710   26.1120  145.7190 C.ar   30  G30         0.1005
    915  N9        26.9110   24.7840  145.5870 N.ar   30  G30        -0.2854
    916  OP1       20.1450   25.4540  147.8610 O.3    30  G30        -0.4373
    917  OP2       21.8520   27.3740  147.8080 O.co2  30  G30        -0.5172
    918 HO2'       25.4120   21.0390  146.9800 H      30  G30         0.2101
    919  H1        31.6600   25.3070  145.0100 H      30  G30         0.1716
    920  H8        25.6980   26.4050  145.8520 H      30  G30         0.1030
    921  H1'       26.0570   23.1420  144.7800 H      30  G30         0.0866
    922  H2'       27.2200   22.7330  147.0570 H      30  G30         0.0666
    923  H21       32.0350   23.1480  144.8110 H      30  G30         0.1451
    924  H3'       25.7530   23.9970  148.2660 H      30  G30         0.0655
    925  H22       30.9430   22.1380  144.8810 H      30  G30         0.1451
    926  H4'       23.5900   22.8500  146.8740 H      30  G30         0.0647
    927  H5'       22.7900   24.3310  148.4150 H      30  G30         0.0591
    928 H5''       23.8320   25.4320  147.9650 H      30  G30         0.0591
    929  P         25.6610   22.3930  150.3360 P.3    31  U31         0.2131
    930  C5'       27.4380   20.5700  149.7090 C.3    31  U31         0.0837
    931  O5'       27.1600   21.8860  150.1650 O.3    31  U31        -0.3248
    932  C4'       28.8860   20.4200  149.3150 C.3    31  U31         0.1139
    933  O4'       29.1670   21.2540  148.1580 O.3    31  U31        -0.3456
    934  C3'       29.9050   20.8700  150.3500 C.3    31  U31         0.1241
    935  O3'       30.1450   19.9050  151.3590 O.3    31  U31        -0.3187
    936  C2'       31.1230   21.1820  149.4940 C.3    31  U31         0.1293
    937  O2'       31.7930   19.9940  149.1000 O.3    31  U31        -0.3846
    938  C1'       30.4630   21.8070  148.2670 C.3    31  U31         0.1680
    939  N1        30.3370   23.2760  148.4020 N.ar   31  U31        -0.2715
    940  C2        31.4810   24.0410  148.2940 C.ar   31  U31         0.3314
    941  O2        32.5830   23.5610  148.0930 O.2    31  U31        -0.2464
    942  N3        31.2820   25.3920  148.4360 N.ar   31  U31        -0.2749
    943  C4        30.0860   26.0390  148.6670 C.ar   31  U31         0.2539
    944  O4        30.0760   27.2670  148.7680 O.2    31  U31        -0.2677
    945  C5        28.9480   25.1800  148.7650 C.ar   31  U31         0.0192
    946  C6        29.1140   23.8620  148.6330 C.ar   31  U31         0.0171
    947  OP1       24.9510   21.4140  151.1960 O.3    31  U31        -0.4373
    948  OP2       25.6970   23.8240  150.7310 O.co2  31  U31        -0.5172
    949 HO2'       32.1570   19.6490  149.7740 H      31  U31         0.2101
    950  H3        31.9810   25.8890  148.3720 H      31  U31         0.1734
    951  H5        28.1030   25.5350  148.9200 H      31  U31         0.0686
    952  H6        28.3670   23.3130  148.7000 H      31  U31         0.0813
    953  H1'       30.9780   21.5930  147.4740 H      31  U31         0.0867
    954  H2'       31.7200   21.8070  149.9340 H      31  U31         0.0666
    955  H3'       29.5930   21.6890  150.7650 H      31  U31         0.0655
    956  H4'       29.0560   19.4930  149.0850 H      31  U31         0.0647
    957  H5'       26.8780   20.3750  148.9410 H      31  U31         0.0591
    958 H5''       27.2360   19.9390  150.4180 H      31  U31         0.0591
    959  P         30.3480   20.3660  152.8860 P.3    32  G32         0.2131
    960  C5'       32.9530   20.3650  152.5600 C.3    32  G32         0.0837
    961  O5'       31.7710   21.0820  152.8860 O.3    32  G32        -0.3248
    962  C4'       34.1690   21.2560  152.5990 C.3    32  G32         0.1139
    963  O4'       34.0770   22.2530  151.5500 O.3    32  G32        -0.3456
    964  C3'       34.3600   22.0640  153.8740 C.3    32  G32         0.1241
    965  O3'       34.9860   21.3120  154.9020 O.3    32  G32        -0.3187
    966  C2'       35.1890   23.2520  153.3980 C.3    32  G32         0.1292
    967  O2'       36.5660   22.9150  153.3120 O.3    32  G32        -0.3846
    968  C1'       34.6400   23.4710  151.9870 C.3    32  G32         0.1667
    969  N1        33.5110   28.3820  151.1120 N.ar   32  G32        -0.2934
    970  C2        34.7270   27.7490  151.0540 C.ar   32  G32         0.1950
    971  N2        35.7740   28.5160  150.7190 N.pl3  32  G32        -0.3289
    972  N3        34.9040   26.4600  151.3020 N.ar   32  G32        -0.1963
    973  C4        33.7470   25.8410  151.6240 C.ar   32  G32         0.1712
    974  C5        32.4820   26.3850  151.7100 C.ar   32  G32         0.1721
    975  C6        32.3070   27.7670  151.4410 C.ar   32  G32         0.2803
    976  O6        31.2630   28.4290  151.4680 O.2    32  G32        -0.2654
    977  N7        31.5530   25.4180  152.0690 N.ar   32  G32        -0.2286
    978  C8        32.2540   24.3250  152.1910 C.ar   32  G32         0.1005
    979  N9        33.5920   24.5090  151.9390 N.ar   32  G32        -0.2854
    980  OP1       30.4500   19.1430  153.7210 O.3    32  G32        -0.4373
    981  OP2       29.3230   21.3940  153.2100 O.co2  32  G32        -0.5172
    982 HO2'       36.7190   22.2610  153.8160 H      32  G32         0.2101
    983  H1        33.4920   29.2240  150.9350 H      32  G32         0.1716
    984  H8        31.8860   23.5050  152.4280 H      32  G32         0.1030
    985  H1'       35.3670   23.7200  151.3950 H      32  G32         0.0866
    986  H2'       35.0450   24.0310  153.9580 H      32  G32         0.0666
    987  H21       35.6600   29.3530  150.5580 H      32  G32         0.1451
    988  H3'       33.4970   22.3790  154.1860 H      32  G32         0.0655
    989  H22       36.5600   28.1710  150.6650 H      32  G32         0.1451
    990  H4'       34.9600   20.7140  152.4500 H      32  G32         0.0647
    991  H5'       32.8620   19.9920  151.6690 H      32  G32         0.0591
    992 H5''       33.0700   19.6410  153.1960 H      32  G32         0.0591
    993  P         34.3440   21.2050  156.3750 P.3    33  U33         0.2131
    994  C5'       35.1530   23.5150  157.2960 C.3    33  U33         0.0838
    995  O5'       35.3020   22.1040  157.2730 O.3    33  U33        -0.3248
    996  C4'       36.3720   24.2010  157.8560 C.3    33  U33         0.1165
    997  O4'       37.1080   24.8310  156.7720 O.3    33  U33        -0.3455
    998  C3'       36.0910   25.3350  158.8340 C.3    33  U33         0.1518
    999  O3'       35.8850   24.8840  160.1620 O.3    33  U33        -0.2255
   1000  C2'       37.3080   26.2330  158.6700 C.3    33  U33         0.1319
   1001  O2'       38.4240   25.7220  159.3840 O.3    33  U33        -0.3845
   1002  C1'       37.5750   26.1010  157.1730 C.3    33  U33         0.1681
   1003  N1        36.8390   27.1200  156.3920 N.ar   33  U33        -0.2715
   1004  C2        37.4380   28.3390  156.1390 C.ar   33  U33         0.3314
   1005  O2        38.5570   28.6280  156.5260 O.2    33  U33        -0.2464
   1006  N3        36.6730   29.2140  155.4070 N.ar   33  U33        -0.2749
   1007  C4        35.3990   29.0000  154.9170 C.ar   33  U33         0.2539
   1008  O4        34.8390   29.8900  154.2750 O.2    33  U33        -0.2677
   1009  C5        34.8470   27.7160  155.2210 C.ar   33  U33         0.0192
   1010  C6        35.5720   26.8460  155.9300 C.ar   33  U33         0.0171
   1011  OP1       34.4980   19.7990  156.8230 O.3    33  U33        -0.4373
   1012  OP2       32.9950   21.8260  156.3920 O.co2  33  U33        -0.5172
   1013 HO2'       38.2780   25.7940  160.2080 H      33  U33         0.2101
   1014  H3        37.0240   29.9800  155.2360 H      33  U33         0.1734
   1015  H5        33.9940   27.4890  154.9280 H      33  U33         0.0686
   1016  H6        35.2010   26.0150  156.1220 H      33  U33         0.0813
   1017  H1'       38.5260   26.1730  156.9990 H      33  U33         0.0867
   1018  H2'       37.1110   27.1500  158.9160 H      33  U33         0.0667
   1019  H3'       35.3020   25.8170  158.5390 H      33  U33         0.0683
   1020  H4'       36.9400   23.5420  158.2860 H      33  U33         0.0648
   1021  H5'       34.3840   23.7420  157.8420 H      33  U33         0.0591
   1022 H5''       35.0020   23.8300  156.3910 H      33  U33         0.0591
   1023  C5'       24.1100   20.3140  160.5100 C.3    36  C36         0.1116
   1024  O5'       25.4970   20.0590  160.6820 O.3    36  C36        -0.2320
   1025  C4'       23.7380   21.6780  161.0300 C.3    36  C36         0.1165
   1026  O4'       24.1590   21.8020  162.4140 O.3    36  C36        -0.3455
   1027  C3'       24.4080   22.8480  160.3240 C.3    36  C36         0.1242
   1028  O3'       23.7270   23.2300  159.1410 O.3    36  C36        -0.3187
   1029  C2'       24.4260   23.9310  161.3940 C.3    36  C36         0.1293
   1030  O2'       23.1800   24.6070  161.4670 O.3    36  C36        -0.3846
   1031  C1'       24.6240   23.1090  162.6680 C.3    36  C36         0.1680
   1032  N1        26.0460   23.0360  163.0800 N.ar   36  C36        -0.2700
   1033  C2        26.6800   24.1850  163.5640 C.ar   36  C36         0.3522
   1034  O2        26.0370   25.2440  163.6240 O.2    36  C36        -0.2444
   1035  N3        27.9770   24.1190  163.9460 N.ar   36  C36        -0.1783
   1036  C4        28.6390   22.9640  163.8670 C.ar   36  C36         0.1230
   1037  N4        29.9170   22.9420  164.2550 N.pl3  36  C36        -0.3430
   1038  C5        28.0210   21.7760  163.3830 C.ar   36  C36        -0.0056
   1039  C6        26.7380   21.8560  163.0070 C.ar   36  C36         0.0152
   1040 HO2'       23.0720   25.0580  160.7660 H      36  C36         0.2101
   1041  H5        28.4900   20.9750  163.3310 H      36  C36         0.0666
   1042  H6        26.3080   21.0960  162.6880 H      36  C36         0.0812
   1043  H1'       24.1020   23.5010  163.3860 H      36  C36         0.0867
   1044  H2'       25.1600   24.5500  161.2580 H      36  C36         0.0666
   1045  H3'       25.3200   22.6050  160.1020 H      36  C36         0.0655
   1046  H4'       22.7760   21.7860  160.9800 H      36  C36         0.0648
   1047  H41       30.3660   22.2100  164.2130 H      36  C36         0.1437
   1048  H5'       23.6010   19.6410  160.9910 H      36  C36         0.0618
   1049  H42       30.2900   23.6600  164.5450 H      36  C36         0.1437
   1050 H5''       23.8920   20.2630  159.5670 H      36  C36         0.0618
   1051  P         24.4570   24.1370  158.0330 P.3    37  G37         0.2131
   1052  C5'       23.5890   26.5160  157.2960 C.3    37  G37         0.0837
   1053  O5'       23.3140   25.1460  157.5610 O.3    37  G37        -0.3248
   1054  C4'       22.7710   27.4250  158.1830 C.3    37  G37         0.1139
   1055  O4'       23.0220   27.0950  159.5800 O.3    37  G37        -0.3456
   1056  C3'       23.0780   28.9140  158.0830 C.3    37  G37         0.1241
   1057  O3'       22.4070   29.5480  157.0040 O.3    37  G37        -0.3187
   1058  C2'       22.6620   29.4280  159.4520 C.3    37  G37         0.1292
   1059  O2'       21.2500   29.5510  159.5410 O.3    37  G37        -0.3846
   1060  C1'       23.1050   28.2750  160.3460 C.3    37  G37         0.1667
   1061  N1        27.1290   31.2410  161.6390 N.ar   37  G37        -0.2934
   1062  C2        25.8850   31.6330  161.2200 C.ar   37  G37         0.1950
   1063  N2        25.6700   32.9510  161.1250 N.pl3  37  G37        -0.3289
   1064  N3        24.9150   30.7960  160.9130 N.ar   37  G37        -0.1963
   1065  C4        25.2810   29.5070  161.0560 C.ar   37  G37         0.1712
   1066  C5        26.5040   29.0140  161.4670 C.ar   37  G37         0.1721
   1067  C6        27.5390   29.9240  161.7960 C.ar   37  G37         0.2803
   1068  O6        28.6880   29.6740  162.1830 O.2    37  G37        -0.2654
   1069  N7        26.5020   27.6300  161.4890 N.ar   37  G37        -0.2286
   1070  C8        25.3020   27.3160  161.0940 C.ar   37  G37         0.1005
   1071  N9        24.5040   28.3950  160.8090 N.ar   37  G37        -0.2854
   1072  OP1       24.7870   23.2570  156.8830 O.2    37  G37        -0.5172
   1073  OP2       25.5480   24.8960  158.6970 O.co2  37  G37        -0.4373
   1074 HO2'       21.0510   30.3630  159.6270 H      37  G37         0.2101
   1075  H1        27.6990   31.8580  161.8200 H      37  G37         0.1716
   1076  H8        25.0100   26.4370  161.0110 H      37  G37         0.1030
   1077  H1'       22.5120   28.2080  161.1110 H      37  G37         0.0866
   1078  H2'       23.1150   30.2540  159.6800 H      37  G37         0.0666
   1079  H21       26.2980   33.5040  161.3240 H      37  G37         0.1451
   1080  H3'       24.0350   29.0340  157.9770 H      37  G37         0.0655
   1081  H22       24.9040   33.2440  160.8660 H      37  G37         0.1451
   1082  H4'       21.8300   27.2850  157.9920 H      37  G37         0.0647
   1083  H5'       23.3820   26.7070  156.3680 H      37  G37         0.0591
   1084 H5''       24.5320   26.6860  157.4520 H      37  G37         0.0591
   1085  P         22.2970   31.1520  156.9140 P.3    38  A38         0.2131
   1086  C5'       24.3310   32.7220  156.3270 C.3    38  A38         0.0837
   1087  O5'       23.7910   31.6710  157.1290 O.3    38  A38        -0.3248
   1088  C4'       24.2880   34.0600  157.0310 C.3    38  A38         0.1139
   1089  O4'       25.0940   33.9780  158.2340 O.3    38  A38        -0.3456
   1090  C3'       24.8340   35.2320  156.2130 C.3    38  A38         0.1241
   1091  O3'       24.0280   36.4020  156.3590 O.3    38  A38        -0.3187
   1092  C2'       26.2280   35.4670  156.7910 C.3    38  A38         0.1292
   1093  O2'       26.6590   36.8110  156.7520 O.3    38  A38        -0.3846
   1094  C1'       26.1010   34.9710  158.2260 C.3    38  A38         0.1667
   1095  N1        30.9110   35.8200  159.8090 N.ar   38  A38        -0.2188
   1096  C2        29.9270   36.6480  159.4360 C.ar   38  A38         0.1205
   1097  N3        28.6920   36.3560  159.0350 N.ar   38  A38        -0.2159
   1098  C4        28.4920   35.0270  159.0420 C.ar   38  A38         0.1674
   1099  C5        29.4040   34.0510  159.3940 C.ar   38  A38         0.1473
   1100  C6        30.6760   34.4900  159.7990 C.ar   38  A38         0.1472
   1101  N6        31.6580   33.6640  160.1690 N.pl3  38  A38        -0.3413
   1102  N7        28.8460   32.7860  159.2710 N.ar   38  A38        -0.2306
   1103  C8        27.6280   33.0230  158.8460 C.ar   38  A38         0.1004
   1104  N9        27.3450   34.3580  158.6950 N.ar   38  A38        -0.2855
   1105  OP1       21.4860   31.6430  158.0540 O.3    38  A38        -0.4373
   1106  OP2       21.8510   31.4850  155.5380 O.co2  38  A38        -0.5172
   1107 HO2'       26.7190   37.0560  155.9500 H      38  A38         0.2101
   1108  H2        30.1360   37.5540  159.4600 H      38  A38         0.1048
   1109  H8        27.0100   32.3500  158.6750 H      38  A38         0.1030
   1110  H1'       25.8500   35.7030  158.8100 H      38  A38         0.0866
   1111  H2'       26.8670   34.9120  156.3170 H      38  A38         0.0666
   1112  H3'       24.8980   34.9850  155.2780 H      38  A38         0.0655
   1113  H4'       23.3710   34.2520  157.2810 H      38  A38         0.0647
   1114  H5'       23.8220   32.7830  155.5040 H      38  A38         0.0591
   1115  H61       32.4200   33.9830  160.4080 H      38  A38         0.1438
   1116  H62       31.5280   32.8140  160.1690 H      38  A38         0.1438
   1117 H5''       25.2530   32.5100  156.1110 H      38  A38         0.0591
   1118  P         23.8320   37.4070  155.1120 P.3    39  A39         0.2131
   1119  C5'       25.4890   37.6440  153.0660 C.3    39  A39         0.0837
   1120  O5'       24.7580   36.8060  153.9560 O.3    39  A39        -0.3248
   1121  C4'       26.9550   37.6760  153.4240 C.3    39  A39         0.1139
   1122  O4'       27.1900   36.7830  154.5410 O.3    39  A39        -0.3456
   1123  C3'       27.9260   37.1990  152.3520 C.3    39  A39         0.1241
   1124  O3'       28.2480   38.2100  151.4100 O.3    39  A39        -0.3187
   1125  C2'       29.1230   36.7210  153.1670 C.3    39  A39         0.1292
   1126  O2'       29.9460   37.8090  153.5600 O.3    39  A39        -0.3846
   1127  C1'       28.4420   36.1490  154.4080 C.3    39  A39         0.1667
   1128  N1        30.0820   31.4600  155.8080 N.ar   39  A39        -0.2188
   1129  C2        30.5490   32.6900  156.0610 C.ar   39  A39         0.1205
   1130  N3        30.0750   33.8690  155.6640 N.ar   39  A39        -0.2159
   1131  C4        28.9740   33.7090  154.9080 C.ar   39  A39         0.1674
   1132  C5        28.3730   32.5110  154.5640 C.ar   39  A39         0.1473
   1133  C6        28.9730   31.3340  155.0470 C.ar   39  A39         0.1472
   1134  N6        28.5070   30.1080  154.7970 N.pl3  39  A39        -0.3413
   1135  N7        27.2530   32.7330  153.7760 N.ar   39  A39        -0.2306
   1136  C8        27.2000   34.0380  153.6630 C.ar   39  A39         0.1004
   1137  N9        28.2150   34.6920  154.3190 N.ar   39  A39        -0.2855
   1138  OP1       24.3790   38.7290  155.5100 O.3    39  A39        -0.4373
   1139  OP2       22.4210   37.2980  154.6570 O.co2  39  A39        -0.5172
   1140 HO2'       30.3230   38.1270  152.8800 H      39  A39         0.2101
   1141  H2        31.3140   32.7250  156.5880 H      39  A39         0.1048
   1142  H8        26.5400   34.4800  153.1800 H      39  A39         0.1030
   1143  H1'       28.9840   36.3420  155.1890 H      39  A39         0.0866
   1144  H2'       29.6270   36.0410  152.6940 H      39  A39         0.0666
   1145  H3'       27.5380   36.4430  151.8860 H      39  A39         0.0655
   1146  H4'       27.1950   38.5780  153.6870 H      39  A39         0.0647
   1147  H5'       25.1310   38.5440  153.1110 H      39  A39         0.0591
   1148  H61       28.9120   29.4200  155.1180 H      39  A39         0.1438
   1149  H62       27.8030   30.0050  154.3140 H      39  A39         0.1438
   1150 H5''       25.3910   37.3080  152.1610 H      39  A39         0.0591
   1151  P         29.3420   37.9370  150.2630 P.3    40  C40         0.2131
   1152  C5'       31.8750   38.5880  150.0720 C.3    40  C40         0.0837
   1153  O5'       30.6660   38.6300  150.8150 O.3    40  C40        -0.3248
   1154  C4'       33.0760   38.4550  150.9740 C.3    40  C40         0.1139
   1155  O4'       32.7170   37.7060  152.1630 O.3    40  C40        -0.3456
   1156  C3'       34.2620   37.6990  150.3970 C.3    40  C40         0.1241
   1157  O3'       35.0790   38.5170  149.5750 O.3    40  C40        -0.3187
   1158  C2'       34.9810   37.1840  151.6390 C.3    40  C40         0.1293
   1159  O2'       35.8430   38.1720  152.1820 O.3    40  C40        -0.3846
   1160  C1'       33.8190   36.9480  152.6080 C.3    40  C40         0.1680
   1161  N1        33.4170   35.5250  152.7060 N.ar   40  C40        -0.2700
   1162  C2        34.2950   34.6120  153.2990 C.ar   40  C40         0.3522
   1163  O2        35.3980   35.0110  153.7030 O.2    40  C40        -0.2444
   1164  N3        33.9290   33.3140  153.4050 N.ar   40  C40        -0.1783
   1165  C4        32.7360   32.9200  152.9570 C.ar   40  C40         0.1230
   1166  N4        32.4140   31.6320  153.0840 N.pl3  40  C40        -0.3430
   1167  C5        31.8160   33.8290  152.3610 C.ar   40  C40        -0.0056
   1168  C6        32.1920   35.1090  152.2600 C.ar   40  C40         0.0152
   1169  OP1       28.9180   38.6640  149.0410 O.2    40  C40        -0.5172
   1170  OP2       29.5860   36.4740  150.1910 O.co2  40  C40        -0.4373
   1171 HO2'       36.4800   38.3020  151.6500 H      40  C40         0.2101
   1172  H5        30.9870   33.5430  152.0510 H      40  C40         0.0666
   1173  H6        31.6120   35.7260  151.8750 H      40  C40         0.0812
   1174  H1'       34.0790   37.2600  153.4890 H      40  C40         0.0867
   1175  H2'       35.4580   36.3600  151.4540 H      40  C40         0.0666
   1176  H3'       33.9390   36.9450  149.8780 H      40  C40         0.0655
   1177  H4'       33.3680   39.3410  151.2390 H      40  C40         0.0647
   1178  H41       31.6510   31.3500  152.8050 H      40  C40         0.1437
   1179  H5'       31.9570   39.4040  149.5540 H      40  C40         0.0591
   1180  H42       32.9690   31.0830  153.4460 H      40  C40         0.1437
   1181 H5''       31.8480   37.8300  149.4670 H      40  C40         0.0591
   1182  P         35.4340   38.0720  148.0730 P.3    41  C41         0.2131
   1183  C5'       37.4070   36.6500  149.0640 C.3    41  C41         0.0837
   1184  O5'       36.2390   36.7100  148.2560 O.3    41  C41        -0.3248
   1185  C4'       37.7620   35.2270  149.4170 C.3    41  C41         0.1139
   1186  O4'       36.8300   34.7170  150.4070 O.3    41  C41        -0.3456
   1187  C3'       37.6810   34.2260  148.2750 C.3    41  C41         0.1241
   1188  O3'       38.8410   34.2340  147.4600 O.3    41  C41        -0.3187
   1189  C2'       37.4480   32.9080  149.0020 C.3    41  C41         0.1293
   1190  O2'       38.6610   32.3820  149.5210 O.3    41  C41        -0.3846
   1191  C1'       36.5600   33.3530  150.1620 C.3    41  C41         0.1680
   1192  N1        35.1200   33.2160  149.8460 N.ar   41  C41        -0.2700
   1193  C2        34.4690   32.0020  150.0870 C.ar   41  C41         0.3522
   1194  O2        35.1120   31.0550  150.5630 O.2    41  C41        -0.2444
   1195  N3        33.1510   31.8910  149.7950 N.ar   41  C41        -0.1783
   1196  C4        32.4880   32.9300  149.2820 C.ar   41  C41         0.1230
   1197  N4        31.1900   32.7760  149.0080 N.pl3  41  C41        -0.3430
   1198  C5        33.1260   34.1780  149.0280 C.ar   41  C41        -0.0056
   1199  C6        34.4270   34.2730  149.3230 C.ar   41  C41         0.0152
   1200  OP1       36.3630   39.0780  147.5000 O.3    41  C41        -0.4373
   1201  OP2       34.1610   37.7640  147.3720 O.co2  41  C41        -0.5172
   1202 HO2'       39.1480   32.1380  148.8820 H      41  C41         0.2101
   1203  H5        32.6570   34.8970  148.6710 H      41  C41         0.0666
   1204  H6        34.8710   35.0750  149.1670 H      41  C41         0.0812
   1205  H1'       36.7710   32.8320  150.9530 H      41  C41         0.0867
   1206  H2'       36.9930   32.2660  148.4350 H      41  C41         0.0666
   1207  H3'       36.9060   34.4290  147.7280 H      41  C41         0.0655
   1208  H4'       38.6570   35.2090  149.7890 H      41  C41         0.0647
   1209  H41       30.7390   33.4290  148.6780 H      41  C41         0.1437
   1210  H5'       37.2530   37.1500  149.8800 H      41  C41         0.0591
   1211  H42       30.8050   32.0230  149.1630 H      41  C41         0.1437
   1212 H5''       38.1470   37.0510  148.5810 H      41  C41         0.0591
   1213  P         38.7340   34.4360  145.8680 P.3    42  A42         0.2131
   1214  C5'       38.5230   31.9440  145.0970 C.3    42  A42         0.0837
   1215  O5'       39.3420   33.0860  145.2860 O.3    42  A42        -0.3248
   1216  C4'       39.0420   30.7440  145.8500 C.3    42  A42         0.1139
   1217  O4'       38.3960   30.6780  147.1500 O.3    42  A42        -0.3456
   1218  C3'       38.7360   29.4030  145.1970 C.3    42  A42         0.1241
   1219  O3'       39.7150   29.0330  144.2440 O.3    42  A42        -0.3187
   1220  C2'       38.6420   28.4560  146.3850 C.3    42  A42         0.1292
   1221  O2'       39.9300   28.0670  146.8370 O.3    42  A42        -0.3846
   1222  C1'       37.9970   29.3570  147.4320 C.3    42  A42         0.1667
   1223  N1        33.5700   26.6760  147.9900 N.ar   42  A42        -0.2188
   1224  C2        34.8480   26.3150  148.1770 C.ar   42  A42         0.1205
   1225  N3        35.9610   27.0340  148.0260 N.ar   42  A42        -0.2159
   1226  C4        35.6660   28.2830  147.6220 C.ar   42  A42         0.1674
   1227  C5        34.4010   28.7930  147.3870 C.ar   42  A42         0.1473
   1228  C6        33.3110   27.9370  147.5850 C.ar   42  A42         0.1472
   1229  N6        32.0490   28.3200  147.3860 N.pl3  42  A42        -0.3413
   1230  N7        34.4560   30.1160  146.9810 N.ar   42  A42        -0.2306
   1231  C8        35.7350   30.3790  146.9770 C.ar   42  A42         0.1004
   1232  N9        36.5260   29.3230  147.3550 N.ar   42  A42        -0.2855
   1233  OP1       39.6540   35.5380  145.4950 O.3    42  A42        -0.4373
   1234  OP2       37.3100   34.5210  145.4500 O.co2  42  A42        -0.5172
   1235 HO2'       40.2840   27.5700  146.2590 H      42  A42         0.2101
   1236  H2        34.9760   25.4380  148.4580 H      42  A42         0.1048
   1237  H8        36.0790   31.2100  146.7420 H      42  A42         0.1030
   1238  H1'       38.2920   29.1010  148.3200 H      42  A42         0.0866
   1239  H2'       38.0830   27.6880  146.1850 H      42  A42         0.0666
   1240  H3'       37.8710   29.4520  144.7610 H      42  A42         0.0655
   1241  H4'       40.0000   30.8310  145.9710 H      42  A42         0.0647
   1242  H5'       38.4910   31.7320  144.1510 H      42  A42         0.0591
   1243  H61       31.4050   27.7640  147.5160 H      42  A42         0.1438
   1244  H62       31.8780   29.1220  147.1290 H      42  A42         0.1438
   1245 H5''       37.6260   32.1450  145.4050 H      42  A42         0.0591
   1246  P         39.3360   28.9100  142.6880 P.3    43  U43         0.2131
   1247  C5'       39.4120   26.3310  143.1540 C.3    43  U43         0.0837
   1248  O5'       38.7480   27.4370  142.5580 O.3    43  U43        -0.3248
   1249  C4'       38.4490   25.2120  143.4550 C.3    43  U43         0.1139
   1250  O4'       37.6430   25.5560  144.6150 O.3    43  U43        -0.3456
   1251  C3'       37.4260   24.9160  142.3710 C.3    43  U43         0.1241
   1252  O3'       37.9400   24.1270  141.3130 O.3    43  U43        -0.3187
   1253  C2'       36.3000   24.2590  143.1550 C.3    43  U43         0.1293
   1254  O2'       36.6080   22.9080  143.4660 O.3    43  U43        -0.3846
   1255  C1'       36.3220   25.0830  144.4400 C.3    43  U43         0.1680
   1256  N1        35.4150   26.2500  144.3540 N.ar   43  U43        -0.2715
   1257  C2        34.0590   26.0440  144.5150 C.ar   43  U43         0.3314
   1258  O2        33.5780   24.9450  144.7300 O.2    43  U43        -0.2464
   1259  N3        33.2870   27.1750  144.4130 N.ar   43  U43        -0.2749
   1260  C4        33.7220   28.4620  144.1730 C.ar   43  U43         0.2539
   1261  O4        32.9000   29.3770  144.1120 O.2    43  U43        -0.2677
   1262  C5        35.1380   28.5960  144.0170 C.ar   43  U43         0.0192
   1263  C6        35.9110   27.5090  144.1100 C.ar   43  U43         0.0171
   1264  OP1       40.6060   28.9620  141.9180 O.2    43  U43        -0.5172
   1265  OP2       38.2410   29.8700  142.3860 O.co2  43  U43        -0.4373
   1266 HO2'       36.5950   22.4550  142.7590 H      43  U43         0.2101
   1267  H3        32.4390   27.0700  144.5120 H      43  U43         0.1734
   1268  H5        35.5160   29.4290  143.8510 H      43  U43         0.0686
   1269  H6        36.8300   27.6100  144.0050 H      43  U43         0.0813
   1270  H1'       36.0710   24.5250  145.1930 H      43  U43         0.0867
   1271  H2'       35.4490   24.3400  142.6950 H      43  U43         0.0666
   1272  H3'       37.1050   25.7560  142.0060 H      43  U43         0.0655
   1273  H4'       38.9510   24.4050  143.6470 H      43  U43         0.0647
   1274  H5'       39.8320   26.6200  143.9790 H      43  U43         0.0591
   1275 H5''       40.0960   26.0070  142.5470 H      43  U43         0.0591
   1276  P         37.3900   24.3550  139.8220 P.3    44  G44         0.2131
   1277  C5'       35.0700   23.3920  139.0450 C.3    44  G44         0.0837
   1278  O5'       35.8190   24.1500  139.9810 O.3    44  G44        -0.3248
   1279  C4'       33.8850   22.7350  139.7040 C.3    44  G44         0.1139
   1280  O4'       33.6580   23.3230  141.0110 O.3    44  G44        -0.3456
   1281  C3'       32.5570   22.9020  138.9840 C.3    44  G44         0.1241
   1282  O3'       32.4010   21.9860  137.9150 O.3    44  G44        -0.3187
   1283  C2'       31.5460   22.7210  140.1080 C.3    44  G44         0.1292
   1284  O2'       31.3550   21.3470  140.4060 O.3    44  G44        -0.3846
   1285  C1'       32.2720   23.3870  141.2770 C.3    44  G44         0.1667
   1286  N1        28.5180   26.7440  142.1480 N.ar   44  G44        -0.2934
   1287  C2        28.4560   25.3750  142.0600 C.ar   44  G44         0.1950
   1288  N2        27.2400   24.8320  142.2230 N.pl3  44  G44        -0.3289
   1289  N3        29.5020   24.5980  141.8280 N.ar   44  G44        -0.1963
   1290  C4        30.6390   25.3130  141.6910 C.ar   44  G44         0.1712
   1291  C5        30.8070   26.6820  141.7610 C.ar   44  G44         0.1721
   1292  C6        29.6760   27.5020  142.0100 C.ar   44  G44         0.2803
   1293  O6        29.6240   28.7340  142.1090 O.2    44  G44        -0.2654
   1294  N7        32.1360   27.0270  141.5630 N.ar   44  G44        -0.2286
   1295  C8        32.7400   25.8850  141.3790 C.ar   44  G44         0.1005
   1296  N9        31.8930   24.8040  141.4390 N.ar   44  G44        -0.2854
   1297  OP1       37.9510   23.2930  138.9460 O.2    44  G44        -0.5172
   1298  OP2       37.6120   25.7810  139.4670 O.co2  44  G44        -0.4373
   1299 HO2'       31.5810   20.8880  139.7400 H      44  G44         0.2101
   1300  H1        27.7850   27.1650  142.3020 H      44  G44         0.1716
   1301  H8        33.6530   25.8090  141.2210 H      44  G44         0.1030
   1302  H1'       32.0770   22.9040  142.0960 H      44  G44         0.0866
   1303  H2'       30.7080   23.1680  139.9090 H      44  G44         0.0666
   1304  H21       26.5600   25.3360  142.3740 H      44  G44         0.1451
   1305  H3'       32.4930   23.8060  138.6400 H      44  G44         0.0655
   1306  H22       27.1400   23.9790  142.1770 H      44  G44         0.1451
   1307  H4'       34.0680   21.7890  139.8110 H      44  G44         0.0647
   1308  H5'       35.6410   22.7080  138.6610 H      44  G44         0.0591
   1309 H5''       34.7570   23.9790  138.3380 H      44  G44         0.0591
   1310  P         32.0060   22.5070  136.4470 P.3    45  C45         0.2131
   1311  C5'       29.5500   21.7480  136.9160 C.3    45  C45         0.0837
   1312  O5'       30.4450   22.7910  136.5630 O.3    45  C45        -0.3248
   1313  C4'       28.2290   22.2870  137.4020 C.3    45  C45         0.1139
   1314  O4'       28.4200   23.0590  138.6180 O.3    45  C45        -0.3456
   1315  C3'       27.5120   23.2530  136.4750 C.3    45  C45         0.1241
   1316  O3'       26.8440   22.6140  135.4000 O.3    45  C45        -0.3187
   1317  C2'       26.5840   23.9800  137.4350 C.3    45  C45         0.1293
   1318  O2'       25.4680   23.1720  137.7800 O.3    45  C45        -0.3846
   1319  C1'       27.4830   24.1170  138.6620 C.3    45  C45         0.1680
   1320  N1        28.2100   25.4070  138.6640 N.ar   45  C45        -0.2700
   1321  C2        27.5160   26.5560  139.0500 C.ar   45  C45         0.3522
   1322  O2        26.3260   26.4560  139.3840 O.2    45  C45        -0.2444
   1323  N3        28.1540   27.7490  139.0550 N.ar   45  C45        -0.1783
   1324  C4        29.4340   27.8190  138.6880 C.ar   45  C45         0.1230
   1325  N4        30.0220   29.0190  138.7080 N.pl3  45  C45        -0.3430
   1326  C5        30.1670   26.6650  138.2860 C.ar   45  C45        -0.0056
   1327  C6        29.5220   25.4900  138.2860 C.ar   45  C45         0.0152
   1328  OP1       32.1910   21.3780  135.5010 O.2    45  C45        -0.5172
   1329  OP2       32.7010   23.7950  136.1880 O.co2  45  C45        -0.4373
   1330 HO2'       24.9700   23.0930  137.1090 H      45  C45         0.2101
   1331  H5        31.0590   26.7240  138.0320 H      45  C45         0.0666
   1332  H6        29.9740   24.7190  138.0280 H      45  C45         0.0812
   1333  H1'       26.9470   24.0440  139.4680 H      45  C45         0.0867
   1334  H2'       26.3140   24.8450  137.0900 H      45  C45         0.0666
   1335  H3'       28.1550   23.8840  136.1170 H      45  C45         0.0655
   1336  H4'       27.6390   21.5410  137.5940 H      45  C45         0.0647
   1337  H41       30.8460   29.0980  138.4780 H      45  C45         0.1437
   1338  H5'       29.9500   21.2130  137.6190 H      45  C45         0.0591
   1339  H42       29.5750   29.7120  138.9520 H      45  C45         0.1437
   1340 H5''       29.3960   21.1870  136.1400 H      45  C45         0.0591
   1341  P         26.6240   23.3890  134.0090 P.3    46  C46         0.2131
   1342  C5'       24.1110   23.8420  134.5830 C.3    46  C46         0.0837
   1343  O5'       25.4010   24.3640  134.3070 O.3    46  C46        -0.3248
   1344  C4'       23.1060   24.9330  134.8510 C.3    46  C46         0.1139
   1345  O4'       23.4940   25.7110  136.0130 O.3    46  C46        -0.3456
   1346  C3'       22.9370   25.9720  133.7590 C.3    46  C46         0.1241
   1347  O3'       22.1390   25.5080  132.6850 O.3    46  C46        -0.3187
   1348  C2'       22.3320   27.1480  134.5150 C.3    46  C46         0.1293
   1349  O2'       20.9370   26.9700  134.7110 O.3    46  C46        -0.3846
   1350  C1'       23.0420   27.0430  135.8680 C.3    46  C46         0.1680
   1351  N1        24.2020   27.9590  135.9660 N.ar   46  C46        -0.2700
   1352  C2        23.9900   29.2800  136.3790 C.ar   46  C46         0.3522
   1353  O2        22.8400   29.6530  136.6550 O.2    46  C46        -0.2444
   1354  N3        25.0450   30.1220  136.4730 N.ar   46  C46        -0.1783
   1355  C4        26.2700   29.6920  136.1700 C.ar   46  C46         0.1230
   1356  N4        27.2800   30.5590  136.2750 N.pl3  46  C46        -0.3430
   1357  C5        26.5140   28.3540  135.7450 C.ar   46  C46        -0.0056
   1358  C6        25.4620   27.5300  135.6570 C.ar   46  C46         0.0152
   1359  OP1       26.1790   22.3850  133.0090 O.2    46  C46        -0.5172
   1360  OP2       27.8140   24.2310  133.7180 O.co2  46  C46        -0.4373
   1361 HO2'       20.5470   27.0280  133.9700 H      46  C46         0.2101
   1362  H5        27.3730   28.0640  135.5360 H      46  C46         0.0666
   1363  H6        25.5920   26.6510  135.3830 H      46  C46         0.0812
   1364  H1'       22.4120   27.2470  136.5770 H      46  C46         0.0867
   1365  H2'       22.5280   27.9910  134.0770 H      46  C46         0.0666
   1366  H3'       23.8110   26.2240  133.4210 H      46  C46         0.0655
   1367  H4'       22.2440   24.5230  135.0260 H      46  C46         0.0647
   1368  H41       28.0810   30.3110  136.0860 H      46  C46         0.1437
   1369  H5'       24.1650   23.2640  135.3600 H      46  C46         0.0591
   1370  H42       27.1290   31.3670  136.5300 H      46  C46         0.1437
   1371 H5''       23.8140   23.3190  133.8210 H      46  C46         0.0591
   1372  P         22.0210   26.3710  131.3370 P.3    47  G47         0.2131
   1373  C5'       20.9050   28.7100  130.9470 C.3    47  G47         0.0837
   1374  O5'       20.9980   27.5280  131.7250 O.3    47  G47        -0.3248
   1375  C4'       20.5000   29.8920  131.7900 C.3    47  G47         0.1139
   1376  O4'       21.2500   29.8920  133.0340 O.3    47  G47        -0.3456
   1377  C3'       20.7780   31.2590  131.1880 C.3    47  G47         0.1241
   1378  O3'       19.7860   31.6580  130.2580 O.3    47  G47        -0.3187
   1379  C2'       20.8630   32.1520  132.4190 C.3    47  G47         0.1292
   1380  O2'       19.5710   32.4930  132.8980 O.3    47  G47        -0.3846
   1381  C1'       21.5360   31.2180  133.4240 C.3    47  G47         0.1667
   1382  N1        25.4160   34.4070  134.2830 N.ar   47  G47        -0.2934
   1383  C2        24.0650   34.6370  134.3620 C.ar   47  G47         0.1950
   1384  N2        23.6900   35.8750  134.7160 N.pl3  47  G47        -0.3289
   1385  N3        23.1440   33.7210  134.1130 N.ar   47  G47        -0.1963
   1386  C4        23.6910   32.5350  133.7740 C.ar   47  G47         0.1712
   1387  C5        25.0240   32.2020  133.6640 C.ar   47  G47         0.1721
   1388  C6        26.0020   33.1940  133.9340 C.ar   47  G47         0.2803
   1389  O6        27.2350   33.0940  133.8910 O.2    47  G47        -0.2654
   1390  N7        25.1720   30.8740  133.2860 N.ar   47  G47        -0.2286
   1391  C8        23.9480   30.4330  133.1750 C.ar   47  G47         0.1005
   1392  N9        23.0010   31.3900  133.4530 N.ar   47  G47        -0.2854
   1393  OP1       21.3830   25.5140  130.3060 O.2    47  G47        -0.5172
   1394  OP2       23.3440   26.9890  131.0590 O.co2  47  G47        -0.4373
   1395 HO2'       19.0360   32.5170  132.2510 H      47  G47         0.2101
   1396  H1        25.9420   35.0640  134.4620 H      47  G47         0.1716
   1397  H8        23.7380   29.5610  132.9310 H      47  G47         0.1030
   1398  H1'       21.1730   31.3800  134.3090 H      47  G47         0.0866
   1399  H2'       21.4030   32.9390  132.2500 H      47  G47         0.0666
   1400  H21       24.2850   36.4740  134.8790 H      47  G47         0.1451
   1401  H3'       21.6410   31.2430  130.7460 H      47  G47         0.0655
   1402  H22       22.8550   36.0690  134.7800 H      47  G47         0.1451
   1403  H4'       19.5540   29.8240  131.9930 H      47  G47         0.0647
   1404  H5'       20.2450   28.5780  130.2480 H      47  G47         0.0591
   1405 H5''       21.7660   28.8910  130.5400 H      47  G47         0.0591
   1406  P         20.0510   31.5220  128.6780 P.3    48  G48         0.2131
   1407  C5'       21.7700   33.4900  128.5830 C.3    48  G48         0.0837
   1408  O5'       20.4890   32.9890  128.2400 O.3    48  G48        -0.3248
   1409  C4'       21.6800   34.7870  129.3460 C.3    48  G48         0.1139
   1410  O4'       22.2580   34.6000  130.6650 O.3    48  G48        -0.3456
   1411  C3'       22.4580   35.9480  128.7370 C.3    48  G48         0.1241
   1412  O3'       21.6930   36.6680  127.7840 O.3    48  G48        -0.3187
   1413  C2'       22.8620   36.7740  129.9510 C.3    48  G48         0.1292
   1414  O2'       21.8030   37.6170  130.3800 O.3    48  G48        -0.3846
   1415  C1'       23.0870   35.6870  130.9980 C.3    48  G48         0.1667
   1416  N1        28.0860   36.6710  131.6160 N.ar   48  G48        -0.2934
   1417  C2        27.0270   37.5400  131.7010 C.ar   48  G48         0.1950
   1418  N2        27.3340   38.8140  131.9820 N.pl3  48  G48        -0.3289
   1419  N3        25.7630   37.1880  131.5240 N.ar   48  G48        -0.1963
   1420  C4        25.6420   35.8710  131.2510 C.ar   48  G48         0.1712
   1421  C5        26.6390   34.9230  131.1430 C.ar   48  G48         0.1721
   1422  C6        27.9860   35.3130  131.3360 C.ar   48  G48         0.2803
   1423  O6        29.0020   34.6100  131.2780 O.2    48  G48        -0.2654
   1424  N7        26.1150   33.6740  130.8480 N.ar   48  G48        -0.2286
   1425  C8        24.8320   33.8800  130.7810 C.ar   48  G48         0.1005
   1426  N9        24.4740   35.1870  131.0100 N.ar   48  G48        -0.2854
   1427  OP1       18.7510   31.2290  128.0250 O.2    48  G48        -0.5172
   1428  OP2       21.2050   30.6110  128.4570 O.co2  48  G48        -0.4373
   1429 HO2'       21.2760   37.7420  129.7380 H      48  G48         0.2101
   1430  H1        28.8740   36.9920  131.7460 H      48  G48         0.1716
   1431  H8        24.2170   33.2080  130.5950 H      48  G48         0.1030
   1432  H1'       22.8500   36.0230  131.8770 H      48  G48         0.0866
   1433  H2'       23.6750   37.2760  129.7830 H      48  G48         0.0666
   1434  H21       28.1550   39.0420  132.0970 H      48  G48         0.1451
   1435  H3'       23.2560   35.6040  128.3080 H      48  G48         0.0655
   1436  H22       26.7110   39.4020  132.0470 H      48  G48         0.1451
   1437  H4'       20.7480   35.0390  129.4380 H      48  G48         0.0647
   1438  H5'       22.2790   33.6360  127.7710 H      48  G48         0.0591
   1439 H5''       22.2300   32.8340  129.1300 H      48  G48         0.0591
   1440  P         22.2860   36.9630  126.3210 P.3    49  G49         0.2131
   1441  C5'       23.1290   39.2560  127.2660 C.3    49  G49         0.0837
   1442  O5'       23.4240   38.0440  126.5860 O.3    49  G49        -0.3248
   1443  C4'       24.3820   40.0290  127.5950 C.3    49  G49         0.1139
   1444  O4'       25.1450   39.3220  128.6030 O.3    49  G49        -0.3456
   1445  C3'       25.3610   40.2230  126.4480 C.3    49  G49         0.1241
   1446  O3'       25.0070   41.3190  125.6230 O.3    49  G49        -0.3187
   1447  C2'       26.6960   40.4160  127.1610 C.3    49  G49         0.1292
   1448  O2'       26.8760   41.7690  127.5490 O.3    49  G49        -0.3846
   1449  C1'       26.5240   39.5530  128.4150 C.3    49  G49         0.1667
   1450  N1        30.8940   37.1010  129.2470 N.ar   49  G49        -0.2934
   1451  C2        30.5750   38.4200  129.4470 C.ar   49  G49         0.1950
   1452  N2        31.5550   39.1930  129.9370 N.pl3  49  G49        -0.3289
   1453  N3        29.3870   38.9410  129.1850 N.ar   49  G49        -0.1963
   1454  C4        28.5280   38.0220  128.6980 C.ar   49  G49         0.1712
   1455  C5        28.7460   36.6810  128.4610 C.ar   49  G49         0.1721
   1456  C6        30.0260   36.1350  128.7470 C.ar   49  G49         0.2803
   1457  O6        30.4170   34.9700  128.6070 O.2    49  G49        -0.2654
   1458  N7        27.6000   36.0790  127.9580 N.ar   49  G49        -0.2286
   1459  C8        26.7250   37.0480  127.8990 C.ar   49  G49         0.1005
   1460  N9        27.2240   38.2560  128.3300 N.ar   49  G49        -0.2854
   1461  OP1       21.2180   37.6080  125.5150 O.2    49  G49        -0.5172
   1462  OP2       22.9250   35.7190  125.8220 O.co2  49  G49        -0.4373
   1463 HO2'       26.3640   42.2550  127.0930 H      49  G49         0.2101
   1464  H1        31.6930   36.8510  129.4450 H      49  G49         0.1716
   1465  H8        25.8540   36.9340  127.5940 H      49  G49         0.1030
   1466  H1'       26.8650   40.0420  129.1800 H      49  G49         0.0866
   1467  H2'       27.4350   40.1010  126.6170 H      49  G49         0.0666
   1468  H21       32.3260   38.8540  130.1070 H      49  G49         0.1451
   1469  H3'       25.3950   39.4140  125.9130 H      49  G49         0.0655
   1470  H22       31.4120   40.0290  130.0820 H      49  G49         0.1451
   1471  H4'       24.1310   40.8980  127.9430 H      49  G49         0.0647
   1472  H5'       22.6580   39.0510  128.0890 H      49  G49         0.0591
   1473 H5''       22.5580   39.8030  126.7030 H      49  G49         0.0591
   1474  P         24.5450   41.0810  124.1040 P.3    50  C50         0.2131
   1475  C5'       27.0530   41.1160  123.3250 C.3    50  C50         0.0837
   1476  O5'       25.8200   40.4170  123.4210 O.3    50  C50        -0.3248
   1477  C4'       28.0180   40.3800  122.4320 C.3    50  C50         0.1139
   1478  O4'       28.4110   39.1360  123.0680 O.3    50  C50        -0.3456
   1479  C3'       27.4560   39.9620  121.0800 C.3    50  C50         0.1241
   1480  O3'       27.5470   40.9990  120.1170 O.3    50  C50        -0.3187
   1481  C2'       28.2730   38.7250  120.7320 C.3    50  C50         0.1293
   1482  O2'       29.5320   39.0800  120.1780 O.3    50  C50        -0.3846
   1483  C1'       28.4960   38.1040  122.1110 C.3    50  C50         0.1680
   1484  N1        27.4890   37.0710  122.4550 N.ar   50  C50        -0.2700
   1485  C2        27.4310   35.8800  121.7240 C.ar   50  C50         0.3522
   1486  O2        28.2150   35.7150  120.7780 O.2    50  C50        -0.2444
   1487  N3        26.5120   34.9420  122.0580 N.ar   50  C50        -0.1783
   1488  C4        25.6830   35.1510  123.0830 C.ar   50  C50         0.1230
   1489  N4        24.7920   34.2020  123.3810 N.pl3  50  C50        -0.3430
   1490  C5        25.7250   36.3480  123.8510 C.ar   50  C50        -0.0056
   1491  C6        26.6350   37.2680  123.5090 C.ar   50  C50         0.0152
   1492  OP1       24.3240   42.4070  123.4740 O.2    50  C50        -0.5172
   1493  OP2       23.4500   40.0780  124.1110 O.co2  50  C50        -0.4373
   1494 HO2'       29.4100   39.4220  119.4200 H      50  C50         0.2101
   1495  H5        25.1420   36.4870  124.5620 H      50  C50         0.0666
   1496  H6        26.6850   38.0600  123.9940 H      50  C50         0.0812
   1497  H1'       29.3820   37.7090  122.1450 H      50  C50         0.0867
   1498  H2'       27.7810   38.1260  120.1500 H      50  C50         0.0666
   1499  H3'       26.5260   39.7090  121.1870 H      50  C50         0.0655
   1500  H4'       28.8050   40.9290  122.2930 H      50  C50         0.0647
   1501  H41       24.2470   34.3150  124.0370 H      50  C50         0.1437
   1502  H5'       27.4410   41.2030  124.2090 H      50  C50         0.0591
   1503  H42       24.7630   33.4790  122.9170 H      50  C50         0.1437
   1504 H5''       26.8910   41.9990  122.9590 H      50  C50         0.0591
   1505  P         26.5720   41.0190  118.8410 P.3    51  C51         0.2131
   1506  C5'       26.3850   39.4140  116.7780 C.3    51  C51         0.0837
   1507  O5'       27.0430   39.7620  117.9850 O.3    51  C51        -0.3248
   1508  C4'       26.2590   37.9190  116.6310 C.3    51  C51         0.1139
   1509  O4'       26.5570   37.2750  117.8970 O.3    51  C51        -0.3456
   1510  C3'       24.8750   37.4060  116.2630 C.3    51  C51         0.1241
   1511  O3'       24.6100   37.4880  114.8720 O.3    51  C51        -0.3187
   1512  C2'       24.8960   35.9820  116.8010 C.3    51  C51         0.1293
   1513  O2'       25.5800   35.1080  115.9150 O.3    51  C51        -0.3846
   1514  C1'       25.7250   36.1480  118.0740 C.3    51  C51         0.1680
   1515  N1        24.8830   36.3690  119.2720 N.ar   51  C51        -0.2700
   1516  C2        24.0910   35.3210  119.7510 C.ar   51  C51         0.3522
   1517  O2        24.1070   34.2350  119.1550 O.2    51  C51        -0.2444
   1518  N3        23.3220   35.5190  120.8460 N.ar   51  C51        -0.1783
   1519  C4        23.3260   36.7030  121.4620 C.ar   51  C51         0.1230
   1520  N4        22.5540   36.8510  122.5410 N.pl3  51  C51        -0.3430
   1521  C5        24.1270   37.7860  121.0030 C.ar   51  C51        -0.0056
   1522  C6        24.8830   37.5780  119.9170 C.ar   51  C51         0.0152
   1523  OP1       26.8710   42.2450  118.0590 O.2    51  C51        -0.5172
   1524  OP2       25.1850   40.7720  119.3070 O.co2  51  C51        -0.4373
   1525 HO2'       26.2990   34.8630  116.2740 H      51  C51         0.2101
   1526  H5        24.1240   38.6080  121.4390 H      51  C51         0.0666
   1527  H6        25.4150   38.2680  119.5920 H      51  C51         0.0812
   1528  H1'       26.2740   35.3600  118.2060 H      51  C51         0.0867
   1529  H2'       24.0010   35.6630  117.0000 H      51  C51         0.0666
   1530  H3'       24.2080   37.9180  116.7450 H      51  C51         0.0655
   1531  H4'       26.8950   37.6140  115.9650 H      51  C51         0.0647
   1532  H41       22.5370   37.6030  122.9580 H      51  C51         0.1437
   1533  H5'       26.8900   39.7650  116.0290 H      51  C51         0.0591
   1534  H42       22.0730   36.1940  122.8190 H      51  C51         0.1437
   1535 H5''       25.4990   39.8080  116.7760 H      51  C51         0.0591
   1536  P         23.5460   38.5520  114.3020 P.3    52  A52         0.2131
   1537  C5'       25.3890   40.1110  113.2860 C.3    52  A52         0.0837
   1538  O5'       24.3020   39.2240  113.0720 O.3    52  A52        -0.3248
   1539  C4'       26.3240   40.1440  112.1030 C.3    52  A52         0.1139
   1540  O4'       26.8320   38.8100  111.8450 O.3    52  A52        -0.3456
   1541  C3'       25.7140   40.5650  110.7750 C.3    52  A52         0.1241
   1542  O3'       25.5890   41.9700  110.6430 O.3    52  A52        -0.3187
   1543  C2'       26.6640   39.9380  109.7640 C.3    52  A52         0.1292
   1544  O2'       27.8420   40.7170  109.6140 O.3    52  A52        -0.3846
   1545  C1'       27.0210   38.6250  110.4590 C.3    52  A52         0.1667
   1546  N1        26.1270   35.2290  106.7080 N.ar   52  A52        -0.2188
   1547  C2        27.0410   36.1950  106.8570 C.ar   52  A52         0.1205
   1548  N3        27.2140   37.0450  107.8650 N.ar   52  A52        -0.2159
   1549  C4        26.2990   36.8300  108.8240 C.ar   52  A52         0.1674
   1550  C5        25.2980   35.8780  108.8180 C.ar   52  A52         0.1473
   1551  C6        25.2220   35.0400  107.6910 C.ar   52  A52         0.1472
   1552  N6        24.3130   34.0740  107.5400 N.pl3  52  A52        -0.3413
   1553  N7        24.5450   35.9540  109.9820 N.ar   52  A52        -0.2306
   1554  C8        25.0990   36.9360  110.6530 C.ar   52  A52         0.1004
   1555  N9        26.1680   37.5100  110.0080 N.ar   52  A52        -0.2855
   1556  OP1       23.3270   39.6150  115.3160 O.3    52  A52        -0.4373
   1557  OP2       22.3850   37.7930  113.7730 O.co2  52  A52        -0.5172
   1558 HO2'       28.4920   40.2950  109.9370 H      52  A52         0.2101
   1559  H2        27.6410   36.2860  106.1530 H      52  A52         0.1048
   1560  H8        24.7980   37.2170  111.4870 H      52  A52         0.1030
   1561  H1'       27.9510   38.4110  110.2860 H      52  A52         0.0866
   1562  H2'       26.2260   39.7810  108.9140 H      52  A52         0.0666
   1563  H3'       24.8390   40.1580  110.6840 H      52  A52         0.0655
   1564  H4'       27.0690   40.7300  112.3070 H      52  A52         0.0647
   1565  H5'       25.8820   39.8240  114.0700 H      52  A52         0.0591
   1566  H61       24.3140   33.5890  106.8290 H      52  A52         0.1438
   1567  H62       23.7270   33.9350  108.1540 H      52  A52         0.1438
   1568 H5''       25.0430   41.0040  113.4390 H      52  A52         0.0591
   1569  P         24.3020   42.6010  109.9190 P.3    53  A53         0.2131
   1570  C5'       25.5560   42.7350  107.6210 C.3    53  A53         0.0837
   1571  O5'       24.4860   42.2020  108.3870 O.3    53  A53        -0.3248
   1572  C4'       25.6430   42.0940  106.2580 C.3    53  A53         0.1139
   1573  O4'       26.0130   40.6940  106.3910 O.3    53  A53        -0.3456
   1574  C3'       24.3550   42.0510  105.4520 C.3    53  A53         0.1241
   1575  O3'       24.0300   43.2790  104.8240 O.3    53  A53        -0.3187
   1576  C2'       24.6230   40.9070  104.4860 C.3    53  A53         0.1292
   1577  O2'       25.5010   41.3060  103.4430 O.3    53  A53        -0.3846
   1578  C1'       25.3600   39.9300  105.3970 C.3    53  A53         0.1667
   1579  N1        22.5890   35.5900  105.0240 N.ar   53  A53        -0.2188
   1580  C2        23.4150   36.2030  104.1650 C.ar   53  A53         0.1205
   1581  N3        24.1080   37.3290  104.3200 N.ar   53  A53        -0.2159
   1582  C4        23.8880   37.8570  105.5370 C.ar   53  A53         0.1674
   1583  C5        23.0690   37.3460  106.5250 C.ar   53  A53         0.1473
   1584  C6        22.3920   36.1510  106.2370 C.ar   53  A53         0.1472
   1585  N6        21.5730   35.5500  107.1020 N.pl3  53  A53        -0.3413
   1586  N7        23.0830   38.1550  107.6510 N.ar   53  A53        -0.2306
   1587  C8        23.8990   39.1260  107.3250 C.ar   53  A53         0.1004
   1588  N9        24.4260   39.0050  106.0640 N.ar   53  A53        -0.2855
   1589  OP1       24.4140   44.0780  110.0200 O.2    53  A53        -0.5172
   1590  OP2       23.0900   41.9130  110.4340 O.co2  53  A53        -0.4373
   1591 HO2'       25.1000   41.8450  102.9390 H      53  A53         0.2101
   1592  H2        23.5200   35.7810  103.3430 H      53  A53         0.1048
   1593  H8        24.1060   39.8290  107.8970 H      53  A53         0.1030
   1594  H1'       26.0120   39.4280  104.8850 H      53  A53         0.0866
   1595  H2'       23.8000   40.5260  104.1430 H      53  A53         0.0666
   1596  H3'       23.6260   41.7990  106.0410 H      53  A53         0.0655
   1597  H4'       26.3230   42.5510  105.7390 H      53  A53         0.0647
   1598  H5'       26.3890   42.5840  108.0950 H      53  A53         0.0591
   1599  H61       21.1800   34.8170  106.8840 H      53  A53         0.1438
   1600  H62       21.4380   35.8950  107.8780 H      53  A53         0.1438
   1601 H5''       25.4230   43.6900  107.5130 H      53  A53         0.0591
   1602  P         22.4900   43.7280  104.7170 P.3    54  A54         0.2131
   1603  C5'       22.3320   42.4240  102.4540 C.3    54  A54         0.0837
   1604  O5'       21.8440   42.6190  103.7730 O.3    54  A54        -0.3248
   1605  C4'       21.6910   41.2370  101.7790 C.3    54  A54         0.1139
   1606  O4'       22.0230   40.0130  102.4850 O.3    54  A54        -0.3456
   1607  C3'       20.1730   41.2280  101.7320 C.3    54  A54         0.1241
   1608  O3'       19.6410   42.0760  100.7290 O.3    54  A54        -0.3187
   1609  C2'       19.8680   39.7520  101.5240 C.3    54  A54         0.1292
   1610  O2'       20.0710   39.3710  100.1710 O.3    54  A54        -0.3846
   1611  C1'       20.9480   39.0990  102.3880 C.3    54  A54         0.1667
   1612  N1        18.0770   35.9580  105.3110 N.ar   54  A54        -0.2188
   1613  C2        18.3340   35.9770  103.9960 C.ar   54  A54         0.1205
   1614  N3        19.0910   36.8230  103.2980 N.ar   54  A54        -0.2159
   1615  C4        19.6320   37.7540  104.1040 C.ar   54  A54         0.1674
   1616  C5        19.4590   37.8630  105.4720 C.ar   54  A54         0.1473
   1617  C6        18.6360   36.9070  106.0930 C.ar   54  A54         0.1472
   1618  N6        18.3820   36.8920  107.4050 N.pl3  54  A54        -0.3413
   1619  N7        20.1690   38.9440  105.9720 N.ar   54  A54        -0.2306
   1620  C8        20.7460   39.4580  104.9130 C.ar   54  A54         0.1004
   1621  N9        20.4640   38.7890  103.7480 N.ar   54  A54        -0.2855
   1622  OP1       22.4260   45.0320  104.0090 O.2    54  A54        -0.5172
   1623  OP2       21.8750   43.5990  106.0640 O.co2  54  A54        -0.4373
   1624 HO2'       19.4790   39.7280   99.6940 H      54  A54         0.2101
   1625  H2        17.9270   35.3040  103.5000 H      54  A54         0.1048
   1626  H8        21.2960   40.2080  104.9480 H      54  A54         0.1030
   1627  H1'       21.2550   38.2840  101.9610 H      54  A54         0.0866
   1628  H2'       18.9780   39.5240  101.8340 H      54  A54         0.0666
   1629  H3'       19.8280   41.5040  102.5960 H      54  A54         0.0655
   1630  H4'       22.0300   41.1750  100.8720 H      54  A54         0.0647
   1631  H5'       23.2910   42.2840  102.4910 H      54  A54         0.0591
   1632  H61       17.8700   36.2850  107.7370 H      54  A54         0.1438
   1633  H62       18.7300   37.4880  107.9170 H      54  A54         0.1438
   1634 H5''       22.1500   43.2200  101.9300 H      54  A54         0.0591
   1635  P         18.2880   42.9020  100.9980 P.3    55  C55         0.2131
   1636  C5'       17.0840   41.2040   99.4080 C.3    55  C55         0.0837
   1637  O5'       17.1360   41.8520  100.6710 O.3    55  C55        -0.3248
   1638  C4'       16.2500   39.9480   99.4550 C.3    55  C55         0.1139
   1639  O4'       16.8640   38.9740  100.3420 O.3    55  C55        -0.3456
   1640  C3'       14.8410   40.1030  100.0030 C.3    55  C55         0.1241
   1641  O3'       13.9300   40.6430   99.0610 O.3    55  C55        -0.3187
   1642  C2'       14.5100   38.6870  100.4530 C.3    55  C55         0.1293
   1643  O2'       14.1580   37.8630   99.3510 O.3    55  C55        -0.3846
   1644  C1'       15.8600   38.2270  101.0030 C.3    55  C55         0.1680
   1645  N1        15.9730   38.4660  102.4610 N.ar   55  C55        -0.2700
   1646  C2        15.4300   37.5350  103.3520 C.ar   55  C55         0.3522
   1647  O2        14.8690   36.5240  102.9020 O.2    55  C55        -0.2444
   1648  N3        15.5300   37.7550  104.6840 N.ar   55  C55        -0.1783
   1649  C4        16.1390   38.8520  105.1360 C.ar   55  C55         0.1230
   1650  N4        16.2160   39.0310  106.4570 N.pl3  55  C55        -0.3430
   1651  C5        16.6980   39.8170  104.2510 C.ar   55  C55        -0.0056
   1652  C6        16.5900   39.5880  102.9370 C.ar   55  C55         0.0152
   1653  OP1       18.2190   43.9910   99.9910 O.2    55  C55        -0.5172
   1654  OP2       18.2080   43.2480  102.4420 O.co2  55  C55        -0.4373
   1655 HO2'       13.4160   38.1140   99.0480 H      55  C55         0.2101
   1656  H5        17.1210   40.5810  104.5740 H      55  C55         0.0666
   1657  H6        16.9470   40.2010  102.3360 H      55  C55         0.0812
   1658  H1'       15.9820   37.2830  100.8170 H      55  C55         0.0867
   1659  H2'       13.8260   38.6810  101.1410 H      55  C55         0.0666
   1660  H3'       14.8680   40.6820  100.7810 H      55  C55         0.0655
   1661  H4'       16.2000   39.5710   98.5630 H      55  C55         0.0647
   1662  H41       16.6030   39.7300  106.7750 H      55  C55         0.1437
   1663  H5'       17.9860   40.9750   99.1340 H      55  C55         0.0591
   1664  H42       15.8780   38.4470  106.9910 H      55  C55         0.1437
   1665 H5''       16.7020   41.8130   98.7570 H      55  C55         0.0591
   1666  P         12.8470   41.7360   99.5280 P.3    56  C56         0.2131
   1667  C5'       11.1000   39.7880   99.6120 C.3    56  C56         0.0837
   1668  O5'       11.7420   40.8660  100.2750 O.3    56  C56        -0.3248
   1669  C4'       10.2600   38.9720  100.5600 C.3    56  C56         0.1139
   1670  O4'       11.1120   38.2350  101.4760 O.3    56  C56        -0.3456
   1671  C3'        9.3340   39.7570  101.4720 C.3    56  C56         0.1241
   1672  O3'        8.1480   40.1790  100.8230 O.3    56  C56        -0.3187
   1673  C2'        9.1030   38.7790  102.6150 C.3    56  C56         0.1293
   1674  O2'        8.1570   37.7840  102.2510 O.3    56  C56        -0.3846
   1675  C1'       10.4830   38.1340  102.7380 C.3    56  C56         0.1680
   1676  N1        11.3290   38.8200  103.7430 N.ar   56  C56        -0.2700
   1677  C2        11.1340   38.5410  105.0990 C.ar   56  C56         0.3522
   1678  O2        10.2600   37.7250  105.4250 O.2    56  C56        -0.2444
   1679  N3        11.9010   39.1630  106.0250 N.ar   56  C56        -0.1783
   1680  C4        12.8330   40.0350  105.6390 C.ar   56  C56         0.1230
   1681  N4        13.5680   40.6300  106.5830 N.pl3  56  C56        -0.3430
   1682  C5        13.0540   40.3410  104.2650 C.ar   56  C56        -0.0056
   1683  C6        12.2880   39.7170  103.3590 C.ar   56  C56         0.0152
   1684  OP1       12.2260   42.3270   98.3150 O.2    56  C56        -0.5172
   1685  OP2       13.4870   42.6340  100.5260 O.co2  56  C56        -0.4373
   1686 HO2'        8.5510   37.0450  102.1790 H      56  C56         0.2101
   1687  H5        13.7060   40.9510  104.0060 H      56  C56         0.0666
   1688  H6        12.4110   39.8970  102.4550 H      56  C56         0.0812
   1689  H1'       10.3860   37.1990  102.9780 H      56  C56         0.0867
   1690  H2'        8.8490   39.2370  103.4320 H      56  C56         0.0666
   1691  H3'        9.8050   40.5340  101.8100 H      56  C56         0.0655
   1692  H4'        9.7320   38.3410  100.0460 H      56  C56         0.0647
   1693  H41       14.1760   41.1960  106.3620 H      56  C56         0.1437
   1694  H5'       11.7740   39.2150   99.2140 H      56  C56         0.0591
   1695  H42       13.4330   40.4460  107.4120 H      56  C56         0.1437
   1696 H5''       10.5320   40.1420   98.9100 H      56  C56         0.0591
   1697  P          7.4670   41.5810  101.2120 P.3    57  C57         0.2131
   1698  C5'        5.9520   40.2330  102.8620 C.3    57  C57         0.0837
   1699  O5'        6.8560   41.3070  102.6550 O.3    57  C57        -0.3248
   1700  C4'        5.7030   39.9900  104.3280 C.3    57  C57         0.1139
   1701  O4'        6.8920   39.4380  104.9550 O.3    57  C57        -0.3456
   1702  C3'        5.3940   41.2180  105.1650 C.3    57  C57         0.1241
   1703  O3'        4.0630   41.6810  105.0240 O.3    57  C57        -0.3187
   1704  C2'        5.7430   40.7410  106.5660 C.3    57  C57         0.1293
   1705  O2'        4.7360   39.8850  107.0820 O.3    57  C57        -0.3846
   1706  C1'        6.9930   39.9120  106.2850 C.3    57  C57         0.1680
   1707  N1         8.2210   40.7290  106.4090 N.ar   57  C57        -0.2700
   1708  C2         8.7390   40.9790  107.6830 C.ar   57  C57         0.3522
   1709  O2         8.1620   40.4990  108.6690 O.2    57  C57        -0.2444
   1710  N3         9.8570   41.7320  107.8100 N.ar   57  C57        -0.1783
   1711  C4        10.4490   42.2330  106.7250 C.ar   57  C57         0.1230
   1712  N4        11.5490   42.9720  106.8970 N.pl3  57  C57        -0.3430
   1713  C5         9.9390   42.0000  105.4150 C.ar   57  C57        -0.0056
   1714  C6         8.8320   41.2530  105.3050 C.ar   57  C57         0.0152
   1715  OP1        6.3350   41.8150  100.2780 O.2    57  C57        -0.5172
   1716  OP2        8.5320   42.6100  101.3520 O.co2  57  C57        -0.4373
   1717 HO2'        4.0460   40.3380  107.2380 H      57  C57         0.2101
   1718  H5        10.3590   42.3530  104.6640 H      57  C57         0.0666
   1719  H6         8.4780   41.0830  104.4620 H      57  C57         0.0812
   1720  H1'        7.0340   39.1610  106.8980 H      57  C57         0.0867
   1721  H2'        5.9320   41.4830  107.1620 H      57  C57         0.0666
   1722  H3'        6.0020   41.9310  104.9150 H      57  C57         0.0655
   1723  H4'        4.9750   39.3550  104.4220 H      57  C57         0.0647
   1724  H41       11.9520   43.3070  106.2160 H      57  C57         0.1437
   1725  H5'        6.3210   39.4290  102.4660 H      57  C57         0.0591
   1726  H42       11.8530   43.1110  107.6890 H      57  C57         0.1437
   1727 H5''        5.1090   40.4410  102.4280 H      57  C57         0.0591
   1728  P          3.7560   43.2580  105.0650 P.3    58  A58         0.2131
   1729  C5'        3.0340   42.9570  107.5590 C.3    58  A58         0.0837
   1730  O5'        3.8590   43.6200  106.6130 O.3    58  A58        -0.3248
   1731  C4'        3.5460   43.1110  108.9700 C.3    58  A58         0.1139
   1732  O4'        4.8910   42.5780  109.0900 O.3    58  A58        -0.3456
   1733  C3'        3.6770   44.5310  109.4860 C.3    58  A58         0.1241
   1734  O3'        2.4370   45.1040  109.8590 O.3    58  A58        -0.3187
   1735  C2'        4.6580   44.3640  110.6390 C.3    58  A58         0.1292
   1736  O2'        4.0140   43.8470  111.7930 O.3    58  A58        -0.3846
   1737  C1'        5.6000   43.2970  110.0800 C.3    58  A58         0.1667
   1738  N1        10.1040   45.5280  111.0800 N.ar   58  A58        -0.2188
   1739  C2         9.1340   45.0470  111.8650 C.ar   58  A58         0.1205
   1740  N3         7.9820   44.4760  111.5240 N.ar   58  A58        -0.2159
   1741  C4         7.8610   44.4170  110.1890 C.ar   58  A58         0.1674
   1742  C5         8.7690   44.8680  109.2500 C.ar   58  A58         0.1473
   1743  C6         9.9510   45.4530  109.7410 C.ar   58  A58         0.1472
   1744  N6        10.9230   45.9370  108.9670 N.pl3  58  A58        -0.3413
   1745  N7         8.2950   44.6340  107.9650 N.ar   58  A58        -0.2306
   1746  C8         7.1310   44.0570  108.1560 C.ar   58  A58         0.1004
   1747  N9         6.8090   43.8930  109.4800 N.ar   58  A58        -0.2855
   1748  OP1        2.3470   43.4510  104.6350 O.3    58  A58        -0.4373
   1749  OP2        4.8430   43.9780  104.3510 O.co2  58  A58        -0.5172
   1750 HO2'        3.4950   44.4310  112.1020 H      58  A58         0.2101
   1751  H2         9.2860   45.1210  112.7790 H      58  A58         0.1048
   1752  H8         6.5780   43.7830  107.4600 H      58  A58         0.1030
   1753  H1'        5.8590   42.6920  110.7930 H      58  A58         0.0866
   1754  H2'        5.1300   45.1910  110.8290 H      58  A58         0.0666
   1755  H3'        4.0860   45.0810  108.7990 H      58  A58         0.0655
   1756  H4'        2.9610   42.6170  109.5670 H      58  A58         0.0647
   1757  H5'        2.9990   42.0130  107.3390 H      58  A58         0.0591
   1758  H61       11.6240   46.2860  109.3240 H      58  A58         0.1438
   1759  H62       10.8500   45.9010  108.1110 H      58  A58         0.1438
   1760 H5''        2.1380   43.3250  107.5080 H      58  A58         0.0591
   1761  P          2.1310   46.6460  109.5210 P.3    59  U59         0.2131
   1762  C5'        2.8270   47.2700  111.9600 C.3    59  U59         0.0837
   1763  O5'        3.0340   47.4370  110.5660 O.3    59  U59        -0.3248
   1764  C4'        3.9960   47.7700  112.7680 C.3    59  U59         0.1139
   1765  O4'        5.2020   47.0440  112.4110 O.3    59  U59        -0.3456
   1766  C3'        4.3740   49.2250  112.5610 C.3    59  U59         0.1241
   1767  O3'        3.5290   50.1200  113.2630 O.3    59  U59        -0.3187
   1768  C2'        5.8250   49.2530  113.0220 C.3    59  U59         0.1293
   1769  O2'        5.9170   49.2850  114.4390 O.3    59  U59        -0.3846
   1770  C1'        6.3240   47.8960  112.5250 C.3    59  U59         0.1680
   1771  N1         6.9930   47.9940  111.2050 N.ar   59  U59        -0.2715
   1772  C2         8.2880   48.4730  111.1890 C.ar   59  U59         0.3314
   1773  O2         8.8790   48.8110  112.1990 O.2    59  U59        -0.2464
   1774  N3         8.8710   48.5480  109.9500 N.ar   59  U59        -0.2749
   1775  C4         8.3010   48.1970  108.7450 C.ar   59  U59         0.2539
   1776  O4         8.9570   48.3210  107.7090 O.2    59  U59        -0.2677
   1777  C5         6.9590   47.7070  108.8370 C.ar   59  U59         0.0192
   1778  C6         6.3680   47.6240  110.0360 C.ar   59  U59         0.0171
   1779  OP1        0.7120   46.9210  109.8590 O.3    59  U59        -0.4373
   1780  OP2        2.6200   46.9380  108.1490 O.co2  59  U59        -0.5172
   1781 HO2'        5.6430   50.0290  114.7140 H      59  U59         0.2101
   1782  H3         9.6770   48.8450  109.9220 H      59  U59         0.1734
   1783  H5         6.5020   47.4480  108.0700 H      59  U59         0.0686
   1784  H6         5.4960   47.3050  110.0800 H      59  U59         0.0813
   1785  H1'        6.9440   47.5250  113.1720 H      59  U59         0.0867
   1786  H2'        6.3150   49.9830  112.6130 H      59  U59         0.0666
   1787  H3'        4.3380   49.4310  111.6140 H      59  U59         0.0655
   1788  H4'        3.8110   47.6250  113.7090 H      59  U59         0.0647
   1789  H5'        2.6930   46.3280  112.1480 H      59  U59         0.0591
   1790 H5''        2.0310   47.7600  112.2210 H      59  U59         0.0591
   1791  P          3.1580   51.5510  112.6330 P.3    60  A60         0.2131
   1792  C5'        4.6720   52.7130  114.4250 C.3    60  A60         0.0837
   1793  O5'        4.3800   52.4780  113.0560 O.3    60  A60        -0.3248
   1794  C4'        6.0000   53.4030  114.6060 C.3    60  A60         0.1139
   1795  O4'        7.0820   52.4900  114.2800 O.3    60  A60        -0.3456
   1796  C3'        6.2620   54.6060  113.7160 C.3    60  A60         0.1241
   1797  O3'        5.6200   55.7870  114.1610 O.3    60  A60        -0.3187
   1798  C2'        7.7820   54.6880  113.7260 C.3    60  A60         0.1292
   1799  O2'        8.2610   55.2790  114.9250 O.3    60  A60        -0.3846
   1800  C1'        8.1610   53.2080  113.7170 C.3    60  A60         0.1667
   1801  N1        11.5530   52.7680  109.8650 N.ar   60  A60        -0.2188
   1802  C2        11.6450   53.3040  111.0880 C.ar   60  A60         0.1205
   1803  N3        10.7210   53.3850  112.0430 N.ar   60  A60        -0.2159
   1804  C4         9.5690   52.8260  111.6360 C.ar   60  A60         0.1674
   1805  C5         9.3220   52.2350  110.4110 C.ar   60  A60         0.1473
   1806  C6        10.3810   52.2130  109.4880 C.ar   60  A60         0.1472
   1807  N6        10.2910   51.6800  108.2670 N.pl3  60  A60        -0.3413
   1808  N7         8.0190   51.7650  110.3460 N.ar   60  A60        -0.2306
   1809  C8         7.5150   52.0780  111.5140 C.ar   60  A60         0.1004
   1810  N9         8.4000   52.7150  112.3480 N.ar   60  A60        -0.2855
   1811  OP1        1.9430   52.0470  113.3280 O.3    60  A60        -0.4373
   1812  OP2        3.1530   51.4480  111.1510 O.co2  60  A60        -0.5172
   1813 HO2'        8.0520   56.0930  114.9300 H      60  A60         0.2101
   1814  H2        12.4720   53.6730  111.3010 H      60  A60         0.1048
   1815  H8         6.6400   51.8800  111.7590 H      60  A60         0.1030
   1816  H1'        8.9570   53.0730  114.2550 H      60  A60         0.0866
   1817  H2'        8.1190   55.1450  112.9390 H      60  A60         0.0666
   1818  H3'        5.9620   54.4030  112.8150 H      60  A60         0.0655
   1819  H4'        6.0880   53.6750  115.5330 H      60  A60         0.0647
   1820  H5'        4.6910   51.8640  114.8940 H      60  A60         0.0591
   1821  H61       10.9710   51.6940  107.7400 H      60  A60         0.1438
   1822  H62        9.5530   51.3220  108.0080 H      60  A60         0.1438
   1823 H5''        3.9730   53.2680  114.8060 H      60  A60         0.0591
   1824  P          5.1800   56.9120  113.0990 P.3    61  G61         0.2131
   1825  C5'        7.3160   58.3390  113.5850 C.3    61  G61         0.0837
   1826  O5'        6.5590   57.5770  112.6580 O.3    61  G61        -0.3248
   1827  C4'        8.7500   58.5020  113.1480 C.3    61  G61         0.1139
   1828  O4'        9.3350   57.2070  112.8500 O.3    61  G61        -0.3456
   1829  C3'        8.9870   59.2990  111.8780 C.3    61  G61         0.1241
   1830  O3'        8.8860   60.6990  112.0640 O.3    61  G61        -0.3187
   1831  C2'       10.3750   58.8310  111.4670 C.3    61  G61         0.1292
   1832  O2'       11.3810   59.4520  112.2550 O.3    61  G61        -0.3846
   1833  C1'       10.3070   57.3480  111.8320 C.3    61  G61         0.1667
   1834  N1        11.8750   55.5520  107.3720 N.ar   61  G61        -0.2934
   1835  C2        12.5240   56.3480  108.2830 C.ar   61  G61         0.1950
   1836  N2        13.7700   56.7200  107.9610 N.pl3  61  G61        -0.3289
   1837  N3        11.9920   56.7490  109.4250 N.ar   61  G61        -0.1963
   1838  C4        10.7370   56.2810  109.5870 C.ar   61  G61         0.1712
   1839  C5         9.9980   55.4820  108.7430 C.ar   61  G61         0.1721
   1840  C6        10.5810   55.0600  107.5200 C.ar   61  G61         0.2803
   1841  O6        10.0880   54.3480  106.6350 O.2    61  G61        -0.2654
   1842  N7         8.7450   55.2270  109.2840 N.ar   61  G61        -0.2286
   1843  C8         8.7460   55.8650  110.4230 C.ar   61  G61         0.1005
   1844  N9         9.9280   56.5200  110.6710 N.ar   61  G61        -0.2854
   1845  OP1        4.4010   57.9460  113.8270 O.3    61  G61        -0.4373
   1846  OP2        4.5830   56.2410  111.9160 O.co2  61  G61        -0.5172
   1847 HO2'       12.1340   59.1750  112.0060 H      61  G61         0.2101
   1848  H1        12.3000   55.3410  106.6550 H      61  G61         0.1716
   1849  H8         8.0240   55.8700  111.0090 H      61  G61         0.1030
   1850  H1'       11.1700   57.0580  112.1680 H      61  G61         0.0866
   1851  H2'       10.5300   58.9570  110.5180 H      61  G61         0.0666
   1852  H21       14.1180   56.4610  107.2180 H      61  G61         0.1451
   1853  H3'        8.3460   59.0210  111.2050 H      61  G61         0.0655
   1854  H22       14.2220   57.2180  108.4960 H      61  G61         0.1451
   1855  H4'        9.2500   58.9120  113.8710 H      61  G61         0.0647
   1856  H5'        7.2980   57.8950  114.4470 H      61  G61         0.0591
   1857 H5''        6.9130   59.2170  113.6750 H      61  G61         0.0591
   1858  P          8.5000   61.6440  110.8230 P.3    62  G62         0.2131
   1859  C5'       11.0200   62.1110  110.2730 C.3    62  G62         0.0837
   1860  O5'        9.7750   61.5610  109.8710 O.3    62  G62        -0.3248
   1861  C4'       12.0790   61.9330  109.2130 C.3    62  G62         0.1139
   1862  O4'       12.3470   60.5190  109.0110 O.3    62  G62        -0.3456
   1863  C3'       11.7320   62.4360  107.8210 C.3    62  G62         0.1241
   1864  O3'       11.8600   63.8400  107.6750 O.3    62  G62        -0.3187
   1865  C2'       12.6830   61.6350  106.9450 C.3    62  G62         0.1292
   1866  O2'       14.0010   62.1640  106.9970 O.3    62  G62        -0.3846
   1867  C1'       12.6640   60.2810  107.6530 C.3    62  G62         0.1667
   1868  N1        11.3740   57.4070  103.6660 N.ar   62  G62        -0.2934
   1869  C2        12.5060   58.1560  103.8770 C.ar   62  G62         0.1950
   1870  N2        13.4200   58.1400  102.8970 N.pl3  62  G62        -0.3289
   1871  N3        12.7270   58.8670  104.9700 N.ar   62  G62        -0.1963
   1872  C4        11.7100   58.7690  105.8510 C.ar   62  G62         0.1712
   1873  C5        10.5390   58.0520  105.7380 C.ar   62  G62         0.1721
   1874  C6        10.3140   57.2920  104.5600 C.ar   62  G62         0.2803
   1875  O6         9.3380   56.5890  104.2680 O.2    62  G62        -0.2654
   1876  N7         9.7500   58.2190  106.8680 N.ar   62  G62        -0.2286
   1877  C8        10.4430   59.0190  107.6310 C.ar   62  G62         0.1005
   1878  N9        11.6440   59.3860  107.0770 N.ar   62  G62        -0.2854
   1879  OP1        8.3930   63.0360  111.3300 O.3    62  G62        -0.4373
   1880  OP2        7.3510   61.0330  110.1080 O.co2  62  G62        -0.5172
   1881 HO2'       13.9710   62.9400  107.3160 H      62  G62         0.2101
   1882  H1        11.3170   56.9750  102.9240 H      62  G62         0.1716
   1883  H8        10.1560   59.3070  108.4680 H      62  G62         0.1030
   1884  H1'       13.5380   59.8660  107.5890 H      62  G62         0.0866
   1885  H2'       12.3570   61.5650  106.0340 H      62  G62         0.0666
   1886  H21       13.2790   57.6790  102.1850 H      62  G62         0.1451
   1887  H3'       10.8200   62.1800  107.6110 H      62  G62         0.0655
   1888  H22       14.1480   58.5910  102.9800 H      62  G62         0.1451
   1889  H4'       12.8940   62.3670  109.5090 H      62  G62         0.0647
   1890  H5'       11.3120   61.6710  111.0870 H      62  G62         0.0591
   1891 H5''       10.9060   63.0580  110.4490 H      62  G62         0.0591
   1892  P         10.8600   64.6410  106.7040 P.3    63  G63         0.2131
   1893  C5'       12.5720   64.4490  104.7370 C.3    63  G63         0.0837
   1894  O5'       11.2780   64.1590  105.2440 O.3    63  G63        -0.3248
   1895  C4'       12.7940   63.8540  103.3690 C.3    63  G63         0.1139
   1896  O4'       12.6790   62.4090  103.4280 O.3    63  G63        -0.3456
   1897  C3'       11.8050   64.2530  102.2850 C.3    63  G63         0.1241
   1898  O3'       12.0690   65.5320  101.7350 O.3    63  G63        -0.3187
   1899  C2'       11.9450   63.1180  101.2780 C.3    63  G63         0.1292
   1900  O2'       13.0850   63.3020  100.4520 O.3    63  G63        -0.3846
   1901  C1'       12.1890   61.9180  102.1970 C.3    63  G63         0.1667
   1902  N1         9.1630   58.3090  100.3440 N.ar   63  G63        -0.2934
   1903  C2        10.3200   58.8420   99.8300 C.ar   63  G63         0.1950
   1904  N2        10.7320   58.3440   98.6560 N.pl3  63  G63        -0.3289
   1905  N3        11.0220   59.7920  100.4230 N.ar   63  G63        -0.1963
   1906  C4        10.4640   60.1740  101.5910 C.ar   63  G63         0.1712
   1907  C5         9.3150   59.7100  102.1940 C.ar   63  G63         0.1721
   1908  C6         8.5710   58.6890  101.5470 C.ar   63  G63         0.2803
   1909  O6         7.5240   58.1440  101.9190 O.2    63  G63        -0.2654
   1910  N7         9.0920   60.3710  103.3940 N.ar   63  G63        -0.2286
   1911  C8        10.0910   61.2070  103.4950 C.ar   63  G63         0.1005
   1912  N9        10.9600   61.1370  102.4340 N.ar   63  G63        -0.2854
   1913  OP1       11.1900   66.0840  106.8120 O.2    63  G63        -0.5172
   1914  OP2        9.4720   64.1830  106.9690 O.co2  63  G63        -0.4373
   1915 HO2'       13.3030   64.1130  100.4630 H      63  G63         0.2101
   1916  H1         8.7740   57.6940   99.8880 H      63  G63         0.1716
   1917  H8        10.2020   61.7890  104.2120 H      63  G63         0.1030
   1918  H1'       12.8580   61.3420  101.7950 H      63  G63         0.0866
   1919  H2'       11.1370   63.0050  100.7550 H      63  G63         0.0666
   1920  H21       10.2770   57.7250   98.2680 H      63  G63         0.1451
   1921  H3'       10.9080   64.2430  102.6540 H      63  G63         0.0655
   1922  H22       11.4510   58.6420   98.2900 H      63  G63         0.1451
   1923  H4'       13.6890   64.0830  103.0730 H      63  G63         0.0647
   1924  H5'       13.2360   64.0910  105.3480 H      63  G63         0.0591
   1925 H5''       12.6800   65.4110  104.6830 H      63  G63         0.0591
   1926  P         11.0110   66.7250  101.9280 P.3    64  C64         0.2131
   1927  C5'        9.5510   66.0000   99.8750 C.3    64  C64         0.0837
   1928  O5'        9.6690   66.1620  101.2800 O.3    64  C64        -0.3248
   1929  C4'        8.3930   65.1050   99.5090 C.3    64  C64         0.1139
   1930  O4'        8.5570   63.8000  100.1280 O.3    64  C64        -0.3456
   1931  C3'        7.0160   65.5560   99.9700 C.3    64  C64         0.1241
   1932  O3'        6.4510   66.5580   99.1440 O.3    64  C64        -0.3187
   1933  C2'        6.2330   64.2500   99.9740 C.3    64  C64         0.1293
   1934  O2'        5.8410   63.8800   98.6600 O.3    64  C64        -0.3846
   1935  C1'        7.2930   63.2680  100.4700 C.3    64  C64         0.1680
   1936  N1         7.2330   63.0920  101.9400 N.ar   64  C64        -0.2700
   1937  C2         6.3060   62.1960  102.4820 C.ar   64  C64         0.3522
   1938  O2         5.5640   61.5630  101.7180 O.2    64  C64        -0.2444
   1939  N3         6.2430   62.0360  103.8250 N.ar   64  C64        -0.1783
   1940  C4         7.0560   62.7320  104.6220 C.ar   64  C64         0.1230
   1941  N4         6.9570   62.5430  105.9420 N.pl3  64  C64        -0.3430
   1942  C5         8.0060   63.6560  104.0990 C.ar   64  C64        -0.0056
   1943  C6         8.0580   63.8040  102.7680 C.ar   64  C64         0.0152
   1944  OP1       11.4700   67.8760  101.1100 O.2    64  C64        -0.5172
   1945  OP2       10.7780   66.9000  103.3840 O.co2  64  C64        -0.4373
   1946 HO2'        5.2580   64.4200   98.3870 H      64  C64         0.2101
   1947  H5         8.5700   64.1370  104.6600 H      64  C64         0.0666
   1948  H6         8.6700   64.4000  102.3990 H      64  C64         0.0812
   1949  H1'        7.1720   62.4100  100.0340 H      64  C64         0.0867
   1950  H2'        5.4760   64.2910  100.5780 H      64  C64         0.0666
   1951  H3'        7.0800   65.8910  100.8780 H      64  C64         0.0655
   1952  H4'        8.3770   64.9930   98.5450 H      64  C64         0.0647
   1953  H41        7.4690   62.9790  106.4780 H      64  C64         0.1437
   1954  H5'       10.3710   65.6120   99.5320 H      64  C64         0.0591
   1955  H42        6.3810   61.9860  106.2540 H      64  C64         0.1437
   1956 H5''        9.4190   66.8700   99.4670 H      64  C64         0.0591
   1957  P          5.8340   67.8890   99.8000 P.3    65  U65         0.2131
   1958  C5'        3.5880   66.5880  100.1710 C.3    65  U65         0.0837
   1959  O5'        4.6510   67.3520  100.7220 O.3    65  U65        -0.3248
   1960  C4'        2.8000   65.8740  101.2400 C.3    65  U65         0.1139
   1961  O4'        3.6630   64.9570  101.9670 O.3    65  U65        -0.3456
   1962  C3'        2.2020   66.7490  102.3290 C.3    65  U65         0.1241
   1963  O3'        1.0100   67.4060  101.9330 O.3    65  U65        -0.3187
   1964  C2'        2.0110   65.7570  103.4680 C.3    65  U65         0.1293
   1965  O2'        0.8710   64.9380  103.2510 O.3    65  U65        -0.3846
   1966  C1'        3.2660   64.9000  103.3230 C.3    65  U65         0.1680
   1967  N1         4.3730   65.4090  104.1660 N.ar   65  U65        -0.2715
   1968  C2         4.3300   65.1200  105.5150 C.ar   65  U65         0.3314
   1969  O2         3.4340   64.4670  106.0210 O.2    65  U65        -0.2464
   1970  N3         5.3730   65.6230  106.2500 N.ar   65  U65        -0.2749
   1971  C4         6.4330   66.3710  105.7820 C.ar   65  U65         0.2539
   1972  O4         7.2980   66.7500  106.5740 O.2    65  U65        -0.2677
   1973  C5         6.4090   66.6320  104.3750 C.ar   65  U65         0.0192
   1974  C6         5.4020   66.1540  103.6370 C.ar   65  U65         0.0171
   1975  OP1        5.2320   68.7060   98.7150 O.2    65  U65        -0.5172
   1976  OP2        6.8690   68.4880  100.6800 O.co2  65  U65        -0.4373
   1977 HO2'        0.1790   65.4070  103.3300 H      65  U65         0.2101
   1978  H3         5.3670   65.4520  107.0930 H      65  U65         0.1734
   1979  H5         7.0870   67.1300  103.9780 H      65  U65         0.0686
   1980  H6         5.3970   66.3320  102.7240 H      65  U65         0.0813
   1981  H1'        3.0660   63.9830  103.5660 H      65  U65         0.0867
   1982  H2'        1.9800   66.2020  104.3290 H      65  U65         0.0666
   1983  H3'        2.8560   67.4140  102.5950 H      65  U65         0.0655
   1984  H4'        2.0880   65.3670  100.8190 H      65  U65         0.0647
   1985  H5'        3.9550   65.9330   99.5570 H      65  U65         0.0591
   1986 H5''        2.9940   67.1800   99.6830 H      65  U65         0.0591
   1987  P          1.0490   68.9450  101.4680 P.3    66  G66         0.2131
   1988  C5'       -0.4220   69.9440  103.4020 C.3    66  G66         0.0837
   1989  O5'       -0.3050   69.5550  102.0410 O.3    66  G66        -0.3248
   1990  C4'       -1.8690   70.0380  103.8140 C.3    66  G66         0.1139
   1991  O4'       -2.5950   70.8260  102.8300 O.3    66  G66        -0.3456
   1992  C3'       -2.6170   68.7130  103.8700 C.3    66  G66         0.1241
   1993  O3'       -2.4440   68.0380  105.1060 O.3    66  G66        -0.3187
   1994  C2'       -4.0540   69.1250  103.5900 C.3    66  G66         0.1292
   1995  O2'       -4.6670   69.6730  104.7490 O.3    66  G66        -0.3846
   1996  C1'       -3.8490   70.2390  102.5670 C.3    66  G66         0.1667
   1997  N1        -6.2460   67.6190   98.8860 N.ar   66  G66        -0.2934
   1998  C2        -6.6630   67.8920  100.1660 C.ar   66  G66         0.1950
   1999  N2        -7.8640   67.4050  100.5060 N.pl3  66  G66        -0.3289
   2000  N3        -5.9570   68.5850  101.0430 N.ar   66  G66        -0.1963
   2001  C4        -4.7790   68.9940  100.5280 C.ar   66  G66         0.1712
   2002  C5        -4.2700   68.7740   99.2640 C.ar   66  G66         0.1721
   2003  C6        -5.0380   68.0280   98.3340 C.ar   66  G66         0.2803
   2004  O6        -4.7570   67.7290   97.1660 O.2    66  G66        -0.2654
   2005  N7        -3.0210   69.3600   99.1240 N.ar   66  G66        -0.2286
   2006  C8        -2.7980   69.9140  100.2820 C.ar   66  G66         0.1005
   2007  N9        -3.8190   69.7290  101.1820 N.ar   66  G66        -0.2854
   2008  OP1        0.9680   68.9710   99.9850 O.2    66  G66        -0.5172
   2009  OP2        2.1730   69.6380  102.1500 O.co2  66  G66        -0.4373
   2010 HO2'       -4.5270   69.1610  105.4000 H      66  G66         0.2101
   2011  H1        -6.7750   67.1590   98.3870 H      66  G66         0.1716
   2012  H8        -2.0210   70.3850  100.4810 H      66  G66         0.1030
   2013  H1'       -4.5490   70.9040  102.6580 H      66  G66         0.0866
   2014  H2'       -4.5710   68.3920  103.2200 H      66  G66         0.0666
   2015  H21       -8.3230   66.9540   99.9360 H      66  G66         0.1451
   2016  H3'       -2.3050   68.1420  103.1510 H      66  G66         0.0655
   2017  H22       -8.1750   67.5430  101.2960 H      66  G66         0.1451
   2018  H4'       -1.9270   70.4750  104.6780 H      66  G66         0.0647
   2019  H5'        0.0010   70.8080  103.5240 H      66  G66         0.0591
   2020 H5''        0.0260   69.2890  103.9600 H      66  G66         0.0591
   2021  P         -2.1780   66.4520  105.1460 P.3    67  G67         0.2131
   2022  C5'       -4.5780   65.9590  106.0930 C.3    67  G67         0.0837
   2023  O5'       -3.6340   65.8160  105.0410 O.3    67  G67        -0.3248
   2024  C4'       -5.9010   65.3370  105.7250 C.3    67  G67         0.1139
   2025  O4'       -6.4680   66.0420  104.5880 O.3    67  G67        -0.3456
   2026  C3'       -5.8380   63.8840  105.2750 C.3    67  G67         0.1241
   2027  O3'       -5.8180   62.9720  106.3600 O.3    67  G67        -0.3187
   2028  C2'       -7.0610   63.7580  104.3780 C.3    67  G67         0.1292
   2029  O2'       -8.2480   63.6060  105.1430 O.3    67  G67        -0.3846
   2030  C1'       -7.0770   65.1270  103.7040 C.3    67  G67         0.1667
   2031  N1        -6.8020   63.6230   98.8280 N.ar   67  G67        -0.2934
   2032  C2        -7.7850   63.3800   99.7560 C.ar   67  G67         0.1950
   2033  N2        -8.8260   62.6480   99.3350 N.pl3  67  G67        -0.3289
   2034  N3        -7.7540   63.8240  101.0020 N.ar   67  G67        -0.1963
   2035  C4        -6.6390   64.5410  101.2510 C.ar   67  G67         0.1712
   2036  C5        -5.5980   64.8390  100.3960 C.ar   67  G67         0.1721
   2037  C6        -5.6460   64.3590   99.0620 C.ar   67  G67         0.2803
   2038  O6        -4.8190   64.5190   98.1550 O.2    67  G67        -0.2654
   2039  N7        -4.6340   65.6050  101.0360 N.ar   67  G67        -0.2286
   2040  C8        -5.0970   65.7540  102.2450 C.ar   67  G67         0.1005
   2041  N9        -6.3070   65.1350  102.4460 N.ar   67  G67        -0.2854
   2042  OP1       -1.6290   66.1180  106.4840 O.3    67  G67        -0.4373
   2043  OP2       -1.4190   66.0540  103.9340 O.co2  67  G67        -0.5172
   2044 HO2'       -8.0410   63.4540  105.9430 H      67  G67         0.2101
   2045  H1        -6.9100   63.2940   98.0410 H      67  G67         0.1716
   2046  H8        -4.6520   66.2320  102.9070 H      67  G67         0.1030
   2047  H1'       -7.9930   65.3980  103.5300 H      67  G67         0.0866
   2048  H2'       -6.9560   63.0440  103.7300 H      67  G67         0.0666
   2049  H21       -8.8490   62.3580   98.5260 H      67  G67         0.1451
   2050  H3'       -5.0390   63.7540  104.7400 H      67  G67         0.0655
   2051  H22       -9.4710   62.4680   99.8750 H      67  G67         0.1451
   2052  H4'       -6.5070   65.4100  106.4790 H      67  G67         0.0647
   2053  H5'       -4.7100   66.9020  106.2760 H      67  G67         0.0591
   2054 H5''       -4.2340   65.5260  106.8900 H      67  G67         0.0591
   2055  P         -4.9200   61.6400  106.2880 P.3    68  C68         0.2131
   2056  C5'       -7.0790   60.3340  105.5880 C.3    68  C68         0.0837
   2057  O5'       -5.7340   60.6910  105.3030 O.3    68  C68        -0.3248
   2058  C4'       -7.6890   59.5240  104.4720 C.3    68  C68         0.1139
   2059  O4'       -7.9680   60.3800  103.3300 O.3    68  C68        -0.3456
   2060  C3'       -6.8180   58.4200  103.8930 C.3    68  C68         0.1241
   2061  O3'       -6.7840   57.2480  104.6890 O.3    68  C68        -0.3187
   2062  C2'       -7.4300   58.2220  102.5150 C.3    68  C68         0.1293
   2063  O2'       -8.6460   57.4930  102.5920 O.3    68  C68        -0.3846
   2064  C1'       -7.7450   59.6660  102.1310 C.3    68  C68         0.1680
   2065  N1        -6.6120   60.2950  101.4140 N.ar   68  C68        -0.2700
   2066  C2        -6.4180   60.0140  100.0580 C.ar   68  C68         0.3522
   2067  O2        -7.2060   59.2500   99.4830 O.2    68  C68        -0.2444
   2068  N3        -5.3780   60.5810   99.4030 N.ar   68  C68        -0.1783
   2069  C4        -4.5470   61.3990  100.0520 C.ar   68  C68         0.1230
   2070  N4        -3.5330   61.9380   99.3690 N.pl3  68  C68        -0.3430
   2071  C5        -4.7180   61.7000  101.4340 C.ar   68  C68        -0.0056
   2072  C6        -5.7500   61.1310  102.0690 C.ar   68  C68         0.0152
   2073  OP1       -4.9300   61.0140  107.6340 O.3    68  C68        -0.4373
   2074  OP2       -3.6200   61.9680  105.6490 O.co2  68  C68        -0.5172
   2075 HO2'       -8.4750   56.6990  102.8040 H      68  C68         0.2101
   2076  H5        -4.1340   62.2710  101.8790 H      68  C68         0.0666
   2077  H6        -5.8850   61.3100  102.9710 H      68  C68         0.0812
   2078  H1'       -8.5410   59.6930  101.5780 H      68  C68         0.0867
   2079  H2'       -6.8010   57.8170  101.8970 H      68  C68         0.0666
   2080  H3'       -5.9130   58.7550  103.7900 H      68  C68         0.0655
   2081  H4'       -8.5210   59.1350  104.7850 H      68  C68         0.0647
   2082  H41       -2.9830   62.4680   99.7640 H      68  C68         0.1437
   2083  H5'       -7.6000   61.1430  105.7120 H      68  C68         0.0591
   2084  H42       -3.4310   61.7560   98.5350 H      68  C68         0.1437
   2085 H5''       -7.1020   59.8140  106.4060 H      68  C68         0.0591
   2086  P         -5.4290   56.3880  104.7940 P.3    69  G69         0.2131
   2087  C5'       -6.4030   54.7240  103.0240 C.3    69  G69         0.0837
   2088  O5'       -5.3660   55.6150  103.4030 O.3    69  G69        -0.3248
   2089  C4'       -6.3310   54.3660  101.5610 C.3    69  G69         0.1139
   2090  O4'       -6.5650   55.5420  100.7380 O.3    69  G69        -0.3456
   2091  C3'       -4.9960   53.8470  101.0630 C.3    69  G69         0.1241
   2092  O3'       -4.7350   52.5020  101.4200 O.3    69  G69        -0.3187
   2093  C2'       -5.1060   54.0880   99.5650 C.3    69  G69         0.1292
   2094  O2'       -5.9460   53.1250   98.9450 O.3    69  G69        -0.3846
   2095  C1'       -5.8090   55.4430   99.5450 C.3    69  G69         0.1667
   2096  N1        -2.3950   57.8530   96.6830 N.ar   69  G69        -0.2934
   2097  C2        -3.2100   56.7910   96.3760 C.ar   69  G69         0.1950
   2098  N2        -3.1100   56.2930   95.1360 N.pl3  69  G69        -0.3289
   2099  N3        -4.0680   56.2510   97.2240 N.ar   69  G69        -0.1963
   2100  C4        -4.0480   56.8680   98.4240 C.ar   69  G69         0.1712
   2101  C5        -3.2750   57.9300   98.8360 C.ar   69  G69         0.1721
   2102  C6        -2.3580   58.5000   97.9150 C.ar   69  G69         0.2803
   2103  O6        -1.5830   59.4490   98.0870 O.2    69  G69        -0.2654
   2104  N7        -3.5590   58.2630  100.1540 N.ar   69  G69        -0.2286
   2105  C8        -4.4800   57.4090  100.5120 C.ar   69  G69         0.1005
   2106  N9        -4.8280   56.5430   99.5050 N.ar   69  G69        -0.2854
   2107  OP1       -5.6140   55.3800  105.8690 O.3    69  G69        -0.4373
   2108  OP2       -4.2710   57.3170  104.8590 O.co2  69  G69        -0.5172
   2109 HO2'       -5.9330   52.4180   99.4000 H      69  G69         0.2101
   2110  H1        -1.8670   58.1390   96.0680 H      69  G69         0.1716
   2111  H8        -4.8670   57.3960  101.3570 H      69  G69         0.1030
   2112  H1'       -6.3980   55.4970   98.7770 H      69  G69         0.0866
   2113  H2'       -4.2330   54.1330   99.1440 H      69  G69         0.0666
   2114  H21       -2.5550   56.6380   94.5780 H      69  G69         0.1451
   2115  H3'       -4.2890   54.4070  101.4190 H      69  G69         0.0655
   2116  H22       -3.6020   55.6280   94.8990 H      69  G69         0.1451
   2117  H4'       -7.0160   53.7070  101.3670 H      69  G69         0.0647
   2118  H5'       -7.2600   55.1420  103.2050 H      69  G69         0.0591
   2119 H5''       -6.3310   53.9130  103.5520 H      69  G69         0.0591
   2120  P         -3.2280   52.0440  101.7350 P.3    70  G70         0.2131
   2121  C5'       -3.0090   51.1210   99.3030 C.3    70  G70         0.0837
   2122  O5'       -2.5430   52.0170  100.2990 O.3    70  G70        -0.3248
   2123  C4'       -2.4870   51.4700   97.9340 C.3    70  G70         0.1139
   2124  O4'       -2.7830   52.8550   97.6160 O.3    70  G70        -0.3456
   2125  C3'       -0.9840   51.3710   97.7510 C.3    70  G70         0.1241
   2126  O3'       -0.5340   50.0390   97.5770 O.3    70  G70        -0.3187
   2127  C2'       -0.7470   52.2660   96.5440 C.3    70  G70         0.1292
   2128  O2'       -1.0840   51.5990   95.3370 O.3    70  G70        -0.3846
   2129  C1'       -1.7600   53.3840   96.7970 C.3    70  G70         0.1667
   2130  N1         1.5340   57.1810   96.2960 N.ar   70  G70        -0.2934
   2131  C2         1.1650   56.2010   95.4050 C.ar   70  G70         0.1950
   2132  N2         1.7490   56.2290   94.2000 N.pl3  70  G70        -0.3289
   2133  N3         0.2800   55.2590   95.6700 N.ar   70  G70        -0.1963
   2134  C4        -0.2140   55.3740   96.9170 C.ar   70  G70         0.1712
   2135  C5         0.0830   56.3070   97.8860 C.ar   70  G70         0.1721
   2136  C6         1.0350   57.3170   97.5890 C.ar   70  G70         0.2803
   2137  O6         1.4370   58.2360   98.3130 O.2    70  G70        -0.2654
   2138  N7        -0.6560   56.0610   99.0360 N.ar   70  G70        -0.2286
   2139  C8        -1.3690   55.0060   98.7470 C.ar   70  G70         0.1005
   2140  N9        -1.1480   54.5410   97.4750 N.ar   70  G70        -0.2854
   2141  OP1       -3.2720   50.6460  102.2340 O.2    70  G70        -0.5172
   2142  OP2       -2.5660   53.0980  102.5500 O.co2  70  G70        -0.4373
   2143 HO2'       -1.1540   50.7760   95.4890 H      70  G70         0.2101
   2144  H1         2.1190   57.7550   96.0350 H      70  G70         0.1716
   2145  H8        -1.9670   54.6110   99.3410 H      70  G70         0.1030
   2146  H1'       -2.1410   53.6700   95.9520 H      70  G70         0.0866
   2147  H2'        0.1610   52.6070   96.5260 H      70  G70         0.0666
   2148  H21        2.3270   56.8380   94.0160 H      70  G70         0.1451
   2149  H3'       -0.5440   51.7570   98.5240 H      70  G70         0.0655
   2150  H22        1.5450   55.6370   93.6100 H      70  G70         0.1451
   2151  H4'       -2.9200   50.9000   97.2800 H      70  G70         0.0647
   2152  H5'       -3.9790   51.1470   99.2860 H      70  G70         0.0591
   2153 H5''       -2.7230   50.2230   99.5300 H      70  G70         0.0591
   2154  P          0.8390   49.5560   98.2600 P.3    71  U71         0.2131
   2155  C5'        2.0330   50.1170   95.9990 C.3    71  U71         0.0837
   2156  O5'        1.9610   50.2930   97.4050 O.3    71  U71        -0.3248
   2157  C4'        2.9680   51.1130   95.3660 C.3    71  U71         0.1139
   2158  O4'        2.4230   52.4540   95.4840 O.3    71  U71        -0.3456
   2159  C3'        4.3450   51.2230   95.9950 C.3    71  U71         0.1241
   2160  O3'        5.2220   50.1840   95.5970 O.3    71  U71        -0.3187
   2161  C2'        4.7890   52.6130   95.5600 C.3    71  U71         0.1293
   2162  O2'        5.2310   52.6140   94.2110 O.3    71  U71        -0.3846
   2163  C1'        3.4740   53.3850   95.6480 C.3    71  U71         0.1680
   2164  N1         3.3120   54.0620   96.9570 N.ar   71  U71        -0.2715
   2165  C2         4.0780   55.1860   97.2050 C.ar   71  U71         0.3314
   2166  O2         4.8730   55.6370   96.3990 O.2    71  U71        -0.2464
   2167  N3         3.8820   55.7630   98.4340 N.ar   71  U71        -0.2749
   2168  C4         3.0160   55.3420   99.4210 C.ar   71  U71         0.2539
   2169  O4         2.9520   55.9720  100.4790 O.2    71  U71        -0.2677
   2170  C5         2.2570   54.1740   99.0920 C.ar   71  U71         0.0192
   2171  C6         2.4300   53.5920   97.9000 C.ar   71  U71         0.0171
   2172  OP1        0.9710   48.0940   98.0250 O.2    71  U71        -0.5172
   2173  OP2        0.8900   50.0850   99.6500 O.co2  71  U71        -0.4373
   2174 HO2'        5.9540   52.1900   94.1600 H      71  U71         0.2101
   2175  H3         4.3490   56.4640   98.6080 H      71  U71         0.1734
   2176  H5         1.6490   53.8230   99.7010 H      71  U71         0.0686
   2177  H6         1.9310   52.8340   97.7010 H      71  U71         0.0813
   2178  H1'        3.4370   54.0430   94.9370 H      71  U71         0.0867
   2179  H2'        5.4570   52.9790   96.1600 H      71  U71         0.0666
   2180  H3'        4.2540   51.2080   96.9610 H      71  U71         0.0655
   2181  H4'        3.0690   50.8960   94.4250 H      71  U71         0.0647
   2182  H5'        1.1470   50.2290   95.6200 H      71  U71         0.0591
   2183 H5''        2.3480   49.2200   95.8080 H      71  U71         0.0591
   2184  P          6.3890   49.6790   96.5810 P.3    72  C72         0.2131
   2185  C5'        8.1530   50.7110   94.9540 C.3    72  C72         0.0837
   2186  O5'        7.5980   50.6620   96.2580 O.3    72  C72        -0.3248
   2187  C4'        9.0930   51.8760   94.7850 C.3    72  C72         0.1139
   2188  O4'        8.3650   53.1320   94.8720 O.3    72  C72        -0.3456
   2189  C3'       10.1840   52.0210   95.8290 C.3    72  C72         0.1241
   2190  O3'       11.2650   51.1270   95.6310 O.3    72  C72        -0.3187
   2191  C2'       10.5600   53.4880   95.6900 C.3    72  C72         0.1293
   2192  O2'       11.3560   53.7040   94.5350 O.3    72  C72        -0.3846
   2193  C1'        9.1880   54.1190   95.4620 C.3    72  C72         0.1680
   2194  N1         8.5620   54.5530   96.7320 N.ar   72  C72        -0.2700
   2195  C2         8.9140   55.7790   97.3020 C.ar   72  C72         0.3522
   2196  O2         9.7490   56.4920   96.7280 O.2    72  C72        -0.2444
   2197  N3         8.3360   56.1610   98.4650 N.ar   72  C72        -0.1783
   2198  C4         7.4410   55.3700   99.0610 C.ar   72  C72         0.1230
   2199  N4         6.8920   55.7800  100.2100 N.pl3  72  C72        -0.3430
   2200  C5         7.0670   54.1150   98.5040 C.ar   72  C72        -0.0056
   2201  C6         7.6490   53.7490   97.3550 C.ar   72  C72         0.0152
   2202  OP1        6.7910   48.3200   96.1370 O.2    72  C72        -0.5172
   2203  OP2        5.9810   49.8960   97.9930 O.co2  72  C72        -0.4373
   2204 HO2'       12.1120   53.3590   94.6560 H      72  C72         0.2101
   2205  H5         6.4430   53.5670   98.9230 H      72  C72         0.0666
   2206  H6         7.4200   52.9350   96.9680 H      72  C72         0.0812
   2207  H1'        9.2710   54.8770   94.8620 H      72  C72         0.0867
   2208  H2'       10.9830   53.8300   96.4930 H      72  C72         0.0666
   2209  H3'        9.8050   51.8710   96.7090 H      72  C72         0.0655
   2210  H4'        9.5060   51.8170   93.9100 H      72  C72         0.0647
   2211  H41        6.3130   55.2860  100.6100 H      72  C72         0.1437
   2212  H5'        7.4340   50.7900   94.3080 H      72  C72         0.0591
   2213  H42        7.1180   56.5380  100.5490 H      72  C72         0.1437
   2214 H5''        8.6380   49.8880   94.7860 H      72  C72         0.0591
   2215  P         12.0170   50.4820   96.8960 P.3    73  C73         0.2131
   2216  C5'       13.9210   52.2390   96.5080 C.3    73  C73         0.0837
   2217  O5'       12.9760   51.6520   97.3910 O.3    73  C73        -0.3248
   2218  C4'       14.4600   53.5370   97.0530 C.3    73  C73         0.1139
   2219  O4'       13.3950   54.5230   97.1460 O.3    73  C73        -0.3456
   2220  C3'       15.0260   53.4790   98.4620 C.3    73  C73         0.1241
   2221  O3'       16.3350   52.9430   98.5160 O.3    73  C73        -0.3187
   2222  C2'       14.9320   54.9310   98.9070 C.3    73  C73         0.1293
   2223  O2'       15.9740   55.7080   98.3360 O.3    73  C73        -0.3846
   2224  C1'       13.6020   55.3440   98.2800 C.3    73  C73         0.1680
   2225  N1        12.4720   55.1470   99.2170 N.ar   73  C73        -0.2700
   2226  C2        12.2440   56.0800  100.2330 C.ar   73  C73         0.3522
   2227  O2        12.9920   57.0630  100.3250 O.2    73  C73        -0.2444
   2228  N3        11.2120   55.8920  101.0900 N.ar   73  C73        -0.1783
   2229  C4        10.4240   54.8220  100.9640 C.ar   73  C73         0.1230
   2230  N4         9.4180   54.6720  101.8310 N.pl3  73  C73        -0.3430
   2231  C5        10.6350   53.8540   99.9410 C.ar   73  C73        -0.0056
   2232  C6        11.6590   54.0540   99.1030 C.ar   73  C73         0.0152
   2233  OP1       12.8680   49.3680   96.4060 O.2    73  C73        -0.5172
   2234  OP2       11.0150   50.2150   97.9630 O.co2  73  C73        -0.4373
   2235 HO2'       16.7060   55.4810   98.6810 H      73  C73         0.2101
   2236  H5        10.0830   53.1100   99.8590 H      73  C73         0.0666
   2237  H6        11.8190   53.4370   98.4250 H      73  C73         0.0812
   2238  H1'       13.6430   56.2740   98.0070 H      73  C73         0.0867
   2239  H2'       14.9100   55.0090   99.8730 H      73  C73         0.0666
   2240  H3'       14.4400   52.9400   99.0170 H      73  C73         0.0655
   2241  H4'       15.1450   53.8700   96.4530 H      73  C73         0.0647
   2242  H41        8.8970   53.9910  101.7710 H      73  C73         0.1437
   2243  H5'       13.4940   52.4070   95.6540 H      73  C73         0.0591
   2244  H42        9.2930   55.2570  102.4490 H      73  C73         0.1437
   2245 H5''       14.6580   51.6210   96.3770 H      73  C73         0.0591
   2246  P         16.7330   51.9010   99.6720 P.3    74  C74         0.2131
   2247  C5'       18.1360   53.8320  100.7570 C.3    74  C74         0.0837
   2248  O5'       17.1370   52.8330  100.8990 O.3    74  C74        -0.3248
   2249  C4'       18.1480   54.7780  101.9330 C.3    74  C74         0.1139
   2250  O4'       16.9410   55.5870  101.9320 O.3    74  C74        -0.3456
   2251  C3'       18.1560   54.1320  103.3100 C.3    74  C74         0.1241
   2252  O3'       19.4380   53.6800  103.7090 O.3    74  C74        -0.3187
   2253  C2'       17.5840   55.2370  104.1870 C.3    74  C74         0.1293
   2254  O2'       18.5590   56.2330  104.4580 O.3    74  C74        -0.3846
   2255  C1'       16.5230   55.8280  103.2610 C.3    74  C74         0.1680
   2256  N1        15.2020   55.1910  103.4610 N.ar   74  C74        -0.2700
   2257  C2        14.4180   55.5600  104.5590 C.ar   74  C74         0.3522
   2258  O2        14.8460   56.4210  105.3400 O.2    74  C74        -0.2444
   2259  N3        13.2120   54.9740  104.7410 N.ar   74  C74        -0.1783
   2260  C4        12.7850   54.0510  103.8780 C.ar   74  C74         0.1230
   2261  N4        11.5890   53.4930  104.0890 N.pl3  74  C74        -0.3430
   2262  C5        13.5640   53.6550  102.7540 C.ar   74  C74        -0.0056
   2263  C6        14.7540   54.2430  102.5870 C.ar   74  C74         0.0152
   2264  OP1       17.9520   51.1860   99.2160 O.2    74  C74        -0.5172
   2265  OP2       15.5240   51.1210  100.0550 O.co2  74  C74        -0.4373
   2266 HO2'       19.1440   55.9110  104.9680 H      74  C74         0.2101
   2267  H5        13.2570   53.0100  102.1570 H      74  C74         0.0666
   2268  H6        15.2840   54.0040  101.8610 H      74  C74         0.0812
   2269  H1'       16.4520   56.7830  103.4130 H      74  C74         0.0867
   2270  H2'       17.1920   54.8820  105.0000 H      74  C74         0.0666
   2271  H3'       17.5420   53.3810  103.3090 H      74  C74         0.0655
   2272  H4'       18.9180   55.3630  101.8560 H      74  C74         0.0647
   2273  H41       11.2920   52.8960  103.5470 H      74  C74         0.1437
   2274  H5'       17.9660   54.3370   99.9470 H      74  C74         0.0591
   2275  H42       11.1180   53.7320  104.7670 H      74  C74         0.1437
   2276 H5''       19.0040   53.4040  100.6870 H      74  C74         0.0591
   2277  P         19.5850   52.3170  104.5490 P.3    75  U75         0.2131
   2278  C5'       19.8020   53.7410  106.7290 C.3    75  U75         0.0837
   2279  O5'       19.1120   52.7300  106.0110 O.3    75  U75        -0.3248
   2280  C4'       19.0770   54.1350  107.9900 C.3    75  U75         0.1139
   2281  O4'       17.8200   54.7920  107.6690 O.3    75  U75        -0.3456
   2282  C3'       18.6610   52.9990  108.9080 C.3    75  U75         0.1241
   2283  O3'       19.7280   52.4720  109.6760 O.3    75  U75        -0.3187
   2284  C2'       17.5580   53.6480  109.7300 C.3    75  U75         0.1293
   2285  O2'       18.0980   54.5120  110.7210 O.3    75  U75        -0.3846
   2286  C1'       16.8590   54.4900  108.6640 C.3    75  U75         0.1680
   2287  N1        15.7360   53.7510  108.0400 N.ar   75  U75        -0.2715
   2288  C2        14.5550   53.6660  108.7530 C.ar   75  U75         0.3314
   2289  O2        14.4080   54.1770  109.8490 O.2    75  U75        -0.2464
   2290  N3        13.5520   52.9630  108.1350 N.ar   75  U75        -0.2749
   2291  C4        13.6070   52.3440  106.9050 C.ar   75  U75         0.2539
   2292  O4        12.6160   51.7470  106.4840 O.2    75  U75        -0.2677
   2293  C5        14.8610   52.4710  106.2280 C.ar   75  U75         0.0192
   2294  C6        15.8570   53.1510  106.8080 C.ar   75  U75         0.0171
   2295  OP1       21.0300   51.9760  104.6160 O.3    75  U75        -0.4373
   2296  OP2       18.6260   51.3150  104.0150 O.co2  75  U75        -0.5172
   2297 HO2'       17.9210   55.3080  110.5150 H      75  U75         0.2101
   2298  H3        12.8080   52.9010  108.5620 H      75  U75         0.1734
   2299  H5        14.9840   52.0830  105.3920 H      75  U75         0.0686
   2300  H6        16.6670   53.2240  106.3560 H      75  U75         0.0813
   2301  H1'       16.5300   55.3120  109.0600 H      75  U75         0.0867
   2302  H2'       16.9600   52.9870  110.1120 H      75  U75         0.0666
   2303  H3'       18.2770   52.2870  108.3720 H      75  U75         0.0655
   2304  H4'       19.6330   54.7520  108.4900 H      75  U75         0.0647
   2305  H5'       19.8950   54.5220  106.1620 H      75  U75         0.0591
   2306 H5''       20.6850   53.4140  106.9630 H      75  U75         0.0591
   2307  P         19.6750   50.9470  110.1830 P.3    76  G76         0.2131
   2308  C5'       19.0590   51.9110  112.5350 C.3    76  G76         0.0837
   2309  O5'       18.7530   51.0150  111.4780 O.3    76  G76        -0.3248
   2310  C4'       17.9430   51.9820  113.5460 C.3    76  G76         0.1139
   2311  O4'       16.7650   52.5840  112.9470 O.3    76  G76        -0.3456
   2312  C3'       17.4400   50.6510  114.0770 C.3    76  G76         0.1241
   2313  O3'       18.2760   50.0920  115.0730 O.3    76  G76        -0.3187
   2314  C2'       16.0430   51.0060  114.5630 C.3    76  G76         0.1292
   2315  O2'       16.0870   51.6820  115.8120 O.3    76  G76        -0.3846
   2316  C1'       15.5990   51.9900  113.4830 C.3    76  G76         0.1667
   2317  N1        11.2010   49.9280  111.9750 N.ar   76  G76        -0.2934
   2318  C2        11.5160   50.5290  113.1680 C.ar   76  G76         0.1950
   2319  N2        10.5310   50.5870  114.0770 N.pl3  76  G76        -0.3289
   2320  N3        12.7060   51.0350  113.4460 N.ar   76  G76        -0.1963
   2321  C4        13.5690   50.8860  112.4190 C.ar   76  G76         0.1712
   2322  C5        13.3530   50.3020  111.1890 C.ar   76  G76         0.1721
   2323  C6        12.0720   49.7650  110.9040 C.ar   76  G76         0.2803
   2324  O6        11.6800   49.2060  109.8730 O.2    76  G76        -0.2654
   2325  N7        14.5000   50.3510  110.4090 N.ar   76  G76        -0.2286
   2326  C8        15.3770   50.9530  111.1640 C.ar   76  G76         0.1005
   2327  N9        14.8770   51.3080  112.3930 N.ar   76  G76        -0.2854
   2328  OP1       21.0430   50.5620  110.6130 O.3    76  G76        -0.4373
   2329  OP2       18.9720   50.1230  109.1660 O.co2  76  G76        -0.5172
   2330 HO2'       16.8280   51.5340  116.1770 H      76  G76         0.2101
   2331  H1        10.4000   49.6280  111.8830 H      76  G76         0.1716
   2332  H8        16.2510   51.1270  110.8960 H      76  G76         0.1030
   2333  H1'       15.0330   52.6740  113.8740 H      76  G76         0.0866
   2334  H2'       15.4660   50.2270  114.5940 H      76  G76         0.0666
   2335  H21        9.7580   50.2580  113.8940 H      76  G76         0.1451
   2336  H3'       17.3670   50.0240  113.3400 H      76  G76         0.0655
   2337  H22       10.6730   50.9540  114.8420 H      76  G76         0.1451
   2338  H4'       18.2310   52.5290  114.2930 H      76  G76         0.0647
   2339  H5'       19.2080   52.7950  112.1660 H      76  G76         0.0591
   2340 H5''       19.8690   51.6120  112.9780 H      76  G76         0.0591
   2341  P         18.4630   48.4990  115.1560 P.3    77  U77         0.2131
   2342  C5'       16.4620   48.4520  116.8380 C.3    77  U77         0.0837
   2343  O5'       17.0330   47.9830  115.6270 O.3    77  U77        -0.3248
   2344  C4'       15.0450   47.9680  117.0110 C.3    77  U77         0.1139
   2345  O4'       14.1800   48.5780  116.0160 O.3    77  U77        -0.3456
   2346  C3'       14.8180   46.4780  116.8210 C.3    77  U77         0.1241
   2347  O3'       15.2090   45.7040  117.9390 O.3    77  U77        -0.3187
   2348  C2'       13.3270   46.4220  116.5170 C.3    77  U77         0.1293
   2349  O2'       12.5550   46.5760  117.6990 O.3    77  U77        -0.3846
   2350  C1'       13.1550   47.6730  115.6560 C.3    77  U77         0.1680
   2351  N1        13.2660   47.3710  114.2100 N.ar   77  U77        -0.2715
   2352  C2        12.1640   46.8250  113.5810 C.ar   77  U77         0.3314
   2353  O2        11.1180   46.5920  114.1610 O.2    77  U77        -0.2464
   2354  N3        12.3310   46.5620  112.2440 N.ar   77  U77        -0.2749
   2355  C4        13.4640   46.7820  111.4880 C.ar   77  U77         0.2539
   2356  O4        13.4580   46.4920  110.2900 O.2    77  U77        -0.2677
   2357  C5        14.5630   47.3480  112.2090 C.ar   77  U77         0.0192
   2358  C6        14.4260   47.6130  113.5130 C.ar   77  U77         0.0171
   2359  OP1       19.4330   48.2060  116.2430 O.3    77  U77        -0.4373
   2360  OP2       18.7160   47.9760  113.7870 O.co2  77  U77        -0.5172
   2361 HO2'       12.6450   45.8900  118.1760 H      77  U77         0.2101
   2362  H3        11.6560   46.2230  111.8330 H      77  U77         0.1734
   2363  H5        15.3660   47.5290  111.7750 H      77  U77         0.0686
   2364  H6        15.1490   47.9800  113.9690 H      77  U77         0.0813
   2365  H1'       12.2910   48.0740  115.8380 H      77  U77         0.0867
   2366  H2'       13.0900   45.6170  116.0300 H      77  U77         0.0666
   2367  H3'       15.3110   46.1800  116.0410 H      77  U77         0.0655
   2368  H4'       14.7340   48.2210  117.8940 H      77  U77         0.0647
   2369  H5'       16.4660   49.4220  116.8340 H      77  U77         0.0591
   2370 H5''       16.9970   48.1360  117.5830 H      77  U77         0.0591
   2371  P         15.8320   44.2370  117.7260 P.3    78  G78         0.2131
   2372  C5'       13.4970   43.1810  118.2650 C.3    78  G78         0.0837
   2373  O5'       14.5680   43.3450  117.3490 O.3    78  G78        -0.3248
   2374  C4'       12.3320   42.4560  117.6400 C.3    78  G78         0.1139
   2375  O4'       11.7410   43.2700  116.5960 O.3    78  G78        -0.3456
   2376  C3'       12.6550   41.1440  116.9460 C.3    78  G78         0.1241
   2377  O3'       12.7850   40.0670  117.8580 O.3    78  G78        -0.3187
   2378  C2'       11.4900   40.9860  115.9760 C.3    78  G78         0.1292
   2379  O2'       10.3450   40.4530  116.6260 O.3    78  G78        -0.3846
   2380  C1'       11.2110   42.4390  115.5840 C.3    78  G78         0.1667
   2381  N1        10.7020   42.2580  110.5430 N.ar   78  G78        -0.2934
   2382  C2         9.8750   41.7800  111.5310 C.ar   78  G78         0.1950
   2383  N2         8.7550   41.1650  111.1250 N.pl3  78  G78        -0.3289
   2384  N3        10.1270   41.8920  112.8220 N.ar   78  G78        -0.1963
   2385  C4        11.2910   42.5330  113.0540 C.ar   78  G78         0.1712
   2386  C5        12.1890   43.0510  112.1450 C.ar   78  G78         0.1721
   2387  C6        11.9070   42.9220  110.7600 C.ar   78  G78         0.2803
   2388  O6        12.5770   43.3140  109.7970 O.2    78  G78        -0.2654
   2389  N7        13.2650   43.6360  112.7990 N.ar   78  G78        -0.2286
   2390  C8        13.0050   43.4650  114.0680 C.ar   78  G78         0.1005
   2391  N9        11.8220   42.8020  114.2920 N.ar   78  G78        -0.2854
   2392  OP1       16.3500   43.7760  119.0400 O.3    78  G78        -0.4373
   2393  OP2       16.7420   44.2580  116.5500 O.co2  78  G78        -0.5172
   2394 HO2'       10.5820   40.1030  117.3520 H      78  G78         0.2101
   2395  H1        10.4570   42.1380  109.7280 H      78  G78         0.1716
   2396  H8        13.5630   43.7610  114.7500 H      78  G78         0.1030
   2397  H1'       10.2520   42.5760  115.5320 H      78  G78         0.0866
   2398  H2'       11.7410   40.4550  115.2040 H      78  G78         0.0666
   2399  H21        8.5860   41.0890  110.2860 H      78  G78         0.1451
   2400  H3'       13.4790   41.2410  116.4440 H      78  G78         0.0655
   2401  H22        8.2050   40.8460  111.7050 H      78  G78         0.1451
   2402  H4'       11.6640   42.2920  118.3230 H      78  G78         0.0647
   2403  H5'       13.2010   44.0550  118.5640 H      78  G78         0.0591
   2404 H5''       13.8100   42.6740  119.0300 H      78  G78         0.0591
   2405  P         14.2290   39.4470  118.2010 P.3    79  C79         0.2131
   2406  C5'       14.6590   36.8590  118.0770 C.3    79  C79         0.0837
   2407  O5'       14.2230   38.0510  117.4320 O.3    79  C79        -0.3248
   2408  C4'       13.4990   35.9750  118.4710 C.3    79  C79         0.1139
   2409  O4'       13.9920   34.9330  119.3540 O.3    79  C79        -0.3456
   2410  C3'       12.3730   36.6720  119.2330 C.3    79  C79         0.1241
   2411  O3'       11.1290   36.0390  118.9400 O.3    79  C79        -0.3187
   2412  C2'       12.7490   36.4200  120.6870 C.3    79  C79         0.1293
   2413  O2'       11.6690   36.4880  121.5950 O.3    79  C79        -0.3846
   2414  C1'       13.3420   35.0150  120.6110 C.3    79  C79         0.1680
   2415  N1        14.3370   34.7360  121.6540 N.ar   79  C79        -0.2700
   2416  C2        14.0590   33.8170  122.6730 C.ar   79  C79         0.3522
   2417  O2        12.9620   33.2360  122.6990 O.2    79  C79        -0.2444
   2418  N3        15.0010   33.5830  123.6160 N.ar   79  C79        -0.1783
   2419  C4        16.1730   34.2200  123.5670 C.ar   79  C79         0.1230
   2420  N4        17.0700   33.9550  124.5190 N.pl3  79  C79        -0.3430
   2421  C5        16.4790   35.1580  122.5390 C.ar   79  C79        -0.0056
   2422  C6        15.5410   35.3810  121.6130 C.ar   79  C79         0.0152
   2423  OP1       14.2550   39.1940  119.6640 O.3    79  C79        -0.4373
   2424  OP2       15.2980   40.2970  117.6150 O.co2  79  C79        -0.5172
   2425 HO2'       11.5490   35.7280  121.9340 H      79  C79         0.2101
   2426  H5        17.2990   35.5970  122.5130 H      79  C79         0.0666
   2427  H6        15.7110   35.9880  120.9290 H      79  C79         0.0812
   2428  H1'       12.6300   34.3580  120.6540 H      79  C79         0.0867
   2429  H2'       13.4390   37.0470  120.9560 H      79  C79         0.0666
   2430  H3'       12.3460   37.6210  119.0340 H      79  C79         0.0655
   2431  H4'       13.1320   35.5640  117.6730 H      79  C79         0.0647
   2432  H41       17.8330   34.3510  124.5130 H      79  C79         0.1437
   2433  H5'       15.1600   37.0960  118.8730 H      79  C79         0.0591
   2434  H42       16.8840   33.3890  125.1390 H      79  C79         0.1437
   2435 H5''       15.2390   36.3690  117.4730 H      79  C79         0.0591
   2436  P          9.7880   36.9080  118.7590 P.3    80  G80         0.2131
   2437  C5'       10.2130   36.2120  116.2680 C.3    80  G80         0.0837
   2438  O5'        9.7020   37.1630  117.1890 O.3    80  G80        -0.3248
   2439  C4'        9.2850   36.0200  115.0960 C.3    80  G80         0.1139
   2440  O4'        9.0060   37.3010  114.4720 O.3    80  G80        -0.3456
   2441  C3'        9.8260   35.1680  113.9590 C.3    80  G80         0.1241
   2442  O3'        9.7210   33.7770  114.2050 O.3    80  G80        -0.3187
   2443  C2'        9.0070   35.6470  112.7710 C.3    80  G80         0.1292
   2444  O2'        7.7100   35.0690  112.7740 O.3    80  G80        -0.3846
   2445  C1'        8.8880   37.1400  113.0740 C.3    80  G80         0.1667
   2446  N1        10.8200   38.6910  108.6430 N.ar   80  G80        -0.2934
   2447  C2         9.7190   37.9090  108.8980 C.ar   80  G80         0.1950
   2448  N2         9.0330   37.4790  107.8290 N.pl3  80  G80        -0.3289
   2449  N3         9.3150   37.5730  110.1100 N.ar   80  G80        -0.1963
   2450  C4        10.1140   38.0890  111.0650 C.ar   80  G80         0.1712
   2451  C5        11.2360   38.8770  110.9220 C.ar   80  G80         0.1721
   2452  C6        11.6570   39.2320  109.6140 C.ar   80  G80         0.2803
   2453  O6        12.6260   39.9250  109.2780 O.2    80  G80        -0.2654
   2454  N7        11.7720   39.1980  112.1620 N.ar   80  G80        -0.2286
   2455  C8        10.9820   38.6070  113.0180 C.ar   80  G80         0.1005
   2456  N9         9.9550   37.9180  112.4180 N.ar   80  G80        -0.2854
   2457  OP1        9.9780   38.2200  119.4290 O.3    80  G80        -0.4373
   2458  OP2        8.6380   36.0490  119.1450 O.co2  80  G80        -0.5172
   2459 HO2'        7.7240   34.3670  113.2360 H      80  G80         0.2101
   2460  H1        11.0060   38.8580  107.8210 H      80  G80         0.1716
   2461  H8        11.1010   38.6490  113.9390 H      80  G80         0.1030
   2462  H1'        8.0210   37.4630  112.7810 H      80  G80         0.0866
   2463  H2'        9.4690   35.4900  111.9320 H      80  G80         0.0666
   2464  H21        9.2910   37.6940  107.0370 H      80  G80         0.1451
   2465  H3'       10.7580   35.3920  113.8110 H      80  G80         0.0655
   2466  H22        8.3350   36.9880  107.9350 H      80  G80         0.1451
   2467  H4'        8.4530   35.6340  115.4110 H      80  G80         0.0647
   2468  H5'       10.3290   35.3620  116.7220 H      80  G80         0.0591
   2469 H5''       11.0740   36.5170  115.9430 H      80  G80         0.0591
   2470  P         10.8240   32.7690  113.6150 P.3    81  G81         0.2131
   2471  C5'        9.3040   32.1740  111.5630 C.3    81  G81         0.0837
   2472  O5'       10.5130   32.7330  112.0540 O.3    81  G81        -0.3248
   2473  C4'        9.2530   32.2110  110.0560 C.3    81  G81         0.1139
   2474  O4'        9.1870   33.5880  109.5990 O.3    81  G81        -0.3456
   2475  C3'       10.4640   31.6390  109.3350 C.3    81  G81         0.1241
   2476  O3'       10.4320   30.2260  109.2390 O.3    81  G81        -0.3187
   2477  C2'       10.4110   32.3460  107.9880 C.3    81  G81         0.1292
   2478  O2'        9.4510   31.7440  107.1310 O.3    81  G81        -0.3846
   2479  C1'        9.9120   33.7320  108.3960 C.3    81  G81         0.1667
   2480  N1        13.6150   36.5330  106.2950 N.ar   81  G81        -0.2934
   2481  C2        12.7030   35.7020  105.6950 C.ar   81  G81         0.1950
   2482  N2        12.7820   35.6010  104.3600 N.pl3  81  G81        -0.3289
   2483  N3        11.7800   35.0210  106.3510 N.ar   81  G81        -0.1963
   2484  C4        11.8410   35.2390  107.6810 C.ar   81  G81         0.1712
   2485  C5        12.7130   36.0480  108.3800 C.ar   81  G81         0.1721
   2486  C6        13.6980   36.7740  107.6620 C.ar   81  G81         0.2803
   2487  O6        14.5620   37.5430  108.1020 O.2    81  G81        -0.2654
   2488  N7        12.4480   35.9990  109.7410 N.ar   81  G81        -0.2286
   2489  C8        11.4380   35.1760  109.8420 C.ar   81  G81         0.1005
   2490  N9        11.0210   34.6770  108.6310 N.ar   81  G81        -0.2854
   2491  OP1       10.5510   31.4190  114.1730 O.3    81  G81        -0.4373
   2492  OP2       12.1660   33.3810  113.7970 O.co2  81  G81        -0.5172
   2493 HO2'        9.3010   30.9610  107.3960 H      81  G81         0.2101
   2494  H1        14.1800   36.9360  105.7870 H      81  G81         0.1716
   2495  H8        11.0420   34.9490  110.6520 H      81  G81         0.1030
   2496  H1'        9.3270   34.0830  107.7060 H      81  G81         0.0866
   2497  H2'       11.2860   32.3910  107.5740 H      81  G81         0.0666
   2498  H21       13.3810   36.0420  103.9300 H      81  G81         0.1451
   2499  H3'       11.2690   31.9080  109.8040 H      81  G81         0.0655
   2500  H22       12.2320   35.0940  103.9340 H      81  G81         0.1451
   2501  H4'        8.4580   31.7420  109.7570 H      81  G81         0.0647
   2502  H5'        8.5540   32.6780  111.9170 H      81  G81         0.0591
   2503 H5''        9.2360   31.2540  111.8600 H      81  G81         0.0591
   2504  P         11.7880   29.3730  109.3670 P.3    82  U82         0.2131
   2505  C5'       12.0270   29.4460  106.7600 C.3    82  U82         0.0837
   2506  O5'       12.5870   29.7230  108.0350 O.3    82  U82        -0.3248
   2507  C4'       12.8490   30.0430  105.6460 C.3    82  U82         0.1139
   2508  O4'       12.8080   31.4920  105.7220 O.3    82  U82        -0.3456
   2509  C3'       14.3340   29.7180  105.6560 C.3    82  U82         0.1241
   2510  O3'       14.6300   28.4350  105.1310 O.3    82  U82        -0.3187
   2511  C2'       14.9260   30.8640  104.8460 C.3    82  U82         0.1293
   2512  O2'       14.7790   30.6420  103.4510 O.3    82  U82        -0.3846
   2513  C1'       14.0310   32.0310  105.2630 C.3    82  U82         0.1680
   2514  N1        14.6440   32.8360  106.3440 N.ar   82  U82        -0.2715
   2515  C2        15.6420   33.7210  105.9800 C.ar   82  U82         0.3314
   2516  O2        16.0190   33.8560  104.8290 O.2    82  U82        -0.2464
   2517  N3        16.1840   34.4420  107.0130 N.ar   82  U82        -0.2749
   2518  C4        15.8370   34.3700  108.3460 C.ar   82  U82         0.2539
   2519  O4        16.4210   35.0890  109.1580 O.2    82  U82        -0.2677
   2520  C5        14.7990   33.4310  108.6470 C.ar   82  U82         0.0192
   2521  C6        14.2540   32.7140  107.6570 C.ar   82  U82         0.0171
   2522  OP1       11.4230   27.9340  109.3210 O.2    82  U82        -0.5172
   2523  OP2       12.5660   29.8920  110.5220 O.co2  82  U82        -0.4373
   2524 HO2'       15.2710   30.0000  103.2230 H      82  U82         0.2101
   2525  H3        16.8060   35.0000  106.8080 H      82  U82         0.1734
   2526  H5        14.5050   33.3210  109.5230 H      82  U82         0.0686
   2527  H6        13.5800   32.1090  107.8660 H      82  U82         0.0813
   2528  H1'       13.8640   32.5990  104.4940 H      82  U82         0.0867
   2529  H2'       15.8520   31.0260  105.0860 H      82  U82         0.0666
   2530  H3'       14.6630   29.7710  106.5670 H      82  U82         0.0655
   2531  H4'       12.4740   29.7640  104.7960 H      82  U82         0.0647
   2532  H5'       11.1300   29.8140  106.7220 H      82  U82         0.0591
   2533 H5''       11.9790   28.4850  106.6370 H      82  U82         0.0591
   2534  P         15.7830   27.5330  105.7980 P.3    83  C83         0.2131
   2535  C5'       17.5980   28.4250  104.1300 C.3    83  C83         0.0837
   2536  O5'       17.1290   28.3170  105.4650 O.3    83  C83        -0.3248
   2537  C4'       18.6330   29.5140  103.9890 C.3    83  C83         0.1139
   2538  O4'       18.0920   30.7680  104.4780 O.3    83  C83        -0.3456
   2539  C3'       19.9140   29.3270  104.7860 C.3    83  C83         0.1241
   2540  O3'       20.8320   28.4560  104.1470 O.3    83  C83        -0.3187
   2541  C2'       20.4200   30.7590  104.9270 C.3    83  C83         0.1293
   2542  O2'       21.0540   31.1990  103.7350 O.3    83  C83        -0.3846
   2543  C1'       19.1110   31.5290  105.0900 C.3    83  C83         0.1680
   2544  N1        18.7540   31.7560  106.5110 N.ar   83  C83        -0.2700
   2545  C2        19.4010   32.7770  107.2120 C.ar   83  C83         0.3522
   2546  O2        20.2580   33.4520  106.6250 O.2    83  C83        -0.2444
   2547  N3        19.0840   33.0030  108.5090 N.ar   83  C83        -0.1783
   2548  C4        18.1570   32.2540  109.1080 C.ar   83  C83         0.1230
   2549  N4        17.8730   32.5090  110.3890 N.pl3  83  C83        -0.3430
   2550  C5        17.4760   31.2100  108.4180 C.ar   83  C83        -0.0056
   2551  C6        17.8000   31.0000  107.1350 C.ar   83  C83         0.0152
   2552  OP1       15.8350   26.2390  105.0730 O.2    83  C83        -0.5172
   2553  OP2       15.5940   27.5390  107.2710 O.co2  83  C83        -0.4373
   2554 HO2'       21.7750   30.7810  103.6380 H      83  C83         0.2101
   2555  H5        16.8300   30.6930  108.8430 H      83  C83         0.0666
   2556  H6        17.3720   30.3230  106.6620 H      83  C83         0.0812
   2557  H1'       19.1860   32.3840  104.6390 H      83  C83         0.0867
   2558  H2'       20.9940   30.8620  105.7030 H      83  C83         0.0666
   2559  H3'       19.6970   28.9770  105.6640 H      83  C83         0.0655
   2560  H4'       18.8580   29.6130  103.0510 H      83  C83         0.0647
   2561  H41       17.2800   32.0420  110.7990 H      83  C83         0.1437
   2562  H5'       16.8490   28.6230  103.5460 H      83  C83         0.0591
   2563  H42       18.2840   33.1420  110.8020 H      83  C83         0.1437
   2564 H5''       17.9910   27.5790  103.8640 H      83  C83         0.0591
   2565  P         21.6230   27.3220  104.9730 P.3    84  A84         0.2131
   2566  C5'       23.6090   28.9830  104.5730 C.3    84  A84         0.0837
   2567  O5'       22.9650   28.0490  105.4320 O.3    84  A84        -0.3248
   2568  C4'       25.0530   29.2150  104.9470 C.3    84  A84         0.1139
   2569  O4'       25.1270   30.2050  106.0110 O.3    84  A84        -0.3456
   2570  C3'       25.8240   27.9940  105.4510 C.3    84  A84         0.1241
   2571  O3'       27.1880   28.0840  105.0270 O.3    84  A84        -0.3187
   2572  C2'       25.7540   28.1650  106.9640 C.3    84  A84         0.1292
   2573  O2'       26.7630   27.4910  107.6840 O.3    84  A84        -0.3846
   2574  C1'       25.8790   29.6800  107.0870 C.3    84  A84         0.1667
   2575  N1        26.6740   33.3420  110.5550 N.ar   84  A84        -0.2188
   2576  C2        27.3040   33.0060  109.4220 C.ar   84  A84         0.1205
   2577  N3        27.0270   32.0270  108.5680 N.ar   84  A84        -0.2159
   2578  C4        25.9540   31.3300  108.9770 C.ar   84  A84         0.1674
   2579  C5        25.2010   31.5520  110.1150 C.ar   84  A84         0.1473
   2580  C6        25.5980   32.6220  110.9380 C.ar   84  A84         0.1472
   2581  N6        24.9760   32.9610  112.0680 N.pl3  84  A84        -0.3413
   2582  N7        24.1700   30.6270  110.2000 N.ar   84  A84        -0.2306
   2583  C8        24.3190   29.8800  109.1300 C.ar   84  A84         0.1004
   2584  N9        25.3830   30.2530  108.3430 N.ar   84  A84        -0.2855
   2585  OP1       21.9900   26.2610  104.0000 O.2    84  A84        -0.5172
   2586  OP2       20.8600   26.9470  106.1940 O.co2  84  A84        -0.4373
   2587 HO2'       27.2590   28.0580  108.0570 H      84  A84         0.2101
   2588  H2        28.0380   33.5330  109.2030 H      84  A84         0.1048
   2589  H8        23.7590   29.1660  108.9240 H      84  A84         0.1030
   2590  H1'       26.8090   29.9300  106.9730 H      84  A84         0.0866
   2591  H2'       24.8820   27.8850  107.2840 H      84  A84         0.0666
   2592  H3'       25.4100   27.1650  105.1650 H      84  A84         0.0655
   2593  H4'       25.5150   29.5670  104.1700 H      84  A84         0.0647
   2594  H5'       23.1350   29.8280  104.6180 H      84  A84         0.0591
   2595  H61       25.2620   33.6250  112.5340 H      84  A84         0.1438
   2596  H62       24.2880   32.5170  112.3310 H      84  A84         0.1438
   2597 H5''       23.5710   28.6490  103.6630 H      84  A84         0.0591
   2598  P         27.6230   27.6460  103.5400 P.3    85  A85         0.2131
   2599  C5'       27.9580   30.0360  102.4690 C.3    85  A85         0.0837
   2600  O5'       27.1640   28.8630  102.6170 O.3    85  A85        -0.3248
   2601  C4'       27.4210   31.1810  103.2920 C.3    85  A85         0.1139
   2602  O4'       27.8590   31.0290  104.6700 O.3    85  A85        -0.3456
   2603  C3'       27.8990   32.5730  102.8980 C.3    85  A85         0.1241
   2604  O3'       27.1620   33.1280  101.8210 O.3    85  A85        -0.3187
   2605  C2'       27.7600   33.3520  104.1990 C.3    85  A85         0.1292
   2606  O2'       26.4140   33.7490  104.4210 O.3    85  A85        -0.3846
   2607  C1'       28.1490   32.2930  105.2290 C.3    85  A85         0.1667
   2608  N1        32.0210   35.0510  107.2520 N.ar   85  A85        -0.2188
   2609  C2        30.7130   35.3080  107.1100 C.ar   85  A85         0.1205
   2610  N3        29.7570   34.5480  106.5740 N.ar   85  A85        -0.2159
   2611  C4        30.2640   33.3770  106.1470 C.ar   85  A85         0.1674
   2612  C5        31.5840   32.9680  106.2230 C.ar   85  A85         0.1473
   2613  C6        32.4960   33.8640  106.8100 C.ar   85  A85         0.1472
   2614  N6        33.7990   33.6060  106.9500 N.pl3  85  A85        -0.3413
   2615  N7        31.7400   31.6980  105.6790 N.ar   85  A85        -0.2306
   2616  C8        30.5310   31.3710  105.2910 C.ar   85  A85         0.1004
   2617  N9        29.5900   32.3400  105.5450 N.ar   85  A85        -0.2855
   2618  OP1       26.8180   26.4630  103.1490 O.2    85  A85        -0.5172
   2619  OP2       29.1040   27.5510  103.5040 O.co2  85  A85        -0.4373
   2620 HO2'       26.1070   33.3200  105.0740 H      85  A85         0.2101
   2621  H2        30.4320   36.1360  107.4280 H      85  A85         0.1048
   2622  H8        30.3300   30.5600  104.8830 H      85  A85         0.1030
   2623  H1'       27.6310   32.4190  106.0390 H      85  A85         0.0866
   2624  H2'       28.3660   34.1100  104.2240 H      85  A85         0.0666
   2625  H3'       28.8360   32.5290  102.6530 H      85  A85         0.0655
   2626  H4'       26.4520   31.1610  103.2650 H      85  A85         0.0647
   2627  H5'       27.9670   30.2950  101.5340 H      85  A85         0.0591
   2628  H61       34.3160   34.1880  107.3150 H      85  A85         0.1438
   2629  H62       34.1210   32.8570  106.6750 H      85  A85         0.1438
   2630 H5''       28.8650   29.8410  102.7520 H      85  A85         0.0591
   2631  P         27.8900   34.0770  100.7470 P.3    86  A86         0.2131
   2632  C5'       27.1500   36.2160  102.0580 C.3    86  A86         0.0837
   2633  O5'       28.2080   35.4100  101.5600 O.3    86  A86        -0.3248
   2634  C4'       27.6510   37.3260  102.9500 C.3    86  A86         0.1139
   2635  O4'       28.3980   36.7740  104.0650 O.3    86  A86        -0.3456
   2636  C3'       28.6170   38.3160  102.3230 C.3    86  A86         0.1241
   2637  O3'       27.9750   39.2840  101.5110 O.3    86  A86        -0.3187
   2638  C2'       29.3140   38.9050  103.5430 C.3    86  A86         0.1292
   2639  O2'       28.5070   39.8940  104.1660 O.3    86  A86        -0.3846
   2640  C1'       29.3990   37.6880  104.4670 C.3    86  A86         0.1667
   2641  N1        34.4120   38.1190  105.5410 N.ar   86  A86        -0.2188
   2642  C2        33.3750   38.9500  105.7120 C.ar   86  A86         0.1205
   2643  N3        32.0920   38.7700  105.4040 N.ar   86  A86        -0.2159
   2644  C4        31.9000   37.5570  104.8540 C.ar   86  A86         0.1674
   2645  C5        32.8590   36.5920  104.6190 C.ar   86  A86         0.1473
   2646  C6        34.1800   36.9080  104.9840 C.ar   86  A86         0.1472
   2647  N6        35.2110   36.0770  104.8110 N.pl3  86  A86        -0.3413
   2648  N7        32.2930   35.4660  104.0340 N.ar   86  A86        -0.2306
   2649  C8        31.0200   35.7700  103.9330 C.ar   86  A86         0.1004
   2650  N9        30.7150   37.0220  104.4100 N.ar   86  A86        -0.2855
   2651  OP1       26.8930   34.4220   99.7050 O.2    86  A86        -0.5172
   2652  OP2       29.1750   33.4410  100.3570 O.co2  86  A86        -0.4373
   2653 HO2'       28.4580   40.5640  103.6620 H      86  A86         0.2101
   2654  H2        33.5820   39.7710  106.0980 H      86  A86         0.1048
   2655  H8        30.3860   35.1920  103.5750 H      86  A86         0.1030
   2656  H1'       29.2250   37.9680  105.3790 H      86  A86         0.0866
   2657  H2'       30.1950   39.2460  103.3220 H      86  A86         0.0666
   2658  H3'       29.2660   37.8320  101.7890 H      86  A86         0.0655
   2659  H4'       26.8880   37.8130  103.2970 H      86  A86         0.0647
   2660  H5'       26.5400   35.6560  102.5640 H      86  A86         0.0591
   2661  H61       36.0010   36.3160  105.0520 H      86  A86         0.1438
   2662  H62       35.0840   35.3030  104.4580 H      86  A86         0.1438
   2663 H5''       26.6720   36.6050  101.3100 H      86  A86         0.0591
   2664  P         28.7850   40.0180  100.3310 P.3    87  A87         0.2131
   2665  C5'       28.9430   42.2460  101.7040 C.3    87  A87         0.0837
   2666  O5'       29.6090   41.1560  101.0820 O.3    87  A87        -0.3248
   2667  C4'       29.8870   43.0820  102.5320 C.3    87  A87         0.1139
   2668  O4'       30.5500   42.2550  103.5250 O.3    87  A87        -0.3456
   2669  C3'       31.0330   43.7330  101.7780 C.3    87  A87         0.1241
   2670  O3'       30.6470   44.9030  101.0800 O.3    87  A87        -0.3187
   2671  C2'       32.0550   43.9740  102.8800 C.3    87  A87         0.1292
   2672  O2'       31.7270   45.1220  103.6510 O.3    87  A87        -0.3846
   2673  C1'       31.8660   42.7270  103.7410 C.3    87  A87         0.1667
   2674  N1        36.7500   41.0830  103.9730 N.ar   87  A87        -0.2188
   2675  C2        36.1490   42.1880  104.4350 C.ar   87  A87         0.1205
   2676  N3        34.8730   42.5540  104.3400 N.ar   87  A87        -0.2159
   2677  C4        34.1620   41.6280  103.6730 C.ar   87  A87         0.1674
   2678  C5        34.6400   40.4440  103.1370 C.ar   87  A87         0.1473
   2679  C6        36.0090   40.1710  103.3080 C.ar   87  A87         0.1472
   2680  N6        36.6120   39.0720  102.8480 N.pl3  87  A87        -0.3413
   2681  N7        33.6170   39.7380  102.5200 N.ar   87  A87        -0.2306
   2682  C8        32.5630   40.5000  102.6910 C.ar   87  A87         0.1004
   2683  N9        32.8180   41.6580  103.3810 N.ar   87  A87        -0.2855
   2684  OP1       27.7880   40.6780   99.4500 O.2    87  A87        -0.5172
   2685  OP2       29.7560   39.0550   99.7470 O.co2  87  A87        -0.4373
   2686 HO2'       31.8310   45.8080  103.1780 H      87  A87         0.2101
   2687  H2        36.7030   42.7830  104.8860 H      87  A87         0.1048
   2688  H8        31.7180   40.2740  102.3740 H      87  A87         0.1030
   2689  H1'       31.9770   42.9590  104.6760 H      87  A87         0.0866
   2690  H2'       32.9560   44.0260  102.5240 H      87  A87         0.0666
   2691  H3'       31.3970   43.0940  101.1450 H      87  A87         0.0655
   2692  H4'       29.3790   43.7720  102.9870 H      87  A87         0.0647
   2693  H5'       28.2410   41.9000  102.2780 H      87  A87         0.0591
   2694  H61       37.4540   38.9570  102.9780 H      87  A87         0.1438
   2695  H62       36.1580   38.4780  102.4230 H      87  A87         0.1438
   2696 H5''       28.5440   42.8050  101.0190 H      87  A87         0.0591
   2697  P         31.2820   45.2260   99.6400 P.3    88  U88         0.2131
   2698  C5'       32.8320   46.9740  100.8140 C.3    88  U88         0.0837
   2699  O5'       32.7140   45.8250   99.9900 O.3    88  U88        -0.3248
   2700  C4'       34.2280   47.1250  101.3590 C.3    88  U88         0.1139
   2701  O4'       34.5610   45.9840  102.1930 O.3    88  U88        -0.3456
   2702  C3'       35.3440   47.1600  100.3300 C.3    88  U88         0.1241
   2703  O3'       35.4790   48.4200   99.6960 O.3    88  U88        -0.3187
   2704  C2'       36.5540   46.7450  101.1550 C.3    88  U88         0.1293
   2705  O2'       37.0330   47.8240  101.9450 O.3    88  U88        -0.3846
   2706  C1'       35.9390   45.6940  102.0780 C.3    88  U88         0.1680
   2707  N1        36.0980   44.3230  101.5380 N.ar   88  U88        -0.2715
   2708  C2        37.3330   43.7170  101.6740 C.ar   88  U88         0.3314
   2709  O2        38.2830   44.2530  102.2170 O.2    88  U88        -0.2464
   2710  N3        37.4190   42.4510  101.1500 N.ar   88  U88        -0.2749
   2711  C4        36.4160   41.7470  100.5160 C.ar   88  U88         0.2539
   2712  O4        36.6470   40.6110  100.0980 O.2    88  U88        -0.2677
   2713  C5        35.1680   42.4400  100.4110 C.ar   88  U88         0.0192
   2714  C6        35.0600   43.6750  100.9110 C.ar   88  U88         0.0171
   2715  OP1       30.4780   46.3130   99.0260 O.3    88  U88        -0.4373
   2716  OP2       31.4780   43.9500   98.9000 O.co2  88  U88        -0.5172
   2717 HO2'       37.3710   48.4040  101.4400 H      88  U88         0.2101
   2718  H3        38.1780   42.0550  101.2260 H      88  U88         0.1734
   2719  H5        34.4400   42.0360   99.9970 H      88  U88         0.0686
   2720  H6        34.2430   44.1140  100.8370 H      88  U88         0.0813
   2721  H1'       36.3550   45.7470  102.9520 H      88  U88         0.0867
   2722  H2'       37.2530   46.3670  100.5990 H      88  U88         0.0666
   2723  H3'       35.1740   46.4830   99.6560 H      88  U88         0.0655
   2724  H4'       34.2700   47.9310  101.8960 H      88  U88         0.0647
   2725  H5'       32.2100   46.8970  101.5550 H      88  U88         0.0591
   2726 H5''       32.6080   47.7610  100.2930 H      88  U88         0.0591
   2727  P         35.8070   48.5020   98.1240 P.3    89  U89         0.2131
   2728  C5'       38.3150   48.9150   98.7490 C.3    89  U89         0.0837
   2729  O5'       37.3560   48.1430   98.0430 O.3    89  U89        -0.3248
   2730  C4'       39.6200   48.1750   98.9020 C.3    89  U89         0.1139
   2731  O4'       39.4150   46.9630   99.6740 O.3    89  U89        -0.3456
   2732  C3'       40.2640   47.6850   97.6150 C.3    89  U89         0.1241
   2733  O3'       40.9710   48.7030   96.9280 O.3    89  U89        -0.3187
   2734  C2'       41.1450   46.5440   98.1050 C.3    89  U89         0.1293
   2735  O2'       42.3430   47.0340   98.6860 O.3    89  U89        -0.3846
   2736  C1'       40.2730   45.9430   99.2070 C.3    89  U89         0.1680
   2737  N1        39.4520   44.8150   98.7130 N.ar   89  U89        -0.2715
   2738  C2        40.0730   43.5930   98.5570 C.ar   89  U89         0.3314
   2739  O2        41.2520   43.4170   98.8070 O.2    89  U89        -0.2464
   2740  N3        39.2640   42.5850   98.0960 N.ar   89  U89        -0.2749
   2741  C4        37.9230   42.6760   97.7810 C.ar   89  U89         0.2539
   2742  O4        37.3240   41.6780   97.3760 O.2    89  U89        -0.2677
   2743  C5        37.3480   43.9720   97.9700 C.ar   89  U89         0.0192
   2744  C6        38.1180   44.9690   98.4180 C.ar   89  U89         0.0171
   2745  OP1       35.6480   49.9180   97.7060 O.3    89  U89        -0.4373
   2746  OP2       35.0450   47.4410   97.4140 O.co2  89  U89        -0.5172
   2747 HO2'       42.3240   46.8920   99.5130 H      89  U89         0.2101
   2748  H3        39.6310   41.8150   97.9910 H      89  U89         0.1734
   2749  H5        36.4500   44.1200   97.7820 H      89  U89         0.0686
   2750  H6        37.7330   45.8080   98.5350 H      89  U89         0.0813
   2751  H1'       40.8380   45.6380   99.9340 H      89  U89         0.0867
   2752  H2'       41.3220   45.9010   97.4000 H      89  U89         0.0666
   2753  H3'       39.5760   47.3270   97.0320 H      89  U89         0.0655
   2754  H4'       40.2510   48.7440   99.3710 H      89  U89         0.0647
   2755  H5'       37.9660   49.1260   99.6290 H      89  U89         0.0591
   2756 H5''       38.4750   49.7410   98.2650 H      89  U89         0.0591
   2757  P         41.1410   48.6360   95.3310 P.3    90  C90         0.2131
   2758  C5'       43.5420   47.6460   95.6900 C.3    90  C90         0.0837
   2759  O5'       42.2490   47.5110   95.1160 O.3    90  C90        -0.3248
   2760  C4'       44.3450   46.3760   95.5600 C.3    90  C90         0.1139
   2761  O4'       43.6950   45.3040   96.2860 O.3    90  C90        -0.3456
   2762  C3'       44.5030   45.8330   94.1490 C.3    90  C90         0.1241
   2763  O3'       45.5420   46.4840   93.4370 O.3    90  C90        -0.3187
   2764  C2'       44.7560   44.3450   94.3810 C.3    90  C90         0.1293
   2765  O2'       46.1230   44.0910   94.6700 O.3    90  C90        -0.3846
   2766  C1'       43.9230   44.0720   95.6370 C.3    90  C90         0.1680
   2767  N1        42.6170   43.4350   95.3430 N.ar   90  C90        -0.2700
   2768  C2        42.5720   42.0540   95.1300 C.ar   90  C90         0.3522
   2769  O2        43.6250   41.4020   95.1740 O.2    90  C90        -0.2444
   2770  N3        41.3820   41.4610   94.8730 N.ar   90  C90        -0.1783
   2771  C4        40.2650   42.1890   94.8310 C.ar   90  C90         0.1230
   2772  N4        39.1140   41.5600   94.5720 N.pl3  90  C90        -0.3430
   2773  C5        40.2800   43.5970   95.0500 C.ar   90  C90        -0.0056
   2774  C6        41.4650   44.1700   95.3030 C.ar   90  C90         0.0152
   2775  OP1       41.7060   49.9340   94.8860 O.3    90  C90        -0.4373
   2776  OP2       39.8710   48.1540   94.7290 O.co2  90  C90        -0.5172
   2777 HO2'       46.5800   44.2410   93.9820 H      90  C90         0.2101
   2778  H5        39.4980   44.0990   95.0190 H      90  C90         0.0666
   2779  H6        41.5040   45.0870   95.4520 H      90  C90         0.0812
   2780  H1'       44.4290   43.4930   96.2300 H      90  C90         0.0867
   2781  H2'       44.4450   43.8140   93.6320 H      90  C90         0.0666
   2782  H3'       43.6670   45.9440   93.6680 H      90  C90         0.0655
   2783  H4'       45.2260   46.5230   95.9390 H      90  C90         0.0647
   2784  H41       38.3790   42.0050   94.5380 H      90  C90         0.1437
   2785  H5'       43.4480   47.8660   96.6300 H      90  C90         0.0591
   2786  H42       39.1100   40.7100   94.4380 H      90  C90         0.1437
   2787 H5''       44.0130   48.3660   95.2430 H      90  C90         0.0591
   2788  P         45.3720   46.8680   91.8850 P.3    91  A91         0.2131
   2789  C5'       47.1920   45.0510   91.3740 C.3    91  A91         0.0838
   2790  O5'       45.8930   45.5740   91.1170 O.3    91  A91        -0.3248
   2791  C4'       47.3170   43.6200   90.9150 C.3    91  A91         0.1165
   2792  O4'       46.2460   42.8310   91.5090 O.3    91  A91        -0.3455
   2793  C3'       47.2030   43.4130   89.4050 C.3    91  A91         0.1518
   2794  O3'       48.0210   42.3150   89.0060 O.3    91  A91        -0.2255
   2795  C2'       45.7400   43.0300   89.2330 C.3    91  A91         0.1318
   2796  O2'       45.4520   42.3090   88.0530 O.3    91  A91        -0.3845
   2797  C1'       45.5140   42.1890   90.4830 C.3    91  A91         0.1668
   2798  N1        41.7850   38.8590   91.5090 N.ar   91  A91        -0.2188
   2799  C2        43.0650   38.7080   91.1430 C.ar   91  A91         0.1205
   2800  N3        43.9800   39.6390   90.8940 N.ar   91  A91        -0.2159
   2801  C4        43.4610   40.8680   91.0580 C.ar   91  A91         0.1674
   2802  C5        42.1680   41.1890   91.4280 C.ar   91  A91         0.1473
   2803  C6        41.2950   40.1100   91.6630 C.ar   91  A91         0.1472
   2804  N6        40.0190   40.2490   92.0260 N.pl3  91  A91        -0.3413
   2805  N7        42.0070   42.5690   91.4900 N.ar   91  A91        -0.2306
   2806  C8        43.1870   43.0410   91.1590 C.ar   91  A91         0.1004
   2807  N9        44.1120   42.0630   90.8880 N.ar   91  A91        -0.2855
   2808  OP1       46.3150   47.9790   91.6000 O.3    91  A91        -0.4373
   2809  OP2       43.9310   47.0470   91.5690 O.co2  91  A91        -0.5172
   2810 HO2'       45.5880   42.8050   87.3890 H      91  A91         0.2101
   2811  H2        43.3530   37.8290   91.0510 H      91  A91         0.1048
   2812  H8        43.3780   43.9500   91.1150 H      91  A91         0.1030
   2813  H1'       45.8820   41.3030   90.3390 H      91  A91         0.0866
   2814  H2'       45.1870   43.8260   89.2720 H      91  A91         0.0667
   2815  H3'       47.4210   44.2220   88.9150 H      91  A91         0.0683
   2816  H4'       48.1700   43.2680   91.2160 H      91  A91         0.0648
   2817  H5'       47.3680   45.0940   92.3270 H      91  A91         0.0591
   2818  H61       39.5300   39.5530   92.1560 H      91  A91         0.1438
   2819  H62       39.6840   41.0340   92.1310 H      91  A91         0.1438
   2820 H5''       47.8490   45.5910   90.9080 H      91  A91         0.0591
@<TRIPOS>BOND
     1  2810  2796    1
     2  2796  2795    1
     3  2815  2793    1
     4  2794  2793    1
     5  2795  2814    1
     6  2795  2793    1
     7  2795  2797    1
     8  2793  2791    1
     9  2813  2797    1
    10  2797  2807    1
    11  2797  2792    1
    12  2807  2801   ar
    13  2807  2806   ar
    14  2800  2801   ar
    15  2800  2799   ar
    16  2820  2789    1
    17  2791  2816    1
    18  2791  2789    1
    19  2791  2792    1
    20  2811  2799    1
    21  2801  2802   ar
    22  2812  2806    1
    23  2790  2789    1
    24  2790  2788    1
    25  2799  2798   ar
    26  2806  2805   ar
    27  2789  2817    1
    28  2802  2805   ar
    29  2802  2803   ar
    30  2798  2803   ar
    31  2809  2788    2
    32  2808  2788    1
    33  2803  2804    1
    34  2788  2763    1
    35  2804  2819    1
    36  2804  2818    1
    37   315   298    1
    38  2763  2762    1
    39  2150  2132    1
    40   293   298    1
    41   293   292    1
    42  2781  2764    1
    43  2782  2762    1
    44  2210  2187    1
    45   298   309    1
    46   298   296    1
    47  2777  2765    1
    48   321   290    1
    49  2148  2132    1
    50   314   308    1
    51   309   308   ar
    52   309   303   ar
    53   308   307   ar
    54  2762  2764    1
    55  2762  2760    1
    56  2174  2162    1
    57   310   289    2
    58  2132  2131    1
    59  2162  2161    1
    60   303   302   ar
    61   303   304   ar
    62   302   300   ar
    63   307   304   ar
    64  2212  2185    1
    65   320   292    1
    66   312   297    1
    67  2764  2765    1
    68  2764  2766    1
    69   304   305   ar
    70  2181  2157    1
    71   319   301    1
    72  2786  2772    1
    73   300   301    1
    74   300   299   ar
    75   301   317    1
    76  2192  2204    1
    77  2192  2191    1
    78  2784  2772    1
    79   288   257    1
    80  2772  2771    1
    81   305   299   ar
    82   305   306    2
    83  2114  2098    1
    84   299   313    1
    85   292   290    1
    86   292   294    1
    87  2776  2757    2
    88   285   257    1
    89   277   256    2
    90  2187  2188    1
    91  2187  2185    1
    92  2187  2189    1
    93  2214  2185    1
    94   297   296    1
    95  2771  2770   ar
    96  2771  2773   ar
    97   290   291    1
    98   290   322    1
    99  2207  2193    1
   100  2188  2193    1
   101  2770  2768   ar
   102  2775  2757    1
   103  2116  2098    1
   104  2178  2163    1
   105  2185  2186    1
   106  2778  2773    1
   107   284   259    1
   108  2773  2774   ar
   109  2759  2757    1
   110  2759  2758    1
   111  2768  2769    2
   112  2768  2767   ar
   113  2098  2097    1
   114   296   316    1
   115   296   294    1
   116   257   259    1
   117   257   258    1
   118  2787  2758    1
   119   291   289    1
   120  2774  2767   ar
   121  2774  2779    1
   122  2757  2733    1
   123  2128  2143    1
   124  2128  2127    1
   125  2767  2766    1
   126  2157  2158    1
   127  2157  2159    1
   128  2157  2155    1
   129  2131  2133   ar
   130  2131  2130   ar
   131   289   311    1
   132   289   262    1
   133  2193  2191    1
   134  2193  2194    1
   135  2158  2163    1
   136  2161  2163    1
   137  2161  2159    1
   138  2161  2179    1
   139  2760  2758    1
   140  2760  2783    1
   141  2760  2761    1
   142  2160  2159    1
   143  2160  2184    1
   144  2182  2155    1
   145  2190  2189    1
   146  2190  2215    1
   147  2766  2780    1
   148  2766  2761    1
   149  2163  2164    1
   150  2243  2216    1
   151  2133  2134   ar
   152  2191  2189    1
   153  2191  2208    1
   154  2758  2785    1
   155   259   260    1
   156   259   261    1
   157  2183  2155    1
   158   294   318    1
   159   294   295    1
   160  2189  2209    1
   161  2146  2129    1
   162  2159  2180    1
   163  2155  2156    1
   164  2144  2130    1
   165  2110  2096    1
   166   256   258    1
   167   256   276    1
   168   256   232    1
   169  2202  2184    2
   170  2186  2184    1
   171  2130  2136   ar
   172  2097  2096   ar
   173  2097  2099   ar
   174  2245  2216    1
   175  2166  2165    2
   176  2233  2215    2
   177  2241  2218    1
   178  2216  2218    1
   179  2216  2217    1
   180   283   261    1
   181  2147  2127    1
   182  2127  2129    1
   183  2127  2125    1
   184   260   265    1
   185  2184  2203    1
   186   262   261    1
   187  2096  2102   ar
   188   261   263    1
   189  2196  2195    2
   190  2194  2195   ar
   191  2194  2201   ar
   192   295   323    1
   193  2129  2140    1
   194  2129  2124    1
   195  2215  2217    1
   196  2215  2234    1
   197  2134  2140   ar
   198  2134  2135   ar
   199  2733  2732    1
   200  2164  2165   ar
   201  2164  2171   ar
   202  2206  2201    1
   203  2753  2732    1
   204  2218  2219    1
   205  2218  2220    1
   206   355   324    1
   207  2219  2224    1
   208  2004  2003    2
   209   349   332    1
   210   327   332    1
   211   327   326    1
   212   232   231    1
   213  2165  2167   ar
   214  2099  2100   ar
   215  2151  2123    1
   216   348   342    1
   217  2195  2197   ar
   218  2201  2200   ar
   219  2742  2741    2
   220  2752  2734    1
   221  2156  2154    1
   222  2746  2727    2
   223   342   341   ar
   224   342   343   ar
   225  2140  2139   ar
   226   341   338   ar
   227  2126  2125    1
   228  2126  2154    1
   229  2136  2135   ar
   230  2136  2137    2
   231   244   226    2
   232  2732  2734    1
   233  2732  2730    1
   234  2124  2123    1
   235   343   332    1
   236   343   337   ar
   237  2177  2171    1
   238  2745  2727    1
   239   332   330    1
   240  2125  2123    1
   241  2125  2149    1
   242   338   337   ar
   243   338   339   ar
   244  2741  2743   ar
   245  2741  2740   ar
   246  2749  2743    1
   247   255   227    1
   248   340   339    2
   249  2135  2138   ar
   250   265   281    1
   251   265   263    1
   252   265   275    1
   253   337   336   ar
   254  2171  2170   ar
   255  2102  2103    2
   256  2102  2101   ar
   257  2123  2121    1
   258   339   333   ar
   259  2743  2744   ar
   260  2748  2740    1
   261  2238  2224    1
   262  2172  2154    2
   263   324   326    1
   264   324   325    1
   265   324   356    1
   266  2045  2031    1
   267  2729  2727    1
   268  2729  2728    1
   269   263   282    1
   270   263   264    1
   271   354   326    1
   272  2740  2738   ar
   273  2734  2735    1
   274  2734  2736    1
   275  2727  2703    1
   276   336   334   ar
   277  2038  2037    2
   278   333   334   ar
   279   333   347    1
   280   326   328    1
   281  2154  2173    1
   282  2756  2728    1
   283  1920  1904    1
   284  2224  2222    1
   285  2224  2225    1
   286  1922  1904    1
   287   334   335    1
   288  1684  1666    2
   289   323   325    1
   290   323   345    2
   291   323   344    1
   292  2003  1997   ar
   293  2003  2002   ar
   294  2223  2235    1
   295  2223  2222    1
   296  2011  1997    1
   297  1946  1934    1
   298  2744  2750    1
   299  2744  2737   ar
   300  2100  2101   ar
   301  2100  2106   ar
   302  2237  2232    1
   303  2167  2175    1
   304  2167  2168   ar
   305  2220  2221    1
   306  2220  2222    1
   307  2220  2240    1
   308  2197  2198   ar
   309   280   274    1
   310  2200  2205    1
   311  2200  2198   ar
   312  2221  2246    1
   313  2049  2033    1
   314   231   252    1
   315   231   229    1
   316   231   233    1
   317  2084  2070    1
   318  1952  1929    1
   319  2738  2737   ar
   320  2738  2739    2
   321  1661  1638    1
   322   335   353    1
   323   335   351    1
   324  1904  1903    1
   325  1934  1933    1
   326  2735  2747    1
   327  2737  2736    1
   328  1975  1957    2
   329  2139  2138   ar
   330  2139  2145    1
   331  2728  2730    1
   332  2728  2755    1
   333  1665  1636    1
   334   275   274   ar
   335   275   269   ar
   336  2112  2095    1
   337   227   228    1
   338   227   229    1
   339   227   254    1
   340  2031  2037   ar
   341  2031  2032   ar
   342  2101  2104   ar
   343  1997  1998   ar
   344  2716  2697    2
   345  2730  2754    1
   346  2730  2731    1
   347  2222  2239    1
   348  1696  1667    1
   349   226   228    1
   350   226   245    1
   351   226   202    1
   352   274   273   ar
   353  2094  2109    1
   354  2094  2093    1
   355   253   229    1
   356  2715  2697    1
   357  1655  1643    1
   358  1641  1666    1
   359  1641  1640    1
   360  2198  2199    1
   361  2037  2036   ar
   362  2170  2168   ar
   363  2170  2176    1
   364  2232  2225   ar
   365  2232  2231   ar
   366   331   330    1
   367   331   346    1
   368  2005  2002   ar
   369  2005  2006   ar
   370  1663  1636    1
   371   264   278    1
   372  1932  1957    1
   373  1932  1931    1
   374  2113  2093    1
   375   330   328    1
   376   330   350    1
   377   229   230    1
   378  2736  2731    1
   379  2736  2751    1
   380  1694  1667    1
   381  2264  2246    2
   382  2225  2226   ar
   383  2002  2001   ar
   384   234   233    1
   385   234   246    1
   386  2152  2121    1
   387  2121  2153    1
   388  2121  2122    1
   389  2033  2032    1
   390  2033  2051    1
   391  1643  1642    1
   392  2070  2082    1
   393  2070  2069    1
   394  2068  2069   ar
   395  2068  2066   ar
   396  1636  1638    1
   397  1636  1637    1
   398  2168  2169    2
   399  2684  2664    2
   400  1638  1640    1
   401  1638  1639    1
   402   251   233    1
   403  1956  1927    1
   404  2067  2066    2
   405   233   235    1
   406  2106  2095    1
   407  2106  2105   ar
   408  1929  1927    1
   409  1929  1931    1
   410  1929  1930    1
   411   328   352    1
   412   328   329    1
   413  1666  1668    1
   414  1666  1685    1
   415  1954  1927    1
   416  2095  2093    1
   417  2095  2090    1
   418  1985  1958    1
   419  2093  2091    1
   420   269   268   ar
   421   269   270   ar
   422  1667  1668    1
   423  1667  1669    1
   424  2697  2699    1
   425  2697  2670    1
   426  2723  2702    1
   427  2246  2265    1
   428  2246  2248    1
   429  1986  1958    1
   430  1624  1610    1
   431  2703  2702    1
   432  2651  2631    2
   433   268   267   ar
   434  2685  2664    1
   435  2032  2034   ar
   436   273   270   ar
   437  1957  1976    1
   438  1957  1959    1
   439  1903  1902   ar
   440  1903  1905   ar
   441  2236  2231    1
   442  1927  1928    1
   443  1916  1902    1
   444  2015  1999    1
   445  2231  2229   ar
   446  2274  2247    1
   447  1931  1933    1
   448  1931  1951    1
   449  1933  1935    1
   450  1933  1950    1
   451  2008  1987    2
   452  2699  2698    1
   453  1653  1635    2
   454  2719  2713    1
   455  1640  1642    1
   456  1640  1660    1
   457  1949  1935    1
   458   202   201    1
   459  1692  1669    1
   460  2069  2071   ar
   461  2066  2065   ar
   462  2712  2711    2
   463  1930  1935    1
   464  2104  2105   ar
   465  1998  1999    1
   466  1998  2000   ar
   467  1958  1959    1
   468  1958  1960    1
   469  1610  1609    1
   470   270   271   ar
   471  2199  2213    1
   472  2199  2211    1
   473  2226  2227    2
   474  2226  2228   ar
   475  1715  1697    2
   476  2006  2012    1
   477  2006  2007   ar
   478  2726  2698    1
   479  2122  2120    1
   480  2702  2704    1
   481  2702  2700    1
   482  2664  2666    1
   483  2664  2637    1
   484  1639  1644    1
   485  1902  1908   ar
   486  2652  2631    1
   487  2036  2039   ar
   488  2036  2035   ar
   489  2713  2711   ar
   490  2713  2714   ar
   491  1905  1906   ar
   492  1900  1915    1
   493  1900  1899    1
   494  1642  1644    1
   495  1642  1659    1
   496  1935  1936    1
   497  1999  2017    1
   498  2105  2111    1
   499  2711  2710   ar
   500  2001  2000   ar
   501  2001  2007   ar
   502   388   373    1
   503  1669  1671    1
   504  1669  1670    1
   505   230   235    1
   506   329   357    1
   507   267   279    1
   508   267   266   ar
   509  2722  2704    1
   510  1637  1635    1
   511  2276  2247    1
   512   387   373    1
   513  1608  1635    1
   514  1608  1607    1
   515  2090  2089    1
   516   373   372    1
   517  2631  2633    1
   518  2631  2604    1
   519  1919  1899    1
   520  2247  2248    1
   521  2247  2249    1
   522  2698  2700    1
   523  2698  2725    1
   524  1658  1644    1
   525  1984  1960    1
   526  1672  1697    1
   527  1672  1671    1
   528  2720  2714    1
   529   235   250    1
   530   235   236    1
   531  1630  1605    1
   532  2714  2707   ar
   533   249   243    1
   534   374   371   ar
   535   374   375   ar
   536  2229  2228   ar
   537  2229  2230    1
   538  1635  1654    1
   539  2034  2035   ar
   540  1644  1645    1
   541  2696  2665    1
   542  2039  2040   ar
   543  2091  2115    1
   544  2091  2092    1
   545  2091  2089    1
   546  2670  2669    1
   547  2666  2665    1
   548   271   266   ar
   549   271   272    1
   550   372   371   ar
   551   372   367   ar
   552  1944  1926    2
   553   381   375    1
   554  2691  2669    1
   555  2710  2718    1
   556  2710  2708   ar
   557  2704  2705    1
   558  2704  2706    1
   559  2007  1996    1
   560   371   370   ar
   561   375   376   ar
   562  1697  1716    1
   563  1697  1699    1
   564  1960  1961    1
   565  1960  1962    1
   566  2035  2041   ar
   567  1899  1901    1
   568  1899  1897    1
   569  1928  1926    1
   570  2663  2632    1
   571  2700  2724    1
   572  2700  2701    1
   573  2117  2089    1
   574   367   368   ar
   575   201   222    1
   576   201   203    1
   577   201   199    1
   578  2065  2072   ar
   579  2065  2064    1
   580   243   236   ar
   581   243   242   ar
   582  2092  2120    1
   583  2071  2076    1
   584  2071  2072   ar
   585  2717  2705    1
   586   382   366    1
   587  1987  1963    1
   588  1987  1989    1
   589  1987  2009    1
   590  1671  1691    1
   591  1671  1673    1
   592  1670  1675    1
   593  2637  2636    1
   594   236   237   ar
   595   204   203    1
   596   204   216    1
   597  1609  1607    1
   598  1609  1628    1
   599  1609  1611    1
   600   361   366    1
   601   361   360    1
   602  2627  2599    1
   603  2707  2708   ar
   604  2707  2706    1
   605  1908  1909    2
   606  1908  1907   ar
   607  2633  2632    1
   608  2089  2087    1
   609   370   376   ar
   610   370   369   ar
   611  2078  2064    1
   612   376   366    1
   613   225   197    1
   614  1906  1907   ar
   615  1906  1912   ar
   616   287   272    1
   617   386   358    1
   618  2708  2709    2
   619  2665  2693    1
   620  2665  2667    1
   621  1938  1937    2
   622  1607  1605    1
   623  1607  1629    1
   624  1898  1926    1
   625  1898  1897    1
   626  2120  2141    2
   627  2120  2142    1
   628   221   203    1
   629   272   286    1
   630   368   369   ar
   631   368   380    1
   632  2242  2230    1
   633  2669  2667    1
   634  2669  2671    1
   635  1605  1603    1
   636  1605  1606    1
   637   214   196    2
   638  2658  2636    1
   639  1918  1901    1
   640  2604  2603    1
   641  2230  2244    1
   642  2272  2249    1
   643  2268  2263    1
   644  2079  2062    1
   645   248   242    1
   646  1926  1945    1
   647   366   364    1
   648  1634  1603    1
   649  2250  2249    1
   650  2250  2255    1
   651  1963  1962    1
   652  2249  2251    1
   653  1936  1937   ar
   654  1936  1943   ar
   655   203   205    1
   656  1627  1611    1
   657  1961  1966    1
   658   242   240   ar
   659   378   357    2
   660   223   199    1
   661  1989  1988    1
   662  2632  2660    1
   663  2632  2634    1
   664  2072  2077    1
   665  2706  2701    1
   666  2706  2721    1
   667   357   359    1
   668   357   377    1
   669  2064  2062    1
   670  2064  2059    1
   671  2267  2262    1
   672  1686  1674    1
   673  1886  1870    1
   674  1907  1910   ar
   675  1901  1912    1
   676  1901  1896    1
   677   237   238    2
   678   237   239   ar
   679  2040  2041   ar
   680  2040  2046    1
   681  1674  1673    1
   682  1897  1921    1
   683  1897  1895    1
   684  2636  2634    1
   685  2636  2638    1
   686   199   197    1
   687   199   200    1
   688  1962  1983    1
   689  1962  1964    1
   690  1657  1652    1
   691  2688  2682    1
   692  1611  1606    1
   693  1611  1621    1
   694  1948  1943    1
   695  2695  2680    1
   696   197   198    1
   697   197   224    1
   698  1727  1698    1
   699  1912  1911   ar
   700  2041  2030    1
   701  1603  1631    1
   702  1603  1604    1
   703   359   358    1
   704  1688  1683    1
   705  1645  1652   ar
   706  1645  1646   ar
   707  1725  1698    1
   708  2599  2600    1
   709  2599  2630    1
   710  2599  2601    1
   711  1937  1939   ar
   712   358   360    1
   713   358   389    1
   714  2062  2063    1
   715  2062  2060    1
   716  2681  2682   ar
   717  2681  2678   ar
   718  2690  2671    1
   719  2667  2692    1
   720  2667  2668    1
   721  1996  2013    1
   722  1996  1991    1
   723  1996  1994    1
   724  2263  2262   ar
   725  2263  2256   ar
   726  2063  2075    1
   727  1673  1675    1
   728  1673  1690    1
   729  2600  2598    1
   730  2625  2603    1
   731  1699  1698    1
   732   360   385    1
   733   360   362    1
   734  2682  2683   ar
   735   198   196    1
   736  1980  1974    1
   737  1675  1689    1
   738  1675  1676    1
   739  2262  2260   ar
   740  1943  1942   ar
   741   240   239   ar
   742   240   241    2
   743   239   247    1
   744  1991  1990    1
   745  2680  2694    1
   746  2680  2679    1
   747  1698  1700    1
   748  2671  2672    1
   749  2671  2673    1
   750  1870  1888    1
   751  1870  1869    1
   752  2603  2601    1
   753  2603  2605    1
   754  1647  1646    2
   755   196   215    1
   756   196   171    1
   757  1882  1868    1
   758  1652  1651   ar
   759  1591  1577    1
   760  2634  2659    1
   761  2634  2635    1
   762  2087  2118    1
   763  2087  2088    1
   764  2087  2119    1
   765  2560  2537    1
   766  1923  1895    1
   767  2678  2679   ar
   768  2678  2677   ar
   769  2618  2598    2
   770  2016  1992    1
   771  2686  2672    1
   772  2014  1994    1
   773  2524  2512    1
   774  1965  1977    1
   775  1965  1964    1
   776  2255  2269    1
   777  2255  2256    1
   778  2255  2253    1
   779  2626  2601    1
   780  2601  2602    1
   781  1614  1613   ar
   782  1614  1615   ar
   783  2679  2674   ar
   784  2271  2251    1
   785  2251  2252    1
   786  2251  2253    1
   787  2657  2638    1
   788  1966  1964    1
   789  1966  1981    1
   790  1966  1967    1
   791  2059  2058    1
   792  1592  1580    1
   793  1646  1648   ar
   794  1683  1676   ar
   795  1683  1682   ar
   796  1895  1896    1
   797  1895  1893    1
   798  2683  2677   ar
   799  2683  2673    1
   800  1910  1911   ar
   801  1988  2019    1
   802  1988  1990    1
   803  1988  2020    1
   804  2088  2086    1
   805   364   365    1
   806   364   362    1
   807   364   383    1
   808  1577  1576    1
   809  2512  2511    1
   810   205   200    1
   811   205   220    1
   812   205   206    1
   813  2256  2257   ar
   814  1964  1982    1
   815  1911  1917    1
   816  1625  1613    1
   817  2619  2598    1
   818  2668  2673    1
   819  2047  2030    1
   820  2598  2571    1
   821  2638  2639    1
   822  2638  2640    1
   823  2562  2535    1
   824  2273  2261    1
   825  2655  2649    1
   826  1994  1992    1
   827  1994  1995    1
   828  1974  1967   ar
   829  1974  1973   ar
   830  2554  2542    1
   831   365   379    1
   832  2653  2639    1
   833  2597  2566    1
   834  1868  1869   ar
   835  1868  1874   ar
   836  2677  2676   ar
   837  2030  2028    1
   838  2030  2025    1
   839  2252  2277    1
   840   405   404    2
   841  2048  2028    1
   842  2542  2541    1
   843  2673  2689    1
   844  1676  1677   ar
   845  1621  1615   ar
   846  1621  1620   ar
   847  1604  1602    1
   848  2080  2060    1
   849  1990  1992    1
   850  1990  2018    1
   851  1939  1940   ar
   852   362   384    1
   853   362   363    1
   854  2564  2535    1
   855  1992  1993    1
   856  1869  1871   ar
   857  2260  2261    1
   858  2260  2259   ar
   859  2060  2058    1
   860  2060  2061    1
   861  2498  2482    1
   862  2649  2648   ar
   863  2649  2650   ar
   864  2043  2021    2
   865  2500  2482    1
   866  2674  2675   ar
   867  1979  1973    1
   868  2537  2535    1
   869  2537  2538    1
   870  2537  2539    1
   871  1613  1612   ar
   872  2585  2565    2
   873  1687  1682    1
   874  1622  1602    2
   875  2296  2277    2
   876  2648  2645   ar
   877  2635  2640    1
   878   208   207    2
   879  2261  2275    1
   880  1942  1940   ar
   881  1942  1947    1
   882  1615  1616   ar
   883   206   207   ar
   884   206   213   ar
   885  2535  2536    1
   886  1595  1576    1
   887  2540  2539    1
   888  2540  2565    1
   889  1580  1581   ar
   890  1580  1579   ar
   891  1967  1968   ar
   892  2593  2568    1
   893  2253  2254    1
   894  2253  2270    1
   895  2605  2624    1
   896  2605  2606    1
   897  2605  2607    1
   898   404   403   ar
   899   404   406   ar
   900   171   170    1
   901   411   403    1
   902  1651  1656    1
   903  1651  1649   ar
   904  1682  1680   ar
   905  1875  1874    2
   906   219   213    1
   907  1581  1582   ar
   908  1700  1723    1
   909  1700  1701    1
   910  1700  1702    1
   911  2676  2675   ar
   912  1749  1728    2
   913  2482  2481    1
   914   207   209   ar
   915  1973  1971   ar
   916  2028  2029    1
   917  2028  2026    1
   918  2650  2640    1
   919  2650  2644   ar
   920  2606  2620    1
   921  2675  2687    1
   922  2662  2647    1
   923   213   212   ar
   924  2254  2266    1
   925  1719  1714    1
   926  2640  2656    1
   927  2058  2081    1
   928  2058  2056    1
   929   403   401   ar
   930  2538  2543    1
   931  1576  1578    1
   932  1576  1574    1
   933  2528  2513    1
   934   412   406    1
   935  2277  2295    1
   936  2277  2279    1
   937  2257  2259   ar
   938  2257  2258    2
   939  1874  1873   ar
   940  2566  2594    1
   941  2566  2568    1
   942  2566  2567    1
   943  2025  2024    1
   944  2645  2644   ar
   945  2645  2646   ar
   946  1940  1941    1
   947   406   407   ar
   948  1748  1728    1
   949  2557  2543    1
   950  1718  1713    1
   951  2602  2607    1
   952  1925  1893    1
   953  1648  1649   ar
   954  2061  2086    1
   955  1602  1575    1
   956  1602  1623    1
   957  1893  1894    1
   958  1893  1924    1
   959  2050  2026    1
   960  1995  2010    1
   961  2539  2541    1
   962  2539  2559    1
   963  2086  2108    2
   964  2086  2107    1
   965  2531  2507    1
   966  2647  2646    1
   967  2647  2661    1
   968  1575  1574    1
   969  2516  2515    2
   970  2511  2529    1
   971  2511  2513    1
   972  2511  2509    1
   973  2644  2643   ar
   974  2622  2616    1
   975  1594  1578    1
   976  1620  1626    1
   977  1620  1619   ar
   978  1722  1702    1
   979  2541  2543    1
   980  2541  2558    1
   981  2568  2570    1
   982  2568  2569    1
   983  1701  1706    1
   984   209   217    1
   985   209   210   ar
   986  1871  1872   ar
   987  2565  2567    1
   988  2565  2586    1
   989  2646  2641   ar
   990  1703  1728    1
   991  1703  1702    1
   992  1579  1584   ar
   993  2571  2570    1
   994   401   402    2
   995   401   400   ar
   996  2023  2021    1
   997  2023  2022    1
   998   212   218    1
   999   212   210   ar
  1000  1728  1730    1
  1001  2552  2534    2
  1002  2543  2544    1
  1003   363   390    1
  1004   185   173    1
  1005  1677  1678    2
  1006  1677  1679   ar
  1007  1993  2021    1
  1008  2510  2509    1
  1009  2510  2534    1
  1010  1649  1650    1
  1011  2029  2044    1
  1012  2021  2042    1
  1013  2592  2570    1
  1014  1702  1704    1
  1015   407   400   ar
  1016   407   413    1
  1017  2607  2617    1
  1018  2607  2623    1
  1019  1894  1892    1
  1020  2513  2508    1
  1021  2513  2514    1
  1022  2026  2024    1
  1023  2026  2027    1
  1024  2616  2617   ar
  1025  2616  2615   ar
  1026  2057  2056    1
  1027  2057  2055    1
  1028  1714  1713   ar
  1029  1714  1707   ar
  1030  1612  1617   ar
  1031   210   211    2
  1032   400   399    1
  1033  2299  2293    1
  1034  1578  1588    1
  1035  1578  1573    1
  1036  2643  2642   ar
  1037  1713  1711   ar
  1038  2570  2572    1
  1039  1574  1596    1
  1040  1574  1572    1
  1041  2536  2534    1
  1042   190   170    1
  1043  1616  1619   ar
  1044  1616  1617   ar
  1045  1968  1969    2
  1046  1968  1970   ar
  1047   170   172    1
  1048   170   168    1
  1049  1582  1588   ar
  1050  1582  1583   ar
  1051  2641  2642   ar
  1052  2617  2611   ar
  1053   414   399    1
  1054  2056  2083    1
  1055  2056  2085    1
  1056  1680  1679   ar
  1057  1680  1681    1
  1058  2507  2509    1
  1059  2507  2508    1
  1060  2507  2505    1
  1061  2074  2055    2
  1062  2509  2530    1
  1063  2615  2612   ar
  1064  2481  2480   ar
  1065  2481  2483   ar
  1066  2642  2654    1
  1067  2024  2022    1
  1068  2024  2052    1
  1069  1873  1872   ar
  1070  1873  1876   ar
  1071  1597  1572    1
  1072   195   166    1
  1073   189   172    1
  1074  1971  1970   ar
  1075  1971  1972    2
  1076  2494  2480    1
  1077  2534  2553    1
  1078  1872  1878   ar
  1079   394   399    1
  1080   394   393    1
  1081   173   172    1
  1082  1941  1955    1
  1083  1941  1953    1
  1084  2515  2514   ar
  1085  2515  2517   ar
  1086   399   397    1
  1087  2569  2574    1
  1088  2279  2278    1
  1089  1885  1865    1
  1090  1588  1587   ar
  1091  1617  1618    1
  1092  2022  2053    1
  1093  2022  2054    1
  1094   172   174    1
  1095  2611  2612   ar
  1096  2611  2610   ar
  1097  1559  1547    1
  1098  2305  2278    1
  1099   409   390    2
  1100   435   434    2
  1101   183   165    2
  1102  1724  1712    1
  1103  2612  2613   ar
  1104  2293  2294   ar
  1105  2293  2291   ar
  1106  1584  1583   ar
  1107  1584  1585    1
  1108  1970  1978    1
  1109  1572  1573    1
  1110  1572  1570    1
  1111  1706  1707    1
  1112  1706  1704    1
  1113  1706  1720    1
  1114  2055  2027    1
  1115  2055  2073    1
  1116  2480  2486   ar
  1117  2514  2521   ar
  1118  2483  2484   ar
  1119  2300  2294    1
  1120  1693  1681    1
  1121   441   433    1
  1122  1707  1708   ar
  1123   390   392    1
  1124   390   408    1
  1125  1650  1662    1
  1126  1650  1664    1
  1127   191   168    1
  1128  2292  2291    2
  1129  2544  2551   ar
  1130  2544  2545   ar
  1131   418   391    1
  1132  1583  1586   ar
  1133  1704  1705    1
  1134  1704  1721    1
  1135  2610  2609   ar
  1136   168   166    1
  1137   168   169    1
  1138  1681  1695    1
  1139   166   167    1
  1140   166   193    1
  1141  1730  1729    1
  1142  2546  2545    2
  1143  1841  1840    2
  1144  2533  2505    1
  1145  1848  1834    1
  1146  2556  2551    1
  1147   167   165    1
  1148  2629  2614    1
  1149  1892  1913    2
  1150  1892  1914    1
  1151  1892  1864    1
  1152  1546  1547   ar
  1153  1546  1551   ar
  1154  2532  2505    1
  1155  1711  1712    1
  1156  1711  1710   ar
  1157  2278  2306    1
  1158  2278  2280    1
  1159   434   433   ar
  1160   434   436   ar
  1161  2505  2506    1
  1162   433   431   ar
  1163  2525  2517    1
  1164  2294  2287   ar
  1165  2613  2614    1
  1166  2613  2608   ar
  1167   392   391    1
  1168  1566  1552    1
  1169  1547  1548   ar
  1170  1876  1877   ar
  1171  1599  1585    1
  1172  1712  1726    1
  1173  2291  2290   ar
  1174  1865  1866    1
  1175  1865  1867    1
  1176  1865  1863    1
  1177  2614  2628    1
  1178  2572  2574    1
  1179  2572  2591    1
  1180  2572  2573    1
  1181  2590  2574    1
  1182  1866  1881    1
  1183  2517  2518   ar
  1184  2464  2448    1
  1185  1878  1877   ar
  1186  1878  1867    1
  1187  1705  1717    1
  1188  2574  2584    1
  1189  1585  1600    1
  1190  2609  2608   ar
  1191  2609  2621    1
  1192   165   184    1
  1193   165   138    1
  1194  2478  2493    1
  1195  2478  2477    1
  1196  2551  2550   ar
  1197   391   393    1
  1198   391   419    1
  1199  2545  2547   ar
  1200   393   417    1
  1201   393   395    1
  1202  1852  1836    1
  1203   432   431    2
  1204  1587  1586   ar
  1205  1587  1593    1
  1206  1757  1729    1
  1207   431   430   ar
  1208   436   442    1
  1209   436   437   ar
  1210  1834  1840   ar
  1211  1834  1835   ar
  1212  1618  1632    1
  1213  1618  1633    1
  1214  1752  1746    1
  1215   397   415    1
  1216   397   398    1
  1217   397   395    1
  1218  1760  1729    1
  1219  1601  1570    1
  1220  1840  1839   ar
  1221  1552  1551    1
  1222  1552  1567    1
  1223  1729  1731    1
  1224  2497  2477    1
  1225  1884  1867    1
  1226   174   169    1
  1227   174   175    1
  1228   174   188    1
  1229  1887  1863    1
  1230  1570  1598    1
  1231  1570  1571    1
  1232  1877  1883    1
  1233  1867  1862    1
  1234  2521  2527    1
  1235  2521  2520   ar
  1236  2486  2487    2
  1237  2486  2485   ar
  1238  2281  2280    1
  1239  2281  2286    1
  1240  1864  1863    1
  1241  2484  2485   ar
  1242  2484  2490   ar
  1243  1708  1710   ar
  1244  1708  1709    2
  1245  2573  2587    1
  1246  1551  1550   ar
  1247  2496  2479    1
  1248  1776  1775    2
  1249  1821  1807    1
  1250  2460  2446    1
  1251  1863  1861    1
  1252  2448  2466    1
  1253  2448  2447    1
  1254  1548  1549   ar
  1255   398   410    1
  1256   437   430   ar
  1257   437   443    1
  1258   416   395    1
  1259   430   429    1
  1260   444   429    1
  1261  1836  1835    1
  1262  1836  1854    1
  1263  1745  1746   ar
  1264  1745  1742   ar
  1265  2477  2479    1
  1266  2477  2475    1
  1267  2280  2304    1
  1268  2280  2282    1
  1269  1822  1807    1
  1270   471   463    1
  1271  2506  2504    1
  1272  2287  2286    1
  1273  2287  2288   ar
  1274   175   182   ar
  1275   175   176   ar
  1276   187   182    1
  1277  1783  1777    1
  1278   395   396    1
  1279  1759  1744    1
  1280   177   176    2
  1281  2290  2298    1
  1282  2290  2288   ar
  1283  1780  1761    2
  1284  1746  1747   ar
  1285   465   464    2
  1286   182   181   ar
  1287  1807  1806    1
  1288   176   178   ar
  1289  1835  1837   ar
  1290  2584  2578   ar
  1291  2584  2583   ar
  1292  2518  2520   ar
  1293  2518  2519    2
  1294  2303  2282    1
  1295  2485  2488   ar
  1296  1571  1569    1
  1297  2479  2490    1
  1298  2479  2474    1
  1299  2550  2555    1
  1300  2550  2548   ar
  1301   463   464   ar
  1302   463   461   ar
  1303  2547  2548   ar
  1304   138   137    1
  1305   429   424    1
  1306   429   427    1
  1307  2577  2578   ar
  1308  2577  2576   ar
  1309   181   186    1
  1310   181   179   ar
  1311  2490  2489   ar
  1312  2446  2447   ar
  1313  2446  2452   ar
  1314  2520  2526    1
  1315  2286  2301    1
  1316  2286  2284    1
  1317   178   179   ar
  1318   464   466   ar
  1319   462   461    2
  1320  1839  1842   ar
  1321  1839  1838   ar
  1322  1775  1777   ar
  1323  1775  1774   ar
  1324  2288  2289    2
  1325  1755  1733    1
  1326  1550  1549   ar
  1327  1550  1553   ar
  1328  1549  1555   ar
  1329  1777  1778   ar
  1330   179   180    1
  1331   424   423    1
  1332  2447  2449   ar
  1333  2282  2283    1
  1334  2282  2284    1
  1335  1562  1543    1
  1336  2589  2583    1
  1337   461   460   ar
  1338  1744  1758    1
  1339  1744  1743    1
  1340  1731  1732    1
  1341  1731  1733    1
  1342  1731  1756    1
  1343  2578  2579   ar
  1344  1862  1861    1
  1345  1732  1737    1
  1346  2548  2549    1
  1347  2583  2582   ar
  1348  2329  2307    2
  1349  2588  2576    1
  1350  1861  1889    1
  1351  1861  1859    1
  1352   180   192    1
  1353   180   194    1
  1354  2476  2475    1
  1355  2476  2504    1
  1356  1742  1743   ar
  1357  1742  1741   ar
  1358  2453  2452    2
  1359  1842  1843   ar
  1360  2522  2504    2
  1361  2475  2499    1
  1362  2475  2473    1
  1363   154   140    1
  1364   440   428    1
  1365  2504  2523    1
  1366  2576  2575   ar
  1367  1837  1838   ar
  1368   466   472    1
  1369   466   467   ar
  1370   396   420    1
  1371  1747  1737    1
  1372  1747  1741   ar
  1373  1733  1734    1
  1374  1733  1735    1
  1375  1806  1801   ar
  1376  1806  1805   ar
  1377   159   137    1
  1378  1761  1779    1
  1379  1761  1734    1
  1380  1761  1763    1
  1381   474   459    1
  1382  1838  1844   ar
  1383  2474  2473    1
  1384  1544  1543    1
  1385  1544  1558    1
  1386  2452  2451   ar
  1387   158   139    1
  1388  2283  2307    1
  1389   460   467   ar
  1390   460   459    1
  1391   137   139    1
  1392   137   135    1
  1393   501   493    1
  1394  2395  2381    1
  1395  2284  2302    1
  1396  2284  2285    1
  1397  1743  1738   ar
  1398  2488  2489   ar
  1399  2501  2473    1
  1400  1543  1545    1
  1401  1543  1541    1
  1402  2388  2387    2
  1403   492   491    2
  1404  2489  2495    1
  1405   427   445    1
  1406   427   428    1
  1407   427   425    1
  1408  1801  1802   ar
  1409  1860  1859    1
  1410  1860  1858    1
  1411  2324  2323    2
  1412  1569  1589    2
  1413  1569  1590    1
  1414  1569  1542    1
  1415  1782  1774    1
  1416   467   473    1
  1417  1774  1772   ar
  1418  1553  1554   ar
  1419  1555  1545    1
  1420  1555  1554   ar
  1421   439   420    2
  1422  1778  1784    1
  1423  1778  1771   ar
  1424  2473  2471    1
  1425  1737  1735    1
  1426  1737  1753    1
  1427  1880  1858    2
  1428  2449  2450   ar
  1429  2579  2582   ar
  1430  2579  2580   ar
  1431   140   139    1
  1432   139   141    1
  1433  2307  2328    1
  1434  2307  2309    1
  1435  1741  1740   ar
  1436   493   491   ar
  1437   493   494   ar
  1438   459   454    1
  1439   459   457    1
  1440  1859  1891    1
  1441  1859  1890    1
  1442  1561  1545    1
  1443  2399  2383    1
  1444  2356  2355    2
  1445   423   447    1
  1446   423   421    1
  1447   423   425    1
  1448   491   490   ar
  1449  1808  1805   ar
  1450  1808  1809   ar
  1451   164   133    1
  1452  2549  2561    1
  1453  2549  2563    1
  1454   422   420    1
  1455   422   421    1
  1456  2325  2326   ar
  1457  2325  2322   ar
  1458  1805  1804   ar
  1459   448   421    1
  1460  1843  1844   ar
  1461  1843  1849    1
  1462   504   489    1
  1463  1545  1540    1
  1464   495   494    2
  1465  2297  2285    1
  1466   420   438    1
  1467  1851  1831    1
  1468  2381  2387   ar
  1469  2381  2382   ar
  1470  2575  2580   ar
  1471  1763  1762    1
  1472   454   453    1
  1473  1735  1754    1
  1474  1735  1736    1
  1475  1542  1541    1
  1476  1554  1560    1
  1477  1844  1833    1
  1478  1563  1541    1
  1479   134   133    1
  1480   134   132    1
  1481   494   496   ar
  1482  2387  2386   ar
  1483   152   132    2
  1484  1541  1539    1
  1485   421   449    1
  1486  1858  1879    1
  1487  1858  1830    1
  1488   425   446    1
  1489   425   426    1
  1490  2332  2326    1
  1491  2323  2322   ar
  1492  2323  2317   ar
  1493  2451  2450   ar
  1494  2451  2454   ar
  1495   135   160    1
  1496   135   133    1
  1497   135   136    1
  1498  2580  2581    1
  1499   133   161    1
  1500  2450  2456   ar
  1501  1738  1739   ar
  1502  1802  1814    1
  1503  1802  1803   ar
  1504   490   489    1
  1505   490   497   ar
  1506  2383  2382    1
  1507  2383  2401    1
  1508  1812  1791    2
  1509  2326  2327   ar
  1510  1772  1771   ar
  1511  1772  1773    2
  1512  2322  2321   ar
  1513  1771  1770    1
  1514  1853  1829    1
  1515   153   132    1
  1516   489   484    1
  1517   489   487    1
  1518   534   528    1
  1519   132   105    1
  1520   541   526    1
  1521   527   528   ar
  1522   527   524   ar
  1523  1831  1833    1
  1524  1831  1829    1
  1525  1831  1832    1
  1526   457   475    1
  1527   457   458    1
  1528   457   455    1
  1529  2309  2308    1
  1530  2355  2357   ar
  1531  2355  2354   ar
  1532   496   497   ar
  1533   496   502    1
  1534  1809  1815    1
  1535  1809  1810   ar
  1536   458   470    1
  1537  1740  1739   ar
  1538  2382  2384   ar
  1539  2471  2503    1
  1540  2471  2502    1
  1541  2471  2472    1
  1542   528   529   ar
  1543   535   519    1
  1544  1787  1766    1
  1545   141   151    1
  1546   141   136    1
  1547   141   157    1
  1548  1804  1803   ar
  1549  1804  1810   ar
  1550   497   503    1
  1551   144   143   ar
  1552   144   145   ar
  1553   155   143    1
  1554   526   540    1
  1555   526   525    1
  1556   151   145   ar
  1557   151   150   ar
  1558  2363  2357    1
  1559   143   142   ar
  1560  1736  1750    1
  1561   145   146   ar
  1562  1833  1850    1
  1563  1833  1828    1
  1564  2362  2354    1
  1565  1540  1539    1
  1566   484   483    1
  1567  1739  1751    1
  1568  1829  1830    1
  1569  1829  1827    1
  1570  2331  2317    1
  1571   150   156    1
  1572   150   149   ar
  1573  1846  1824    2
  1574   142   147   ar
  1575  2463  2443    1
  1576   146   149   ar
  1577   146   147   ar
  1578   488   487    1
  1579   488   500    1
  1580   524   525   ar
  1581   524   523   ar
  1582  1762  1789    1
  1583  1762  1790    1
  1584  1762  1764    1
  1585  2317  2318   ar
  1586  1847  1832    1
  1587   147   148    1
  1588  2472  2470    1
  1589   453   477    1
  1590   453   455    1
  1591   453   451    1
  1592  2581  2596    1
  1593  2581  2595    1
  1594   525   520   ar
  1595  1539  1564    1
  1596  1539  1537    1
  1597   529   519    1
  1598   529   523   ar
  1599   478   451    1
  1600  2386  2389   ar
  1601  2386  2385   ar
  1602   148   162    1
  1603   148   163    1
  1604  2454  2455   ar
  1605  2339  2308    1
  1606   426   450    1
  1607  2357  2358   ar
  1608   505   487    1
  1609  2354  2352   ar
  1610   487   485    1
  1611  1810  1800    1
  1612   519   514    1
  1613   519   517    1
  1614   523   522   ar
  1615  2327  2321   ar
  1616  2327  2316    1
  1617  1765  1770    1
  1618  1765  1764    1
  1619  2456  2455   ar
  1620  2456  2445    1
  1621  2321  2320   ar
  1622   514   513    1
  1623  1770  1768    1
  1624  1770  1785    1
  1625  2308  2340    1
  1626  2308  2310    1
  1627  1766  1764    1
  1628  1766  1768    1
  1629  1766  1767    1
  1630   455   476    1
  1631   455   456    1
  1632  1786  1768    1
  1633   452   451    1
  1634   452   450    1
  1635   520   521   ar
  1636  1791  1793    1
  1637  1791  1767    1
  1638  1791  1811    1
  1639   451   479    1
  1640  1826  1824    1
  1641  1826  1825    1
  1642  1764  1788    1
  1643  2443  2444    1
  1644  2443  2445    1
  1645  2443  2441    1
  1646  2444  2459    1
  1647  2462  2445    1
  1648  2389  2390   ar
  1649  1818  1796    1
  1650  2384  2385   ar
  1651  1828  1827    1
  1652   105   104    1
  1653   522   521   ar
  1654  1817  1798    1
  1655  2311  2316    1
  1656  2311  2310    1
  1657   521   533    1
  1658   469   450    2
  1659  2455  2461    1
  1660  1768  1769    1
  1661  2385  2391   ar
  1662  1793  1792    1
  1663  1538  1537    1
  1664  1538  1536    1
  1665  2445  2440    1
  1666  1824  1845    1
  1667  1824  1797    1
  1668   507   483    1
  1669  1827  1825    1
  1670  1827  1855    1
  1671  2318  2320   ar
  1672  2318  2319    1
  1673   450   468    1
  1674   483   485    1
  1675   483   481    1
  1676  1537  1568    1
  1677  1537  1565    1
  1678  2336  2312    1
  1679   126   104    1
  1680   518   517    1
  1681   518   532    1
  1682  2316  2333    1
  1683  2316  2314    1
  1684  2358  2364    1
  1685  2358  2351   ar
  1686   539   511    1
  1687  2310  2312    1
  1688  2310  2338    1
  1689   485   506    1
  1690   485   486    1
  1691  2352  2353    2
  1692  2352  2351   ar
  1693  1825  1857    1
  1694  1825  1856    1
  1695   538   513    1
  1696  2470  2492    2
  1697  2470  2491    1
  1698  2470  2442    1
  1699   517   536    1
  1700   517   515    1
  1701  1796  1798    1
  1702  1796  1797    1
  1703  1796  1794    1
  1704  1800  1798    1
  1705  1800  1816    1
  1706  1800  1795    1
  1707  1798  1799    1
  1708   508   481    1
  1709   513   511    1
  1710   513   515    1
  1711  1557  1536    2
  1712  2360  2341    2
  1713  2465  2441    1
  1714   104   106    1
  1715   104   102    1
  1716   456   480    1
  1717  2335  2319    1
  1718  2441  2442    1
  1719  2441  2439    1
  1720   125   106    1
  1721   569   552    1
  1722  2390  2391   ar
  1723  2390  2396    1
  1724  2312  2314    1
  1725  2312  2313    1
  1726  2319  2337    1
  1727   481   482    1
  1728   481   509    1
  1729   121   107    1
  1730   128   100    1
  1731  2351  2350    1
  1732   482   480    1
  1733   131   100    1
  1734   511   542    1
  1735   511   512    1
  1736  1795  1794    1
  1737  2391  2380    1
  1738  1536  1511    1
  1739  1536  1556    1
  1740   573   555    1
  1741  1792  1794    1
  1742  1792  1823    1
  1743  1792  1820    1
  1744  1769  1781    1
  1745   571   555    1
  1746  2440  2439    1
  1747   555   554    1
  1748   106   107    1
  1749   106   108    1
  1750  2314  2334    1
  1751  2314  2315    1
  1752  1794  1819    1
  1753   515   537    1
  1754   515   516    1
  1755   486   510    1
  1756   554   556   ar
  1757   554   553   ar
  1758   100   102    1
  1759   100   101    1
  1760   556   557   ar
  1761   547   552    1
  1762   547   546    1
  1763   552   563    1
  1764   552   550    1
  1765   567   553    1
  1766  1511  1510    1
  1767   553   559   ar
  1768   480   499    2
  1769   480   498    1
  1770  1799  1813    1
  1771   557   563   ar
  1772   557   558   ar
  1773   122   110    1
  1774   512   510    1
  1775   102   127    1
  1776   102   103    1
  1777   563   562   ar
  1778   109   110   ar
  1779   109   114   ar
  1780  2313  2341    1
  1781   110   111   ar
  1782  2439  2467    1
  1783  2439  2437    1
  1784   129   115    1
  1785   559   558   ar
  1786   559   560    2
  1787   558   561   ar
  1788  2341  2343    1
  1789  2341  2359    1
  1790  2398  2378    1
  1791   562   561   ar
  1792   562   568    1
  1793   115   114    1
  1794   115   130    1
  1795   114   113   ar
  1796   111   112   ar
  1797   120    99    2
  1798   119    99    1
  1799   112   113   ar
  1800   112   118   ar
  1801   113   116   ar
  1802  2397  2380    1
  1803  2380  2378    1
  1804  2380  2375    1
  1805  2343  2342    1
  1806   551   550    1
  1807   551   566    1
  1808  2350  2365    1
  1809  2350  2345    1
  1810  2350  2348    1
  1811   575   544    1
  1812   510   531    2
  1813   510   530    1
  1814   118   108    1
  1815   118   117   ar
  1816   574   546    1
  1817   116   117   ar
  1818   516   543    1
  1819   108   103    1
  1820   108   124    1
  1821  2315  2330    1
  1822   117   123    1
  1823   101    99    1
  1824  1513  1525    1
  1825  1513  1512    1
  1826  2469  2437    1
  1827    99    74    1
  1828   546   544    1
  1829   546   548    1
  1830  1531  1508    1
  1831  2378  2379    1
  1832  2378  2376    1
  1833  2345  2344    1
  1834  1533  1506    1
  1835  2366  2348    1
  1836  2367  2346    1
  1837   550   570    1
  1838   550   548    1
  1839  1510  1508    1
  1840  1510  1530    1
  1841  1510  1512    1
  1842  2437  2468    1
  1843  2437  2438    1
  1844   544   545    1
  1845   544   576    1
  1846  2400  2376    1
  1847  2348  2346    1
  1848  2348  2349    1
  1849  2393  2371    2
  1850  2375  2374    1
  1851  2379  2394    1
  1852  1508  1506    1
  1853  1508  1509    1
  1854   545   543    1
  1855  1535  1506    1
  1856  1506  1507    1
  1857  1512  1529    1
  1858  1512  1514    1
  1859  2346  2344    1
  1860  2346  2347    1
  1861  2369  2342    1
  1862  2342  2344    1
  1863  2342  2370    1
  1864  2376  2374    1
  1865  2376  2377    1
  1866   548   572    1
  1867   548   549    1
  1868  2344  2368    1
  1869   543   565    2
  1870   543   564    1
  1871  2438  2436    1
  1872  2373  2371    1
  1873  2373  2372    1
  1874   603   586    1
  1875  2407  2406    1
  1876  2407  2405    1
  1877  2435  2406    1
  1878    74    73    1
  1879  2424  2405    2
  1880  2374  2372    1
  1881  2374  2402    1
  1882  2431  2408    1
  1883   581   586    1
  1884   581   580    1
  1885  2349  2361    1
  1886    92    75    1
  1887  2371  2347    1
  1888  2371  2392    1
  1889    93    73    1
  1890  2377  2405    1
  1891   609   578    1
  1892  1509  1514    1
  1893  1507  1505    1
  1894   549   577    1
  1895  1523  1505    2
  1896    88    76    1
  1897  1514  1528    1
  1898  1514  1515    1
  1899  2406  2408    1
  1900  2406  2433    1
  1901   586   597    1
  1902   586   584    1
  1903   602   596    1
  1904   596   597   ar
  1905   596   595   ar
  1906   597   591   ar
  1907  2405  2423    1
  1908    87    68    2
  1909  2372  2403    1
  1910  2372  2404    1
  1911    73    75    1
  1912    73    71    1
  1913   595   592   ar
  1914   591   590   ar
  1915   591   592   ar
  1916   590   588   ar
  1917   592   593   ar
  1918    86    68    1
  1919    97    83    1
  1920    75    76    1
  1921    75    77    1
  1922  2408  2410    1
  1923  2408  2409    1
  1924   608   580    1
  1925    95    83    1
  1926   588   587   ar
  1927   588   589    1
  1928   593   587   ar
  1929   593   594    2
  1930   607   589    1
  1931    83    82    1
  1932   587   601    1
  1933   589   605    1
  1934   580   578    1
  1935   580   582    1
  1936  2436  2411    1
  1937  2436  2458    2
  1938  2436  2457    1
  1939   578   579    1
  1940   578   610    1
  1941  1505  1524    1
  1942  1505  1480    1
  1943    82    81   ar
  1944    82    84   ar
  1945    81    79   ar
  1946  2411  2410    1
  1947    68    70    1
  1948    68    40    1
  1949    89    84    1
  1950    84    85   ar
  1951  2430  2410    1
  1952    70    69    1
  1953  1517  1516    2
  1954   585   584    1
  1955   585   600    1
  1956   579   577    1
  1957    79    80    2
  1958    79    78   ar
  1959  2410  2412    1
  1960  1515  1516   ar
  1961  1515  1522   ar
  1962    85    78   ar
  1963    85    90    1
  1964  2409  2414    1
  1965    78    77    1
  1966  1494  1482    1
  1967   584   582    1
  1968   584   604    1
  1969   577   599    2
  1970   577   598    1
  1971  1527  1522    1
  1972    98    69    1
  1973    71    69    1
  1974    71    94    1
  1975    71    72    1
  1976    77    91    1
  1977    77    72    1
  1978  1516  1518   ar
  1979    69    96    1
  1980  1522  1521   ar
  1981   582   606    1
  1982   582   583    1
  1983  1480  1479    1
  1984  1498  1481    1
  1985  1482  1481    1
  1986    56    34    2
  1987    40    39    1
  1988    55    34    1
  1989    63    39    1
  1990  2414  2428    1
  1991  2414  2412    1
  1992  2414  2415    1
  1993  2412  2429    1
  1994  2412  2413    1
  1995  1481  1479    1
  1996  1481  1483    1
  1997  1486  1485    2
  1998  1518  1519   ar
  1999  2427  2422    1
  2000   583   611    1
  2001  1521  1526    1
  2002  1521  1519   ar
  2003  1479  1499    1
  2004  1479  1477    1
  2005    34    36    1
  2006    34     7    1
  2007    39    41    1
  2008    39    37    1
  2009    51    50    2
  2010    61    41    1
  2011    36    35    1
  2012    67    35    1
  2013   634   620    1
  2014  1519  1520    1
  2015   615   620    1
  2016   615   614    1
  2017  2413  2425    1
  2018  2422  2415   ar
  2019  2422  2421   ar
  2020    50    49   ar
  2021    50    44   ar
  2022   638   626    1
  2023  2415  2416   ar
  2024   632   627    1
  2025    52    49   ar
  2026    52    53   ar
  2027   626   640    1
  2028   626   625    1
  2029  1485  1487   ar
  2030  1485  1484   ar
  2031   627   625   ar
  2032   627   628   ar
  2033   625   624   ar
  2034   633   628    1
  2035   628   621   ar
  2036   639   612    1
  2037    58    44    1
  2038    49    48   ar
  2039   624   622   ar
  2040    41    42    1
  2041    41    43    1
  2042   621   622   ar
  2043   621   620    1
  2044    44    45   ar
  2045   622   623    2
  2046    35    37    1
  2047    35    66    1
  2048   620   618    1
  2049    21     1    1
  2050    59    53    1
  2051    53    54   ar
  2052  1487  1488   ar
  2053  1483  1497    1
  2054  1483  1484    1
  2055  1483  1478    1
  2056  1500  1477    1
  2057    22     1    1
  2058    48    54   ar
  2059    48    47   ar
  2060    37    65    1
  2061    37    38    1
  2062    45    47   ar
  2063    45    46    1
  2064  1477  1478    1
  2065  1477  1475    1
  2066    54    43    1
  2067  1484  1491   ar
  2068    62    46    1
  2069  2426  2421    1
  2070   611   630    2
  2071   611   613    1
  2072   611   629    1
  2073   631   619    1
  2074  2421  2419   ar
  2075  1520  1534    1
  2076  1520  1532    1
  2077   637   614    1
  2078    42    57    1
  2079    46    64    1
  2080     7     6    1
  2081   612   614    1
  2082   612   613    1
  2083   612   641    1
  2084  2416  2417    2
  2085  2416  2418   ar
  2086   614   616    1
  2087     1     3    1
  2088    28     6    1
  2089    43    38    1
  2090    43    60    1
  2091  1503  1489    1
  2092  1504  1475    1
  2093  1488  1489    1
  2094  1488  1490   ar
  2095  1475  1476    1
  2096  1475  1502    1
  2097   619   618    1
  2098     3     2    1
  2099  1489  1501    1
  2100   618   616    1
  2101   618   635    1
  2102  1476  1474    1
  2103     6     8    1
  2104     6     4    1
  2105  1492  1474    2
  2106  1491  1490   ar
  2107  1491  1496    1
  2108  2419  2418   ar
  2109  2419  2420    1
  2110    33     2    1
  2111    27     8    1
  2112  1490  1495    1
  2113   616   636    1
  2114   616   617    1
  2115    32    17    1
  2116  1474  1493    1
  2117  1474  1446    1
  2118     2     4    1
  2119     2    30    1
  2120     8     9    1
  2121     8    10    1
  2122    17    31    1
  2123    17    16    1
  2124    18    19   ar
  2125    18    15   ar
  2126    25    19    1
  2127  2432  2420    1
  2128  2420  2434    1
  2129    19    20   ar
  2130     4    29    1
  2131     4     5    1
  2132    16    15   ar
  2133    16    11   ar
  2134    15    14   ar
  2135   657   656    2
  2136     9    23    1
  2137    20    14   ar
  2138    20    10    1
  2139    11    12   ar
  2140   617   642    1
  2141   656   658   ar
  2142   656   655   ar
  2143   664   658    1
  2144    14    13   ar
  2145   663   655    1
  2146   658   659   ar
  2147   655   653   ar
  2148    10     5    1
  2149    10    26    1
  2150    12    13   ar
  2151    12    24    1
  2152  1461  1440    2
  2153   659   665    1
  2154   659   652   ar
  2155  1446  1445    1
  2156   653   652   ar
  2157   653   654    2
  2158   670   643    1
  2159   646   651    1
  2160   646   645    1
  2161   666   651    1
  2162   652   651    1
  2163  1462  1440    1
  2164  1469  1445    1
  2165   651   649    1
  2166  1440  1442    1
  2167  1440  1412    1
  2168  1445  1447    1
  2169  1445  1443    1
  2170   642   661    2
  2171   642   644    1
  2172   642   660    1
  2173  1442  1441    1
  2174   643   644    1
  2175   643   645    1
  2176   643   671    1
  2177  1467  1447    1
  2178  1473  1441    1
  2179   645   669    1
  2180   645   647    1
  2181  1463  1448    1
  2182   701   687    1
  2183  1447  1448    1
  2184  1447  1449    1
  2185  1441  1443    1
  2186  1441  1472    1
  2187   699   687    1
  2188   687   686    1
  2189  1465  1459    1
  2190  1443  1471    1
  2191  1443  1444    1
  2192   649   650    1
  2193   649   647    1
  2194   649   667    1
  2195  1438  1407    1
  2196  1412  1411    1
  2197   686   685   ar
  2198   686   688   ar
  2199  1459  1458   ar
  2200  1459  1460   ar
  2201   685   683   ar
  2202  1458  1455   ar
  2203   650   662    1
  2204   668   647    1
  2205  1427  1406    2
  2206   647   648    1
  2207  1408  1407    1
  2208  1408  1406    1
  2209   693   688    1
  2210   688   689   ar
  2211  1435  1411    1
  2212  1460  1449    1
  2213  1460  1454   ar
  2214   683   684    2
  2215   683   682   ar
  2216  1449  1444    1
  2217  1449  1466    1
  2218  1428  1406    1
  2219  1455  1454   ar
  2220  1455  1456   ar
  2221  1407  1439    1
  2222  1407  1409    1
  2223  1457  1456    2
  2224  1406  1378    1
  2225   695   681    1
  2226  1454  1453   ar
  2227  1411  1409    1
  2228  1411  1413    1
  2229  1456  1450   ar
  2230   689   682   ar
  2231   689   694    1
  2232   682   681    1
  2233  1453  1451   ar
  2234  1450  1464    1
  2235  1450  1451   ar
  2236   648   672    1
  2237  1409  1437    1
  2238  1409  1410    1
  2239   681   676    1
  2240   681   679    1
  2241  1451  1452    1
  2242   676   675    1
  2243  1429  1414    1
  2244  1433  1413    1
  2245   732   718    1
  2246  1452  1470    1
  2247  1452  1468    1
  2248  1413  1414    1
  2249  1413  1415    1
  2250   718   730    1
  2251   718   717    1
  2252  1404  1373    1
  2253  1378  1377    1
  2254  1393  1372    2
  2255   691   672    2
  2256   716   717   ar
  2257   716   714   ar
  2258   717   719   ar
  2259  1405  1373    1
  2260  1431  1425    1
  2261   672   674    1
  2262   672   690    1
  2263   679   680    1
  2264   679   696    1
  2265   679   677    1
  2266   715   714    2
  2267  1410  1415    1
  2268   680   692    1
  2269   714   713   ar
  2270  1401  1377    1
  2271  1425  1424   ar
  2272  1425  1426   ar
  2273  1424  1421   ar
  2274   726   712    1
  2275   674   673    1
  2276  1373  1374    1
  2277  1373  1375    1
  2278   719   724    1
  2279   719   720   ar
  2280  1415  1426    1
  2281  1415  1432    1
  2282  1426  1420   ar
  2283  1394  1372    1
  2284   675   698    1
  2285   675   673    1
  2286   675   677    1
  2287  1421  1420   ar
  2288  1421  1422   ar
  2289  1377  1375    1
  2290  1377  1379    1
  2291   713   720   ar
  2292   713   712    1
  2293  1420  1419   ar
  2294  1423  1422    2
  2295   720   725    1
  2296  1422  1416   ar
  2297  1372  1374    1
  2298  1372  1347    1
  2299   702   673    1
  2300  1419  1417   ar
  2301   673   700    1
  2302   712   707    1
  2303   712   710    1
  2304  1416  1417   ar
  2305  1416  1430    1
  2306  1417  1418    1
  2307   677   697    1
  2308   677   678    1
  2309  1375  1403    1
  2310  1375  1376    1
  2311   707   706    1
  2312  1418  1436    1
  2313  1418  1434    1
  2314  1399  1379    1
  2315  1395  1380    1
  2316   763   749    1
  2317  1379  1380    1
  2318  1379  1381    1
  2319   747   745   ar
  2320   747   748   ar
  2321   746   745    2
  2322   749   761    1
  2323   749   748    1
  2324  1347  1346    1
  2325   711   710    1
  2326   711   723    1
  2327   710   727    1
  2328   710   708    1
  2329   745   744   ar
  2330   748   750   ar
  2331  1397  1391    1
  2332   757   743    1
  2333   678   703    1
  2334  1359  1341    2
  2335  1376  1381    1
  2336   731   704    1
  2337  1391  1390   ar
  2338  1391  1392   ar
  2339   706   729    1
  2340   706   704    1
  2341   706   708    1
  2342  1390  1387   ar
  2343  1366  1346    1
  2344  1381  1392    1
  2345  1381  1398    1
  2346   744   743    1
  2347   744   751   ar
  2348  1392  1386   ar
  2349   750   755    1
  2350   750   751   ar
  2351  1387  1386   ar
  2352  1387  1388   ar
  2353   704   705    1
  2354   704   733    1
  2355   743   738    1
  2356   743   741    1
  2357  1360  1341    1
  2358   751   756    1
  2359  1346  1348    1
  2360  1346  1344    1
  2361  1386  1385   ar
  2362  1371  1342    1
  2363  1389  1388    2
  2364   708   728    1
  2365   708   709    1
  2366  1388  1382   ar
  2367   705   703    1
  2368   738   737    1
  2369  1361  1349    1
  2370   754   742    1
  2371  1341  1343    1
  2372  1341  1316    1
  2373  1365  1348    1
  2374  1385  1383   ar
  2375   722   703    2
  2376   703   721    1
  2377  1382  1383   ar
  2378  1382  1396    1
  2379  1343  1342    1
  2380  1383  1384    1
  2381  1348  1349    1
  2382  1348  1350    1
  2383  1342  1344    1
  2384  1342  1369    1
  2385  1384  1402    1
  2386  1384  1400    1
  2387   742   741    1
  2388   794   780    1
  2389  1344  1367    1
  2390  1344  1345    1
  2391   777   776    2
  2392   741   758    1
  2393   741   739    1
  2394   778   776   ar
  2395   778   779   ar
  2396   788   774    1
  2397   780   792    1
  2398   780   779    1
  2399   709   734    1
  2400   776   775   ar
  2401   760   737    1
  2402   779   781   ar
  2403   737   735    1
  2404   737   739    1
  2405   762   735    1
  2406  1363  1358    1
  2407  1316  1315    1
  2408  1328  1310    2
  2409  1362  1357    1
  2410   775   774    1
  2411   775   782   ar
  2412  1358  1357   ar
  2413  1358  1351   ar
  2414   781   782   ar
  2415   781   786    1
  2416  1357  1355   ar
  2417   774   769    1
  2418   774   772    1
  2419   769   768    1
  2420  1350  1351    1
  2421  1350  1345    1
  2422  1350  1364    1
  2423   782   787    1
  2424   735   736    1
  2425   735   764    1
  2426  1351  1352   ar
  2427   739   759    1
  2428   739   740    1
  2429   785   773    1
  2430  1368  1356    1
  2431   736   734    1
  2432  1335  1315    1
  2433  1340  1311    1
  2434  1355  1356    1
  2435  1355  1354   ar
  2436  1329  1310    1
  2437  1356  1370    1
  2438   753   734    2
  2439  1352  1354   ar
  2440  1352  1353    2
  2441   734   752    1
  2442  1310  1312    1
  2443  1310  1282    1
  2444  1315  1313    1
  2445  1315  1317    1
  2446  1312  1311    1
  2447   793   766    1
  2448   824   808    1
  2449   773   772    1
  2450  1311  1313    1
  2451  1311  1338    1
  2452   791   768    1
  2453   820   806    1
  2454   772   789    1
  2455   772   770    1
  2456   808   826    1
  2457   808   807    1
  2458  1334  1317    1
  2459  1330  1318    1
  2460   768   766    1
  2461   768   770    1
  2462   740   765    1
  2463   806   807   ar
  2464   806   812   ar
  2465   807   809   ar
  2466  1313  1336    1
  2467  1313  1314    1
  2468   813   812    2
  2469  1317  1318    1
  2470  1317  1319    1
  2471   812   811   ar
  2472   766   767    1
  2473   766   795    1
  2474   809   810   ar
  2475   822   805    1
  2476   811   810   ar
  2477   811   814   ar
  2478  1282  1281    1
  2479   810   816   ar
  2480   770   790    1
  2481   770   771    1
  2482  1332  1327    1
  2483  1331  1326    1
  2484   767   765    1
  2485   814   815   ar
  2486  1326  1327   ar
  2487  1326  1324   ar
  2488  1327  1320   ar
  2489   816   815   ar
  2490   816   805    1
  2491  1309  1277    1
  2492   815   821    1
  2493  1337  1325    1
  2494   805   800    1
  2495   805   803    1
  2496   765   784    2
  2497   765   783    1
  2498   800   799    1
  2499  1314  1319    1
  2500  1305  1281    1
  2501  1308  1277    1
  2502  1319  1320    1
  2503  1319  1333    1
  2504  1320  1321   ar
  2505  1324  1325    1
  2506  1324  1323   ar
  2507  1325  1339    1
  2508  1297  1276    2
  2509  1281  1279    1
  2510  1281  1283    1
  2511  1277  1279    1
  2512  1277  1278    1
  2513  1321  1323   ar
  2514  1321  1322    2
  2515   858   842    1
  2516   771   796    1
  2517   860   842    1
  2518   842   841    1
  2519   828   797    1
  2520  1298  1276    1
  2521   854   840    1
  2522   827   799    1
  2523   804   803    1
  2524   804   819    1
  2525   841   840   ar
  2526   841   843   ar
  2527   840   846   ar
  2528  1279  1307    1
  2529  1279  1280    1
  2530   799   797    1
  2531   799   801    1
  2532  1299  1284    1
  2533   803   823    1
  2534   803   801    1
  2535  1276  1278    1
  2536  1276  1252    1
  2537   856   839    1
  2538  1303  1283    1
  2539   843   844   ar
  2540   846   847    2
  2541   846   845   ar
  2542  1283  1284    1
  2543  1283  1285    1
  2544   797   798    1
  2545   797   829    1
  2546   844   845   ar
  2547   844   850   ar
  2548   845   848   ar
  2549   798   796    1
  2550   796   818    2
  2551   796   817    1
  2552   850   839    1
  2553   850   849   ar
  2554   801   825    1
  2555   801   802    1
  2556   839   834    1
  2557   839   837    1
  2558   848   849   ar
  2559   849   855    1
  2560  1280  1285    1
  2561   834   833    1
  2562  1301  1295    1
  2563  1285  1296    1
  2564  1285  1302    1
  2565  1252  1251    1
  2566   838   837    1
  2567   838   853    1
  2568  1295  1296   ar
  2569  1295  1294   ar
  2570  1296  1290   ar
  2571  1294  1291   ar
  2572  1290  1291   ar
  2573  1290  1289   ar
  2574   837   857    1
  2575   837   835    1
  2576  1291  1292   ar
  2577   802   830    1
  2578  1289  1287   ar
  2579   876   875    2
  2580  1264  1246    2
  2581   887   873    1
  2582  1272  1251    1
  2583  1292  1293    2
  2584  1292  1286   ar
  2585  1287  1286   ar
  2586  1287  1288    1
  2587  1286  1300    1
  2588  1306  1288    1
  2589  1288  1304    1
  2590   861   833    1
  2591  1251  1253    1
  2592  1251  1249    1
  2593  1265  1246    1
  2594   875   877   ar
  2595   875   874   ar
  2596   833   835    1
  2597   833   831    1
  2598  1275  1247    1
  2599  1248  1246    1
  2600  1248  1247    1
  2601   877   878   ar
  2602  1246  1219    1
  2603  1271  1253    1
  2604  1266  1254    1
  2605   873   868    1
  2606   873   874    1
  2607   873   871    1
  2608   868   867    1
  2609   874   881   ar
  2610   863   831    1
  2611   835   859    1
  2612   835   836    1
  2613   893   879    1
  2614  1247  1249    1
  2615  1247  1274    1
  2616  1253  1254    1
  2617  1253  1255    1
  2618   832   830    1
  2619   832   831    1
  2620   878   879    1
  2621   878   880   ar
  2622   830   852    2
  2623   830   851    1
  2624   831   862    1
  2625   879   891    1
  2626   872   871    1
  2627   872   884    1
  2628  1249  1273    1
  2629  1249  1250    1
  2630   890   867    1
  2631   881   880   ar
  2632   881   886    1
  2633   892   865    1
  2634   880   885    1
  2635  1268  1262    1
  2636   867   865    1
  2637   867   869    1
  2638   871   888    1
  2639   871   869    1
  2640   836   864    1
  2641  1269  1263    1
  2642  1262  1263   ar
  2643  1262  1260   ar
  2644  1263  1256   ar
  2645  1261  1260    2
  2646  1242  1214    1
  2647  1260  1259   ar
  2648  1219  1218    1
  2649  1256  1255    1
  2650  1256  1257   ar
  2651  1259  1267    1
  2652  1259  1257   ar
  2653  1255  1250    1
  2654  1255  1270    1
  2655   865   894    1
  2656   865   866    1
  2657  1257  1258    2
  2658  1240  1218    1
  2659   921   904    1
  2660   923   907    1
  2661   869   889    1
  2662   869   870    1
  2663   925   907    1
  2664   907   906    1
  2665   919   905    1
  2666   906   905   ar
  2667   906   908   ar
  2668  1214  1215    1
  2669  1214  1245    1
  2670  1214  1216    1
  2671   905   911   ar
  2672   866   864    1
  2673  1218  1216    1
  2674  1218  1220    1
  2675   908   909   ar
  2676  1215  1213    1
  2677   911   912    2
  2678   911   910   ar
  2679   864   883    2
  2680   864   882    1
  2681   909   910   ar
  2682   909   915   ar
  2683   910   913   ar
  2684  1234  1213    2
  2685  1233  1213    1
  2686   915   904    1
  2687   915   914   ar
  2688   904   899    1
  2689   904   902    1
  2690   913   914   ar
  2691   914   920    1
  2692   870   895    1
  2693   899   898    1
  2694  1216  1241    1
  2695  1216  1217    1
  2696  1213  1188    1
  2697  1239  1220    1
  2698  1235  1221    1
  2699  1220  1221    1
  2700  1220  1222    1
  2701   903   902    1
  2702   903   918    1
  2703   897   895    1
  2704   897   896    1
  2705  1237  1231    1
  2706   902   922    1
  2707   902   900    1
  2708   926   898    1
  2709  1231  1230   ar
  2710  1231  1232   ar
  2711  1230  1227   ar
  2712   898   896    1
  2713   898   900    1
  2714  1244  1229    1
  2715   895   917    2
  2716   895   916    1
  2717  1217  1222    1
  2718  1232  1222    1
  2719  1232  1226   ar
  2720  1201  1182    2
  2721  1229  1243    1
  2722  1229  1228    1
  2723  1227  1228   ar
  2724  1227  1226   ar
  2725  1222  1238    1
  2726  1188  1187    1
  2727   953   938    1
  2728  1200  1182    1
  2729  1228  1223   ar
  2730  1226  1225   ar
  2731   896   928    1
  2732   896   927    1
  2733  1207  1187    1
  2734   900   924    1
  2735   900   901    1
  2736  1223  1224   ar
  2737  1225  1224   ar
  2738  1182  1184    1
  2739  1182  1157    1
  2740   941   940    2
  2741   933   938    1
  2742   933   932    1
  2743  1224  1236    1
  2744  1184  1183    1
  2745   938   939    1
  2746   938   936    1
  2747  1187  1189    1
  2748  1187  1185    1
  2749   940   939   ar
  2750   940   942   ar
  2751   950   942    1
  2752   939   946   ar
  2753  1206  1189    1
  2754   942   943   ar
  2755  1212  1183    1
  2756   946   952    1
  2757   946   945   ar
  2758   943   945   ar
  2759   943   944    2
  2760  1203  1198    1
  2761  1209  1197    1
  2762   945   951    1
  2763   901   929    1
  2764  1202  1190    1
  2765   957   930    1
  2766  1189  1190    1
  2767  1189  1191    1
  2768  1197  1211    1
  2769  1197  1196    1
  2770  1198  1196   ar
  2771  1198  1199   ar
  2772  1169  1151    2
  2773  1183  1185    1
  2774  1183  1210    1
  2775   956   932    1
  2776   937   936    1
  2777   937   949    1
  2778  1204  1199    1
  2779  1196  1195   ar
  2780   932   930    1
  2781   932   934    1
  2782  1199  1192   ar
  2783  1185  1208    1
  2784  1185  1186    1
  2785  1181  1152    1
  2786   936   954    1
  2787   936   934    1
  2788  1179  1152    1
  2789  1157  1156    1
  2790   930   931    1
  2791   930   958    1
  2792  1195  1193   ar
  2793  1192  1193   ar
  2794  1192  1191    1
  2795  1176  1156    1
  2796  1152  1153    1
  2797  1152  1154    1
  2798  1193  1194    2
  2799  1191  1186    1
  2800  1191  1205    1
  2801   931   929    1
  2802  1170  1151    1
  2803  1151  1153    1
  2804  1151  1124    1
  2805   929   948    2
  2806   929   947    1
  2807   934   955    1
  2808   934   935    1
  2809  1156  1154    1
  2810  1156  1158    1
  2811   987   971    1
  2812   989   971    1
  2813   971   970    1
  2814   983   969    1
  2815  1154  1177    1
  2816  1154  1155    1
  2817   970   969   ar
  2818   970   972   ar
  2819   969   975   ar
  2820   972   973   ar
  2821   935   959    1
  2822   985   968    1
  2823  1124  1123    1
  2824   975   976    2
  2825   975   974   ar
  2826  1175  1158    1
  2827   963   968    1
  2828   963   962    1
  2829   973   974   ar
  2830   973   979   ar
  2831  1158  1159    1
  2832  1158  1160    1
  2833  1171  1159    1
  2834   991   960    1
  2835   974   977   ar
  2836  1173  1168    1
  2837  1145  1123    1
  2838   979   968    1
  2839   979   978   ar
  2840   968   966    1
  2841  1172  1167    1
  2842   977   978   ar
  2843  1150  1119    1
  2844  1155  1160    1
  2845   978   984    1
  2846  1168  1167   ar
  2847  1168  1161   ar
  2848  1123  1125    1
  2849  1123  1121    1
  2850  1167  1165   ar
  2851   990   962    1
  2852   960   962    1
  2853   960   961    1
  2854   960   992    1
  2855   962   964    1
  2856  1160  1161    1
  2857  1160  1174    1
  2858  1144  1125    1
  2859  1161  1162   ar
  2860  1178  1166    1
  2861  1140  1126    1
  2862   961   959    1
  2863   959   981    2
  2864   959   980    1
  2865  1165  1166    1
  2866  1165  1164   ar
  2867  1119  1147    1
  2868  1119  1121    1
  2869  1119  1120    1
  2870  1166  1180    1
  2871  1125  1126    1
  2872  1125  1127    1
  2873  1142  1136    1
  2874  1162  1164   ar
  2875  1162  1163    2
  2876   967   966    1
  2877   967   982    1
  2878   966   964    1
  2879   966   986    1
  2880  1121  1146    1
  2881  1121  1122    1
  2882  1136  1135   ar
  2883  1136  1137   ar
  2884  1135  1132   ar
  2885   964   988    1
  2886   964   965    1
  2887  1120  1118    1
  2888  1008  1007    2
  2889  1149  1134    1
  2890  1137  1127    1
  2891  1137  1131   ar
  2892  1127  1122    1
  2893  1127  1143    1
  2894  1132  1131   ar
  2895  1132  1133   ar
  2896  1139  1118    2
  2897  1134  1133    1
  2898  1134  1148    1
  2899   965   993    1
  2900  1131  1130   ar
  2901  1007  1009   ar
  2902  1007  1006   ar
  2903  1015  1009    1
  2904  1133  1128   ar
  2905  1118  1138    1
  2906  1118  1091    1
  2907  1009  1010   ar
  2908  1014  1006    1
  2909  1112  1090    1
  2910  1006  1004   ar
  2911  1114  1086    1
  2912  1106  1085    2
  2913  1130  1129   ar
  2914  1128  1129   ar
  2915  1010  1016    1
  2916  1010  1003   ar
  2917  1107  1093    1
  2918  1129  1141    1
  2919  1117  1086    1
  2920  1004  1003   ar
  2921  1004  1005    2
  2922  1090  1091    1
  2923  1090  1092    1
  2924  1090  1088    1
  2925  1111  1092    1
  2926  1086  1088    1
  2927  1086  1087    1
  2928  1083  1052    1
  2929   993  1012    2
  2930   993  1011    1
  2931   993   995    1
  2932  1022   994    1
  2933  1003  1002    1
  2934  1093  1092    1
  2935   997  1002    1
  2936   997   996    1
  2937  1092  1094    1
  2938  1072  1051    2
  2939  1085  1057    1
  2940  1085  1087    1
  2941  1085  1105    1
  2942  1017  1002    1
  2943  1057  1056    1
  2944  1088  1113    1
  2945  1088  1089    1
  2946  1002  1000    1
  2947   995   994    1
  2948   994  1021    1
  2949   994   996    1
  2950  1052  1084    1
  2951  1052  1053    1
  2952  1052  1054    1
  2953  1053  1051    1
  2954   996  1020    1
  2955   996   998    1
  2956  1080  1056    1
  2957  1082  1054    1
  2958  1051  1073    1
  2959  1051  1028    1
  2960  1056  1054    1
  2961  1056  1058    1
  2962  1054  1055    1
  2963  1094  1089    1
  2964  1094  1104    1
  2965  1094  1110    1
  2966  1019   998    1
  2967  1000   998    1
  2968  1000  1018    1
  2969  1000  1001    1
  2970  1109  1103    1
  2971  1104  1103   ar
  2972  1104  1098   ar
  2973   998   999    1
  2974  1103  1102   ar
  2975  1097  1098   ar
  2976  1097  1096   ar
  2977  1098  1099   ar
  2978  1028  1027    1
  2979  1102  1099   ar
  2980  1001  1013    1
  2981  1099  1100   ar
  2982  1096  1108    1
  2983  1096  1095   ar
  2984  1058  1059    1
  2985  1058  1078    1
  2986  1058  1060    1
  2987  1059  1074    1
  2988  1050  1023    1
  2989  1055  1060    1
  2990  1100  1095   ar
  2991  1100  1101    1
  2992  1045  1027    1
  2993  1101  1116    1
  2994  1101  1115    1
  2995  1027  1025    1
  2996  1027  1029    1
  2997  1060  1071    1
  2998  1060  1077    1
  2999  1023  1024    1
  3000  1023  1048    1
  3001  1023  1025    1
  3002  1040  1030    1
  3003  1071  1065   ar
  3004  1071  1070   ar
  3005  1081  1063    1
  3006  1064  1065   ar
  3007  1064  1062   ar
  3008  1046  1025    1
  3009  1076  1070    1
  3010  1025  1026    1
  3011  1065  1066   ar
  3012  1070  1069   ar
  3013  1063  1062    1
  3014  1063  1079    1
  3015  1062  1061   ar
  3016  1044  1029    1
  3017  1029  1030    1
  3018  1029  1031    1
  3019  1066  1069   ar
  3020  1066  1067   ar
  3021  1061  1067   ar
  3022  1061  1075    1
  3023  1067  1068    2
  3024  1026  1031    1
  3025  1031  1032    1
  3026  1031  1043    1
  3027  1042  1039    1
  3028  1039  1032   ar
  3029  1039  1038   ar
  3030  1032  1033   ar
  3031  1041  1038    1
  3032  1038  1036   ar
  3033  1033  1034    2
  3034  1033  1035   ar
  3035  1036  1035   ar
  3036  1036  1037    1
  3037  1047  1037    1
  3038  1037  1049    1
