ligand
  PyMOL2.2          3D                             0

 14 13  0  0  0  0  0  0  0  0999 V2000
   46.0640   -1.0490   16.4720 N   0  0  0  0  0  0  0  0  0  0  0  0
   45.2210    0.1290   16.7700 C   0  0  0  0  0  0  0  0  0  0  0  0
   45.9480    1.1110   17.7140 C   0  0  0  0  0  0  0  0  0  0  0  0
   45.1660    2.3980   18.0240 C   0  0  0  0  0  0  0  0  0  0  0  0
   46.0340    3.4010   18.7000 N   0  0  0  0  0  0  0  0  0  0  0  0
   46.1880    4.6060   17.8450 C   0  0  0  0  0  0  0  0  0  0  0  0
   46.5800    5.9230   18.5960 C   0  0  0  0  0  0  0  0  0  0  0  0
   47.0370    7.0770   17.6580 C   0  0  0  0  0  0  0  0  0  0  0  0
   47.3220    8.3800   18.3790 C   0  0  0  0  0  0  0  0  0  0  0  0
   46.8110    9.4590   17.5550 N   0  0  0  0  0  0  0  0  0  0  0  0
   45.4130    9.6100   17.9190 C   0  0  0  0  0  0  0  0  0  0  0  0
   44.8940   11.0010   17.5740 C   0  0  0  0  0  0  0  0  0  0  0  0
   43.4440   11.0930   18.0730 C   0  0  0  0  0  0  0  0  0  0  0  0
   42.8420   12.4050   17.7920 N   0  0  0  0  0  0  0  0  0  0  0  0
  1  2  1  0  0  0  0
  2  3  1  0  0  0  0
  3  4  1  0  0  0  0
  4  5  1  0  0  0  0
  5  6  1  0  0  0  0
  6  7  1  0  0  0  0
  7  8  1  0  0  0  0
  8  9  1  0  0  0  0
  9 10  1  0  0  0  0
 10 11  1  0  0  0  0
 11 12  1  0  0  0  0
 12 13  1  0  0  0  0
 13 14  1  0  0  0  0
M  END
$$$$
